#------------------------------------------------------------------------------
#$Date: 2018-10-25 05:49:15 +0300 (Thu, 25 Oct 2018) $
#$Revision: 211630 $
#$URL: file:///home/coder/svn-repositories/cod/cif/2/02/13/2021317.cif $
#------------------------------------------------------------------------------
#
# This file is available in the Crystallography Open Database (COD),
# http://www.crystallography.net/. The original data for this entry
# were provided by IUCr Journals, http://journals.iucr.org/.
#
# The file may be used within the scientific community so long as
# proper attribution is given to the journal article from which the
# data were obtained.
#
data_2021317
loop_
_publ_author_name
'Marek, Paulina H.'
'Urban, Mateusz'
'Madura, Izabela D.'
_publ_section_title
;
 The study of interactions with a halogen atom: influence of NH~2~ group
 insertion on the crystal structures of <i>meta</i>-bromonitrobenzene
 derivatives
;
_journal_coeditor_code           YP3165
_journal_issue                   11
_journal_name_full               'Acta Crystallographica Section C'
_journal_page_first
;
;
_journal_paper_doi               10.1107/S2053229618013608
_journal_volume                  74
_journal_year                    2018
_chemical_formula_iupac          'C6 H5 Br N2 O2'
_chemical_formula_moiety         'C6 H5 Br N2 O2'
_chemical_formula_sum            'C6 H5 Br N2 O2'
_chemical_formula_weight         217.03
_chemical_name_common            2-bromo-6-nitroaniline
_chemical_name_systematic        2-Bromo-6-nitroaniline
_space_group_crystal_system      monoclinic
_space_group_IT_number           14
_space_group_name_Hall           '-P 2yn'
_space_group_name_H-M_alt        'P 1 21/n 1'
_symmetry_space_group_name_Hall  '-P 2yn'
_symmetry_space_group_name_H-M   'P 1 21/n 1'
_atom_sites_solution_hydrogens   mixed
_atom_sites_solution_primary     dual
_audit_creation_method
;
Olex2 1.2-beta
(compiled 2018.05.29 svn.r3508 for OlexSys, GUI svn.r5506)
;
_cell_angle_alpha                90
_cell_angle_beta                 94.635(2)
_cell_angle_gamma                90
_cell_formula_units_Z            4
_cell_length_a                   4.4477(2)
_cell_length_b                   11.4469(4)
_cell_length_c                   13.8244(5)
_cell_measurement_reflns_used    5872
_cell_measurement_temperature    130.0
_cell_measurement_theta_max      30.380
_cell_measurement_theta_min      2.313
_cell_volume                     701.53(5)
_computing_cell_refinement
;
SAINT (Bruker, 2016)
;
_computing_data_collection
;
APEX3 (Bruker, 2016)
;
_computing_data_reduction
;
SAINT (Bruker, 2016)
;
_computing_molecular_graphics
;
<i>Mercury CSD</i> (Macrae <i>et al.</i>, 2008) and
<i>ORTEP-3 for Windows</i> (Farrugia, 2012)
;
_computing_publication_material
;
OLEX2 (Dolomanov <i>et al.</i>,  2009) and publCIF (Westrip,
2010)
;
_computing_structure_refinement
;
SHELXL (Sheldrick, 2015<i>a</i>)
;
_computing_structure_solution
;
<i>SHELXT</i> (Sheldrick, 2015<i>b</i>)
;
_diffrn_ambient_temperature      130.0
_diffrn_measured_fraction_theta_full 0.999
_diffrn_measured_fraction_theta_max 1.000
_diffrn_measurement_device_type  'Bruker D8 Venture Photon II '
_diffrn_measurement_method       '\f and \w scans'
_diffrn_radiation_type           Mo-K\a
_diffrn_radiation_wavelength     0.71073
_diffrn_reflns_av_R_equivalents  0.0347
_diffrn_reflns_av_unetI/netI     0.0250
_diffrn_reflns_limit_h_max       6
_diffrn_reflns_limit_h_min       -6
_diffrn_reflns_limit_k_max       16
_diffrn_reflns_limit_k_min       -16
_diffrn_reflns_limit_l_max       19
_diffrn_reflns_limit_l_min       -16
_diffrn_reflns_number            14025
_diffrn_reflns_theta_full        25.242
_diffrn_reflns_theta_max         30.575
_diffrn_reflns_theta_min         2.313
_diffrn_standards_number         0
_exptl_absorpt_coefficient_mu    5.802
_exptl_absorpt_correction_T_max  0.7461
_exptl_absorpt_correction_T_min  0.5224
_exptl_absorpt_correction_type   multi-scan
_exptl_absorpt_process_details
;
(SADABS; Krause <i>et al.</i>, 2015)
;
_exptl_crystal_colour            yellow
_exptl_crystal_density_diffrn    2.055
_exptl_crystal_description       needle
_exptl_crystal_F_000             424
_exptl_crystal_size_max          0.42
_exptl_crystal_size_mid          0.30
_exptl_crystal_size_min          0.25
_refine_diff_density_max         0.535
_refine_diff_density_min         -0.460
_refine_ls_extinction_method     none
_refine_ls_goodness_of_fit_ref   1.038
_refine_ls_hydrogen_treatment    mixed
_refine_ls_matrix_type           full
_refine_ls_number_parameters     108
_refine_ls_number_reflns         2162
_refine_ls_number_restraints     2
_refine_ls_restrained_S_all      1.038
_refine_ls_R_factor_all          0.0335
_refine_ls_R_factor_gt           0.0230
_refine_ls_shift/su_max          0.001
_refine_ls_shift/su_mean         0.000
_refine_ls_structure_factor_coef Fsqd
_refine_ls_weighting_details
'w=1/[\s^2^(Fo^2^)+(0.0164P)^2^+0.5734P] where P=(Fo^2^+2Fc^2^)/3'
_refine_ls_weighting_scheme      calc
_refine_ls_wR_factor_gt          0.0464
_refine_ls_wR_factor_ref         0.0504
_reflns_number_gt                1813
_reflns_number_total             2162
_reflns_threshold_expression     'I > 2\s(I)'
_cod_data_source_file            yp3165sup1.cif
_cod_data_source_block           2
_cod_database_code               2021317
_shelx_space_group_comment
;
The symmetry employed for this shelxl refinement is uniquely defined
by the following loop, which should always be used as a source of
symmetry information in preference to the above space-group names.
They are only intended as comments.
;
_shelx_estimated_absorpt_t_min   0.194
_shelx_estimated_absorpt_t_max   0.325
_shelx_hkl_file
;
  -1   0   0    1.00    1.70
  -1   0   0    2.10    2.30
   1   0   0    1.00    1.90
   1   0   0    5.00    2.00
   1   0   0    4.60    2.00
   1   0   0    2.40    2.30
  -1   0   0    0.80    1.70
  -1   0   0    0.10    1.90
   2   0   0 4657.03  108.49
   2   0   0 4792.32  106.39
  -2   0   0 4814.62  107.69
  -2   0   0 4702.23  106.99
  -2   0   0 4744.73  106.39
  -2   0   0 4740.63  108.49
   2   0   0 4727.03  107.49
   2   0   0 4739.23  106.99
   3   0   0   -3.50    3.70
   3   0   0   -0.90    3.90
  -3   0   0    0.50    4.50
  -3   0   0   -4.50    3.20
  -3   0   0    2.60    5.00
   3   0   0   -5.30    5.50
   3   0   0    6.40    4.30
  -4   0   0 1157.08   36.60
  -4   0   0 1072.29   34.30
   4   0   0 1102.09   34.30
   4   0   0 1073.79   35.80
   4   0   0 1125.69   39.50
   4   0   0 1140.69   36.20
   5   0   0   -4.00    7.10
   5   0   0   -2.60    6.90
   5   0   0    1.60   10.70
  -5   0   0   -2.60    7.50
   6   0   0  247.28   26.50
  -1  -1   0  440.46   13.20
  -1  -1   0  453.35   14.30
  -1  -1   0  460.15   11.70
   1  -1   0  462.45   13.90
   1  -1   0  457.55   11.50
   1  -1   0  450.35   13.50
   1  -1   0  456.05   13.20
   1   1   0  461.75   14.30
   1   1   0  455.65   12.80
  -1   1   0  458.15   13.70
   1   1   0  449.46   11.60
   1   1   0  427.46   13.20
  -1   1   0  457.15   13.30
  -1   1   0  456.15   13.40
  -2  -1   0    4.90    3.30
   2  -1   0    3.70    4.40
  -2  -1   0    2.70    4.00
   2  -1   0    4.00    3.60
  -2  -1   0    3.50    3.70
  -2  -1   0    4.30    2.50
   2  -1   0    1.00    2.60
   2   1   0    2.00    3.10
  -2   1   0    3.80    3.70
   2   1   0    4.80    3.80
   2   1   0    0.50    2.20
  -2   1   0    2.90    3.20
   2   1   0    4.10    3.90
  -2   1   0    9.50    3.90
   3  -1   0  332.87   14.20
   3  -1   0  358.86   15.80
  -3  -1   0  338.37   16.80
   3  -1   0  313.97   15.00
  -3   1   0  366.96   15.70
   3   1   0  347.27   13.80
   3   1   0  341.57   16.70
  -3   1   0  322.07   15.60
  -3   1   0  338.47   16.80
   3   1   0  317.47   17.10
   3   1   0  339.37   15.10
   4  -1   0    5.20    8.20
   4  -1   0   11.80    7.80
   4  -1   0   -1.90    4.60
   4  -1   0    2.30    5.30
  -4  -1   0   -5.00    4.60
   4   1   0   -5.70    5.30
  -4   1   0    2.70    6.10
   4   1   0    6.70    8.50
   4   1   0    0.70    5.90
   4   1   0    9.20    5.40
  -4   1   0    2.80    6.70
   5  -1   0  214.88   22.10
   5  -1   0  135.29   13.90
  -5  -1   0  183.38   15.00
   5  -1   0  195.18   16.70
  -5   1   0  207.38   18.20
   5   1   0  215.28   21.50
   5   1   0  150.28   16.50
   6  -1   0    2.20    9.00
   6  -1   0    0.20   13.30
   6   1   0    4.30   12.50
   0  -2   0 3784.82   84.89
   0  -2   0 3818.72   84.19
   0  -2   0 3924.41   84.09
   0   2   0 3737.63   84.59
   0   2   0 3815.72   83.99
   0   2   0 3818.12   84.09
  -1  -2   0   13.70    3.80
   1  -2   0    8.70    3.40
   1  -2   0   11.60    3.00
   1  -2   0   14.20    3.50
  -1  -2   0   12.60    3.00
  -1   2   0   12.80    3.30
  -1   2   0   16.00    3.40
   1   2   0    9.60    3.50
  -1   2   0   18.30    3.70
   1   2   0   19.90    3.50
   1   2   0    9.90    2.70
   2  -2   0 4270.37  100.49
  -2  -2   0 4402.26  102.09
  -2  -2   0 4321.37   99.69
  -2  -2   0 4233.48   95.59
   2  -2   0 4280.67   95.09
   2  -2   0 4375.56  100.09
   2  -2   0 4303.07   99.09
   2   2   0 4299.67   98.59
   2   2   0 4369.86  101.79
  -2   2   0 4414.76  100.59
   2   2   0 4317.97   99.89
  -2   2   0 4284.27  100.09
  -2   2   0 4302.27   99.29
  -3  -2   0  177.68   12.70
  -3  -2   0  195.88    9.50
   3  -2   0  182.68   13.80
   3  -2   0  185.18    9.30
   3  -2   0  188.68   11.70
   3  -2   0  192.08   12.90
   3   2   0  174.68   11.00
  -3   2   0  178.78   12.10
  -3   2   0  199.58   12.80
   3   2   0  189.48   13.60
  -3   2   0  174.68   12.30
   3   2   0  173.88   13.00
   4  -2   0  521.65   23.40
   4  -2   0  529.15   23.90
  -4  -2   0  518.05   19.20
   4  -2   0  506.35   26.20
   4   2   0  504.95   22.00
  -4   2   0  563.44   24.10
   4   2   0  535.35   25.60
   5  -2   0    0.80    5.00
   5  -2   0    3.10   10.70
  -5  -2   0   -3.50    6.20
   5  -2   0    3.00    9.10
  -5   2   0  -11.30    7.60
   5   2   0    1.80   10.50
   6  -2   0   88.59   14.80
   6  -2   0  114.69   21.10
   6   2   0   92.69   18.40
   6   2   0   90.29   18.40
   0  -3   0    2.90    2.60
   0  -3   0   -0.30    2.80
   0  -3   0    0.00    2.40
   0   3   0    0.00    2.50
   0   3   0   -0.70    2.50
   0   3   0    3.80    3.10
   1  -3   0 2666.93   64.59
  -1  -3   0 2797.32   66.79
   1  -3   0 2758.82   64.59
   1  -3   0 2783.62   65.39
  -1  -3   0 2798.22   63.99
  -1  -3   0 2767.32   63.99
   1  -3   0 2785.72   65.39
  -1   3   0 2767.32   65.19
   1   3   0 2767.62   66.49
   1   3   0 2737.33   63.89
   1   3   0 2761.42   63.99
  -1   3   0 2682.73   64.49
   2  -3   0  899.21   28.00
  -2  -3   0  883.11   26.70
  -2  -3   0  887.41   22.40
   2  -3   0  894.51   26.80
   2  -3   0  907.61   28.00
  -2  -3   0  954.10   30.30
   2   3   0  863.41   25.30
   2   3   0  880.21   26.90
   2   3   0  887.31   26.90
  -2   3   0  856.11   26.70
  -2   3   0  879.71   27.40
  -2   3   0  928.51   27.80
   2   3   0  893.41   29.20
   3  -3   0  169.38   14.10
   3  -3   0  187.28   13.80
  -3  -3   0  153.18   11.70
   3  -3   0  167.68   11.90
   3  -3   0  167.08    7.10
  -3  -3   0  174.28    8.70
  -3   3   0  174.78   13.00
   3   3   0  168.78   13.50
  -3   3   0  180.58   12.60
  -3   3   0  197.18   19.70
   3   3   0  178.08   13.20
   3   3   0  166.18   11.10
   4  -3   0   16.80    9.10
  -4  -3   0    8.90    4.60
   4  -3   0    4.70    8.30
   4  -3   0    5.20    3.50
  -4   3   0   -1.60    6.20
   4   3   0    5.60    8.00
  -4   3   0    5.30    7.00
   4   3   0   -6.00    6.20
   4   3   0   -7.50    5.10
   5  -3   0   72.49   15.40
   5  -3   0   69.69   13.00
   5  -3   0   62.59    6.60
  -5  -3   0   56.09    8.50
  -5   3   0   79.09   13.20
   5   3   0   86.19   15.80
   5   3   0   86.09   15.70
   6  -3   0   28.40   15.80
  -6   3   0   27.10   11.40
   6   3   0    9.30   13.30
   6   3   0   33.10   14.90
   0  -4   0 5107.39  116.59
   0  -4   0 5126.99  114.69
   0  -4   0 5116.09  115.19
   0   4   0 5186.48  115.99
   0   4   0 5115.39  114.59
   0   4   0 5073.39  114.79
   1  -4   0   63.49    7.00
  -1  -4   0   44.20    6.60
  -1  -4   0   52.59    4.60
   1  -4   0   57.99    6.90
  -1  -4   0   59.09    6.20
  -1  -4   0   56.39    6.00
   1  -4   0   58.69    7.00
  -1   4   0   58.89    3.60
  -1   4   0   63.99    6.80
   1   4   0   59.19    6.20
   2  -4   0 3651.83   88.69
   2  -4   0 3630.14   87.59
   2  -4   0 3688.13   89.29
  -2  -4   0 3644.54   91.39
   2  -4   0 3680.23   89.29
  -2  -4   0 3607.84   81.59
  -2  -4   0 3662.73   87.19
   2   4   0 3718.33   87.39
   2   4   0 3706.73   91.09
  -2   4   0 3627.44   88.59
  -2   4   0 3710.33   88.09
   2   4   0 3803.02   87.59
   3  -4   0  444.86   21.40
  -3  -4   0  398.76   18.80
   3  -4   0  392.66   18.80
   3  -4   0  410.86   20.70
  -3  -4   0  422.66   13.60
  -3   4   0  409.56   19.70
  -3   4   0  389.56   19.80
   3   4   0  438.86   21.90
   3   4   0  449.46   20.30
   3   4   0  400.16   17.40
   3   4   0  445.96   20.10
  -3   4   0  407.16   19.60
   4  -4   0  715.33   32.10
  -4  -4   0  667.63   20.80
   4  -4   0  701.03   29.70
   4   4   0  697.53   29.80
   4   4   0  636.14   26.10
  -4   4   0  659.33   28.30
   4   4   0  731.23   30.20
   5  -4   0  109.99   16.30
   5  -4   0   84.59   25.40
  -5  -4   0   90.59    8.90
  -5   4   0  115.39   16.10
   5   4   0  123.99   17.60
   5   4   0   88.19   15.10
   6  -4   0   70.89   15.40
   6  -4   0   81.89   18.70
  -6   4   0   93.69   16.20
   6   4   0  110.99   19.40
   6   4   0   66.39   15.80
   0  -5   0    1.40    3.80
   0  -5   0    2.10    3.90
   0  -5   0    2.00    3.60
   0   5   0    0.70    4.00
   0   5   0   -2.00    3.10
   0   5   0   -1.90    3.30
  -1  -5   0   23.20    5.10
   1  -5   0   19.50    5.10
  -1  -5   0   12.90    5.50
  -1  -5   0   19.70    5.00
   1  -5   0   19.10    5.70
  -1  -5   0   14.30    3.70
   1   5   0   25.40    5.70
   1   5   0   21.00    5.10
  -1   5   0   28.80    5.70
  -1   5   0   18.00    2.90
  -1   5   0   16.50    5.40
   2  -5   0  126.69   11.10
  -2  -5   0  158.78   10.50
   2  -5   0  133.99   10.60
   2  -5   0  142.69   12.40
  -2  -5   0  158.98   14.20
   2  -5   0  134.79   11.90
   2   5   0  126.59   12.20
  -2   5   0  131.99   11.30
   2   5   0  139.69   10.70
   2   5   0  134.29   10.70
  -2   5   0  133.69   11.00
  -3  -5   0  138.69    7.00
  -3  -5   0  129.99   12.20
   3  -5   0  132.69   12.90
   3  -5   0  128.99   11.80
   3  -5   0  145.69   14.50
   3  -5   0  129.59   14.10
  -3   5   0  127.69   12.70
   3   5   0  126.79   10.90
  -3   5   0  146.39   12.80
   3   5   0  133.39   12.90
   3   5   0  130.99   14.30
   4  -5   0  200.18   20.10
  -4  -5   0  147.49    8.10
   4  -5   0  171.48   18.20
   4   5   0  151.98   16.40
   4   5   0  166.98   16.90
  -4   5   0  161.58   16.80
   5  -5   0   37.10   12.60
   5  -5   0   11.20   12.90
   5   5   0   29.80   12.60
  -5   5   0   22.40   12.30
   5   5   0   36.30   12.50
   6  -5   0    6.70   14.70
   6  -5   0   -2.80   12.20
   6   5   0    4.80   12.00
  -6   5   0    8.90   12.50
   6   5   0   -2.50   11.10
   0  -6   0  744.93   24.00
   0  -6   0  754.32   25.80
   0  -6   0  722.43   24.40
   0   6   0  712.93   23.40
   0   6   0  744.03   25.10
   0   6   0  758.72   26.70
  -1  -6   0 2721.53   62.79
   1  -6   0 2642.04   67.09
   1  -6   0 2747.33   67.39
  -1  -6   0 2557.34   68.39
  -1  -6   0 2626.34   66.59
  -1  -6   0 2605.54   65.49
  -1   6   0 2550.44   66.09
  -1   6   0 2675.93   67.19
   1   6   0 2598.24   67.79
   1   6   0 2488.35   65.29
  -1   6   0 2633.44   66.79
  -1   6   0 2598.84   61.09
  -2  -6   0  260.77   18.90
  -2  -6   0  229.98   13.50
  -2  -6   0  275.57   10.50
   2  -6   0  232.38   18.30
   2  -6   0  256.27   15.40
   2  -6   0  261.87   16.20
  -2   6   0  240.98   15.10
   2   6   0  241.58   16.30
   2   6   0  247.68   14.30
  -3  -6   0  600.94   25.20
   3  -6   0  602.44   25.60
  -3  -6   0  600.44   16.70
   3  -6   0  572.64   27.60
   3  -6   0  587.74   27.40
  -3   6   0  607.14   26.70
   3   6   0  602.54   32.30
   3   6   0  622.94   25.60
  -3   6   0  604.04   26.30
   3   6   0  561.94   22.80
   3   6   0  595.44   25.30
  -4  -6   0  115.69    5.70
   4  -6   0  104.59   15.50
   4  -6   0  121.99   16.40
  -4   6   0  120.39   15.00
   4   6   0  126.09   15.60
   4   6   0  121.79   15.50
   5  -6   0  267.87   25.70
   5  -6   0  272.17   28.40
  -5   6   0  302.87   24.80
   5   6   0  255.17   22.90
   0  -7   0    3.90    5.40
   0  -7   0    5.20    4.40
   0   7   0   -1.40    3.70
   0   7   0    7.90    5.90
   0   7   0   -6.10    3.60
   1  -7   0   51.29    9.20
  -1  -7   0   47.40    8.20
  -1  -7   0   61.89   10.50
  -1  -7   0   72.19    9.70
  -1  -7   0   44.70    6.40
   1  -7   0   61.19    8.60
   1   7   0   69.09    9.40
  -1   7   0   70.99    9.70
  -1   7   0   52.89    6.20
   1   7   0   74.49    9.10
  -1   7   0   60.39    9.10
  -1   7   0   71.89    9.50
   2  -7   0  128.39   13.00
   2  -7   0  149.39   14.80
   2  -7   0  163.18   14.60
  -2  -7   0  144.19    8.70
  -2  -7   0  141.39   11.80
   2   7   0  156.38   14.50
   2   7   0  158.48   12.60
  -2   7   0  141.89   13.10
  -2   7   0  150.58   14.20
  -3  -7   0  204.18    8.60
  -3  -7   0  198.98    8.30
  -3  -7   0  188.38   14.80
   3  -7   0  232.58   19.10
   3  -7   0  219.28   19.00
   3   7   0  211.28   16.30
  -3   7   0  225.18   17.70
   3   7   0  236.28   17.00
   4  -7   0   89.89   16.70
   4  -7   0  120.19   18.00
   4   7   0  152.28   17.60
  -4   7   0  142.69   17.20
   4   7   0  135.39   16.20
   5  -7   0    5.80   13.60
   5  -7   0    5.30   14.50
   5   7   0    2.10   10.10
   5   7   0   -1.70   10.10
  -5   7   0   17.60   12.10
   0  -8   0  654.53   24.40
   0  -8   0  632.64   25.80
   0   8   0  625.94   23.50
   0   8   0  651.13   24.20
   0   8   0  607.54   24.80
  -1  -8   0 2064.29   51.99
  -1  -8   0 1800.62   55.79
  -1  -8   0 1899.01   54.89
   1  -8   0 2126.19   57.49
   1  -8   0 1900.01   55.89
  -1   8   0 2083.89   51.09
   1   8   0 1978.70   57.19
  -1   8   0 1974.90   55.59
   1   8   0 2088.69   55.99
  -1   8   0 2037.10   56.79
  -1   8   0 1992.80   56.59
   2  -8   0  409.86   22.40
  -2  -8   0  342.67   18.70
  -2  -8   0  348.87   14.20
  -2  -8   0  333.07   18.00
   2  -8   0  345.87   19.90
   2  -8   0  387.16   23.10
   2   8   0  326.17   20.80
  -2   8   0  329.57   20.20
   2   8   0  343.87   19.10
  -2   8   0  335.97   19.20
   3  -8   0  805.82   34.60
  -3  -8   0  746.13   20.50
  -3  -8   0  772.52   20.90
  -3  -8   0  698.03   33.40
   3  -8   0  764.82   35.20
   3   8   0  791.72   31.20
  -3   8   0  768.52   33.20
   4  -8   0  204.28   22.70
   4  -8   0  186.08   21.40
  -4   8   0  206.58   21.30
   4   8   0  236.08   20.10
   4   8   0  251.77   20.70
   5  -8   0   70.29   19.30
   5  -8   0   74.09   19.50
  -5   8   0   72.59   17.40
   5   8   0   79.89   17.20
   0  -9   0    0.10    7.00
   0  -9   0    8.50    5.90
   0   9   0    2.80    5.10
   0   9   0   -1.20    6.30
   1  -9   0   84.59   11.40
  -1  -9   0   50.29   10.00
   1  -9   0   63.99   11.30
  -1  -9   0   72.49    9.40
  -1  -9   0   67.59   10.80
   1   9   0   56.79    9.50
  -1   9   0   58.19   10.40
  -1   9   0   85.99   12.50
  -1   9   0   64.89   10.20
  -1   9   0   59.29    7.50
   1   9   0   79.59   11.20
   2  -9   0   27.30   11.10
  -2  -9   0   29.90    7.90
  -2  -9   0   35.10    6.60
   2  -9   0   36.00   11.70
  -2   9   0   15.40    8.70
   2   9   0   23.40    8.20
  -2   9   0   34.30    3.40
   3  -9   0   33.20   12.50
  -3  -9   0   37.40    4.80
  -3  -9   0   34.50    4.60
   3  -9   0   36.50   13.50
  -3   9   0   26.30   11.10
   3   9   0   28.10    9.20
   4  -9   0   55.79   20.10
   4  -9   0   57.19   28.30
   4   9   0   71.79   13.00
   5  -9   0   -3.60   14.00
   5  -9   0   -5.50   15.30
  -5   9   0   25.90   14.50
   5   9   0   -2.50    9.60
   0 -10   0   31.40    7.60
   0 -10   0   19.20    8.50
   0  10   0   21.60    8.20
   0  10   0   28.70    7.50
   1 -10   0 2491.55   69.99
  -1 -10   0 2409.26   68.59
   1 -10   0 2403.66   69.39
  -1 -10   0 2261.47   68.79
  -1 -10   0 2467.05   64.29
  -1  10   0 2510.45   70.19
  -1  10   0 2505.55   63.29
   1  10   0 2316.17   69.29
   1  10   0 2560.44   68.29
  -1  10   0 2434.36   69.29
   2 -10   0  107.99   15.10
  -2 -10   0  124.69   11.30
  -2 -10   0   97.09   13.70
   2 -10   0   94.39   15.90
  -2 -10   0   82.09   12.30
   2  10   0   97.19   13.40
  -2  10   0  123.99   16.50
  -2  10   0   92.79    6.30
   3 -10   0  562.64   32.00
  -3 -10   0  537.05   17.30
  -3 -10   0  562.84   17.30
   3 -10   0  538.65   32.20
   3  10   0  578.34   28.50
  -3  10   0  567.24   31.20
   4 -10   0   13.10   14.30
   4 -10   0    2.80   13.40
   4  10   0   -6.50    9.40
  -4  10   0    9.90   11.90
   5 -10   0  151.28   23.40
   5 -10   0  178.28   26.80
  -5  10   0  174.18   23.00
   5  10   0  227.68   23.60
   0 -11   0    2.60    8.80
   0 -11   0   13.70    7.50
   0  11   0   -0.90    7.60
   0  11   0    4.80    6.00
  -1 -11   0   46.20    9.70
   1 -11   0   46.90   12.70
  -1 -11   0   38.00   10.00
  -1 -11   0   37.10    9.10
  -1  11   0   32.80    7.10
  -1  11   0   31.90   11.00
   1  11   0   42.40   10.70
  -2 -11   0   15.70   10.30
   2 -11   0   29.60   13.50
  -2 -11   0   14.20    6.90
   2 -11   0   13.80   11.60
  -2  11   0    9.10    4.20
   2  11   0    5.50    7.90
  -2  11   0    4.10   10.70
  -3 -11   0   -1.20    4.30
   3 -11   0    1.70   12.90
  -3 -11   0    1.40    3.90
   3  11   0   -2.10    8.80
   4 -11   0   78.89   20.30
   4 -11   0   91.99   19.80
   4  11   0   80.69   15.00
  -4  11   0   97.19   18.80
   0 -12   0  184.88   19.50
   0  12   0  171.08   16.50
   0  12   0  220.38   19.20
  -1 -12   0  716.83   29.70
   1 -12   0  744.73   35.60
   1  12   0  769.12   32.50
  -1  12   0  720.93   34.60
  -1  12   0  703.83   27.70
  -2 -12   0   -5.70    6.40
   2 -12   0   -4.20   12.10
   2 -12   0    0.00   12.40
  -2  12   0    5.70   11.10
   2  12   0    0.70    8.80
  -2  12   0    4.00    4.30
   3 -12   0  166.58   23.60
  -3 -12   0   91.99    7.90
  -3  12   0  156.08   20.50
   4 -12   0   -8.00   16.40
   4 -12   0    0.60   15.50
   4  12   0   14.30   11.90
  -4  12   0    0.00   13.70
   0 -13   0   -0.30    9.50
   0  13   0   14.40    9.50
   0  13   0    6.50   10.70
   1 -13   0  144.19   20.60
   1 -13   0  217.38   23.60
  -1 -13   0  169.28   17.90
   1  13   0  175.48   18.40
  -1  13   0  127.59   15.40
  -1  13   0  185.28   21.80
   2 -13   0   11.30   14.50
   2 -13   0    6.70   13.30
  -2 -13   0   17.10    8.20
  -2  13   0   19.10   12.70
   2  13   0   10.30   10.20
   3 -13   0  -18.30   12.70
   3 -13   0   23.10   17.10
   3  13   0    6.50    9.50
  -3  13   0    4.40   11.90
   0 -14   0   -9.40    9.50
   0  14   0    9.90   11.20
   0  14   0   -9.90    8.40
   1 -14   0  600.64   49.60
  -1 -14   0  556.34   28.80
   1 -14   0  630.44   34.70
  -1  14   0  524.15   26.70
  -1  14   0  574.44   33.90
   1  14   0  621.04   30.90
  -2 -14   0   86.19   12.40
   2 -14   0  124.49   21.50
   2 -14   0  115.09   22.70
  -2  14   0  123.69   19.80
   2  14   0  107.39   16.50
   3 -14   0  247.28   28.70
   3 -14   0  213.78   27.60
  -3  14   0  215.88   27.00
   3  14   0  197.08   21.70
   0 -15   0   -4.50   11.80
   0  15   0    2.90   10.40
   0  15   0    4.30   13.20
  -1 -15   0  -21.60    9.70
   1 -15   0    6.10   14.20
  -1  15   0    1.80   12.90
   1  15   0   -0.20   11.00
  -2 -15   0   19.00   10.00
   2 -15   0   58.69   19.20
   2 -15   0    9.00   14.60
   2  15   0   40.20   12.60
  -2  15   0   36.80   15.40
   0 -16   0  153.48   21.10
   0  16   0  121.99   19.70
  -1 -16   0   18.40   12.60
   1 -16   0   16.20   15.10
   1 -16   0   41.10   17.70
   1  16   0   34.30   14.10
  -1  16   0   20.50   15.10
   1  16   0   16.80   11.90
   6   0  -1   15.00   13.90
   5   0  -1  431.16   21.90
   5   0  -1  399.66   25.50
  -5   0   1  377.86   21.40
   5   0  -1  412.86   27.50
   4   0  -1    0.70    7.90
  -4   0   1    1.20    6.20
   4   0  -1    4.10    5.30
  -4   0   1   -1.10    5.20
   4   0  -1   -6.20    5.50
   4   0  -1   -5.10    5.50
  -3   0   1  209.08   11.70
   3   0  -1  221.18   12.10
  -3   0   1  209.88   13.40
  -3   0   1  219.68   12.20
  -3   0   1  238.58   13.40
   3   0  -1  224.98   11.80
   3   0  -1  243.98   18.00
   3   0  -1  209.28   12.20
   2   0  -1   -1.80    2.90
  -2   0   1   -0.40    2.70
  -2   0   1   -3.40    2.50
   2   0  -1    1.70    2.80
   2   0  -1   -1.60    3.70
   2   0  -1    0.30    2.80
  -2   0   1   -1.70    3.00
  -2   0   1   -1.30    3.40
   1   0  -1 7212.88  155.68
  -1   0   1 7335.07  155.68
   1   0  -1 7258.57  156.88
  -1   0   1 7048.19  156.88
  -1   0  -1  227.58    8.60
   1   0   1  243.88    7.70
  -1   0  -1  236.98    7.70
   1   0   1  239.38    8.70
   1   0   1  250.27    8.70
  -1   0  -1  242.88    8.80
   2   0   1    1.70    3.30
   2   0   1   -0.60    3.10
  -2   0  -1    2.10    3.70
   2   0   1    3.60    2.90
  -2   0  -1   -1.20    3.30
   2   0   1   -1.90    3.60
  -2   0  -1    1.10    2.70
   3   0   1  213.58   12.40
   3   0   1  224.98   12.80
  -3   0  -1  230.98   11.60
   3   0   1  235.28   15.10
  -3   0  -1  201.78   13.40
   3   0   1  233.18   12.00
  -3   0  -1  211.08   13.20
   4   0   1   -2.40    5.00
   4   0   1    0.00    5.50
   4   0   1   -2.90    7.60
   4   0   1    2.40    5.70
  -4   0  -1    0.80    6.60
  -4   0  -1    1.80    5.10
  -5   0  -1   -2.00    7.40
   5   0   1  -11.20    6.30
   5   0   1  -11.40    6.10
   5   0   1    3.90   11.10
   6   0   1  -12.10   12.30
   6  -1  -1   29.40   15.50
   6  -1  -1   46.50   11.40
   6   1  -1   30.40   15.00
   5  -1  -1    2.10    8.00
   5  -1  -1   -0.70    6.10
   5  -1  -1    4.90   11.10
  -5  -1   1  -11.50    7.20
   5   1  -1   10.50   10.70
  -5   1   1    2.40    8.30
   5   1  -1   -5.90    7.70
  -4  -1   1   89.39    9.60
   4  -1  -1   77.29    9.20
   4  -1  -1  113.29   11.70
   4  -1  -1  102.39   11.80
   4  -1  -1  108.39   14.10
   4   1  -1   97.79   10.30
   4   1  -1   95.19   11.70
  -4   1   1   86.39   10.60
   4   1  -1   86.29   12.70
  -4   1   1   99.49   11.30
  -3  -1   1    2.80    4.70
   3  -1  -1    7.80    5.20
  -3  -1   1    4.50    4.10
  -3  -1   1    3.90    5.20
   3  -1  -1    4.30    3.90
   3  -1  -1   -0.50    3.70
  -3   1   1   -1.40    4.00
   3   1  -1    0.50    4.50
   3   1  -1   -2.80    3.60
  -3   1   1   -0.80    4.70
   3   1  -1   13.10    7.60
  -3   1   1    5.20    4.70
   3   1  -1   -0.80    3.90
   2  -1  -1 1126.69   29.10
  -2  -1   1 1144.59   29.50
   2  -1  -1 1101.89   31.70
  -2  -1   1 1154.58   32.40
   2  -1  -1 1103.49   29.80
   2  -1  -1 1149.19   31.20
  -2  -1   1 1103.29   31.50
  -2  -1   1 1141.89   29.50
  -2   1   1 1152.28   31.20
   2   1  -1 1130.09   31.80
  -2   1   1 1141.79   30.10
   2   1  -1 1114.49   29.20
   2   1  -1 1157.08   29.50
   2   1  -1 1139.99   32.00
  -2   1   1 1127.79   29.30
  -2   1   1 1161.58   31.80
  -1  -1   1  159.98    7.80
   1  -1  -1  151.48    7.10
   1  -1  -1  160.28    5.60
   1  -1  -1  155.68    6.40
  -1  -1   1  157.08    7.20
  -1  -1   1  155.18    6.10
   1  -1  -1  146.89    7.10
  -1   1   1  157.88    7.20
   1   1  -1  149.79    5.70
   1   1  -1  167.98    7.90
   1   1  -1  141.79    6.90
  -1   1   1  147.29    6.80
  -1   1   1  156.58    6.40
  -1   1   1  160.28    5.70
   0  -1  -1  635.84   16.60
   0  -1   1  646.34   15.90
   0   1   1  651.93   16.80
  -1  -1  -1 1685.53   37.50
   1  -1   1 1684.73   40.60
   1  -1   1 1704.03   40.20
   1  -1   1 1695.13   40.20
  -1  -1  -1 1692.13   39.70
   1   1   1 1676.53   39.70
  -1   1  -1 1766.62   40.40
  -1   1  -1 1757.72   40.80
   1   1   1 1704.43   40.00
   1   1   1 1676.13   41.20
   1   1   1 1637.34   37.40
  -1   1  -1 1705.73   40.20
   2  -1   1 2466.95   60.09
   2  -1   1 2497.55   59.69
  -2  -1  -1 2415.96   60.09
   2  -1   1 2480.55   61.09
   2  -1   1 2523.25   58.49
  -2  -1  -1 2500.15   57.09
  -2   1  -1 2485.45   60.19
   2   1   1 2537.55   56.99
   2   1   1 2474.15   61.39
   2   1   1 2496.35   59.79
  -2   1  -1 2501.85   61.09
  -2   1  -1 2467.85   59.49
   2   1   1 2545.55   60.69
   3  -1   1  127.79   10.40
  -3  -1  -1  153.68   11.80
   3  -1   1  144.89   10.70
   3  -1   1  130.59    9.50
  -3  -1  -1  122.19    8.40
   3   1   1  128.89   11.40
   3   1   1  129.69    8.40
  -3   1  -1  118.59   10.80
   3   1   1  138.29   10.30
  -3   1  -1  132.09    9.90
  -3   1  -1  127.49   10.90
   3   1   1  144.79   11.50
  -4  -1  -1 1063.19   32.70
   4  -1   1 1143.59   36.10
   4  -1   1 1115.19   39.60
   4  -1   1 1092.99   34.50
   4   1   1 1099.29   37.80
   4   1   1 1065.79   36.10
  -4   1  -1 1114.99   35.60
   4   1   1 1191.58   40.10
   4   1   1 1112.39   32.60
  -4   1  -1 1172.38   37.80
   5  -1   1    4.30    7.00
  -5  -1  -1   10.30    7.50
   5  -1   1    9.10   11.70
   5  -1   1   27.70    9.50
  -5   1  -1   20.30    9.10
   5   1   1   14.90   10.20
  -5   1  -1   22.90    9.60
   5   1   1    1.80   10.80
   6  -1   1  152.78   22.40
   6  -1   1  230.98   18.80
   6   1   1  231.38   25.30
   6  -2  -1   43.50   15.90
   6  -2  -1   10.30   10.60
   6   2  -1   29.50   15.10
   6   2  -1   33.00   14.70
   5  -2  -1  293.77   24.30
  -5  -2   1  261.77   17.00
   5  -2  -1  300.17   15.40
   5  -2  -1  332.27   21.70
  -5   2   1  280.07   20.00
   5   2  -1  318.57   24.60
   4  -2  -1  193.68   17.90
   4  -2  -1  214.58   14.60
   4  -2  -1  222.28   16.00
   4  -2  -1  230.48   17.90
  -4  -2   1  212.48   12.80
  -4   2   1  186.48   15.10
   4   2  -1  228.28   18.30
  -4   2   1  219.68   15.50
  -3  -2   1 1600.54   46.40
  -3  -2   1 1697.93   48.60
   3  -2  -1 1598.04   47.40
   3  -2  -1 1686.53   44.90
   3  -2  -1 1667.03   46.20
   3  -2  -1 1594.04   41.00
  -3   2   1 1645.64   45.70
  -3   2   1 1632.24   46.70
   3   2  -1 1687.53   48.00
  -3   2   1 1666.13   45.00
   3   2  -1 1654.03   43.60
   2  -2  -1  116.79    9.00
   2  -2  -1  128.29    8.50
   2  -2  -1  124.99    5.80
  -2  -2   1  115.79    8.50
   2  -2  -1  104.39    8.70
  -2  -2   1  133.49   10.60
  -2  -2   1  134.19    7.00
  -2   2   1  124.59    9.00
   2   2  -1  138.29    9.40
   2   2  -1  120.39    9.70
   2   2  -1  135.39    7.40
  -2   2   1  127.69    6.10
  -2   2   1  121.29    8.80
  -2   2   1  119.89    8.10
   1  -2  -1 5204.38  116.99
  -1  -2   1 5189.88  118.99
   1  -2  -1 5302.77  116.99
   1  -2  -1 5275.37  118.19
  -1  -2   1 5261.07  117.39
   1  -2  -1 5359.46  117.89
   1   2  -1 5301.47  117.49
  -1   2   1 5290.87  113.79
  -1   2   1 5347.96  117.69
   1   2  -1 5206.98  115.89
   1   2  -1 5346.66  118.99
  -1   2   1 5369.66  117.09
  -1   2   1 5295.07  116.99
   0  -2   1  908.71   22.80
   0  -2  -1  899.41   21.70
   0  -2   1  901.41   21.60
   0  -2   1  910.01   22.40
   0  -2  -1  863.91   23.80
   0   2   1  898.61   21.60
   0   2   1  869.21   23.70
   0   2  -1  866.91   21.30
   0   2  -1  921.41   22.50
   2  -2   1  537.65   15.20
   2  -2   1  533.95   18.80
  -2  -2  -1  539.45   18.20
  -2  -2  -1  518.55   14.20
   2  -2   1  557.04   18.50
   2  -2   1  528.25   19.30
  -2   2  -1  537.85   19.20
  -2   2  -1  522.85   18.40
   2   2   1  553.54   20.30
  -2   2  -1  505.25   20.40
   2   2   1  543.25   17.90
   2   2   1  539.55   14.20
   2   2   1  529.35   18.20
   3  -2   1  325.07   16.10
  -3  -2  -1  305.27   11.80
   3  -2   1  318.17   17.60
  -3  -2  -1  318.77   16.20
   3  -2   1  317.17   15.60
   3  -2   1  303.57   12.50
   3   2   1  307.97   17.00
   3   2   1  313.87   15.10
   3   2   1  315.37   11.60
  -3   2  -1  317.27   16.50
   3   2   1  315.47   16.60
  -3   2  -1  328.37   15.60
  -3   2  -1  325.57   16.60
   4  -2   1    1.30    4.80
   4  -2   1   -2.20    6.80
  -4  -2  -1    1.40    4.10
   4  -2   1    4.80    8.10
  -4   2  -1    4.40    7.90
   4   2   1    2.90    8.10
  -4   2  -1    7.60    7.70
   4   2   1    3.30    5.90
  -5  -2  -1    3.50    6.00
   5  -2   1    1.70    8.30
   5  -2   1   29.20   13.10
   5  -2   1    2.50    5.50
   5   2   1   14.50   12.30
  -5   2  -1    8.60    9.10
   6  -2   1   -0.10   12.40
   6  -2   1   -3.20    9.30
   6   2   1    9.60   12.90
   6   2   1   -1.00   13.90
   6  -3  -1    9.70   11.90
   6  -3  -1   12.60   14.30
   6   3  -1   22.90   12.80
  -6   3   1   25.90   12.00
   6   3  -1   34.00   15.60
   5  -3  -1  121.99   18.20
   5  -3  -1   67.89    7.60
  -5  -3   1   79.99   10.40
   5  -3  -1   86.99   14.90
   5   3  -1   84.49   15.30
  -5   3   1   84.39   13.40
   5   3  -1   73.49   14.00
   4  -3  -1  382.46   23.00
   4  -3  -1  394.26   13.90
  -4  -3   1  388.26   16.50
   4  -3  -1  408.96   22.20
   4  -3  -1  404.66   23.30
  -4   3   1  391.76   20.50
   4   3  -1  385.06   20.90
  -4   3   1  387.56   20.80
   4   3  -1  419.96   23.00
   4   3  -1  374.16   22.20
   3  -3  -1  128.69   12.90
   3  -3  -1  123.39   10.50
  -3  -3   1  114.49   13.10
   3  -3  -1  151.48   12.80
  -3  -3   1  110.29   11.00
   3  -3  -1  119.89    6.10
  -3  -3   1  119.19    8.10
   3   3  -1  126.29    9.40
  -3   3   1  134.89   11.20
   3   3  -1   96.19   10.90
  -3   3   1  108.29   11.10
  -3   3   1  125.49   11.10
   3   3  -1  106.29   11.40
  -2  -3   1  486.95   20.30
   2  -3  -1  479.75   18.70
  -2  -3   1  488.15   14.60
   2  -3  -1  483.25   18.40
   2  -3  -1  483.15   17.40
  -2  -3   1  494.85   18.10
  -2   3   1  476.15   17.40
  -2   3   1  467.55   17.90
   2   3  -1  483.95   18.30
   2   3  -1  489.45   17.10
  -2   3   1  457.25   17.70
   2   3  -1  465.45   19.40
   2   3  -1  464.65   15.60
   1  -3  -1  638.14   19.30
  -1  -3   1  667.93   21.70
   1  -3  -1  684.33   20.60
  -1  -3   1  645.14   19.80
   1  -3  -1  666.63   20.80
   1   3  -1  661.13   18.30
   1   3  -1  696.33   21.70
  -1   3   1  640.74   19.90
   1   3  -1  662.43   20.00
  -1   3   1  668.63   20.20
   0  -3   1 5110.69  113.89
   0  -3  -1 5142.79  112.89
   0  -3   1 5250.67  114.19
   0  -3  -1 5069.59  115.89
   0  -3   1 5000.00  113.39
   0   3   1 5021.90  115.59
   0   3   1 5227.18  113.99
   0   3  -1 5176.48  113.79
   0   3   1 5175.38  112.89
   0   3  -1 5106.69  112.99
   1  -3   1 5146.98  118.59
   1  -3   1 5288.17  118.79
  -1  -3  -1 5452.55  115.19
  -1  -3  -1 5241.28  117.89
   1  -3   1 4871.71  115.29
  -1  -3  -1 5355.26  116.19
   1  -3   1 5292.97  117.69
   1   3   1 5240.48  116.09
   1   3   1 5247.58  117.89
  -1   3  -1 5182.98  117.69
   1   3   1 5307.67  119.69
  -1   3  -1 5341.57  118.59
   2  -3   1 1071.29   24.70
   2  -3   1 1092.89   32.40
  -2  -3  -1 1102.69   30.60
   2  -3   1 1049.20   30.80
  -2  -3  -1 1079.59   25.10
   2  -3   1 1092.39   32.20
  -2   3  -1 1077.49   31.30
   2   3   1 1056.19   30.10
   2   3   1 1075.89   30.50
   2   3   1 1076.59   33.50
   2   3   1 1079.09   31.70
  -2   3  -1 1084.89   31.80
  -2   3  -1 1097.29   32.40
   3  -3   1  462.75   21.60
  -3  -3  -1  460.85   14.00
   3  -3   1  453.85   13.80
   3  -3   1  457.05   19.50
  -3  -3  -1  457.95   19.70
   3  -3   1  449.06   20.50
   3   3   1  436.16   18.40
   3   3   1  475.85   20.60
  -3   3  -1  440.16   19.40
  -3   3  -1  475.55   24.20
   3   3   1  420.46   21.00
  -3   3  -1  490.35   20.70
  -4  -3  -1 1078.89   29.30
   4  -3   1 1077.79   40.00
   4  -3   1 1053.89   28.80
   4  -3   1 1059.69   37.00
  -4   3  -1 1102.39   37.50
   4   3   1  998.80   39.00
   4   3   1 1095.29   38.40
   4   3   1 1092.49   39.20
   4   3   1 1066.39   38.90
  -4   3  -1 1019.70   36.60
  -5  -3  -1   85.09    8.40
   5  -3   1   92.79   14.10
   5  -3   1   88.69    8.20
   5  -3   1   74.59   17.80
   5   3   1   74.09   15.70
  -5   3  -1   55.69   12.30
   5   3   1  106.59   17.60
   6  -3   1  247.98   24.70
   6  -3   1  309.67   28.70
   6   3   1  297.17   27.70
  -6   3  -1  305.47   25.40
   6   3   1  293.87   28.00
   6  -4  -1   67.89   16.70
   6  -4  -1   33.30   13.50
  -6   4   1   37.30   13.10
   6   4  -1   46.40   17.00
   6   4  -1   56.49   15.70
   5  -4  -1  187.68   19.90
  -5  -4   1  126.59   11.60
   5   4  -1  199.68   20.90
  -5   4   1  138.79   16.20
   5   4  -1  165.38   19.00
   4  -4  -1  228.78   19.90
   4  -4  -1  244.08   19.20
  -4  -4   1  221.88   11.80
  -4   4   1  237.38   17.30
   4   4  -1  236.68   18.00
   4   4  -1  223.58   18.10
   4   4  -1  220.68   14.70
   3  -4  -1  619.24   24.00
   3  -4  -1  651.93   26.40
  -3  -4   1  622.64   19.60
   3  -4  -1  594.24   25.70
  -3  -4   1  672.23   25.20
   3  -4  -1  660.83   26.30
  -3  -4   1  627.94   28.30
   3   4  -1  658.63   25.70
   3   4  -1  654.33   27.40
   3   4  -1  684.63   24.90
  -3   4   1  654.73   24.70
  -3   4   1  642.54   25.50
   3   4  -1  616.74   21.90
   2  -4  -1  652.63   24.20
  -2  -4   1  723.03   26.90
   2  -4  -1  666.83   23.60
   2  -4  -1  684.73   24.60
   2  -4  -1  717.13   23.40
  -2  -4   1  703.23   19.50
  -2  -4   1  670.03   23.20
   2   4  -1  682.33   23.40
  -2   4   1  704.83   23.50
   2   4  -1  668.73   25.50
   2   4  -1  712.23   22.40
  -2   4   1  683.13   23.90
  -2   4   1  721.03   24.00
  -1  -4   1 1034.90   27.40
  -1  -4   1 1042.50   31.10
   1  -4  -1 1060.69   28.60
  -1  -4   1 1017.00   29.00
   1  -4  -1  953.20   29.20
   1   4  -1 1014.20   27.30
  -1   4   1 1054.39   25.00
  -1   4   1 1035.30   30.40
  -1   4   1 1052.79   29.70
   0  -4   1  888.01   24.50
   0  -4  -1  842.72   23.10
   0  -4  -1  796.92   25.70
   0  -4   1  825.22   24.00
   0  -4   1  861.81   24.20
   0   4   1  861.91   23.20
   0   4   1  867.01   24.10
   0   4  -1  829.02   23.30
   0   4  -1  846.52   23.90
   0   4  -1  852.11   24.10
   0   4   1  799.22   25.40
   1  -4   1  586.34   19.70
   1  -4   1  622.84   16.00
  -1  -4  -1  650.83   20.60
   1  -4   1  585.64   20.60
  -1  -4  -1  606.64   18.20
  -1  -4  -1  622.74   16.00
   1  -4   1  616.44   19.90
   1   4   1  574.24   19.60
  -1   4  -1  604.44   19.90
   1   4   1  631.74   21.90
  -1   4  -1  577.34   20.30
  -1   4  -1  600.34   15.70
  -2  -4  -1  203.28   11.10
  -2  -4  -1  199.98    6.10
   2  -4   1  194.38   11.50
   2  -4   1  197.58   13.30
   2  -4   1  205.28   13.30
  -2   4  -1  205.58   12.20
   2   4   1  189.08   11.10
  -2   4  -1  205.18   12.30
   2   4   1  201.78   12.20
   2   4   1  216.18   14.10
   3  -4   1   42.60    9.20
  -3  -4  -1   49.00    8.20
   3  -4   1   36.00    9.00
  -3  -4  -1   45.00    4.00
   3   4   1   53.39   10.00
   3   4   1   52.39    7.60
  -3   4  -1   48.00    8.50
  -3   4  -1   54.89    9.00
   3   4   1   34.60    8.20
   4  -4   1  106.19   14.30
  -4  -4  -1   99.99    6.70
   4  -4   1  100.49   14.10
   4   4   1  113.59   14.70
   4   4   1  100.99   13.40
  -4   4  -1  125.69   13.80
   5  -4   1   15.30   11.20
   5  -4   1   12.40   11.10
   5   4   1   21.20   11.50
   5   4   1   14.60   12.50
  -5   4  -1    0.80   10.00
   6  -4   1   10.90   13.60
   6  -4   1    4.10   11.10
   6   4   1    8.20   13.20
  -6   4  -1   -7.40   10.60
   6   4   1   -9.60   10.90
   6  -5  -1   27.20   13.80
   6  -5  -1   27.20   16.10
  -6   5   1   29.30   12.80
   6   5  -1   14.90   13.40
   6   5  -1   34.70   13.90
   5  -5  -1    8.20   12.00
   5  -5  -1    6.20   11.90
  -5  -5   1   -2.60    5.10
  -5   5   1    2.90    9.00
   5   5  -1    1.20   10.80
   5   5  -1   12.00   10.60
   4  -5  -1  171.48   18.70
   4  -5  -1  153.78   17.90
   4   5  -1  169.28   16.90
   4   5  -1  178.98   16.70
   4   5  -1  151.38   12.90
  -4   5   1  159.18   16.20
  -3  -5   1  344.17   21.90
   3  -5  -1  316.77   18.90
  -3  -5   1  315.27   12.30
   3  -5  -1  312.37   17.10
   3  -5  -1  323.77   18.90
   3  -5  -1  310.27   18.90
  -3  -5   1  257.17   24.60
  -3   5   1  320.17   18.00
   3   5  -1  298.57   14.80
  -3   5   1  285.37   17.10
   3   5  -1  299.57   16.80
   3   5  -1  280.57   18.90
  -3   5   1  288.87   17.30
   3   5  -1  334.57   18.50
  -2  -5   1  476.45   19.00
   2  -5  -1  463.55   19.50
   2  -5  -1  445.06   19.90
   2  -5  -1  460.35   20.40
  -2  -5   1  449.16   22.20
  -2   5   1  438.96   19.10
   2   5  -1  457.15   17.80
   2   5  -1  483.15   19.60
   2   5  -1  461.25   21.10
  -2   5   1  460.15   19.40
   1  -5  -1  378.26   16.10
   1  -5  -1  350.06   14.90
   1  -5  -1  359.66   16.40
  -1  -5   1  393.56   16.10
  -1  -5   1  395.66   14.70
  -1  -5   1  378.56   13.90
  -1  -5   1  379.36   17.70
  -1   5   1  364.96   15.40
   1   5  -1  383.06   17.00
  -1   5   1  384.56   17.00
   1   5  -1  363.06   14.30
  -1   5   1  383.06   12.10
  -1   5   1  366.66   16.00
   0  -5   1 1338.77   35.90
   0  -5  -1 1277.37   37.70
   0  -5   1 1342.17   35.80
   0  -5  -1 1268.47   34.30
   0  -5   1 1305.17   35.90
   0   5  -1 1299.87   35.40
   0   5   1 1284.57   37.20
   0   5  -1 1332.87   35.40
   0   5   1 1312.87   34.50
   0   5   1 1360.66   35.60
   0   5  -1 1306.57   34.90
   1  -5   1  457.75   13.80
   1  -5   1  447.36   18.30
  -1  -5  -1  454.05   15.80
  -1  -5  -1  482.15   18.80
   1  -5   1  446.26   17.20
  -1  -5  -1  455.75   13.80
  -1   5  -1  438.06   13.50
  -1   5  -1  451.65   18.00
  -1   5  -1  431.66   17.40
   1   5   1  450.85   18.80
   1   5   1  425.46   17.40
  -2  -5  -1 3866.51   86.39
  -2  -5  -1 4019.40   86.69
  -2  -5  -1 3957.00   93.59
   2  -5   1 3950.70   96.39
   2  -5   1 3973.80   96.89
   2  -5   1 3977.50   97.29
   2  -5   1 3947.60   95.29
   2   5   1 3985.00   93.79
   2   5   1 3873.61   98.59
  -2   5  -1 3987.80   95.89
   2   5   1 4125.89   95.89
  -2   5  -1 3948.71   96.69
   3  -5   1 2033.20   55.99
  -3  -5  -1 2081.29   54.99
   3  -5   1 1983.60   57.49
   3  -5   1 2012.40   57.99
   3   5   1 1901.71   58.99
   3   5   1 2026.10   56.39
   3   5   1 1973.40   54.69
  -3   5  -1 1950.10   56.69
   3   5   1 1911.31   53.39
  -3   5  -1 1959.90   55.79
   4  -5   1  697.83   31.80
   4  -5   1  663.33   32.30
   4   5   1  742.83   30.80
   4   5   1  752.92   32.00
  -4   5  -1  683.73   30.60
   5  -5   1  159.88   20.00
   5  -5   1  137.99   20.20
   5   5   1  128.49   17.90
   5   5   1  124.29   17.50
  -5   5  -1   97.49   24.50
   6  -5   1   74.59   19.00
   6  -5   1   94.59   17.90
   6   5   1  111.69   19.00
  -6   5  -1   97.99   19.00
   6   5   1  127.59   20.60
   5  -6  -1  242.88   25.50
   5   6  -1  206.18   21.10
   5   6  -1  187.08   23.70
   4  -6  -1  221.08   21.30
  -4  -6   1  202.38   10.10
   4  -6  -1  200.88   21.00
   4   6  -1  184.48   16.90
   4   6  -1  198.08   18.40
  -4   6   1  219.28   18.60
   4   6  -1  194.98   17.60
  -3  -6   1  735.93   33.60
  -3  -6   1  651.83   27.10
   3  -6  -1  685.83   30.10
  -3  -6   1  704.43   20.70
   3  -6  -1  670.73   28.70
   3   6  -1  720.73   27.50
  -3   6   1  715.03   28.40
   3   6  -1  692.13   28.30
  -3   6   1  676.03   31.10
   3   6  -1  677.93   33.30
   3   6  -1  663.93   24.50
   2  -6  -1  591.94   24.40
  -2  -6   1  586.94   23.00
  -2  -6   1  622.24   28.00
   2  -6  -1  616.74   26.00
   2  -6  -1  648.94   24.60
   2   6  -1  577.14   25.60
   2   6  -1  643.44   22.30
  -2   6   1  617.04   24.20
  -1  -6   1  932.21   29.00
   1  -6  -1  972.80   30.00
  -1  -6   1  953.70   32.30
   1  -6  -1  964.50   31.20
  -1  -6   1  938.41   27.70
   1  -6  -1  986.50   30.90
  -1  -6   1  946.21   30.60
  -1   6   1  974.90   30.20
  -1   6   1  904.11   30.50
   1   6  -1  991.70   31.80
   1   6  -1  927.51   28.80
  -1   6   1 1004.30   32.10
  -1   6   1  961.90   26.00
   0  -6  -1  887.41   29.80
   0  -6  -1  909.11   26.90
   0  -6   1  874.61   28.10
   0  -6   1  886.11   27.70
   0  -6   1  900.71   27.90
   0   6   1  893.61   29.10
   0   6  -1  881.01   27.10
   0   6   1  893.91   29.50
   0   6  -1  842.62   29.60
   1  -6   1  653.53   19.30
  -1  -6  -1  616.54   24.00
  -1  -6  -1  651.63   19.20
   1  -6   1  619.14   22.50
   1  -6   1  669.83   24.50
  -1   6  -1  619.04   23.10
  -1   6  -1  627.54   18.90
   1   6   1  645.74   24.30
  -1   6  -1  640.74   23.40
   1   6   1  617.44   23.20
   2  -6   1   22.30    6.00
  -2  -6  -1   17.50    5.60
   2  -6   1   25.10    8.40
   2  -6   1    8.40    5.70
  -2  -6  -1   17.30    3.00
   2   6   1   17.40    6.40
   2   6   1   22.60    6.50
  -2   6  -1   12.00    6.30
  -2   6  -1   23.10    6.90
   2   6   1   24.30    7.20
  -3  -6  -1  695.53   30.40
   3  -6   1  733.43   31.10
   3  -6   1  730.93   30.70
   3   6   1  674.63   26.10
  -3   6  -1  740.93   29.50
  -3   6  -1  700.63   29.60
   3   6   1  673.03   27.10
   3   6   1  768.32   29.60
   4  -6   1   76.39   14.50
   4  -6   1  103.39   16.50
   4   6   1   96.49   13.60
  -4   6  -1   79.69   13.20
   4   6   1   95.19   14.70
   5  -6   1   26.70   13.20
   5  -6   1   31.60   14.40
   5   6   1   17.50   13.30
  -5   6  -1   30.10   13.40
   5   6   1   31.60   13.20
   5  -7  -1   33.60   15.00
   5  -7  -1   70.19   18.00
   5   7  -1   44.40   12.90
   5   7  -1   39.80   14.60
  -5   7   1   44.60   14.40
   4  -7  -1   77.99   15.40
  -4  -7   1   73.19    6.60
   4  -7  -1   89.69   16.80
   4   7  -1   93.19   14.50
  -4   7   1  124.29   16.00
   4   7  -1   75.99   11.70
  -3  -7   1   39.50   12.30
  -3  -7   1   34.70    9.00
   3  -7  -1   66.19   13.30
  -3  -7   1   47.00    5.70
  -3  -7   1   63.69    6.70
   3  -7  -1   50.59   11.70
   3   7  -1   54.09    9.70
   3   7  -1   52.89   10.50
  -3   7   1   61.19   11.40
   2  -7  -1  164.78   23.00
  -2  -7   1  197.28   10.90
   2  -7  -1  208.38   16.60
  -2  -7   1  190.28   13.80
  -2  -7   1  200.28   17.40
   2   7  -1  193.88   13.30
   2   7  -1  182.18   15.20
  -2   7   1  198.98   15.30
  -2   7   1  198.38   14.20
   1  -7  -1  576.14   23.10
  -1  -7   1  506.75   21.20
   1  -7  -1  525.25   22.70
  -1  -7   1  552.54   20.00
  -1  -7   1  535.15   22.40
  -1  -7   1  522.55   23.90
   1   7  -1  556.64   23.10
  -1   7   1  561.34   23.30
  -1   7   1  550.64   23.60
   1   7  -1  566.44   21.20
  -1   7   1  528.75   21.50
  -1   7   1  561.24   18.30
   0  -7  -1  854.01   27.20
   0  -7   1  854.31   28.30
   0  -7  -1  816.52   29.90
   0  -7   1  821.32   28.00
   0  -7   1  829.52   28.50
   0   7   1  837.72   26.60
   0   7   1  860.81   30.10
   0   7  -1  840.22   27.40
   0   7   1  845.62   27.60
   0   7  -1  816.92   27.30
  -1  -7  -1 1500.65   42.20
  -1  -7  -1 1419.66   45.40
   1  -7   1 1528.55   44.20
  -1  -7  -1 1557.24   39.80
   1  -7   1 1558.64   45.50
   1   7   1 1562.14   45.20
   1   7   1 1566.54   46.10
  -1   7  -1 1571.24   39.70
  -1   7  -1 1562.14   44.80
  -1   7  -1 1498.85   44.50
  -2  -7  -1 1597.44   47.80
   2  -7   1 1628.64   49.80
  -2  -7  -1 1640.44   45.30
  -2  -7  -1 1632.24   39.00
   2  -7   1 1601.54   48.10
   2  -7   1 1614.14   49.90
   2   7   1 1628.74   47.70
  -2   7  -1 1628.94   48.60
  -2   7  -1 1660.13   49.00
   2   7   1 1554.64   50.09
   3  -7   1  564.94   28.20
  -3  -7  -1  520.35   23.00
   3  -7   1  562.24   28.40
  -3   7  -1  507.25   25.70
   3   7   1  544.35   24.30
   3   7   1  487.55   24.60
   4  -7   1  200.18   21.10
   4  -7   1  228.58   21.70
   4   7   1  217.78   19.20
  -4   7  -1  218.68   20.50
   4   7   1  215.08   20.20
   5  -7   1  248.08   26.50
   5  -7   1  257.87   27.10
  -5   7  -1  221.98   23.00
   5   7   1  313.27   41.30
   5   7   1  212.38   24.00
   5  -8  -1   51.19   17.20
   5  -8  -1   45.00   15.20
   5   8  -1   35.90   12.60
   5   8  -1   52.89   15.00
  -5   8   1   29.70   12.90
   4  -8  -1  450.95   30.50
   4  -8  -1  447.56   29.50
  -4  -8   1  437.86   13.90
  -4  -8   1  458.65   14.00
   4   8  -1  486.25   27.30
  -4   8   1  468.15   27.90
   4   8  -1  489.55   25.60
   3  -8  -1   39.90   12.80
  -3  -8   1   45.70    6.10
  -3  -8   1   41.80    6.20
   3  -8  -1   26.30   10.50
  -3   8   1   47.60   11.10
   3   8  -1   32.00    9.10
  -2  -8   1  516.95   18.70
   2  -8  -1  483.25   24.40
  -2  -8   1  503.05   23.00
   2  -8  -1  488.75   25.50
   2  -8  -1  524.55   24.30
  -2  -8   1  461.85   27.00
  -2   8   1  479.65   23.20
   2   8  -1  471.65   24.60
   2   8  -1  474.45   21.50
  -2   8   1  502.85   24.80
   1  -8  -1   86.29   11.50
  -1  -8   1  114.49   12.90
   1  -8  -1  131.19   12.20
  -1  -8   1   69.39   13.50
  -1  -8   1  103.99   11.30
  -1  -8   1  145.49   11.40
  -1   8   1  115.89    8.90
  -1   8   1  110.09   10.70
  -1   8   1  103.59   12.30
   1   8  -1  109.39   12.10
   1   8  -1  122.99   11.20
   0  -8   1  963.40   32.50
   0  -8  -1  907.51   33.60
   0  -8   1  965.60   32.80
   0  -8   1  992.70   32.40
   0  -8  -1 1002.10   31.50
   0   8  -1  971.90   31.60
   0   8   1  977.20   30.80
   0   8   1  969.80   33.90
   0   8  -1  937.21   31.30
   0   8   1  986.30   31.90
  -1  -8  -1    0.50    4.60
  -1  -8  -1   -0.60    5.80
   1  -8   1   11.30    7.70
   1  -8   1    9.80    5.70
  -1  -8  -1    6.00    4.70
  -1   8  -1   -1.70    6.50
  -1   8  -1   -0.20    5.40
  -1   8  -1    2.90    3.70
   1   8   1    4.00    6.30
   1   8   1   -2.40    5.00
  -2  -8  -1 1395.46   34.40
   2  -8   1 1363.96   45.50
  -2  -8  -1 1340.97   40.30
  -2  -8  -1 1337.87   43.60
   2  -8   1 1356.16   45.70
   2  -8   1 1304.87   43.00
  -2   8  -1 1338.57   44.30
   2   8   1 1323.27   42.80
   2   8   1 1274.17   45.30
  -2   8  -1 1353.66   44.20
  -3  -8  -1   36.80    9.20
   3  -8   1   27.70   12.10
   3  -8   1   49.30   13.90
   3   8   1   20.10    9.70
  -3   8  -1   15.40    9.20
   4  -8   1    8.70   13.10
   4  -8   1    6.40   12.40
   4   8   1    1.30    8.80
  -4   8  -1    1.90   11.30
   4   8   1   13.50   10.10
   5  -8   1  -12.80   14.10
   5  -8   1    6.60   14.40
   5   8   1  -10.40   10.20
  -5   8  -1    2.00   12.90
   5   8   1   -1.90   10.10
   5  -9  -1   17.50   16.00
   5  -9  -1   18.30   17.30
  -5   9   1   12.00   12.80
   4  -9  -1   15.50   12.80
   4  -9  -1   -0.50   15.30
  -4   9   1   10.20   14.60
   4   9  -1    7.60    9.30
  -3  -9   1   75.79    7.90
   3  -9  -1   69.99   13.40
   3  -9  -1   69.19   15.60
   3   9  -1   86.39   11.90
  -3   9   1   90.79   15.20
   2  -9  -1   18.50   10.30
  -2  -9   1   15.10    6.00
  -2  -9   1    3.10    6.20
  -2  -9   1    0.60    6.80
  -2  -9   1  -13.60    8.60
   2  -9  -1   -1.20    7.50
  -2   9   1    8.10    2.80
  -2   9   1    8.20    8.90
   2   9  -1   14.60    7.20
  -1  -9   1  363.36   22.50
  -1  -9   1  391.26   18.50
   1  -9  -1  387.46   21.50
  -1  -9   1  316.87   18.80
  -1  -9   1  348.77   20.30
   1  -9  -1  366.86   21.50
  -1   9   1  372.56   21.60
  -1   9   1  365.76   16.30
   1   9  -1  328.47   20.10
   1   9  -1  365.06   18.90
  -1   9   1  349.17   18.80
  -1   9   1  369.26   21.60
   0  -9   1   46.00    9.30
   0  -9   1   43.50    8.30
   0  -9  -1   54.69    9.70
   0  -9  -1   45.90    8.90
   0   9  -1   53.19    8.80
   0   9  -1   47.30    9.10
   0   9   1   57.29   12.60
   0   9   1   33.60    7.10
   0   9   1   39.20    7.80
   1  -9   1  699.33   27.90
  -1  -9  -1  605.74   28.30
  -1  -9  -1  699.53   24.10
   1  -9   1  717.93   29.80
  -1  -9  -1  681.33   26.00
  -1   9  -1  664.03   27.40
  -1   9  -1  686.13   28.80
   1   9   1  695.33   32.80
  -1   9  -1  699.73   23.80
   1   9   1  656.13   28.30
   2  -9   1  157.48   18.20
  -2  -9  -1  132.69   15.20
  -2  -9  -1  132.79   13.10
  -2  -9  -1  149.69    9.80
   2  -9   1  163.98   17.70
   2  -9   1  155.58   18.20
  -2   9  -1  174.28   17.30
   2   9   1  164.08   15.90
   3  -9   1  354.36   25.50
   3  -9   1  328.97   26.20
   3   9   1  348.47   22.70
  -3   9  -1  319.47   23.20
   4  -9   1  122.79   22.60
   4  -9   1  117.59   21.80
  -4   9  -1  157.28   20.40
   4   9   1  108.29   16.00
   5  -9   1  240.28   28.60
   5  -9   1  332.57   30.60
   5   9   1  350.56   27.60
  -5   9  -1  335.77   29.80
   5 -10  -1    9.80   16.20
   5 -10  -1  -19.60   15.00
  -5  10   1   27.10   14.90
   5  10  -1  -11.10    9.60
   4 -10  -1   81.19   16.40
   4 -10  -1   74.69   19.20
   4  10  -1   87.09   14.30
  -4  10   1   72.39   16.50
   3 -10  -1   45.20   15.00
  -3 -10   1   38.20    6.50
   3 -10  -1   31.20   12.80
  -3  10   1   61.59   14.50
   3  10  -1   34.60   10.60
   2 -10  -1  543.15   29.70
   2 -10  -1  533.35   27.60
  -2 -10   1  483.75   24.20
  -2 -10   1  549.65   21.70
  -2  10   1  513.25   16.00
   2  10  -1  541.35   24.90
  -2  10   1  536.75   28.70
  -1 -10   1    9.20    7.10
   1 -10  -1    6.40    6.40
   1 -10  -1   15.10    9.50
  -1 -10   1    6.80    6.70
  -1 -10   1    4.90    7.10
  -1  10   1    5.10    4.60
  -1  10   1    9.00    9.00
   1  10  -1    7.20    7.20
   1  10  -1   11.50    7.30
  -1  10   1   10.90    9.50
  -1  10   1   -3.80    6.70
   0 -10  -1  968.30   34.40
   0 -10   1  985.70   35.60
   0 -10   1  971.90   35.60
   0 -10  -1 1040.30   37.90
   0  10  -1 1095.99   40.70
   0  10   1 1003.90   36.90
   0  10  -1  965.50   34.50
   0  10   1  952.70   34.30
   0  10   1  922.41   32.90
  -1 -10  -1  295.47   16.20
   1 -10   1  304.57   21.70
   1 -10   1  293.67   18.60
  -1 -10  -1  255.07   19.80
  -1 -10  -1  279.57   17.50
   1  10   1  272.57   19.00
   1  10   1  329.77   20.40
  -1  10  -1  278.97   15.20
  -1  10  -1  306.77   21.00
  -2 -10  -1   37.80    9.00
  -2 -10  -1   61.39    7.50
   2 -10   1   55.79   14.10
  -2 -10  -1   52.09   11.10
   2 -10   1   59.49   13.80
  -2  10  -1   52.09    5.70
  -2  10  -1   79.99   13.90
   2  10   1   67.19   12.70
   3 -10   1    7.70   13.00
   3 -10   1   12.00   13.20
   3  10   1    6.40    9.50
  -3  10  -1   -4.50    9.70
   4 -10   1   -1.10   12.10
   4 -10   1   -1.40   14.70
  -4  10  -1   -9.40   10.00
   4  10   1  -11.00    9.00
   4 -11  -1   -0.20   16.00
   4 -11  -1    6.30   13.70
  -4  11   1    3.80   12.50
   4  11  -1    1.30    9.10
  -3 -11   1  236.58   13.10
   3 -11  -1  260.87   25.10
   3  11  -1  254.77   20.30
  -3  11   1  168.38   30.50
  -2 -11   1   -3.90    7.60
   2 -11  -1   14.70   12.50
   2 -11  -1   19.20   11.90
  -2 -11   1   25.10    8.10
  -2  11   1   12.00   11.30
  -2  11   1   13.00    4.10
   2  11  -1   14.00    8.70
   1 -11  -1  598.64   29.40
   1 -11  -1  576.54   29.60
  -1 -11   1  578.34   25.50
  -1  11   1  538.35   22.80
   1  11  -1  574.54   26.00
  -1  11   1  532.95   28.40
  -1  11   1  562.04   29.00
   0 -11   1   64.89   11.30
   0 -11  -1   41.00   11.00
   0 -11  -1   47.30   10.80
   0 -11   1   47.10   11.80
   0  11   1   43.40   10.80
   0  11  -1   44.60    9.70
   0  11  -1   46.50    8.90
   0  11  -1   48.00   11.30
   0  11   1   38.00    8.60
   1 -11   1  194.28   20.00
  -1 -11  -1  165.08   14.90
  -1 -11  -1  212.48   25.80
  -1 -11  -1  188.88   18.10
  -1  11  -1  159.98   12.70
  -1  11  -1  180.08   18.60
   1  11   1  158.98   16.80
  -2 -11  -1   24.50    6.80
  -2 -11  -1   17.20    8.30
   2 -11   1   12.30   12.40
   2 -11   1   47.50   15.00
  -2  11  -1   26.30   12.20
   2  11   1   18.10    9.20
  -2  11  -1   14.50    4.50
   3 -11   1  553.04   34.20
   3 -11   1  573.64   52.79
   3  11   1  529.15   29.60
   4 -11   1   17.90   16.80
   4 -11   1   -6.40   13.80
   4  11   1    0.00    9.50
  -4  11  -1  -21.70   11.10
   4 -12  -1  125.99   22.70
   4 -12  -1   84.59   19.20
   4  12  -1  109.29   16.20
  -4  12   1  102.39   20.10
   3 -12  -1   48.10   17.20
  -3 -12   1   39.40    7.70
   3 -12  -1   50.59   15.70
  -3  12   1   35.30   14.50
   3  12  -1   63.79   13.00
   2 -12  -1  458.55   31.40
   2 -12  -1  498.25   29.40
  -2 -12   1  441.76   21.70
  -2  12   1  408.66   15.90
   2  12  -1  471.45   25.20
  -2  12   1  481.55   29.90
  -1 -12   1   25.20    9.70
   1 -12  -1   15.70   10.60
  -1 -12   1   10.40    8.90
   1 -12  -1    3.00   10.30
  -1  12   1   18.70   11.10
  -1  12   1    8.20   10.40
  -1  12   1    9.00    6.50
   1  12  -1   13.00    8.20
   0 -12  -1 1018.20   38.40
   0 -12   1 1049.99   39.60
   0  12   1 1023.90   39.90
   0  12   1  874.61   41.00
   0  12  -1  997.90   39.70
   0  12  -1  978.60   37.90
   0  12  -1 1030.40   37.90
  -1 -12  -1    5.40    8.00
  -1 -12  -1    9.20    8.20
   1 -12   1   20.10   11.90
  -1  12  -1   10.20   10.20
   1  12   1    9.70   10.20
  -1  12  -1    0.00    6.00
   2 -12   1  181.78   22.50
   2 -12   1  165.68   21.60
  -2 -12  -1  213.08   14.00
  -2  12  -1  229.78   23.70
  -2  12  -1  189.28   10.70
   2  12   1  192.98   19.70
   3 -12   1    8.90   15.10
   3 -12   1  -11.00   12.90
   3  12   1   11.70   10.80
  -3  12  -1   19.30   13.40
   4 -12   1   13.50   15.70
   4 -12   1   15.00   18.10
   4  12   1   39.50   13.80
  -4  12  -1   33.30   14.70
   3 -13  -1   69.09   19.20
   3 -13  -1   58.29   17.90
  -3  13   1   48.40   16.10
   3  13  -1   77.59   13.70
  -2 -13   1   12.40    8.20
   2 -13  -1  -10.80   11.80
   2 -13  -1    3.70   13.80
   2  13  -1    9.20    8.90
  -2  13   1   11.40   12.40
   1 -13  -1  263.97   23.60
  -1 -13   1  252.07   20.60
   1 -13  -1  240.28   23.60
   1  13  -1  231.58   19.30
  -1  13   1  269.97   24.50
   0 -13  -1  149.39   17.60
   0 -13   1  158.28   18.60
   0  13  -1  171.98   17.70
   0  13   1  158.38   18.00
   0  13  -1  163.28   18.60
   1 -13   1  443.16   30.00
  -1 -13  -1  406.76   23.40
  -1  13  -1  380.16   24.10
   1  13   1  400.56   25.70
  -1  13  -1  442.86   29.10
   2 -13   1    8.90   14.50
   2 -13   1    7.20   13.10
   2  13   1   12.80   11.00
  -2  13  -1   24.60   12.90
   3 -13   1  288.17   30.70
   3 -13   1  308.47   32.10
   3  13   1  293.47   25.40
  -3  13  -1  312.97   29.70
   3 -14  -1   14.70   17.50
   3 -14  -1   35.80   16.30
   3  14  -1   56.99   13.20
  -3  14   1   61.89   17.90
   2 -14  -1  138.39   21.00
  -2 -14   1  126.49   14.40
   2 -14  -1   99.09   20.40
   2  14  -1  146.29   17.20
  -2  14   1  136.59   20.90
  -1 -14   1   22.50   11.40
   1 -14  -1   18.90   13.90
   1 -14  -1   -1.30   11.30
   1  14  -1   16.10    9.50
  -1  14   1   -1.00    9.20
  -1  14   1   -1.70   13.00
   0 -14  -1   42.70   13.00
   0 -14   1   32.60   13.80
   0  14   1   50.09   13.20
   0  14  -1   47.50   14.80
   0  14   1   46.30   15.50
   0  14  -1   25.90   10.30
  -1 -14  -1    3.60    9.30
  -1  14  -1   -8.50    8.30
   1  14   1    2.20   10.20
  -1  14  -1    6.20   11.60
   2 -14   1   80.19   20.00
  -2 -14  -1   62.09   10.80
   2 -14   1  103.59   20.40
  -2  14  -1   91.09   19.10
   2  14   1   61.89   14.40
   3 -14   1   -1.40   15.40
   3 -14   1   -2.70   15.60
  -3  14  -1    7.00   14.50
   3  14   1    6.90   11.60
  -2 -15   1  -16.50    8.50
   2 -15  -1  -23.00   11.70
   2 -15  -1   -8.10   15.50
   2  15  -1   -3.40    9.30
  -2  15   1    7.50   12.50
   1 -15  -1   41.20   15.30
   1 -15  -1   56.59   16.00
  -1 -15   1   30.80   12.70
   1  15  -1   42.50   11.80
   1  15  -1   54.49   14.70
  -1  15   1   24.30   14.00
   0 -15  -1   29.60   14.10
   0  15   1    0.50   16.70
   0  15  -1   34.30   14.00
   0  15   1    7.70   12.10
   1 -15   1  379.66   30.90
   1 -15   1  352.36   31.30
  -1 -15  -1  344.07   23.80
   1  15   1  391.66   26.80
  -1  15  -1  312.57   27.90
   2 -15   1  158.48   24.40
   2 -15   1   86.49   21.30
  -2  15  -1  154.88   23.50
   2  15   1  138.29   18.50
   1 -16  -1   41.50   17.30
  -1 -16   1   10.60   23.70
   1 -16  -1   64.79   17.10
  -1  16   1   59.39   17.10
   1  16  -1   36.00   14.10
   1  16  -1   42.10   12.00
   0 -16  -1   82.59   17.90
   0 -16   1   84.09   18.80
   0  16  -1   81.39   19.10
   0  16   1   63.99   14.80
   0  16   1   92.29   19.10
   1 -16   1   -8.50   13.80
  -1 -16  -1  -15.50   10.90
   1 -16   1   17.30   15.40
   1  16   1    3.80   11.50
  -1  16  -1   -6.00   11.80
   6   0  -2   -8.10   12.10
   5   0  -2   -2.90    6.20
   5   0  -2    8.10    7.90
   5   0  -2  -16.20    9.30
   4   0  -2   44.60    7.80
  -4   0   2   24.80    7.10
   4   0  -2   43.20   10.70
   4   0  -2   51.89    8.90
   4   0  -2   42.20    8.00
  -4   0   2   38.50    7.90
  -3   0   2    3.70    4.80
   3   0  -2   -1.30    3.40
  -3   0   2   -2.10    3.90
   3   0  -2   -2.30    3.70
  -3   0   2   -1.30    4.80
  -3   0   2    2.20    4.20
   3   0  -2    2.80    4.60
  -2   0   2  156.08    7.70
   2   0  -2  168.18    9.20
  -2   0   2  165.58    9.80
  -2   0   2  158.48    9.50
   2   0  -2  153.38    9.10
   2   0  -2  154.98    7.60
   2   0  -2  156.08   10.10
  -2   0   2  179.58    9.20
   1   0  -2    3.60    1.50
  -1   0   2    4.50    2.50
   1   0  -2    1.90    2.60
  -1   0   2    2.10    1.40
  -1   0   2    5.20    2.60
   1   0  -2   -1.70    2.10
  -1   0   2    3.40    2.50
   1   0  -2    0.60    2.30
   0   0  -2   26.60    2.50
   0   0   2   20.60    2.20
   1   0   2    1.30    2.40
  -1   0  -2   -1.20    2.30
  -1   0  -2    0.50    2.50
   1   0   2    0.40    2.30
  -1   0  -2    1.00    1.90
   1   0   2    3.60    2.10
   2   0   2  179.28    9.90
   2   0   2  190.68   10.50
   2   0   2  190.58    8.60
  -2   0  -2  189.38    8.60
   2   0   2  187.48   10.10
  -2   0  -2  168.68    9.90
  -2   0  -2  180.28   10.30
  -3   0  -2   -0.10    5.20
   3   0   2   -3.70    3.70
   3   0   2   -2.30    4.20
   3   0   2    1.50    5.80
   3   0   2    1.20    4.00
  -3   0  -2   -1.70    3.60
  -3   0  -2    3.90    5.20
   4   0   2  404.06   22.90
  -4   0  -2  399.96   17.70
   4   0   2  398.26   17.70
  -4   0  -2  416.96   21.70
   4   0   2  367.16   19.80
   5   0   2    0.30   11.20
   5   0   2    0.40    6.40
   5   0   2  -17.90    6.70
   6   0   2  145.79   14.90
   6   0   2  138.69   20.90
   6  -1  -2   16.50   13.90
   6   1  -2   13.70   14.50
  -5  -1   2  675.43   28.50
   5  -1  -2  782.32   31.30
   5  -1  -2  753.62   35.10
   5  -1  -2  711.13   27.40
  -5   1   2  712.43   29.60
   5   1  -2  727.63   34.90
   5   1  -2  633.74   34.30
  -4  -1   2  115.29   11.00
   4  -1  -2  104.29   12.10
   4  -1  -2  103.89   10.30
   4  -1  -2  105.69   14.00
   4   1  -2  113.19   12.40
   4   1  -2  108.99   11.00
  -4   1   2  146.09   12.80
   4   1  -2  118.49   14.30
   3  -1  -2 2968.70   72.69
  -3  -1   2 3035.20   76.39
   3  -1  -2 3038.90   74.69
  -3  -1   2 3030.50   76.09
  -3  -1   2 3070.79   73.29
   3  -1  -2 2946.61   72.29
   3  -1  -2 2832.62   91.29
  -3   1   2 3043.00   73.09
   3   1  -2 2976.90   75.69
  -3   1   2 3015.50   76.09
   3   1  -2 2942.81   91.69
  -3   1   2 2967.60   72.69
   3   1  -2 3099.99   72.89
  -3   1   2 3089.39   75.09
   3   1  -2 3082.49   72.19
   2  -1  -2   52.19    5.30
  -2  -1   2   47.30    6.90
   2  -1  -2   36.60    6.00
   2  -1  -2   49.99    5.30
   2  -1  -2   58.29    6.70
  -2  -1   2   51.89    4.80
  -2  -1   2   45.90    6.30
  -2  -1   2   50.19    5.60
  -2   1   2   35.80    6.60
   2   1  -2   37.80    6.00
  -2   1   2   48.00    5.40
   2   1  -2   42.90    5.10
  -2   1   2   53.89    5.50
  -2   1   2   55.59    6.60
   2   1  -2   50.69    6.30
   2   1  -2   52.49    4.90
   1  -1  -2 3756.52   86.59
   1  -1  -2 3789.32   85.89
   1  -1  -2 3791.82   84.99
   1  -1  -2 3943.91   85.39
  -1  -1   2 3919.91   87.89
  -1  -1   2 3854.61   86.69
   1  -1  -2 3864.91   86.89
  -1  -1   2 3891.51   85.89
   1   1  -2 3825.62   86.69
   1   1  -2 3950.20   83.49
  -1   1   2 3762.52   85.39
  -1   1   2 3873.01   85.89
   1   1  -2 3751.02   87.39
  -1   1   2 3828.42   84.89
  -1   1   2 3957.50   86.79
   0  -1   2  553.44   13.60
   0  -1   2  562.14   15.20
   0  -1  -2  563.04   14.20
   0  -1  -2  566.44   15.80
   0   1   2  572.54   16.00
   0   1  -2  550.34   15.10
   0   1  -2  543.65   13.50
   0   1   2  568.84   14.20
   1  -1   2 2854.21   63.49
   1  -1   2 2737.63   63.69
   1  -1   2 2783.22   63.59
  -1  -1  -2 2751.82   62.29
   1   1   2 2750.32   64.19
  -1   1  -2 2687.93   63.29
  -1   1  -2 2760.62   63.29
   1   1   2 2711.33   62.19
   1   1   2 2824.12   63.49
  -2  -1  -2  187.18    7.60
  -2  -1  -2  180.18    9.90
   2  -1   2  190.48    9.30
   2  -1   2  186.58   10.20
   2  -1   2  188.38   10.90
   2  -1   2  189.28    9.70
   2   1   2  186.28   11.30
  -2   1  -2  183.38    9.50
   2   1   2  184.18   10.10
   2   1   2  177.08    7.30
  -2   1  -2  196.48   10.80
   2   1   2  180.78   10.10
  -2   1  -2  185.68   10.50
   3  -1   2 1801.92   49.50
  -3  -1  -2 1852.01   45.30
   3  -1   2 1858.01   55.59
   3  -1   2 1734.13   56.39
   3  -1   2 1849.52   47.90
  -3  -1  -2 1817.72   49.90
   3   1   2 1823.72   50.19
   3   1   2 1735.33   50.29
   3   1   2 1804.02   44.70
  -3   1  -2 1857.01   50.79
   3   1   2 1810.82   49.10
  -3   1  -2 1812.42   47.90
  -4  -1  -2   83.09    8.60
   4  -1   2   76.39   10.20
   4  -1   2   79.69   12.70
   4  -1   2   77.99    9.60
   4   1   2   62.79   10.00
   4   1   2   79.59    8.40
   4   1   2   92.09   13.30
  -4   1  -2   84.49   10.30
  -4   1  -2   56.89   10.30
   5  -1   2  492.75   23.30
   5  -1   2  486.75   23.20
   5  -1   2  486.15   30.10
  -5  -1  -2  464.85   20.80
   5   1   2  499.55   20.40
  -5   1  -2  522.55   27.40
  -5   1  -2  503.95   24.30
   5   1   2  478.35   28.70
   6  -1   2    2.10   13.20
   6  -1   2    1.10    8.40
   6   1   2   -5.90   12.70
   6   1   2    3.60   11.80
   6  -2  -2   38.00   16.60
   6  -2  -2   53.89   14.10
   6   2  -2   22.90   14.30
   5  -2  -2  -12.50    4.70
  -5  -2   2   -4.70    7.10
   5  -2  -2    1.10   10.30
   5  -2  -2    0.10    8.90
  -5   2   2   -5.90    7.40
   5   2  -2   -4.00   10.60
  -4  -2   2    6.90    5.30
   4  -2  -2    6.60    8.10
  -4  -2   2    6.30    8.30
   4  -2  -2    2.40    4.40
   4  -2  -2    3.70    5.70
   4  -2  -2    6.90    8.70
   4   2  -2    3.50    5.20
  -4   2   2    2.90    6.10
  -4   2   2    1.40    6.80
   4   2  -2   12.70    8.60
   3  -2  -2  123.59   12.60
   3  -2  -2  117.79   11.20
   3  -2  -2  105.29    9.20
  -3  -2   2  109.29   10.90
  -3  -2   2  103.49    8.60
  -3  -2   2  108.59   12.40
   3  -2  -2  114.99    7.90
  -3   2   2  125.29   10.70
   3   2  -2  119.49   11.80
  -3   2   2  110.59   10.60
  -3   2   2  112.99    8.40
  -3   2   2  119.69    9.90
   3   2  -2  122.79   11.70
   3   2  -2  111.09    8.30
  -2  -2   2 1202.68   31.00
   2  -2  -2 1173.68   33.60
   2  -2  -2 1161.38   29.30
   2  -2  -2 1176.38   33.40
   2  -2  -2 1171.88   31.90
  -2  -2   2 1197.68   33.50
  -2  -2   2 1224.98   35.50
  -2   2   2 1195.58   29.80
   2   2  -2 1162.48   34.60
  -2   2   2 1198.58   33.50
  -2   2   2 1178.88   31.60
  -2   2   2 1174.08   32.90
   2   2  -2 1188.18   30.00
   2   2  -2 1184.18   33.70
   1  -2  -2   56.49    5.20
   1  -2  -2   57.89    5.70
  -1  -2   2   60.39    6.60
  -1  -2   2   54.09    5.60
   1  -2  -2   64.39    6.20
   1   2  -2   61.39    6.50
  -1   2   2   55.79    4.00
  -1   2   2   66.79    6.20
  -1   2   2   60.29    5.10
  -1   2   2   59.49    5.50
   1   2  -2   49.70    5.40
  -1   2   2   53.99    4.70
   0  -2   2    9.20    2.60
   0  -2  -2    8.50    3.20
   0  -2   2    7.80    2.10
   0  -2  -2   11.00    2.40
   0  -2   2   15.10    1.80
   0   2  -2   10.40    2.30
   0   2  -2   12.50    2.80
   0   2   2   12.80    4.00
   0   2   2   10.80    2.30
  -1  -2  -2  355.46   12.90
   1  -2   2  356.06   13.20
   1  -2   2  339.17   13.00
  -1  -2  -2  353.56   10.90
   1  -2   2  354.36   12.20
   1  -2   2  348.87   10.50
  -1   2  -2  363.06   13.10
   1   2   2  346.27   13.10
  -1   2  -2  347.67   12.30
   1   2   2  365.06   11.00
   2  -2   2 1250.77   35.50
  -2  -2  -2 1236.88   28.90
  -2  -2  -2 1225.18   33.90
   2  -2   2 1242.98   34.50
   2  -2   2 1278.37   34.60
   2   2   2 1223.48   35.40
   2   2   2 1236.78   33.90
  -2   2  -2 1222.88   34.60
   2   2   2 1254.47   33.70
  -2   2  -2 1262.27   35.50
   2   2   2 1238.88   36.30
   2   2   2 1217.98   28.60
  -2   2  -2 1317.37   35.10
  -3  -2  -2   10.40    5.50
  -3  -2  -2   10.80    3.30
   3  -2   2    3.40    5.30
   3  -2   2    7.70    5.60
   3  -2   2   16.10    4.60
   3  -2   2    4.30    6.20
  -3   2  -2   10.00    6.20
  -3   2  -2   16.40    6.60
  -3   2  -2    6.40    5.30
   3   2   2   13.20    5.30
   3   2   2   12.50    6.40
   3   2   2   21.30    7.00
   3   2   2   13.20    3.30
   4  -2   2  914.51   35.30
   4  -2   2  888.91   28.70
   4  -2   2  909.41   32.10
   4   2   2  898.61   34.40
   4   2   2  891.91   34.80
  -4   2  -2  960.60   34.30
   4   2   2  947.01   26.30
  -4   2  -2  907.11   32.10
   5  -2   2   22.60    9.50
   5  -2   2   34.60   12.90
   5  -2   2   11.10    6.40
  -5  -2  -2    3.90    5.70
   5   2   2   27.70   12.90
   5   2   2   16.00   11.10
  -5   2  -2   26.00   10.70
   6  -2   2  226.08   19.90
   6  -2   2  198.98   24.80
   6   2   2  204.48   24.70
   6   2   2  245.18   25.60
   6  -3  -2   27.70   12.50
   6  -3  -2   39.40   16.70
  -6   3   2   48.00   11.80
   6   3  -2   47.40   15.00
   6   3  -2   34.00   14.60
   5  -3  -2  489.25   26.80
  -5  -3   2  479.75   21.60
   5  -3  -2  475.85   28.90
   5  -3  -2  440.56   18.40
   5   3  -2  471.45   28.80
  -5   3   2  478.55   25.10
   4  -3  -2   61.19    9.60
  -4  -3   2   83.69    9.50
   4  -3  -2   61.09    6.80
   4  -3  -2   88.39   13.60
   4  -3  -2   82.99   12.30
  -4  -3   2   55.69   12.10
   4   3  -2   74.59   11.90
   4   3  -2   71.99   12.20
  -4   3   2   82.39   13.80
   4   3  -2   73.79    8.90
  -4   3   2   85.89   11.40
  -3  -3   2  882.81   30.50
  -3  -3   2  887.71   26.60
   3  -3  -2  900.81   29.00
   3  -3  -2  921.01   31.90
   3  -3  -2  909.51   23.80
   3  -3  -2  858.41   30.80
  -3  -3   2  937.61   33.80
   3   3  -2  923.71   32.70
  -3   3   2  861.21   30.20
  -3   3   2  903.01   30.80
   3   3  -2  905.11   26.90
  -3   3   2  928.31   24.30
  -3   3   2  886.41   28.80
   3   3  -2  927.71   31.50
  -2  -3   2   99.79    6.90
   2  -3  -2   81.79    8.30
   2  -3  -2   96.19    9.10
   2  -3  -2   97.59    7.90
  -2  -3   2   99.89   10.70
   2  -3  -2  104.59    9.80
  -2  -3   2   90.69    8.10
  -2   3   2  109.09    5.30
  -2   3   2   94.39    7.90
   2   3  -2   99.19    9.70
  -2   3   2  100.39    8.90
   2   3  -2   92.69    8.90
   2   3  -2   92.39    6.20
  -2   3   2   98.99    8.10
   1  -3  -2 4927.61  112.19
   1  -3  -2 4897.21  109.29
   1  -3  -2 4937.21  111.09
  -1  -3   2 4893.01  111.29
  -1  -3   2 4895.21  112.79
   1   3  -2 4920.11  112.69
   1   3  -2 4814.52  110.99
  -1   3   2 4976.90  109.39
  -1   3   2 4838.52  110.59
  -1   3   2 4727.93  112.09
  -1   3   2 5026.70  111.09
   1   3  -2 4952.60  107.59
   0  -3  -2  641.64   20.80
   0  -3  -2  635.44   17.40
   0  -3   2  651.23   17.00
   0  -3   2  627.74   19.20
   0  -3   2  634.14   18.80
   0   3   2  624.14   20.90
   0   3  -2  627.34   18.70
   0   3   2  647.94   17.40
   0   3  -2  632.74   17.80
  -1  -3  -2 2981.50   67.09
   1  -3   2 2978.60   69.49
  -1  -3  -2 2807.32   63.79
  -1  -3  -2 2988.00   70.59
   1  -3   2 3002.90   66.39
   1  -3   2 3020.50   71.19
   1   3   2 3016.40   70.59
  -1   3  -2 2893.01   69.39
   1   3   2 3026.40   67.19
  -1   3  -2 2984.00   70.59
   1   3   2 2988.50   71.89
   2  -3   2  495.65   19.40
  -2  -3  -2  476.15   17.10
   2  -3   2  508.15   18.30
   2  -3   2  487.85   19.10
   2   3   2  519.65   19.60
   2   3   2  490.85   17.80
   2   3   2  471.65   20.20
   2   3   2  512.95   17.50
  -2   3  -2  499.25   18.80
  -2   3  -2  489.25   18.70
  -3  -3  -2 1312.67   38.90
   3  -3   2 1341.97   40.10
   3  -3   2 1323.07   41.20
  -3  -3  -2 1300.37   31.10
   3  -3   2 1266.57   43.10
   3  -3   2 1322.97   33.40
   3   3   2 1309.07   41.20
   3   3   2 1292.47   39.00
  -3   3  -2 1359.96   40.50
  -3   3  -2 1376.26   40.10
   3   3   2 1307.97   38.70
   3   3   2 1306.57   42.30
  -3   3  -2 1268.07   52.19
  -4  -3  -2  252.97   10.50
   4  -3   2  278.17   18.60
   4  -3   2  253.07   12.10
   4  -3   2  262.87   19.70
   4   3   2  265.07   19.80
  -4   3  -2  262.87   17.40
   4   3   2  235.58   18.50
   4   3   2  270.47   20.60
  -4   3  -2  296.27   19.10
   5  -3   2  451.35   25.40
   5   3   2  448.16   29.10
   5   3   2  448.16   27.10
  -5   3  -2  457.85   27.00
   6  -3   2   -5.30   14.00
   6  -3   2   15.90   10.80
  -6   3  -2   22.70   12.20
   6   3   2   -7.10   12.30
   6   3   2    6.10   13.90
   6  -4  -2   21.10   14.80
   6  -4  -2   40.50   13.30
   6   4  -2   38.70   14.80
  -6   4   2   37.60   13.00
   6   4  -2   19.30   13.10
  -5  -4   2   52.69    9.20
   5  -4  -2   84.79   15.10
  -5   4   2   65.99   12.30
   5   4  -2   88.89   14.70
   5   4  -2   51.19   14.00
   4  -4  -2   34.10   11.20
  -4  -4   2   24.10   11.40
  -4  -4   2   19.40    5.80
   4  -4  -2   28.60   11.10
   4   4  -2   25.90    7.00
  -4   4   2   25.30    8.40
   4   4  -2   50.09   10.30
   4   4  -2   28.50   10.60
   3  -4  -2   29.60    7.90
   3  -4  -2   27.30    8.50
  -3  -4   2   16.70    4.60
   3  -4  -2   19.50    6.20
   3  -4  -2   26.10    8.40
  -3  -4   2    5.90    7.90
   3   4  -2   22.70    6.20
   3   4  -2   14.40    4.90
   3   4  -2   25.00    7.90
  -3   4   2   16.70    6.80
   3   4  -2   21.50    7.20
  -2  -4   2   30.40    6.40
   2  -4  -2   25.60    6.10
   2  -4  -2   26.70    6.70
  -2  -4   2   28.20    7.60
   2  -4  -2   31.40    7.10
  -2   4   2   39.20    6.50
   2   4  -2   27.90    5.10
  -2   4   2   30.70    6.10
   2   4  -2   35.70    7.00
   2   4  -2   45.90    7.80
  -2   4   2   24.70    6.00
  -1  -4   2   25.10    6.10
   1  -4  -2   16.90    4.30
  -1  -4   2   21.00    3.30
   1  -4  -2   26.00    5.90
   1  -4  -2   24.10    5.40
   1   4  -2   15.40    4.70
   1   4  -2   13.20    3.10
  -1   4   2   23.00    5.60
  -1   4   2   12.80    4.50
  -1   4   2   16.70    4.60
   0  -4  -2   24.80    5.50
   0  -4   2   21.90    3.80
   0  -4   2   13.60    4.30
   0  -4  -2   18.50    3.60
   0  -4   2   21.80    4.20
   0   4  -2   18.20    4.00
   0   4   2    9.50    4.60
   0   4  -2   20.90    3.40
   0   4  -2   14.80    3.70
   0   4   2   27.50    4.10
   1  -4   2  135.99   10.30
   1  -4   2  139.19    8.60
  -1  -4  -2  117.99   10.80
  -1  -4  -2  121.69    6.70
   1  -4   2  130.09    6.40
   1  -4   2  124.79    8.30
  -1  -4  -2  129.19    5.00
  -1   4  -2  126.69    9.10
   1   4   2  120.99    9.30
  -1   4  -2  132.79    6.40
  -1   4  -2  136.49    9.00
   1   4   2  125.59    6.90
   1   4   2  144.99   10.10
  -2  -4  -2  212.28   11.00
   2  -4   2  237.28   14.00
   2  -4   2  226.18   14.10
   2  -4   2  228.48   12.60
   2   4   2  195.98   13.80
   2   4   2  206.38   11.30
  -2   4  -2  226.28   13.40
  -2   4  -2  232.98   13.20
   2   4   2  225.28   13.50
   3  -4   2   52.39    8.50
   3  -4   2   37.60    3.30
   3  -4   2   53.29   10.00
  -3  -4  -2   51.49    8.10
   3  -4   2   37.40    9.20
   3   4   2   51.99    8.10
   3   4   2   34.20   10.00
   3   4   2   36.60    8.30
   3   4   2   46.00    8.60
  -3   4  -2   35.10    7.70
  -3   4  -2   43.00    8.60
   4  -4   2   53.49   11.50
   4  -4   2   46.50   12.40
   4   4   2   54.59   10.60
  -4   4  -2   50.79   10.90
   4   4   2   43.60   11.50
   5  -4   2   51.19   13.30
   5  -4   2   64.39   15.60
   5   4   2   52.79   13.80
   5   4   2   42.60   13.00
  -5   4  -2   51.29   13.30
   6  -4   2   38.40   13.80
   6  -4   2   19.40   15.00
   6   4   2   52.89   15.50
   6   4   2   43.70   16.40
  -6   4  -2   39.00   13.60
   6  -5  -2   74.39   18.20
   6  -5  -2   46.00   15.60
  -6   5   2   77.39   14.90
   6   5  -2  111.69   19.80
   6   5  -2   68.49   15.80
   5  -5  -2  282.97   25.00
  -5  -5   2  224.88   14.40
   5  -5  -2  288.27   26.60
  -5   5   2  297.67   21.50
   5   5  -2  290.07   21.80
  -4  -5   2  353.16   15.70
   4  -5  -2  379.96   24.40
   4  -5  -2  350.16   23.70
  -4  -5   2  365.86   26.80
   4   5  -2  395.66   23.30
   4   5  -2  390.16   21.40
  -4   5   2  390.66   21.70
   4   5  -2  357.76   20.10
  -3  -5   2 1264.97   35.50
   3  -5  -2 1141.99   38.50
  -3  -5   2 1151.08   42.40
   3  -5  -2 1135.89   39.60
   3  -5  -2 1226.98   40.20
  -3  -5   2 1139.19   38.00
   3   5  -2 1218.18   36.20
  -3   5   2 1133.89   38.20
   3   5  -2 1171.38   33.80
  -3   5   2 1209.18   38.30
   3   5  -2 1153.48   38.40
  -3   5   2 1146.09   37.10
   3   5  -2 1114.19   40.60
  -2  -5   2  679.73   27.70
  -2  -5   2  656.93   24.10
   2  -5  -2  644.64   25.00
   2  -5  -2  668.83   23.90
   2  -5  -2  664.63   25.40
  -2   5   2  654.13   24.40
   2   5  -2  641.44   24.50
   2   5  -2  654.03   26.30
   2   5  -2  680.13   21.70
  -2   5   2  695.33   24.40
   1  -5  -2  680.93   21.60
  -1  -5   2  702.33   24.50
   1  -5  -2  687.23   24.50
  -1  -5   2  712.23   25.60
   1  -5  -2  694.13   23.50
  -1  -5   2  716.13   20.70
  -1   5   2  702.83   19.90
  -1   5   2  710.93   25.20
  -1   5   2  691.33   22.90
   1   5  -2  686.33   20.80
   1   5  -2  707.03   24.80
   0  -5   2 1262.77   35.20
   0  -5  -2 1283.47   38.10
   0  -5   2 1276.17   35.70
   0  -5  -2 1273.47   33.60
   0  -5   2 1241.68   34.10
   0   5   2 1262.97   33.50
   0   5  -2 1300.67   35.10
   0   5  -2 1267.77   34.60
   0   5   2 1315.17   38.00
   0   5  -2 1324.17   33.40
   0   5   2 1278.17   35.10
   1  -5   2 2882.61   67.09
  -1  -5  -2 2942.21   67.99
  -1  -5  -2 3026.90   73.59
   1  -5   2 2942.31   72.99
  -1  -5  -2 2886.81   65.59
   1  -5   2 3003.50   70.89
  -1   5  -2 2947.10   71.29
   1   5   2 2824.42   72.99
  -1   5  -2 2867.51   66.99
  -1   5  -2 2886.31   72.09
   1   5   2 2907.91   72.39
   2  -5   2 3682.63   91.79
   2  -5   2 3789.32   93.99
   2  -5   2 3802.42   94.19
  -2  -5  -2 3818.32   89.39
  -2   5  -2 3911.31   92.79
   2   5   2 3800.12   89.59
   2   5   2 3745.43   95.49
   2   5   2 3882.01   93.19
  -2   5  -2 3767.02   93.29
   3  -5   2 1168.28   37.80
  -3  -5  -2 1138.09   35.70
   3  -5   2 1222.28   40.40
   3  -5   2 1152.08   39.90
   3   5   2 1062.99   35.40
  -3   5  -2 1129.19   38.00
   3   5   2 1209.38   39.20
  -3   5  -2 1139.29   37.90
   3   5   2 1091.29   40.50
   4  -5   2   37.50   11.60
   4  -5   2   46.70   13.00
   4   5   2   49.30   11.80
   4   5   2   44.80   10.10
  -4   5  -2   27.00   10.30
   5  -5   2  139.79   18.80
   5  -5   2  158.68   21.70
  -5   5  -2  188.28   20.70
   5   5   2  125.19   16.70
   5   5   2  198.48   30.40
   5  -6  -2   14.20   12.70
  -5  -6   2   -7.30    5.40
   5  -6  -2    6.30   20.10
   5   6  -2   -5.00   11.10
  -5   6   2   22.80   11.50
   5   6  -2    0.60    9.40
  -4  -6   2    1.50    4.60
   4  -6  -2    7.10   10.90
  -4  -6   2   -6.10   10.50
   4  -6  -2  -12.10    9.10
  -4   6   2    0.60    7.60
   4   6  -2   -5.10    5.70
   4   6  -2    5.10    7.20
   4   6  -2   -1.00    8.90
   3  -6  -2   -8.90    8.00
   3  -6  -2   12.70    8.10
  -3  -6   2    1.70    5.90
  -3  -6   2   13.60    4.40
  -3  -6   2    6.20    9.10
   3   6  -2   11.70    8.10
  -3   6   2    1.20    7.00
   3   6  -2    6.40    6.00
   3   6  -2   10.20    5.10
   2  -6  -2   20.30    7.20
   2  -6  -2   22.90    7.40
  -2  -6   2   24.80    8.90
  -2  -6   2   21.70    6.60
   2  -6  -2   40.90    9.00
   2   6  -2   41.10    9.00
  -2   6   2   33.90    7.60
  -2   6   2   18.20    7.70
   2   6  -2   25.30    5.60
  -1  -6   2    7.50    5.80
   1  -6  -2    8.60    4.60
   1  -6  -2    0.30    4.60
   1  -6  -2    2.90    5.30
  -1  -6   2    2.20    4.30
  -1  -6   2   11.50    4.20
  -1  -6   2    1.60    5.20
   1   6  -2    6.50    3.70
  -1   6   2   11.50    6.40
  -1   6   2   -0.20    4.10
  -1   6   2    6.40    3.30
   1   6  -2    9.80    5.20
   0  -6   2   99.29    8.50
   0  -6  -2   95.29    8.40
   0  -6  -2   83.79   10.00
   0  -6   2  101.89    9.60
   0  -6   2   93.19    9.30
   0   6  -2   94.29    7.90
   0   6   2  102.69   11.10
   0   6  -2   92.09    8.50
   0   6   2   91.79    8.60
   1  -6   2  192.58   11.70
  -1  -6  -2  204.88   10.40
   1  -6   2  196.88    9.90
   1  -6   2  219.78   14.10
  -1  -6  -2  195.88   14.00
  -1  -6  -2  209.78    9.10
   1   6   2  202.48   13.50
   1   6   2  195.68   13.40
  -1   6  -2  213.78   13.00
  -1   6  -2  241.78   13.70
  -1   6  -2  197.18    9.70
   2  -6   2  163.98   12.50
   2  -6   2  164.48   15.10
   2  -6   2  182.78   14.70
  -2  -6  -2  183.18   13.40
   2  -6   2  155.98   12.40
  -2  -6  -2  172.38   10.80
  -2   6  -2  157.08   12.70
   2   6   2  175.28   11.50
  -2   6  -2  161.48   13.50
   2   6   2  163.58   14.30
   2   6   2  163.38   13.50
  -3  -6  -2    7.30    6.10
   3  -6   2    9.40    8.50
   3  -6   2   16.10    9.70
  -3   6  -2   13.80    8.30
   3   6   2    2.00    6.20
   3   6   2    4.30    6.10
  -3   6  -2    9.50   11.00
   3   6   2    1.80    7.50
   4  -6   2   20.40   11.30
   4  -6   2   32.00   12.50
   4   6   2   26.40    9.60
   4   6   2   26.50   10.70
  -4   6  -2   41.30   11.90
   5  -6   2   88.29   18.10
   5  -6   2   85.69   17.00
   5   6   2   75.89   15.30
  -5   6  -2   84.89   16.80
   5   6   2   79.09   16.30
   5  -7  -2   88.09   18.30
   5  -7  -2  111.19   19.40
  -5   7   2  114.09   16.50
   5   7  -2  132.59   19.90
   5   7  -2  105.59   15.80
   4  -7  -2  377.06   26.40
  -4  -7   2  398.66   16.20
   4  -7  -2  424.16   26.80
   4   7  -2  428.16   26.50
   4   7  -2  439.66   23.20
   4   7  -2  403.36   23.70
  -4   7   2  387.36   24.30
  -3  -7   2  337.47   14.40
  -3  -7   2  307.27   24.20
   3  -7  -2  277.57   20.00
   3  -7  -2  325.77   21.80
   3   7  -2  322.87   20.40
  -3   7   2  344.57   21.10
   3   7  -2  288.87   17.00
   2  -7  -2 1140.79   36.30
   2  -7  -2 1051.19   38.30
   2  -7  -2 1120.99   38.20
  -2  -7   2 1066.19   36.70
  -2  -7   2 1162.68   41.10
  -2  -7   2 1128.39   32.40
   2   7  -2 1139.79   33.60
  -2   7   2 1092.19   36.70
  -2   7   2 1090.39   27.90
  -2   7   2 1160.98   38.20
   2   7  -2 1068.89   38.70
  -2   7   2 1113.29   26.10
   1  -7  -2  261.87   14.00
  -1  -7   2  223.48   14.80
  -1  -7   2  238.48   15.90
   1  -7  -2  216.98   15.30
  -1  -7   2  249.78   17.10
   1  -7  -2  240.78   15.40
  -1  -7   2  254.57   13.80
  -1   7   2  257.57   11.90
   1   7  -2  246.48   12.80
  -1   7   2  261.77   14.30
   1   7  -2  246.38   15.60
  -1   7   2  265.57   16.90
   0  -7   2 1305.47   38.90
   0  -7  -2 1288.37   36.50
   0  -7  -2 1275.37   40.80
   0  -7   2 1235.78   37.30
   0  -7   2 1258.77   38.00
   0   7   2 1251.57   37.50
   0   7   2 1319.77   40.70
   0   7  -2 1293.17   37.80
   0   7   2 1307.37   36.20
   0   7  -2 1286.87   36.10
   0   7  -2 1252.97   37.30
   1  -7   2  689.33   24.70
   1  -7   2  692.33   22.00
  -1  -7  -2  623.44   26.90
  -1  -7  -2  661.43   22.20
   1  -7   2  697.03   26.90
  -1  -7  -2  708.03   20.90
  -1   7  -2  657.33   25.60
  -1   7  -2  689.13   25.60
   1   7   2  701.03   27.10
   1   7   2  686.83   26.80
  -1   7  -2  665.83   21.30
   2  -7   2  490.25   25.30
  -2  -7  -2  468.85   22.70
   2  -7   2  467.95   21.80
   2  -7   2  492.65   24.20
  -2  -7  -2  467.85   19.10
  -2  -7  -2  495.05   13.10
  -2   7  -2  455.95   22.10
   2   7   2  479.65   25.10
  -2   7  -2  540.55   23.60
   2   7   2  522.15   24.80
   3  -7   2  801.92   35.60
   3  -7   2  818.22   35.70
   3   7   2  848.62   31.00
   3   7   2  836.32   33.30
  -3   7  -2  847.12   33.60
   4  -7   2  604.84   33.50
   4  -7   2  671.63   34.40
   4   7   2  610.14   31.60
  -4   7  -2  624.34   31.90
   4   7   2  628.54   29.20
   5  -7   2   54.59   15.90
   5  -7   2   26.40   14.30
  -5   7  -2   40.10   15.00
   5   7   2   27.40   13.30
   5  -8  -2   16.80   14.50
   5  -8  -2   -7.40   12.60
   5   8  -2   30.90   12.90
  -5   8   2   23.30   13.20
   5   8  -2    6.20    9.80
   4  -8  -2   -0.50   12.50
  -4  -8   2    4.40    4.60
  -4  -8   2    2.00    5.00
   4  -8  -2   17.20   12.30
  -4   8   2   11.70   10.20
   4   8  -2   -2.30    7.50
  -3  -8   2   46.20    7.30
  -3  -8   2   29.60   12.40
  -3  -8   2   33.70    6.50
   3  -8  -2   59.69   12.40
   3  -8  -2   32.90   12.30
  -3   8   2   45.40   11.10
   3   8  -2   44.00   10.50
   2  -8  -2    5.80    7.40
  -2  -8   2   11.60    7.20
  -2  -8   2    0.60    8.70
   2  -8  -2   20.20    8.40
  -2  -8   2   -2.00    5.10
   2  -8  -2   12.40    9.10
   2   8  -2    0.30    5.20
  -2   8   2    6.90    2.70
  -2   8   2    7.30    8.10
  -2   8   2    9.80    6.80
   2   8  -2    9.50    6.70
   1  -8  -2   97.99   12.40
  -1  -8   2  127.99   14.80
   1  -8  -2  131.09   13.30
  -1  -8   2   85.89   11.90
  -1  -8   2   94.49   10.40
  -1  -8   2  113.79   11.20
   1  -8  -2  114.09   11.60
   1   8  -2  116.09   10.40
  -1   8   2   97.09   12.20
  -1   8   2  111.49   11.00
  -1   8   2  111.19   13.60
   1   8  -2  117.99   12.40
   0  -8  -2   29.20    7.30
   0  -8   2   33.00    8.50
   0  -8   2   29.10    6.30
   0  -8   2   28.30    7.60
   0  -8  -2   34.30    8.30
   0   8  -2   19.40    6.90
   0   8  -2   23.80    6.20
   0   8  -2   31.50    7.30
   0   8   2   28.20    6.30
   0   8   2   36.20    6.70
   0   8   2   48.90    9.60
   1  -8   2   26.90    6.70
  -1  -8  -2    5.10    6.60
  -1  -8  -2   11.40    4.80
  -1  -8  -2   18.40    5.20
   1  -8   2   15.10    8.90
   1  -8   2   13.20    5.20
  -1   8  -2    4.90    6.30
   1   8   2   26.80    8.50
  -1   8  -2   12.40    5.20
  -1   8  -2    3.50    6.30
   1   8   2    7.20    6.30
  -2  -8  -2   63.39    8.60
  -2  -8  -2   56.29    5.40
   2  -8   2   46.00   11.60
   2  -8   2   57.29    9.90
   2  -8   2   55.49   12.30
   2   8   2   45.80    9.90
  -2   8  -2   66.49   11.30
   2   8   2   35.90   13.20
   3  -8   2 1160.58   44.90
  -3  -8  -2 1085.99   37.00
   3  -8   2 1167.88   44.60
  -3   8  -2 1174.68   42.40
   3   8   2 1142.49   41.60
   4  -8   2   46.40   15.20
   4  -8   2   47.50   14.90
  -4   8  -2   29.70   12.30
   4   8   2   23.20   10.20
   4   8   2   51.19   12.90
   5  -8   2   70.09   18.50
   5  -8   2   78.39   19.30
  -5   8  -2   96.79   18.40
   5   8   2  113.69   18.80
   5   8   2   85.79   15.70
   5  -9  -2   33.70   14.90
   5  -9  -2    3.40   16.50
   5   9  -2   21.20   10.90
  -5   9   2   21.90   14.00
   4  -9  -2  470.25   30.00
   4  -9  -2  477.55   32.70
  -4  -9   2  438.96   16.80
  -4   9   2  502.35   30.70
   4   9  -2  496.45   25.80
   3  -9  -2   51.89   14.00
   3  -9  -2   43.90   12.50
  -3  -9   2   41.30    7.50
  -3  -9   2   34.90   13.90
   3   9  -2   44.20    9.50
  -3   9   2   34.80   11.40
   2  -9  -2 1210.98   42.90
  -2  -9   2 1174.28   45.60
  -2  -9   2 1088.69   40.50
  -2  -9   2 1240.98   36.20
   2  -9  -2 1181.68   40.10
   2   9  -2 1117.79   37.00
  -2   9   2 1228.08   43.30
  -2   9   2 1151.28   29.70
  -1  -9   2  152.38   13.00
   1  -9  -2  183.58   15.20
  -1  -9   2  168.58   17.10
   1  -9  -2  167.98   15.60
  -1  -9   2  155.28   14.00
   1  -9  -2  169.48   15.10
  -1   9   2  176.38   16.80
  -1   9   2  154.38   16.30
  -1   9   2  156.58   12.90
   1   9  -2  168.98   15.00
   1   9  -2  144.99   12.50
  -1   9   2  144.89   11.10
   0  -9   2 1708.63   49.60
   0  -9  -2 1698.73   53.49
   0  -9   2 1700.43   50.59
   0  -9   2 1686.03   50.29
   0  -9  -2 1683.83   48.40
   0   9   2 1787.42   53.29
   0   9  -2 1676.73   49.30
   0   9   2 1647.14   47.60
   0   9   2 1662.63   49.30
   0   9  -2 1708.03   50.19
   0   9  -2 1698.63   48.00
   1  -9   2  494.95   20.40
   1  -9   2  527.35   26.00
  -1  -9  -2  486.85   20.40
   1  -9   2  510.75   22.60
  -1  -9  -2  435.76   28.00
  -1  -9  -2  464.15   19.00
   1   9   2  476.45   23.70
  -1   9  -2  511.35   24.50
  -1   9  -2  479.05   23.00
  -1   9  -2  495.55   19.40
   1   9   2  481.85   24.60
   2  -9   2  410.66   26.00
   2  -9   2  441.36   26.10
  -2  -9  -2  338.47   22.10
   2  -9   2  451.35   22.70
  -2  -9  -2  419.06   19.50
  -2  -9  -2  418.46   14.20
   2   9   2  407.06   23.30
  -2   9  -2  415.56   23.60
   3  -9   2  102.49   17.40
  -3  -9  -2   85.69   11.50
   3  -9   2   74.79   16.50
   3   9   2  102.59   14.70
  -3   9  -2   89.49   14.60
   4  -9   2  524.65   34.60
   4  -9   2  510.25   33.90
   4   9   2  569.94   31.80
  -4   9  -2  559.74   32.60
   5  -9   2   19.10   16.20
   5  -9   2   22.20   17.10
   5   9   2   -5.40   11.00
  -5   9  -2    5.10   13.30
   5 -10  -2   -0.20   14.20
   5 -10  -2  -15.10   15.10
   5  10  -2  -16.40   10.30
  -5  10   2    9.40   13.90
   4 -10  -2   -2.10   12.10
   4 -10  -2   -1.10   13.70
   4  10  -2   25.60    9.90
  -4  10   2  -10.70   10.60
  -3 -10   2    1.60    5.60
   3 -10  -2    2.60   10.90
   3 -10  -2   13.30   13.40
  -3  10   2  -17.00    9.30
   3  10  -2   -1.30    7.50
  -2 -10   2  200.28   14.90
   2 -10  -2  218.58   20.60
   2 -10  -2  192.28   18.90
  -2 -10   2  198.88   22.40
  -2  10   2  231.18   20.40
  -2  10   2  196.48    9.60
   2  10  -2  197.58   15.40
  -1 -10   2    8.60    9.30
  -1 -10   2   11.70    7.10
   1 -10  -2    7.30    9.30
   1 -10  -2   18.00    8.70
  -1 -10   2   11.30    8.40
  -1 -10   2   29.10    9.40
   1  10  -2    7.60    7.00
  -1  10   2   15.00    5.60
  -1  10   2   19.10    9.50
   1  10  -2   12.70    7.00
  -1  10   2   16.90    8.90
  -1  10   2   10.20    6.90
   0 -10  -2   28.50    7.80
   0 -10   2   11.60    8.40
   0 -10   2   33.30    7.80
   0 -10  -2   33.50    9.00
   0 -10   2   18.60    9.20
   0  10   2   29.30    7.80
   0  10  -2   12.50    8.50
   0  10  -2   25.20    7.70
   0  10   2   16.90    6.40
   0  10  -2   12.20    7.00
   0  10   2   23.80    9.40
  -1 -10  -2    4.90    5.70
  -1 -10  -2   12.00    6.50
   1 -10   2    7.00    7.90
  -1 -10  -2   25.20    9.00
   1 -10   2   13.50   10.00
   1  10   2   16.80    8.90
  -1  10  -2   10.20    8.70
  -1  10  -2   12.10    5.30
  -2 -10  -2   26.00    5.50
   2 -10   2   30.60   12.60
  -2 -10  -2   28.50    7.40
   2 -10   2   29.10   12.90
  -2  10  -2   22.90    9.70
   2  10   2   40.90   11.30
   3 -10   2   49.99   16.60
   3 -10   2   43.40   15.60
  -3  10  -2   64.69   15.20
   3  10   2   37.10   11.40
   4 -10   2   22.80   14.80
   4 -10   2   40.40   17.70
   4  10   2   52.69   14.30
  -4  10  -2   27.70   14.50
   4 -11  -2  274.07   28.60
   4 -11  -2  270.37   27.80
  -4  11   2  272.47   27.50
   4  11  -2  304.87   21.80
   3 -11  -2    4.40   11.30
  -3 -11   2    2.10    6.20
   3  11  -2   10.50    8.60
  -3  11   2   18.10   14.10
  -2 -11   2  689.43   27.20
  -2 -11   2  687.23   37.40
   2 -11  -2  646.64   34.00
  -2 -11   2  632.04   28.30
   2 -11  -2  730.23   32.30
  -2  11   2  670.73   21.00
  -2  11   2  679.23   34.20
   2  11  -2  688.93   28.30
  -1 -11   2   35.00   10.10
   1 -11  -2   24.90   11.40
  -1 -11   2   24.10   11.20
  -1 -11   2   25.50    8.80
   1 -11  -2   25.10   10.20
  -1  11   2   20.10   10.40
  -1  11   2   21.00    6.30
  -1  11   2   40.70   12.40
   1  11  -2   34.00    9.90
   0 -11   2  630.64   29.40
   0 -11   2  633.44   27.70
   0 -11  -2  680.83   28.20
   0  11   2  597.04   29.90
   0  11  -2  651.53   28.90
   0  11   2  542.05   24.80
   0  11   2  594.64   27.10
   0  11  -2  642.54   26.80
   0  11  -2  605.64   27.00
  -1 -11  -2   52.49    9.20
   1 -11   2   31.90    8.60
  -1 -11  -2   36.20    8.60
   1 -11   2   53.09   13.60
  -1  11  -2   33.50   10.90
  -1  11  -2   44.40    8.10
   1  11   2   46.50   12.10
   2 -11   2  726.63   37.50
   2 -11   2  706.23   36.60
  -2 -11  -2  715.43   23.00
  -2 -11  -2  689.23   28.20
  -2  11  -2  742.83   34.80
  -2  11  -2  677.63   21.50
   2  11   2  761.62   34.50
   3 -11   2    3.60   13.20
   3 -11   2   -4.80   12.10
  -3  11  -2   -6.20   11.10
   3  11   2    3.90   10.40
   4 -11   2  133.89   23.40
   4 -11   2  129.39   24.00
   4  11   2  112.39   19.40
  -4  11  -2  143.19   20.30
   4 -12  -2   31.70   17.30
   4 -12  -2   33.60   15.90
  -4  12   2  -11.00   13.40
   4  12  -2   15.10   10.20
  -3 -12   2  -10.50   10.10
   3 -12  -2   16.00   15.50
   3 -12  -2    2.50   11.80
   3  12  -2   -6.90    7.40
  -3  12   2    6.70   13.70
  -2 -12   2    2.20    8.10
   2 -12  -2  -15.50   11.60
   2 -12  -2    0.40    9.90
  -2  12   2   -6.40    4.20
   2  12  -2   -5.70    7.30
  -2  12   2   -7.50   10.70
   1 -12  -2    4.50   10.90
   1 -12  -2   -5.20    8.10
  -1 -12   2   -4.50    8.70
  -1 -12   2  -13.10    6.50
  -1  12   2   -5.80    9.10
   1  12  -2   -5.20    6.90
  -1  12   2   -0.20   10.60
  -1  12   2   -3.30    5.80
   0 -12   2   30.90    8.70
   0 -12  -2    8.40    9.40
   0 -12   2   15.40   11.40
   0  12   2   19.40   10.60
   0  12  -2   14.60    8.20
   0  12  -2    2.20    9.80
   0  12  -2   11.90    8.80
  -1 -12  -2   88.89   12.60
  -1 -12  -2   80.49   11.60
   1 -12   2   71.89   14.70
   1  12   2  100.99   15.20
  -1  12  -2   92.29   11.10
  -1  12  -2  121.79   17.50
  -2 -12  -2   -3.60    5.10
   2 -12   2   22.30   14.40
   2 -12   2   -8.90   11.70
   2  12   2  -10.20    8.70
  -2  12  -2   -5.50   10.30
  -2  12  -2   -9.40    4.30
   3 -12   2  106.19   21.10
   3 -12   2   96.89   19.40
   3  12   2  103.79   17.60
  -3  12  -2   89.49   17.10
   4 -12   2   41.20   17.40
   4 -12   2    0.30   16.70
  -4  12  -2   -0.10   13.50
   4  12   2    8.90   11.60
  -3 -13   2  -11.00    6.70
   3 -13  -2   -3.10   16.30
   3 -13  -2    9.60   13.70
   3  13  -2   10.40    8.90
  -3  13   2   10.00   14.50
   2 -13  -2  440.36   31.80
  -2 -13   2  429.86   23.60
   2 -13  -2  404.46   27.60
  -2  13   2  476.65   32.00
   2  13  -2  433.86   23.90
   1 -13  -2   27.40   11.90
   1 -13  -2   44.50   14.60
  -1 -13   2   26.00   11.60
  -1  13   2   29.40    9.70
  -1  13   2   44.60   14.90
   1  13  -2   26.90    9.80
  -1  13   2   57.39   14.80
   0 -13  -2  309.37   22.90
   0 -13   2  269.97   23.10
   0  13  -2  287.47   23.40
   0  13   2  298.77   24.10
  -1 -13  -2   24.70   10.00
   1 -13   2   29.70   14.10
  -1  13  -2   50.49   14.80
   1  13   2   29.90   11.50
   2 -13   2  326.47   45.60
  -2 -13  -2  322.77   16.30
   2 -13   2  317.17   29.60
  -2  13  -2  320.17   27.70
   2  13   2  309.27   24.90
   3 -13   2    2.40   15.70
   3 -13   2    7.00   15.20
  -3  13  -2   38.10   14.30
   3 -14  -2   10.30   17.70
   3 -14  -2   -6.00   12.50
  -3  14   2   17.30   15.90
   3  14  -2   14.40    9.80
   2 -14  -2    1.70   14.30
   2 -14  -2   -0.70   12.80
  -2 -14   2   -3.10    9.70
  -2  14   2   -6.40   12.40
   2  14  -2    7.80    8.30
  -2  14   2  -15.80    6.80
   1 -14  -2    2.50   13.00
   1 -14  -2   20.50   12.70
  -1 -14   2   33.70   12.70
   1  14  -2   18.50   13.70
  -1  14   2    2.10    9.00
  -1  14   2    5.60   11.80
  -1  14   2   10.30   15.40
   1  14  -2   19.90    8.70
   0 -14  -2  -10.50   10.30
   0 -14   2    3.20   11.70
   0  14   2    5.50   10.70
   0  14  -2  -14.00   17.20
  -1 -14  -2   18.70    9.90
   1 -14   2   31.00   15.90
   1  14   2    6.00   10.00
  -1  14  -2    6.90   12.30
  -1  14  -2   10.70    9.60
   2 -14   2   -3.50   14.60
   2 -14   2    1.30   14.30
   2  14   2  -11.80    9.80
  -2  14  -2   -3.10   12.70
   3 -14   2  -30.50   15.70
   3 -14   2    6.00   17.20
  -3  14  -2  -12.80   12.00
   3  14   2    8.60   11.60
  -2 -15   2   99.19   14.50
   2 -15  -2   79.79   17.70
   2 -15  -2  104.39   20.60
  -2  15   2   58.79   17.30
   2  15  -2  108.89   15.10
   1 -15  -2   35.90   15.50
   1 -15  -2   79.59   15.90
  -1 -15   2   30.30   13.10
  -1  15   2   40.10   15.20
   1  15  -2   67.99   12.80
   1  15  -2   46.10   14.50
   0 -15   2  196.48   23.70
   0 -15  -2  226.18   23.30
   0  15   2  186.28   21.40
   0  15   2  259.87   26.30
   0  15  -2  178.28   21.30
   1 -15   2  132.09   22.20
  -1 -15  -2  121.79   15.60
   1  15   2  109.19   17.40
  -1  15  -2  120.49   18.90
   2 -15   2  106.09   22.00
   2 -15   2  144.49   24.50
  -2  15  -2  120.19   19.80
   2  15   2  162.28   20.90
   1 -16  -2   35.90   15.90
  -1 -16   2   24.00   13.10
   1 -16  -2   45.50   17.00
   1  16  -2   18.80   11.70
  -1  16   2   30.10   15.10
   1  16  -2   28.50   12.90
   0 -16   2   33.40   15.60
   0 -16  -2   35.90   14.40
   0 -16  -2   39.80   14.70
   0  16  -2   41.00   15.20
   0  16   2   22.10   13.20
   0  16   2   12.10   14.60
  -1 -16  -2   28.20   12.20
   1 -16   2   19.50   16.40
   1 -16   2    9.90   16.60
  -1  16  -2   -3.40   12.70
   1  16   2   21.90   12.70
   6   0  -3   10.70   12.70
   5   0  -3   52.49   10.20
   5   0  -3   81.19   15.60
   4   0  -3   -5.60    7.60
   4   0  -3    2.60    6.80
  -4   0   3    4.40    5.80
  -4   0   3    0.10    6.40
  -4   0   3   -6.00    5.90
   4   0  -3   -0.20    5.10
   4   0  -3   -1.60    5.40
  -3   0   3 1164.58   34.60
  -3   0   3 1174.18   35.50
   3   0  -3 1154.88   31.90
  -3   0   3 1172.88   31.90
   3   0  -3 1091.69   37.10
   3   0  -3 1212.48   35.00
  -3   0   3 1154.08   35.90
   3   0  -3 1142.79   34.30
  -2   0   3   -1.00    2.20
  -2   0   3   -1.00    3.50
  -2   0   3   -2.00    3.40
   2   0  -3    3.20    3.30
   2   0  -3    5.60    2.50
   2   0  -3   -2.00    3.30
   2   0  -3    1.50    4.00
  -2   0   3   -0.20    3.40
   1   0  -3 9999.00  217.88
   0   0  -3   -0.40    1.80
   0   0   3    1.30    1.90
   0   0   3    1.20    2.30
   0   0   3   -0.30    1.30
  -1   0  -3 2276.87   53.19
   1   0   3 2316.07   53.29
   1   0   3 2236.58   52.19
   1   0   3 2196.28   52.29
  -2   0  -3    0.00    2.50
  -2   0  -3    2.40    3.90
   2   0   3    1.00    3.60
  -2   0  -3    4.60    3.80
   2   0   3    0.50    3.90
   2   0   3    1.20    2.80
  -3   0  -3 2163.18   59.39
  -3   0  -3 2341.57   60.69
   3   0   3 2174.68   68.69
   3   0   3 2365.36   60.39
  -3   0  -3 2362.66   60.59
   3   0   3 2310.87   56.39
   3   0   3 2255.37   59.89
  -4   0  -3   -9.50    4.70
   4   0   3    7.90    8.60
   4   0   3    1.20    5.30
   4   0   3    3.60    6.00
   5   0   3 1556.84   44.80
  -5   0  -3 1523.65   45.70
   5   0   3 1664.23   54.89
   5   0   3 1451.55   49.30
   6   0   3   -2.50   12.30
   6   0   3   -2.30    6.80
   6  -1  -3  433.86   33.00
   6   1  -3  505.95   34.30
   5  -1  -3  -11.70    6.10
   5  -1  -3   28.20   10.30
   5  -1  -3   20.40   11.80
   5   1  -3   16.50   12.00
  -5   1   3   11.60    7.60
   4  -1  -3 1011.20   34.90
   4  -1  -3 1054.39   37.90
  -4  -1   3  970.60   33.10
   4  -1  -3  967.80   31.90
   4  -1  -3  995.80   32.40
  -4  -1   3 1045.70   37.60
  -4   1   3 1041.50   35.10
   4   1  -3  962.00   31.10
  -4   1   3 1062.39   33.70
   4   1  -3 1048.80   37.60
   4   1  -3  962.40   35.10
  -4   1   3 1012.60   32.20
   3  -1  -3   60.29    8.20
   3  -1  -3   46.60    6.50
  -3  -1   3   51.59    9.00
  -3  -1   3   62.69    9.10
   3  -1  -3   46.50    8.10
  -3  -1   3   55.19    7.60
   3  -1  -3   50.49    9.80
  -3   1   3   56.29    7.50
   3   1  -3   42.80    7.90
   3   1  -3   49.00    5.80
  -3   1   3   45.00    8.10
  -3   1   3   42.00    6.00
  -3   1   3   55.09    8.40
   3   1  -3   50.19    8.90
   2  -1  -3 1909.71   47.30
  -2  -1   3 1887.61   50.29
   2  -1  -3 1827.42   48.80
   2  -1  -3 1914.01   49.00
  -2  -1   3 2083.69   51.59
   2  -1  -3 1954.30   46.40
  -2  -1   3 1935.61   49.50
  -2   1   3 1951.40   46.20
   2   1  -3 1917.71   44.90
   2   1  -3 1899.51   49.50
  -2   1   3 1984.00   49.40
  -2   1   3 1924.31   48.90
  -2   1   3 1891.01   48.00
  -1  -1   3    6.00    3.40
   1  -1  -3    4.80    3.10
   1  -1  -3    8.00    2.80
  -1  -1   3    5.90    3.00
   1  -1  -3    7.40    3.30
   1  -1  -3    2.70    2.70
   1   1  -3    8.20    3.50
  -1   1   3    7.20    3.10
  -1   1   3    5.20    2.60
   1   1  -3    7.80    1.00
  -1   1   3    6.60    2.10
  -1   1   3    6.80    3.20
   1   1  -3    6.50    3.50
  -1   1   3    7.90    2.70
   0  -1   3 2245.98   49.30
   0  -1  -3 2279.57   51.99
   0  -1   3 2136.79   51.69
   0  -1   3 2187.48   49.10
   0   1   3 2197.98   48.30
   0   1  -3 2175.98   49.30
   0   1   3 2270.97   50.49
   0   1   3 2295.97   52.59
   0   1  -3 2179.08   51.79
   1  -1   3   41.50    4.90
  -1  -1  -3   40.00    4.00
   1  -1   3   47.20    4.80
   1  -1   3   41.10    5.20
   1   1   3   39.80    4.90
   1   1   3   47.50    4.10
   1   1   3   39.80    4.70
  -1   1  -3   37.70    4.70
   2  -1   3  275.87   13.40
   2  -1   3  290.97   12.30
   2  -1   3  294.37   12.90
  -2  -1  -3  267.67   12.00
   2   1   3  285.07    9.60
   2   1   3  274.47   12.80
  -2   1  -3  242.98   12.50
  -2   1  -3  259.47   11.80
  -2   1  -3  276.37   13.10
   2   1   3  261.37   12.20
  -3  -1  -3   28.80    4.60
   3  -1   3   34.00    8.00
   3  -1   3   44.80    7.30
   3  -1   3   25.80    6.50
   3  -1   3   36.70    6.40
  -3  -1  -3   35.20    7.00
   3   1   3   37.10    7.80
  -3   1  -3   35.90    8.10
  -3   1  -3   19.10    5.70
   3   1   3   23.60    6.20
   3   1   3   31.20    4.90
  -3   1  -3   46.40    8.40
   3   1   3   27.40    6.80
   4  -1   3   38.30    8.00
   4  -1   3   31.80    7.30
  -4  -1  -3   27.60    6.00
   4  -1   3   44.10   11.30
  -4   1  -3   43.20    8.10
  -4   1  -3   37.50    9.80
   4   1   3   39.60   10.60
   4   1   3   38.60    6.40
   4   1   3   25.10    8.10
   5  -1   3   32.20   12.60
   5  -1   3   -5.50    7.10
   5  -1   3   26.10    8.60
  -5   1  -3    2.60    8.30
   5   1   3   15.10    6.50
   5   1   3   21.10   12.10
   6  -1   3   47.40   10.60
   6  -1   3   31.90   15.30
   6   1   3   14.70   13.10
   6   1   3   78.89   17.90
   6  -2  -3   -7.80   11.20
   6  -2  -3   16.70   14.00
   6   2  -3    5.40   12.80
   5  -2  -3  152.68   12.30
  -5  -2   3  141.19   15.30
   5  -2  -3  197.78   20.90
   5  -2  -3  197.58   19.20
  -5   2   3  188.58   16.70
   5   2  -3  189.88   20.60
   4  -2  -3   44.60   11.20
  -4  -2   3   50.19   10.70
   4  -2  -3   58.49    7.50
  -4  -2   3   53.59    8.80
   4  -2  -3   58.19   11.10
  -4   2   3   64.59   10.60
   4   2  -3   53.39   11.40
   4   2  -3   58.19    8.10
  -4   2   3   51.59    8.60
   4   2  -3   72.69   11.00
  -4   2   3   66.59    8.50
  -3  -2   3 1659.43   44.30
   3  -2  -3 1629.34   42.00
  -3  -2   3 1687.83   49.30
   3  -2  -3 1620.44   47.30
   3  -2  -3 1653.13   46.90
  -3  -2   3 1611.64   46.90
   3  -2  -3 1645.44   44.00
   3   2  -3 1675.43   47.70
  -3   2   3 1652.43   46.90
  -3   2   3 1637.74   46.70
  -3   2   3 1659.33   43.80
  -3   2   3 1648.04   42.90
   3   2  -3 1645.14   42.00
   3   2  -3 1599.64   47.70
   2  -2  -3  617.94   19.60
   2  -2  -3  632.34   22.10
  -2  -2   3  651.23   20.10
   2  -2  -3  654.73   21.60
   2  -2  -3  641.94   18.70
   2  -2  -3  636.34   21.80
  -2  -2   3  657.03   23.60
  -2  -2   3  617.24   21.60
  -2   2   3  637.94   21.60
  -2   2   3  641.84   21.00
   2   2  -3  632.04   17.50
  -2   2   3  644.74   19.30
   2   2  -3  654.73   23.00
  -2   2   3  639.44   19.50
   2   2  -3  630.24   22.20
   1  -2  -3 1335.57   34.20
   1  -2  -3 1335.77   35.00
  -1  -2   3 1288.27   34.10
  -1  -2   3 1344.27   35.80
  -1   2   3 1308.47   32.10
   1   2  -3 1315.97   34.50
  -1   2   3 1313.57   33.90
  -1   2   3 1299.77   35.00
  -1   2   3 1245.88   32.30
  -1   2   3 1321.37   32.90
   1   2  -3 1308.47   35.30
   0  -2  -3  320.27   10.40
   0  -2   3  320.97    9.80
   0  -2  -3  335.87   13.00
   0  -2   3  312.47   11.70
   0   2   3  310.47   13.20
   0   2  -3  321.87   11.70
   0   2   3  319.67   10.20
   0   2  -3  330.87    9.80
   1  -2   3 2760.62   64.29
  -1  -2  -3 2772.22   61.89
  -1  -2  -3 2789.62   65.79
   1  -2   3 2761.92   63.19
   1  -2   3 2837.02   65.99
  -1   2  -3 2709.23   64.29
   1   2   3 2704.63   59.89
   1   2   3 2791.62   61.89
   1   2   3 2673.83   65.59
   2  -2   3  221.78   12.00
   2  -2   3  215.18   11.40
  -2  -2  -3  206.68   12.20
   2  -2   3  195.98   12.10
  -2   2  -3  189.18   10.90
   2   2   3  194.48   12.60
  -2   2  -3  208.98   11.90
   2   2   3  234.78   13.00
   2   2   3  199.78   10.80
   2   2   3  215.88   10.60
   2   2   3  202.88    6.40
   3  -2   3 1421.06   38.80
   3  -2   3 1462.45   43.40
   3  -2   3 1431.96   41.40
  -3  -2  -3 1462.75   41.70
   3   2   3 1458.35   41.80
   3   2   3 1387.86   41.30
  -3   2  -3 1420.36   43.90
   3   2   3 1381.26   43.60
  -3   2  -3 1469.05   42.80
   3   2   3 1437.86   34.60
   3   2   3 1475.85   44.40
  -3   2  -3 1399.26   40.80
   4  -2   3    1.40    4.70
   4  -2   3   -0.80    6.50
   4  -2   3    1.00    8.20
  -4   2  -3    5.30    8.00
   4   2   3   -2.90    8.20
  -4   2  -3   -5.40    5.80
   4   2   3    0.20    7.70
   4   2   3    2.80    3.60
   4   2   3   -5.10    6.10
   5  -2   3  233.78   23.00
   5  -2   3  248.88   18.30
   5  -2   3  217.18   15.20
  -5   2  -3  250.77   22.00
   5   2   3  246.68   22.50
   5   2   3  247.68   24.40
   6  -2   3   48.00   11.20
   6  -2   3   32.40   14.30
   6   2   3    0.40   13.20
   6   2   3   52.89   15.60
   6  -3  -3   92.59   16.40
   6  -3  -3   93.99   19.00
  -6   3   3  102.79   14.50
   6   3  -3  128.59   19.10
   6   3  -3  109.59   19.10
   5  -3  -3   -0.30    9.80
   5  -3  -3   19.30   12.60
  -5  -3   3   -0.70    7.70
  -5   3   3    7.00    7.70
   5   3  -3   -4.90   10.10
   4  -3  -3  875.91   25.50
  -4  -3   3  853.41   29.00
   4  -3  -3  833.42   30.40
  -4  -3   3  916.41   37.10
   4  -3  -3  929.81   34.50
   4  -3  -3  879.41   35.20
   4   3  -3  801.82   33.90
   4   3  -3  919.21   35.50
   4   3  -3  819.02   27.90
  -4   3   3  857.81   30.60
  -3  -3   3  128.59   14.30
  -3  -3   3  105.79    9.00
   3  -3  -3  125.79   12.90
   3  -3  -3  118.99   12.90
   3  -3  -3  116.69    7.20
   3  -3  -3  113.89    9.90
   3  -3  -3  100.99   11.00
  -3  -3   3  129.69   15.90
  -3   3   3  106.69   10.70
  -3   3   3  106.09   11.30
   3   3  -3  117.19    8.30
   3   3  -3  134.29   13.20
   3   3  -3  130.49   12.80
  -3   3   3  105.29   10.00
  -3   3   3  106.39    7.80
   2  -3  -3 1609.94   43.90
  -2  -3   3 1585.84   43.40
  -2  -3   3 1623.74   46.00
   2  -3  -3 1501.15   43.80
  -2  -3   3 1602.04   40.80
   2  -3  -3 1534.85   42.20
   2   3  -3 1609.54   38.30
  -2   3   3 1609.94   42.10
  -2   3   3 1602.04   41.40
  -2   3   3 1565.84   43.30
   2   3  -3 1593.84   43.50
   2   3  -3 1572.44   45.00
  -2   3   3 1616.14   38.90
   1  -3  -3    9.40    4.30
  -1  -3   3    1.90    3.90
  -1  -3   3   -1.30    3.50
   1  -3  -3    4.70    4.00
   1  -3  -3   -0.10    2.60
  -1   3   3    0.10    3.90
   1   3  -3    1.60    1.60
  -1   3   3    5.00    2.70
   1   3  -3    1.70    3.50
  -1   3   3    3.70    3.30
   0  -3  -3    8.40    1.80
   0  -3  -3    6.40    2.70
   0  -3   3   10.80    3.50
   0  -3  -3    9.20    4.40
   0  -3   3    9.70    2.00
   0   3   3   12.90    4.70
   0   3   3   12.00    2.70
   0   3  -3    6.10    2.60
   0   3  -3   15.70    3.70
   1  -3   3    6.20    3.80
   1  -3   3    7.20    4.60
   1  -3   3    7.80    2.80
  -1  -3  -3    5.00    2.20
   1   3   3   11.00    2.50
  -1   3  -3   13.60    4.00
   1   3   3    7.90    4.10
   1   3   3   12.10    1.50
  -2  -3  -3   81.09    8.40
   2  -3   3   81.79    5.70
   2  -3   3  101.49   10.50
   2  -3   3   67.99    7.70
   2  -3   3   70.19    8.70
   2   3   3   81.39    8.00
   2   3   3   82.29    7.50
   2   3   3   71.59    9.00
  -2   3  -3   79.29    8.40
  -2   3  -3   87.99    9.10
   2   3   3   93.69    9.90
   3  -3   3  152.78    9.00
  -3  -3  -3  151.28   11.90
   3  -3   3  147.49   12.40
   3  -3   3  143.69   13.20
   3  -3   3  167.98   14.70
  -3   3  -3  156.98   12.40
   3   3   3  138.29   13.60
   3   3   3  139.59   14.30
   3   3   3  151.68   12.10
  -3   3  -3  153.18   13.60
   4  -3   3  270.47   13.40
   4  -3   3  292.37   21.10
   4  -3   3  282.17   18.90
   4   3   3  304.37   19.70
  -4   3  -3  268.87   17.60
  -4   3  -3  286.77   19.70
   4   3   3  292.87   21.30
   5  -3   3   46.50    7.20
   5  -3   3   54.59   12.90
   5  -3   3   58.69   22.60
   5   3   3   70.59   15.00
  -5   3  -3   45.10   12.60
   5   3   3   42.00   16.80
   6  -3   3   11.80   10.10
   6  -3   3   18.20   14.70
  -6   3  -3   38.20   14.00
   6   3   3   20.60   14.40
   6   3   3   -0.50   12.30
   6  -4  -3   15.70   14.80
   6  -4  -3    9.30   12.90
  -6   4   3   18.00   10.90
   6   4  -3    8.80   13.10
   6   4  -3    8.40   11.70
   5  -4  -3  202.68   21.50
  -5  -4   3  230.08   19.10
   5   4  -3  266.27   36.70
  -5   4   3  236.68   19.50
   5   4  -3  258.17   20.70
  -4  -4   3  242.68   14.10
   4  -4  -3  229.18   16.00
   4  -4  -3  224.18   19.30
  -4  -4   3  231.18   21.70
   4  -4  -3  254.87   19.70
   4   4  -3  214.08   13.50
   4   4  -3  273.87   20.00
  -4   4   3  217.78   16.30
   4   4  -3  254.77   17.30
   3  -4  -3  698.73   27.90
  -3  -4   3  705.03   30.50
   3  -4  -3  647.04   27.70
   3  -4  -3  722.33   27.40
  -3  -4   3  692.93   23.00
   3  -4  -3  731.63   25.50
  -3  -4   3  674.93   26.80
   3   4  -3  734.53   24.60
   3   4  -3  708.53   27.50
  -3   4   3  682.13   30.60
  -3   4   3  659.73   30.20
   3   4  -3  675.23   21.80
   3   4  -3  699.23   30.80
  -3   4   3  711.43   19.10
  -3   4   3  695.23   25.30
   2  -4  -3  315.87   16.10
   2  -4  -3  329.07   16.60
  -2  -4   3  310.77   18.00
   2  -4  -3  316.37   14.90
  -2  -4   3  322.57   15.40
  -2   4   3  323.87   15.40
   2   4  -3  302.77   15.90
   2   4  -3  301.67   16.60
  -2   4   3  348.67   15.10
  -2   4   3  320.27   10.90
   2   4  -3  311.77   12.40
  -2   4   3  312.47   14.30
   1  -4  -3 3517.45   81.79
  -1  -4   3 3711.03   86.59
   1  -4  -3 3512.55   86.49
   1  -4  -3 3629.24   84.79
  -1  -4   3 3572.84   86.99
   1   4  -3 3523.65   79.89
  -1   4   3 3522.85   87.29
   1   4  -3 3664.13   86.79
  -1   4   3 3665.33   84.59
   0  -4   3 1733.33   45.20
   0  -4  -3 1751.22   43.10
   0  -4   3 1821.12   42.20
   0  -4   3 1774.72   46.00
   0   4   3 1805.52   43.10
   0   4   3 1796.22   48.40
   0   4  -3 1728.23   45.00
   0   4  -3 1805.42   43.60
  -1  -4  -3 2411.76   55.79
   1  -4   3 2440.96   61.99
   1  -4   3 2502.35   59.69
  -1  -4  -3 2409.76   53.99
   1  -4   3 2426.26   57.19
  -1  -4  -3 2572.54   62.49
  -1   4  -3 2376.56   56.99
  -1   4  -3 2410.76   59.69
   1   4   3 2427.36   56.09
   1   4   3 2385.96   61.39
   1   4   3 2481.85   54.29
   2  -4   3  365.26   18.10
  -2  -4  -3  357.36   14.30
   2  -4   3  360.36   11.70
   2  -4   3  362.16   18.20
   2  -4   3  352.56   16.20
  -2   4  -3  389.06   17.10
  -2   4  -3  386.46   17.20
   2   4   3  355.16   14.40
   2   4   3  380.66   19.00
   2   4   3  391.76   18.10
   3  -4   3 1666.83   39.80
   3  -4   3 1742.73   50.39
   3  -4   3 1686.23   50.79
  -3  -4  -3 1655.73   46.70
   3  -4   3 1649.13   48.60
   3  -4   3 1670.73   40.40
   3   4   3 1607.24   47.30
   3   4   3 1748.53   47.40
   3   4   3 1682.13   50.59
   3   4   3 1659.83   52.89
  -3   4  -3 1658.53   49.00
  -3   4  -3 1715.43   49.30
   4  -4   3   44.20    5.20
   4  -4   3   64.39   13.80
   4  -4   3   44.30    4.90
   4  -4   3   50.99   11.40
  -4   4  -3   45.30   11.60
   4   4   3   61.39   11.60
   4   4   3   53.59   12.50
   5  -4   3  328.77   27.20
   5  -4   3  294.77   23.10
   5   4   3  267.47   37.10
  -5   4  -3  311.87   24.50
   5   4   3  354.46   24.30
   6  -4   3   14.10   15.30
  -6   4  -3   45.10   14.50
   6   4   3   43.40   15.10
   6  -5  -3   52.09   17.60
   6  -5  -3   80.09   18.10
   6   5  -3   79.79   18.20
  -6   5   3   75.09   15.20
   6   5  -3   99.29   16.90
  -5  -5   3  145.99   14.40
   5  -5  -3  193.28   22.30
   5  -5  -3  177.08   20.60
   5   5  -3  215.18   22.90
  -5   5   3  187.68   18.60
   5   5  -3  170.98   18.60
  -4  -5   3  308.47   25.70
   4  -5  -3  330.57   23.00
   4  -5  -3  328.07   22.50
  -4  -5   3  264.17   14.80
   4   5  -3  349.37   19.30
   4   5  -3  295.97   21.70
  -4   5   3  316.27   19.40
   4   5  -3  293.57   15.90
  -3  -5   3  228.28   19.90
  -3  -5   3  225.88   15.80
   3  -5  -3  240.88   16.70
   3  -5  -3  262.87   17.50
  -3  -5   3  255.07   12.80
   3  -5  -3  258.97   18.60
   3   5  -3  270.97   18.90
   3   5  -3  241.18   14.00
  -3   5   3  251.47   16.20
  -3   5   3  248.68   16.00
   3   5  -3  252.97   17.80
  -3   5   3  239.08   15.00
   3   5  -3  238.68   12.10
  -2  -5   3   45.70    7.80
   2  -5  -3   39.20    7.70
   2  -5  -3   33.40    8.00
   2  -5  -3   43.30    7.00
  -2  -5   3   22.40    7.80
  -2   5   3   36.10    7.10
  -2   5   3   40.60    4.50
   2   5  -3   44.30    8.20
  -2   5   3   35.50    7.30
   2   5  -3   45.60    5.80
   2   5  -3   34.00    7.40
  -2   5   3   42.20    6.90
   1  -5  -3   24.70    4.70
   1  -5  -3   25.30    6.30
   1  -5  -3   36.50    6.80
  -1  -5   3   33.50    7.00
  -1  -5   3   40.20    4.30
  -1  -5   3   36.50    7.60
  -1   5   3   44.10    6.60
   1   5  -3   44.70    7.70
   1   5  -3   32.80    4.30
  -1   5   3   40.40    7.90
   0  -5   3   90.19    6.70
   0  -5  -3   98.19   10.20
   0  -5   3  101.49    9.10
   0  -5  -3  114.99    7.90
   0  -5   3   91.09    8.60
   0   5   3  101.19    7.20
   0   5  -3   84.79    8.00
   0   5  -3   93.09    7.80
   0   5   3  104.09   10.50
   1  -5   3  430.96   16.60
  -1  -5  -3  436.16   19.10
  -1  -5  -3  431.96   13.60
   1  -5   3  398.56   18.10
  -1  -5  -3  422.36   12.40
   1  -5   3  430.36   19.00
   1  -5   3  420.06   14.70
   1   5   3  441.06   19.20
   1   5   3  413.86   12.50
  -1   5  -3  408.36   16.70
   1   5   3  421.16   18.60
  -1   5  -3  422.36   14.60
   2  -5   3   56.89   10.00
   2  -5   3   39.60    7.20
   2  -5   3   36.50    3.80
  -2  -5  -3   35.20    5.50
   2   5   3   42.00    6.00
  -2   5  -3   53.89   12.90
   2   5   3   48.20    8.90
   2   5   3   56.29    9.20
  -2   5  -3   60.89    8.80
   3  -5   3    6.70    8.50
  -3  -5  -3   10.50    5.90
   3  -5   3    7.70    8.30
  -3   5  -3   -5.20    5.50
   3   5   3   11.90    7.50
   3   5   3    1.30    7.30
   3   5   3   15.90    6.30
  -3   5  -3    9.60    7.80
   3   5   3    9.70    6.20
   4  -5   3   11.20   11.00
   4  -5   3    2.20    9.50
  -4   5  -3    8.40    9.50
   4   5   3   -0.90    7.90
   4   5   3   -3.10    9.60
   5  -5   3    0.60   10.90
   5  -5   3   -0.50   12.70
  -5   5  -3    3.10   12.30
   5   5   3  -15.90    9.00
   5   5   3    6.30   10.20
   5  -6  -3   40.70   15.60
   5  -6  -3   33.90   15.00
  -5  -6   3   20.70    8.70
   5   6  -3   47.90   11.50
   5   6  -3   42.90   14.20
  -5   6   3   35.60   11.90
   4  -6  -3  136.89   16.40
  -4  -6   3  156.28   20.80
  -4  -6   3  145.39   11.10
   4  -6  -3  136.99   18.40
  -4   6   3  117.49   14.20
   4   6  -3  144.39   17.10
   4   6  -3  141.29   14.70
   3  -6  -3  637.34   27.40
  -3  -6   3  618.64   31.30
  -3  -6   3  635.14   22.20
   3  -6  -3  644.14   28.70
  -3  -6   3  594.44   28.40
   3   6  -3  632.84   22.10
   3   6  -3  701.83   29.30
  -3   6   3  650.83   27.00
   3   6  -3  665.53   24.10
   2  -6  -3  964.30   30.90
  -2  -6   3  963.30   33.20
   2  -6  -3  967.50   33.50
  -2  -6   3 1002.00   36.50
   2  -6  -3  970.10   34.30
  -2   6   3  971.90   35.50
   2   6  -3  927.31   27.60
   2   6  -3  914.61   34.20
  -2   6   3  966.80   24.40
  -2   6   3  923.91   24.60
  -2   6   3  947.41   32.10
  -1  -6   3 1315.27   40.60
   1  -6  -3 1355.36   38.50
   1  -6  -3 1244.58   40.10
  -1  -6   3 1284.37   33.70
  -1  -6   3 1259.57   40.60
   1  -6  -3 1296.57   35.20
  -1   6   3 1327.07   37.60
   1   6  -3 1310.77   33.90
   1   6  -3 1302.77   39.90
  -1   6   3 1273.37   41.10
   0  -6   3 2389.06   61.09
   0  -6  -3 2356.66   57.69
   0  -6   3 2308.57   57.79
   0  -6   3 2306.97   59.89
   0  -6  -3 2314.77   63.49
   0   6   3 2337.87   60.39
   0   6   3 2384.96   60.29
   0   6   3 2358.86   63.59
   0   6  -3 2333.67   59.89
   0   6  -3 2360.46   58.79
   1  -6   3  863.51   26.90
  -1  -6  -3  869.71   22.90
   1  -6   3  833.62   30.00
   1  -6   3  849.22   25.20
  -1  -6  -3  881.91   31.20
  -1  -6  -3  830.72   23.90
  -1   6  -3  844.92   25.00
   1   6   3  852.51   30.20
  -1   6  -3  881.71   28.30
   1   6   3  867.91   30.30
   1   6   3  869.01   23.30
   2  -6   3  570.34   25.90
   2  -6   3  571.04   16.10
   2  -6   3  560.94   22.90
   2  -6   3  584.24   25.70
  -2  -6  -3  557.84   24.50
  -2  -6  -3  602.14   20.20
   2  -6   3  592.94   26.50
  -2   6  -3  555.14   23.90
   2   6   3  603.94   28.70
   2   6   3  592.84   30.70
  -2   6  -3  575.24   24.00
   2   6   3  601.64   20.90
  -3  -6  -3    5.20    5.90
   3  -6   3   13.60    9.60
   3  -6   3   16.50    9.50
   3   6   3    7.10    8.10
  -3   6  -3   23.10    9.10
   3   6   3   18.80   10.90
   4  -6   3  523.95   30.10
   4  -6   3  517.35   29.00
   4   6   3  497.45   25.10
   4   6   3  543.05   29.40
  -4   6  -3  558.84   29.30
   5  -6   3   88.69   23.00
   5  -6   3  189.48   23.80
   5   6   3  131.09   17.70
   5   6   3  115.59   19.00
  -5   6  -3  141.59   19.40
   5  -7  -3  112.89   20.50
   5  -7  -3  126.29   20.70
   5   7  -3  131.39   16.20
  -5   7   3  132.79   17.50
   5   7  -3   90.99   17.80
  -4  -7   3   16.40   13.00
   4  -7  -3   29.40   13.20
   4  -7  -3   35.10   13.30
  -4  -7   3   17.40    6.10
   4   7  -3   42.20    9.70
   4   7  -3   36.60   11.80
   4   7  -3   22.90    7.70
  -4   7   3   30.50   10.40
   3  -7  -3  462.95   24.00
  -3  -7   3  468.65   28.30
   3  -7  -3  485.75   26.70
  -3  -7   3  456.75   18.70
   3   7  -3  476.05   20.30
  -3   7   3  454.25   23.90
   2  -7  -3  125.39   14.10
   2  -7  -3  102.29   12.80
   2  -7  -3  140.89   12.60
  -2  -7   3  122.59   15.80
  -2   7   3  116.39    6.60
   2   7  -3  122.19    9.80
  -2   7   3  106.69   12.50
   2   7  -3  123.19   13.20
  -2   7   3  105.99    7.00
  -2   7   3  103.19   11.80
   1  -7  -3 1030.50   36.10
   1  -7  -3 1011.90   33.30
  -1  -7   3 1131.19   33.40
  -1  -7   3  963.00   35.90
   1  -7  -3 1062.99   31.00
  -1  -7   3  984.50   29.70
  -1  -7   3 1067.59   36.40
   1   7  -3 1039.60   35.30
   1   7  -3 1080.39   29.80
  -1   7   3 1076.79   30.50
  -1   7   3 1028.80   38.60
  -1   7   3 1008.20   32.60
   0  -7  -3   21.50    6.00
   0  -7  -3   12.60    6.20
   0  -7   3   25.10    7.50
   0  -7   3   26.50    6.50
   0  -7   3   30.20    5.90
   0   7   3   23.00    5.90
   0   7  -3   28.50    6.70
   0   7  -3   35.00    6.00
   0   7   3   17.00    5.00
   0   7   3   21.00    7.80
   0   7  -3   25.00    6.10
  -1  -7  -3  313.47   12.20
   1  -7   3  335.07   14.30
  -1  -7  -3  260.97   18.00
   1  -7   3  299.77   21.20
   1  -7   3  282.67   14.60
  -1  -7  -3  301.37   12.80
   1   7   3  288.07   17.20
   1   7   3  303.97   12.30
   1   7   3  296.97   18.10
  -1   7  -3  319.07   16.90
  -1   7  -3  293.27   13.30
   2  -7   3  262.47   15.90
   2  -7   3  259.57   19.20
   2  -7   3  250.07   15.90
   2  -7   3  261.37   20.00
  -2  -7  -3  259.77   13.20
   2  -7   3  258.87    9.60
   2   7   3  244.98   17.80
  -2   7  -3  262.87   17.70
   2   7   3  264.17   17.90
  -2   7  -3  242.68   16.90
  -3  -7  -3  139.29   12.20
   3  -7   3  177.78   19.30
   3  -7   3  184.98   19.70
   3   7   3  154.48   14.20
  -3   7  -3  142.69   15.70
   3   7   3  155.08   16.90
   4  -7   3   23.00   12.20
   4  -7   3   24.10   13.20
   4   7   3   32.10   11.60
   4   7   3   22.90   10.00
  -4   7  -3   27.90   11.40
   5  -7   3    2.40   13.50
   5  -7   3   14.60   13.60
   5   7   3   12.90   13.00
   5   7   3   -4.80   11.10
  -5   7  -3   -1.40   12.60
   5  -8  -3   40.90   16.80
   5  -8  -3   38.00   15.60
   5   8  -3   36.00   14.30
  -5   8   3   41.00   14.00
   5   8  -3   25.40   10.80
   4  -8  -3  211.28   22.30
   4  -8  -3  233.18   24.70
  -4  -8   3  187.58   13.00
  -4  -8   3  254.07   28.10
  -4   8   3  200.88   21.10
   4   8  -3  233.28   17.80
  -3  -8   3  174.18   20.90
   3  -8  -3  180.18   17.70
   3  -8  -3  197.78   21.00
  -3   8   3  187.98   18.30
   3   8  -3  164.08   13.70
   2  -8  -3 1133.39   46.90
   2  -8  -3 1110.59   39.90
  -2  -8   3 1185.98   35.40
  -2  -8   3 1148.79   43.10
  -2  -8   3 1073.69   39.50
   2  -8  -3 1115.89   37.60
  -2   8   3 1133.79   29.40
   2   8  -3 1065.69   33.80
  -2   8   3 1050.59   41.00
  -2   8   3 1198.98   41.10
   2   8  -3 1295.47   59.49
   1  -8  -3  706.53   27.20
  -1  -8   3  641.54   28.80
  -1  -8   3  670.13   29.20
   1  -8  -3  656.63   24.00
  -1  -8   3  665.03   25.50
   1   8  -3  680.63   22.90
  -1   8   3  660.73   25.60
   1   8  -3  644.04   27.40
  -1   8   3  678.23   23.20
  -1   8   3  719.83   30.40
   0  -8  -3  496.15   23.90
   0  -8   3  484.35   20.10
   0  -8  -3  483.35   20.00
   0  -8   3  455.15   21.40
   0   8   3  506.05   25.00
   0   8   3  458.25   20.70
   0   8  -3  511.95   21.30
   0   8  -3  440.36   20.30
   0   8  -3  473.75   18.60
   0   8   3  450.55   18.80
  -1  -8  -3  509.25   18.00
   1  -8   3  513.35   21.40
   1  -8   3  518.95   20.00
  -1  -8  -3  515.55   18.70
  -1  -8  -3  505.45   25.60
   1  -8   3  517.65   25.20
  -1   8  -3  529.05   19.40
   1   8   3  494.95   24.10
  -1   8  -3  535.95   23.10
   1   8   3  541.95   25.20
   2  -8   3 1069.99   39.70
   2  -8   3 1042.70   35.80
  -2  -8  -3 1055.39   31.90
  -2  -8  -3 1044.80   39.20
  -2  -8  -3  975.90   24.60
   2  -8   3 1056.99   41.10
  -2   8  -3 1055.99   37.30
   2   8   3 1072.79   38.50
  -3  -8  -3  132.69   14.20
   3  -8   3  119.49   17.60
   3  -8   3  129.79   17.60
   3   8   3  114.59   15.00
  -3   8  -3  113.79   15.10
   4  -8   3  181.68   22.00
   4   8   3  225.68   19.20
   4   8   3  209.18   22.30
   5  -8   3   61.19   17.20
   5  -8   3   60.09   17.30
  -5   8  -3   53.89   15.70
   5   8   3   75.19   15.60
   5   8   3  101.09   18.90
   5  -9  -3  278.67   29.50
   5  -9  -3  324.87   31.80
  -5   9   3  298.57   27.00
   5   9  -3  308.27   22.60
   4  -9  -3   73.39   17.70
   4  -9  -3   58.49   15.10
  -4  -9   3   79.89   19.20
  -4  -9   3   58.69    8.50
  -4  -9   3   79.49    9.10
   4   9  -3   60.89   11.50
  -4   9   3   82.19   16.40
  -3  -9   3  418.16   19.40
   3  -9  -3  434.96   25.30
   3  -9  -3  424.76   27.50
  -3  -9   3  489.75   32.10
  -3   9   3  400.16   26.00
   3   9  -3  444.06   25.00
  -2  -9   3   14.30    6.80
   2  -9  -3   13.40    8.20
   2  -9  -3    9.70    9.50
  -2  -9   3   -0.10    9.70
   2   9  -3    4.90    5.70
  -2   9   3    1.80    8.50
  -2   9   3    4.30    3.60
   1  -9  -3  702.63   30.80
  -1  -9   3  686.63   25.80
   1  -9  -3  784.32   29.80
   1  -9  -3  744.43   26.80
  -1  -9   3  677.23   30.80
  -1  -9   3  716.73   31.70
  -1   9   3  724.93   28.20
  -1   9   3  727.53   32.40
   1   9  -3  710.33   24.80
  -1   9   3  719.03   25.30
   1   9  -3  731.83   30.10
   0  -9   3    0.70    6.70
   0  -9  -3    6.80    7.10
   0  -9  -3    3.30    6.80
   0  -9   3    3.00    4.80
   0  -9   3    6.80    8.00
   0   9   3    9.40    5.50
   0   9  -3    0.10    5.30
   0   9   3    6.10    8.60
   0   9  -3    7.00    5.40
   0   9  -3    2.60    6.60
   0   9   3    0.30    5.40
  -1  -9  -3   68.69    8.10
   1  -9   3   54.19    8.20
  -1  -9  -3   53.59   11.10
  -1  -9  -3   50.09    7.30
   1  -9   3   60.79    9.30
   1  -9   3   33.50   11.00
   1   9   3   42.00   10.40
  -1   9  -3   51.99    9.90
  -1   9  -3   49.50    7.40
   1   9   3   52.59    9.80
   2  -9   3   -3.60   10.40
   2  -9   3   -3.80    6.40
   2  -9   3   14.50   10.20
  -2  -9  -3    3.40    4.90
  -2  -9  -3   -1.90    2.70
   2   9   3   -7.80    7.30
  -2   9  -3   -5.00    8.60
   3  -9   3   49.30   14.60
   3  -9   3   49.80   15.00
  -3  -9  -3   45.00    8.90
   3   9   3   43.80   12.20
  -3   9  -3   65.29   13.50
   4  -9   3   29.40   16.10
   4  -9   3   42.70   16.20
  -4   9  -3   43.50   14.30
   4   9   3   16.50   11.90
   5  -9   3   -0.60   15.30
   5  -9   3   15.80   16.70
  -5   9  -3   36.80   15.90
   5   9   3   33.60   14.50
   5 -10  -3   35.80   18.60
   5 -10  -3   49.70   17.00
  -5  10   3    5.50   13.70
  -4 -10   3   78.49    9.40
  -4 -10   3   52.89    8.80
   4 -10  -3  108.09   21.50
   4 -10  -3   99.09   29.00
   4  10  -3   84.49   12.50
  -4  10   3   73.29   16.50
  -3 -10   3   13.10    7.40
  -3 -10   3   37.40   14.70
   3 -10  -3   30.30   12.20
   3 -10  -3   15.20   13.40
  -3  10   3   26.90   12.20
   3  10  -3   15.40    7.40
  -2 -10   3  591.24   24.90
   2 -10  -3  604.34   27.60
  -2 -10   3  597.14   33.30
   2 -10  -3  588.84   30.10
  -2  10   3  574.54   19.30
  -2  10   3  610.64   31.10
   2  10  -3  603.54   24.20
   1 -10  -3   13.80    8.20
  -1 -10   3   19.30   10.90
  -1 -10   3   15.50    6.50
   1 -10  -3    9.30    9.00
  -1 -10   3   15.10    8.40
  -1  10   3   19.50   10.00
  -1  10   3   17.80    6.10
  -1  10   3   14.90    7.80
   1  10  -3   14.60    6.20
   0 -10  -3  924.81   32.60
   0 -10   3  914.71   32.30
   0 -10  -3  869.01   40.90
   0 -10   3  917.71   35.10
   0 -10   3  916.41   34.80
   0  10   3  891.91   31.20
   0  10   3  869.01   33.40
   0  10   3  941.51   37.50
   0  10  -3  946.91   34.20
   0  10  -3  889.51   33.00
   1 -10   3   13.00   10.60
  -1 -10  -3   14.30    6.00
   1 -10   3   18.20    7.20
  -1 -10  -3    5.80    5.90
   1 -10   3    2.60    6.00
  -1  10  -3   22.40    9.20
   1  10   3    5.50    9.10
  -1  10  -3    7.90    5.60
   2 -10   3  857.81   38.90
  -2 -10  -3  827.82   23.00
  -2 -10  -3  815.22   28.70
  -2  10  -3  860.21   35.70
   2  10   3  785.62   35.70
   3 -10   3   46.90   16.30
   3 -10   3   -3.30   12.70
  -3 -10  -3   11.20    7.90
   3  10   3   25.70   12.40
  -3  10  -3    5.00   11.80
   4 -10   3  776.52   43.80
   4 -10   3  776.52   43.10
   4  10   3  722.83   47.50
  -4  10  -3  772.82   39.70
   4 -11  -3   -0.80   15.50
   4 -11  -3   13.90   13.10
   4  11  -3    7.90    8.70
  -4  11   3   -8.40   11.80
  -3 -11   3  387.76   19.80
   3 -11  -3  389.26   26.60
  -3 -11   3  278.27   37.10
   3 -11  -3  393.26   36.20
  -3  11   3  392.26   32.10
   3  11  -3  356.76   20.90
   2 -11  -3   34.10   13.70
  -2 -11   3   28.70   13.50
   2 -11  -3   38.80   11.10
  -2 -11   3   39.20   10.00
  -2  11   3   18.00   13.00
  -2  11   3   41.10    6.40
   2  11  -3   43.70    9.20
   1 -11  -3  169.08   17.70
   1 -11  -3  189.48   16.70
  -1 -11   3  180.38   14.70
  -1 -11   3  186.98   21.10
  -1 -11   3  228.48   18.60
  -1  11   3  191.08   20.40
  -1  11   3  200.08   20.40
  -1  11   3  175.58   13.60
   1  11  -3  177.28   14.10
   0 -11   3   10.00    8.50
   0 -11  -3   23.70    9.50
   0 -11   3   19.30    7.30
   0 -11   3    8.90   10.10
   0  11  -3   30.90   10.00
   0  11  -3   12.30    8.30
   0  11   3   17.10    7.10
   0  11   3   11.10    6.50
   0  11   3   13.30   10.70
  -1 -11  -3  109.79   11.60
  -1 -11  -3   92.29   10.70
   1 -11   3  114.69   13.40
   1 -11   3  103.19   17.00
  -1  11  -3  100.59   11.40
   1  11   3  132.79   16.60
  -1  11  -3  118.59   15.50
   2 -11   3    5.80   12.80
   2 -11   3    4.80   12.30
  -2 -11  -3    6.80    4.50
   2  11   3    8.80   10.40
  -2  11  -3    4.70    9.90
   3 -11   3   11.90   17.20
   3 -11   3   -0.90   13.70
  -3  11  -3   12.90   12.00
   3  11   3    2.10   10.10
   4 -11   3   40.00   17.20
   4 -11   3   46.00   19.50
  -4  11  -3   22.70   14.90
   4  11   3   19.50   13.30
   4 -12  -3  147.19   25.20
   4 -12  -3  172.78   23.40
   4  12  -3  145.89   16.30
  -4  12   3  142.59   22.90
  -3 -12   3    3.10    7.30
   3 -12  -3    1.40   10.60
   3 -12  -3   -4.00   14.50
   3  12  -3    1.20    7.70
  -3  12   3   11.80   13.70
  -2 -12   3  279.47   28.20
  -2 -12   3  309.57   20.30
   2 -12  -3  277.47   24.60
   2 -12  -3  295.17   22.70
  -2  12   3  287.97   26.00
   2  12  -3  252.77   17.60
  -2  12   3  253.27   16.60
  -1 -12   3   25.10   10.10
  -1 -12   3   14.90    7.60
   1 -12  -3   16.50    9.60
   1 -12  -3    5.10   11.00
  -1 -12   3    6.10   10.50
  -1  12   3    7.00    6.40
   1  12  -3   14.30    8.00
   1  12  -3   18.20   10.00
  -1  12   3   12.10   11.60
  -1  12   3   10.70   10.50
   0 -12   3  472.35   27.60
   0 -12   3  436.06   23.20
   0 -12   3  513.65   29.00
   0 -12  -3  456.35   25.10
   0  12   3  508.75   29.30
   0  12  -3  524.55   27.70
   1 -12   3   23.10   13.30
  -1 -12  -3   11.10    8.70
  -1 -12  -3   18.50    7.90
  -1  12  -3    8.90    7.00
  -1  12  -3   25.10   10.90
   1  12   3   13.30   10.90
   2 -12   3  297.97   28.10
  -2 -12  -3  262.97   13.00
   2 -12   3  253.77   25.40
  -2 -12  -3  249.18   17.70
   2  12   3  283.37   24.20
  -2  12  -3  291.67   24.60
   3 -12   3    4.00   15.50
   3 -12   3    8.20   15.60
   3  12   3  -10.70   10.40
  -3  12  -3  -11.00   12.00
   4 -12   3  146.59   24.80
   4 -12   3  184.18   26.30
   4  12   3  173.58   23.30
  -4  12  -3  154.28   23.90
   3 -13  -3  132.89   22.30
   3 -13  -3  141.99   29.30
  -3 -13   3  156.98   15.20
  -3  13   3  129.19   21.50
   3  13  -3  115.49   13.90
  -2 -13   3   16.30   10.30
   2 -13  -3   34.40   15.00
   2 -13  -3   29.50   12.50
  -2  13   3   15.00    5.70
   2  13  -3   19.20    8.10
  -2  13   3   39.40   14.90
  -1 -13   3   16.50    9.00
   1 -13  -3   48.20   14.20
  -1 -13   3   70.29   14.20
   1 -13  -3   76.09   13.40
   1  13  -3   58.79   13.50
   1  13  -3   70.79   11.40
  -1  13   3   49.60   10.50
  -1  13   3   46.30   14.30
   0 -13  -3   15.90    8.30
   0 -13  -3    8.40   10.70
   0 -13   3    7.70   11.40
   0  13  -3   -6.50    9.50
   0  13   3  -14.10    8.80
  -1 -13  -3   12.40    8.50
  -1 -13  -3   12.00    8.90
   1 -13   3    4.40   12.80
  -1  13  -3    4.40    7.90
   1  13   3   36.00   12.50
  -1  13  -3   21.70   11.50
   2 -13   3   23.40   14.80
   2 -13   3    4.00   14.80
  -2 -13  -3    8.50    6.00
   2  13   3   26.80   12.50
  -2  13  -3   12.00   11.40
   3 -13   3    4.50   15.50
   3 -13   3    6.40   15.20
   3  13   3    7.30   12.40
  -3  13  -3   -4.20   13.90
   3 -14  -3   50.49   19.20
  -3 -14   3  -12.30    8.50
   3 -14  -3   13.90   14.70
  -3  14   3   33.60   17.20
   3  14  -3   16.00    8.60
   2 -14  -3  183.38   24.20
   2 -14  -3  254.17   24.40
  -2 -14   3  254.17   20.70
   2  14  -3  201.38   17.40
  -2  14   3  229.18   25.90
   1 -14  -3   64.29   15.70
   1 -14  -3   76.49   14.60
  -1 -14   3   49.80   13.70
  -1  14   3   65.99   15.90
   1  14  -3   53.09   10.70
  -1  14   3   63.89   15.60
   1  14  -3   52.09   13.30
   0 -14   3  329.27   27.40
   0 -14  -3  333.17   24.00
   0  14   3  310.17   26.30
  -1 -14  -3   70.89   12.20
   1 -14   3   62.69   17.00
  -1  14  -3   36.30   11.20
  -1  14  -3   62.29   15.10
   1  14   3   80.89   15.60
   2 -14   3  236.68   27.20
   2 -14   3  248.78   28.80
   2  14   3  225.68   24.00
  -2  14  -3  201.28   23.00
   3 -14   3   25.50   18.90
   3 -14   3   19.70   18.90
  -3  14  -3   21.40   15.50
   3  14   3   25.30   13.90
   2 -15  -3   11.80   17.00
  -2 -15   3    9.30   11.30
   2  15  -3   -0.20   10.50
  -2  15   3  -27.20   11.60
   2  15  -3   -9.00    7.40
   1 -15  -3   27.50   13.50
   1 -15  -3   18.90   14.90
  -1 -15   3   20.70   12.80
  -1  15   3   24.90   14.10
   1  15  -3   31.30   12.60
  -1  15   3   24.80   13.50
   0 -15  -3   48.80   14.70
   0 -15   3   45.70   15.90
   0 -15  -3   69.29   14.10
   0  15   3   71.39   16.40
   0  15  -3   53.19   15.60
   1 -15   3   -9.00   15.20
  -1 -15  -3  -11.60    9.10
   1  15   3   -9.20   10.10
  -1  15  -3   -9.10   10.80
  -2 -15  -3  -24.80    8.50
   2 -15   3    2.20   16.30
   2 -15   3   23.10   16.20
  -2  15  -3   -1.30   12.60
   2  15   3   -6.00   11.70
   1 -16  -3  102.89   16.90
   1 -16  -3   73.59   19.20
  -1 -16   3   89.19   17.20
  -1  16   3   91.49   19.70
   1  16  -3   84.39   16.70
   0 -16  -3  117.39   16.50
   0 -16  -3   55.19   15.60
   0 -16   3   79.49   18.00
   0  16   3   84.19   17.30
   0  16  -3   45.20   15.80
   0  16   3   88.69   19.60
   6   0  -4  114.79   20.50
   5   0  -4   -5.90    7.10
   5   0  -4    3.50   10.90
   4   0  -4  624.04   29.20
   4   0  -4  642.34   25.90
   4   0  -4  658.93   26.60
   4   0  -4  642.24   23.10
  -4   0   4  639.54   23.00
  -4   0   4  637.44   26.30
  -4   0   4  682.93   27.90
  -3   0   4   -3.20    4.80
  -3   0   4   -2.00    3.30
  -3   0   4   -2.00    4.00
  -3   0   4    2.90    5.00
   3   0  -4   -1.20    4.00
   3   0  -4    2.60    3.30
   3   0  -4   -5.80    5.10
   3   0  -4    3.10    6.40
   2   0  -4 4134.59   96.59
   2   0  -4 4152.58   96.99
   2   0  -4 4202.88   95.99
  -2   0   4 4018.60   97.39
  -2   0   4 4130.89   91.79
   2   0  -4 4184.58   92.09
  -2   0   4 4186.08   96.79
   2   0  -4 4090.19   99.89
  -2   0   4 4183.78   96.69
  -1   0   4    4.00    3.10
   1   0  -4   -1.00    2.70
   1   0  -4    5.70    3.30
  -1   0   4    0.60    2.20
  -1   0   4   -0.20    2.50
   1   0  -4    2.50    2.60
  -1   0   4    1.00    3.30
   0   0   4 1686.63   43.20
   0   0   4 1776.12   42.00
   0   0  -4 1755.02   41.20
   0   0   4 1809.12   40.40
  -1   0  -4    0.40    2.90
   1   0   4   -2.70    2.60
   1   0   4    1.00    2.40
   1   0   4   -3.50    2.70
   2   0   4  937.51   27.50
   2   0   4  942.41   28.10
  -2   0  -4  912.41   27.30
  -2   0  -4  876.41   27.60
   2   0   4  887.61   25.30
  -3   0  -4    0.90    5.50
   3   0   4    0.10    5.40
   3   0   4    0.40    3.90
  -3   0  -4   -0.50    5.80
   3   0   4    2.20    4.90
   4   0   4  630.34   28.20
   4   0   4  623.44   22.30
   4   0   4  573.44   26.00
   5   0   4   -3.50   10.20
   5   0   4  -10.90    8.20
   5   0   4   -1.10    6.80
   6   0   4   15.30    7.80
   6   0   4    6.10   13.00
   6   0   4   20.20   15.50
   6  -1  -4   27.60   14.00
   6   1  -4   18.30   14.60
  -5  -1   4   50.09   12.30
   5  -1  -4   55.59    9.30
   5  -1  -4   54.19   12.60
   5  -1  -4   60.49   14.80
   5   1  -4   43.30    9.10
  -5   1   4   44.00    9.80
   5   1  -4   35.70   12.90
   4  -1  -4    8.10    5.70
   4  -1  -4    8.40    9.20
  -4  -1   4    5.40    7.80
   4  -1  -4   11.50    5.70
   4  -1  -4    6.40    7.90
  -4   1   4    2.30    5.40
  -4   1   4   -0.20    6.00
   4   1  -4   -1.80    4.40
   4   1  -4   11.80    8.80
  -4   1   4   -9.50    5.80
   4   1  -4    3.60    6.30
   3  -1  -4    3.90    4.30
  -3  -1   4   19.00    5.90
   3  -1  -4    5.70    5.60
  -3  -1   4    0.60    5.10
   3  -1  -4   18.60    6.10
   3  -1  -4   10.70    6.80
  -3  -1   4   -0.90    5.40
   3  -1  -4   11.10    4.40
  -3   1   4   10.40    5.50
   3   1  -4   19.80    7.60
  -3   1   4    5.10    5.60
   3   1  -4   10.10    4.00
  -3   1   4    6.20    5.10
   3   1  -4    2.80    4.70
  -3   1   4   10.60    4.30
  -2  -1   4   15.00    5.40
   2  -1  -4    1.10    3.80
  -2  -1   4    9.10    4.60
   2  -1  -4    8.30    3.00
   2  -1  -4    8.40    4.80
  -2  -1   4   11.00    4.00
   2  -1  -4    4.10    4.40
   2  -1  -4    9.00    3.90
   2   1  -4   11.90    4.70
   2   1  -4    4.20    4.60
  -2   1   4    6.30    4.20
  -2   1   4    8.20    4.30
  -2   1   4    2.90    2.70
  -2   1   4    5.60    3.80
   2   1  -4    1.90    1.90
  -1  -1   4  766.52   22.30
   1  -1  -4  794.52   22.90
  -1  -1   4  783.32   24.00
   1  -1  -4  790.02   22.60
   1  -1  -4  799.02   21.40
   1  -1  -4  782.52   22.80
  -1   1   4  803.22   22.80
  -1   1   4  722.53   22.30
   1   1  -4  820.42   24.00
  -1   1   4  790.02   22.80
   1   1  -4  782.52   20.00
  -1   1   4  781.22   21.10
   1   1  -4  748.23   22.50
   0  -1   4   54.89    5.90
   0  -1  -4   58.69    5.70
   0  -1   4   55.69    3.80
   0  -1   4   59.89    4.20
   0   1   4   64.99    6.30
   0   1   4   59.99    3.30
   0   1  -4   66.29    4.00
   0   1  -4   61.59    6.00
   1  -1   4 2395.36   56.39
   1  -1   4 2380.86   57.19
   1  -1   4 2399.56   56.99
   1   1   4 2366.26   54.39
   1   1   4 2392.86   56.69
  -1   1  -4 2354.86   56.39
   1   1   4 2324.17   57.59
   2  -1   4   22.40    4.90
   2  -1   4   20.80    5.40
  -2  -1  -4   23.70    5.00
   2  -1   4   15.80    5.50
   2   1   4   21.90    5.90
   2   1   4   18.70    4.90
  -2   1  -4   19.50    5.70
   2   1   4   18.90    3.40
   2   1   4   14.10    4.50
   3  -1   4 1026.80   30.90
   3  -1   4  963.90   31.50
   3  -1   4 1074.09   34.00
  -3  -1  -4 1013.40   32.50
   3  -1   4 1005.70   33.40
   3   1   4 1027.80   34.40
  -3   1  -4  985.90   33.30
   3   1   4  997.10   32.50
  -3   1  -4  980.90   30.40
   3   1   4  983.80   27.20
  -3   1  -4 1024.70   33.40
   3   1   4  995.10   36.20
   4  -1   4    8.10    9.00
   4  -1   4   10.10    6.70
   4  -1   4   14.30    6.60
  -4   1  -4    8.90    6.10
  -4   1  -4   22.60    9.10
   4   1   4    6.60    8.70
   4   1   4   11.30    4.90
   4   1   4    6.20    8.20
   5  -1   4   27.70   12.80
   5  -1   4   19.20    8.40
   5  -1   4   29.70   10.80
   5   1   4   48.00   13.20
   5   1   4   40.80    7.20
   5   1   4   23.00   16.40
   6  -1   4   34.50   15.20
   6  -1   4   42.00    9.90
   6   1   4   24.80   14.00
   6   1   4   33.50   16.90
   6  -2  -4  182.58   23.40
   6   2  -4  128.79   20.90
   5  -2  -4  158.48   13.10
  -5  -2   4  223.78   21.70
   5  -2  -4  210.08   20.00
   5  -2  -4  239.08   22.80
  -5   2   4  184.38   15.60
   5   2  -4  179.98   14.90
   5   2  -4  205.98   22.00
  -4  -2   4  966.40   37.10
   4  -2  -4  973.60   35.00
   4  -2  -4  887.71   30.40
   4  -2  -4  911.61   29.10
   4  -2  -4  891.81   35.80
  -4  -2   4  907.31   31.60
  -4   2   4  903.51   30.40
   4   2  -4  997.90   37.00
   4   2  -4  877.81   34.50
   4   2  -4  946.41   28.90
  -4   2   4  948.51   30.80
   3  -2  -4  238.38   13.90
   3  -2  -4  273.47   16.50
  -3  -2   4  263.87   17.90
   3  -2  -4  279.47   18.70
  -3  -2   4  228.68   16.60
   3  -2  -4  256.47   15.50
  -3  -2   4  247.88   13.60
   3  -2  -4  257.37   12.70
  -3   2   4  257.07   15.20
  -3   2   4  257.77   15.10
  -3   2   4  244.58   13.20
   3   2  -4  257.57   16.50
  -3   2   4  242.68   12.50
   3   2  -4  234.68   15.70
   3   2  -4  258.77   10.90
   2  -2  -4 2343.97   59.69
   2  -2  -4 2341.67   58.69
  -2  -2   4 2353.46   61.79
   2  -2  -4 2335.17   56.69
  -2  -2   4 2356.56   59.69
  -2  -2   4 2376.96   58.19
   2  -2  -4 2381.36   60.19
  -2   2   4 2416.66   58.49
   2   2  -4 2334.27   60.99
  -2   2   4 2352.36   56.09
   2   2  -4 2386.16   60.19
  -2   2   4 2366.06   59.59
   2   2  -4 2334.37   53.19
  -2   2   4 2327.57   57.49
   1  -2  -4  906.81   26.70
  -1  -2   4  892.91   26.00
  -1  -2   4  871.01   27.30
   1  -2  -4  908.51   26.00
   1  -2  -4  903.51   23.60
   1   2  -4  902.81   21.10
  -1   2   4  891.21   23.30
  -1   2   4  901.41   27.00
   1   2  -4  874.31   26.00
   1   2  -4  909.61   27.20
  -1   2   4  898.11   25.10
  -1   2   4  907.91   25.80
   1   2  -4  906.31   20.10
   0  -2   4 5583.04  127.29
   0  -2   4 5716.13  123.89
   0  -2  -4 5749.02  128.29
   0   2  -4 5631.04  127.39
   0   2   4 5725.93  124.99
   0   2   4 5680.83  129.09
   0   2  -4 5619.14  123.79
  -1  -2  -4 2111.39   55.69
  -1  -2  -4 2065.09   48.00
   1  -2   4 2120.39   50.79
   1  -2   4 2169.78   52.99
   1  -2   4 2095.29   50.79
  -1   2  -4 2076.69   50.89
   1   2   4 2090.89   52.89
   1   2   4 2067.89   47.80
   2  -2   4 1613.34   43.60
   2  -2   4 1587.24   43.80
   2  -2   4 1608.44   43.20
  -2  -2  -4 1583.14   44.00
   2   2   4 1613.64   41.10
   2   2   4 1617.64   43.20
  -2   2  -4 1589.54   43.40
   2   2   4 1557.04   36.50
   2   2   4 1645.14   45.00
   3  -2   4   45.60    9.20
   3  -2   4   50.49    7.00
  -3  -2  -4   41.50    7.60
   3  -2   4   44.80    8.20
   3  -2   4   57.79    9.20
  -3   2  -4   44.60    9.20
   3   2   4   32.30    7.70
   3   2   4   52.19    8.50
   3   2   4   48.00    4.70
  -3   2  -4   62.99    8.60
   3   2   4   45.50    7.90
   3   2   4   54.39    9.80
   4  -2   4  586.24   24.70
   4  -2   4  540.45   22.70
   4  -2   4  626.24   28.60
   4   2   4  617.94   27.30
   4   2   4  609.14   29.60
  -4   2  -4  545.55   24.70
   4   2   4  531.45   27.40
  -4   2  -4  588.04   27.30
   4   2   4  583.84   17.70
   5  -2   4  -15.10    6.00
   5  -2   4    4.00    8.20
   5   2   4   -1.70    9.90
   5   2   4   -0.50   10.90
   6  -2   4  148.69   16.40
   6  -2   4  177.18   22.90
   6   2   4  148.69   22.70
   6   2   4  149.09   21.00
   6  -3  -4   -7.40   12.80
   6  -3  -4    9.80   11.60
   6   3  -4    1.00   10.80
   6   3  -4   23.60   14.20
   5  -3  -4   55.29   13.40
  -5  -3   4   37.50   12.80
  -5  -3   4   28.50   11.80
   5  -3  -4   55.09   15.40
   5  -3  -4   38.90    6.70
   5   3  -4   66.99   24.70
  -5   3   4   57.29   11.10
   5   3  -4   25.40    8.00
  -4  -3   4   87.59   10.50
  -4  -3   4   67.79   13.70
   4  -3  -4   63.89   12.40
   4  -3  -4   57.69    8.40
   4  -3  -4   72.49   13.10
  -4   3   4   68.59    7.90
   4   3  -4   77.89   13.50
   4   3  -4   28.80   11.80
   4   3  -4   68.49    8.10
  -4   3   4   57.09    8.90
  -3  -3   4    7.50    7.80
  -3  -3   4   -9.00    4.60
   3  -3  -4   -2.60    5.60
   3  -3  -4   -2.50    6.40
   3  -3  -4    5.70    6.90
  -3  -3   4   -2.10    3.90
   3  -3  -4    0.20    3.30
   3   3  -4    3.40    5.50
  -3   3   4    6.90    3.90
  -3   3   4    6.40    4.60
   3   3  -4    1.50    3.80
  -3   3   4   -2.90    5.30
  -3   3   4    4.50    5.30
   3   3  -4   -1.60    5.90
  -2  -3   4    5.80    4.70
  -2  -3   4    3.70    3.90
   2  -3  -4    4.10    5.40
   2  -3  -4    5.80    4.70
  -2  -3   4    8.60    5.80
   2  -3  -4    3.40    4.50
  -2   3   4    4.10    3.90
   2   3  -4    5.70    2.40
   2   3  -4    6.80    5.10
  -2   3   4    4.20    3.30
   2   3  -4   -2.10    4.90
  -2   3   4    6.20    4.70
  -2   3   4    4.00    3.90
   1  -3  -4  599.04   20.20
  -1  -3   4  576.04   21.70
   1  -3  -4  630.94   17.70
   1  -3  -4  601.74   21.80
  -1  -3   4  589.84   21.00
   1   3  -4  617.84   21.50
   1   3  -4  631.44   14.30
  -1   3   4  599.74   22.20
  -1   3   4  645.44   17.70
  -1   3   4  624.54   20.10
   0  -3   4  777.52   23.50
   0  -3   4  753.72   20.50
   0  -3  -4  770.22   21.30
   0  -3  -4  783.72   25.10
   0   3  -4  755.12   23.20
   0   3  -4  737.33   20.40
   0   3   4  767.02   21.00
   0   3   4  781.92   25.90
   1  -3   4 1816.72   43.90
   1  -3   4 1741.93   46.80
  -1  -3  -4 1750.62   40.60
  -1  -3  -4 1750.62   46.60
   1  -3   4 1808.12   44.50
   1   3   4 1770.02   39.90
   1   3   4 1761.02   40.60
  -1   3  -4 1759.72   44.60
   1   3   4 1738.03   46.60
   2  -3   4    5.00    5.50
   2  -3   4   10.10    3.60
  -2  -3  -4    9.10    7.20
   2  -3   4    4.40    4.20
   2  -3   4    7.30    6.00
   2   3   4    5.30    5.60
   2   3   4    8.40    4.60
   2   3   4    2.20    3.50
  -2   3  -4    4.00    5.00
  -2   3  -4    6.30    4.70
   3  -3   4  544.85   22.80
   3  -3   4  522.25   23.90
  -3  -3  -4  523.45   21.10
   3  -3   4  557.64   23.60
   3  -3   4  529.65   19.10
   3   3   4  570.54   25.00
  -3   3  -4  521.85   23.60
   3   3   4  549.45   21.60
   3   3   4  526.55   24.70
  -3   3  -4  519.55   22.20
   3   3   4  528.95   22.40
   4  -3   4  268.37   18.80
   4  -3   4  255.47   20.10
   4  -3   4  238.48   13.40
   4   3   4  279.67   21.90
  -4   3  -4  261.07   19.50
   4   3   4  255.77   18.40
  -4   3  -4  256.67   17.40
   5  -3   4  286.27   15.40
   5  -3   4  280.17   21.20
   5  -3   4  369.06   26.40
   5   3   4  322.27   26.80
   5   3   4  353.56   24.40
  -5   3  -4  356.76   26.00
   6  -3   4  101.79   19.00
   6   3   4   89.29   17.70
   6  -4  -4  127.49   19.70
   6  -4  -4  132.89   21.10
   6   4  -4  155.08   23.10
   6   4  -4  147.19   19.30
  -6   4   4  113.49   15.10
  -5  -4   4  150.78   20.00
  -5  -4   4  147.79   15.80
   5  -4  -4  172.48   19.90
   5   4  -4  140.49   14.20
  -5   4   4  160.28   16.40
   5   4  -4  180.48   21.20
   5   4  -4  202.98   19.10
   4  -4  -4  701.53   31.80
  -4  -4   4  710.53   34.60
  -4  -4   4  744.63   27.00
   4  -4  -4  725.03   32.00
   4   4  -4  752.52   32.70
  -4   4   4  716.53   27.70
   4   4  -4  777.22   28.80
   4   4  -4  688.93   24.20
  -3  -4   4 1186.28   35.00
  -3  -4   4 1193.88   42.30
   3  -4  -4 1231.88   39.90
  -3  -4   4 1160.68   38.70
   3  -4  -4 1211.38   40.00
   3  -4  -4 1186.58   38.20
   3   4  -4 1201.98   32.10
   3   4  -4 1215.48   39.50
  -3   4   4 1220.78   41.90
  -3   4   4 1181.58   38.60
  -3   4   4 1181.08   35.80
  -3   4   4 1211.98   31.70
   3   4  -4 1193.48   34.50
   3   4  -4 1071.29   42.80
  -2  -4   4 4079.59   99.29
   2  -4  -4 4090.09  100.39
   2  -4  -4 4128.19   96.79
   2  -4  -4 4261.97  100.09
  -2  -4   4 3979.80  101.79
  -2   4   4 4088.19   93.79
  -2   4   4 4099.49   97.09
   2   4  -4 4200.48  100.19
  -2   4   4 4122.59   99.09
   2   4  -4 4123.49   92.79
  -2   4   4 4094.19   96.39
   2   4  -4 4073.09  101.39
   1  -4  -4 2351.06   62.49
  -1  -4   4 2432.96   62.59
   1  -4  -4 2385.06   56.59
   1  -4  -4 2411.56   60.29
  -1  -4   4 2379.96   62.69
   1   4  -4 2460.65   62.49
  -1   4   4 2543.75   57.09
  -1   4   4 2366.86   63.49
  -1   4   4 2452.65   59.99
   0  -4   4 2349.86   54.19
   0  -4   4 2435.06   59.49
   0  -4  -4 2314.07   61.69
   0  -4  -4 2376.56   56.59
   0  -4  -4 2457.05   54.59
   0   4   4 2412.56   56.59
   0   4   4 2445.16   62.89
   0   4  -4 2332.87   58.99
   0   4  -4 2355.86   56.39
   1  -4   4 1320.67   38.50
   1  -4   4 1333.47   35.70
   1  -4   4 1342.17   34.50
  -1  -4  -4 1264.57   31.00
  -1  -4  -4 1324.07   38.50
  -1   4  -4 1303.57   34.50
   1   4   4 1299.87   30.60
  -1   4  -4 1314.47   35.80
   1   4   4 1274.87   38.00
   1   4   4 1320.47   31.40
  -2  -4  -4 1397.66   43.70
   2  -4   4 1303.77   38.40
   2  -4   4 1340.47   41.10
   2  -4   4 1317.27   40.70
   2  -4   4 1329.77   34.00
   2   4   4 1289.57   41.60
   2   4   4 1343.67   40.80
  -2   4  -4 1296.47   39.50
   2   4   4 1336.57   35.30
  -2   4  -4 1370.66   39.40
   3  -4   4  171.38    9.50
   3  -4   4  175.28   15.80
  -3  -4  -4  166.38   12.00
   3  -4   4  176.58   15.20
   3  -4   4  175.38    9.20
   3  -4   4  167.08   13.10
   3   4   4  155.48   12.60
   3   4   4  168.78   16.20
  -3   4  -4  174.58   15.70
  -3   4  -4  175.48   15.30
   3   4   4  175.98   15.70
   3   4   4  188.78   13.00
   4  -4   4   66.29    7.30
   4  -4   4   77.89   14.60
   4  -4   4   65.29   12.10
   4  -4   4   63.59    7.00
   4   4   4   60.59   13.20
  -4   4  -4   83.49   13.90
   4   4   4   68.09   11.40
   5  -4   4   89.69    6.60
   5  -4   4   98.69    7.00
   5  -4   4  120.49   16.50
   5  -4   4   74.99   16.30
  -5   4  -4  107.99   16.80
   5   4   4  110.89   16.00
   5   4   4   89.59   16.50
   6  -5  -4   -3.60   12.80
   6  -5  -4  -15.70   12.80
  -6   5   4   -5.20    9.30
   6   5  -4   14.40   15.10
   6   5  -4    7.90   11.00
  -5  -5   4   13.70   13.40
  -5  -5   4   -5.90    8.10
   5  -5  -4   -2.70   11.00
   5  -5  -4   -7.50   12.30
   5   5  -4   -3.10    7.30
  -5   5   4   -0.30    8.30
   5   5  -4   -4.60    8.10
   5   5  -4    6.10   11.60
   4  -5  -4   62.89   13.40
  -4  -5   4   44.60   12.90
  -4  -5   4   60.29    9.20
   4  -5  -4   50.69   12.70
  -4   5   4   60.09   10.30
   4   5  -4   67.69    8.50
   4   5  -4   56.99   10.00
   4   5  -4   60.09   13.30
   3  -5  -4    0.00    8.20
  -3  -5   4    3.60    5.90
   3  -5  -4   -5.40    5.80
  -3  -5   4   11.80    5.10
   3  -5  -4   12.80    8.10
  -3  -5   4    6.80    9.40
   3   5  -4    6.90    4.80
   3   5  -4    1.80    7.50
  -3   5   4    4.50    6.00
   3   5  -4   -2.60    6.70
  -3   5   4    7.00    6.30
  -3   5   4    4.40    2.90
   3   5  -4    3.80    3.80
  -3   5   4    4.90    6.30
  -2  -5   4    2.70    5.30
   2  -5  -4    6.80    5.50
   2  -5  -4    4.30    5.80
  -2   5   4    2.40    3.30
  -2   5   4   -0.90    3.80
   2   5  -4    4.70    3.00
   2   5  -4    1.00    5.30
  -2   5   4   -5.10    4.30
  -2   5   4    2.80    5.40
   1  -5  -4  103.79    9.70
   1  -5  -4  114.19   10.90
  -1  -5   4  110.69   11.20
   1  -5  -4  107.99    7.50
  -1  -5   4  120.99   11.70
   1   5  -4  115.19   10.40
   1   5  -4  121.69    5.80
  -1   5   4  112.39   12.40
  -1   5   4  114.09    9.00
   0  -5   4    9.10    3.20
   0  -5  -4    7.60    2.40
   0  -5   4   10.20    4.50
   0  -5   4    7.40    5.40
   0  -5  -4   13.30    6.00
   0  -5  -4   14.80    4.50
   0   5  -4   12.00    4.00
   0   5   4    9.70    6.20
   0   5   4   12.80    4.00
   0   5  -4   15.00    4.30
  -1  -5  -4  779.02   27.90
   1  -5   4  766.62   27.40
  -1  -5  -4  727.73   19.70
   1  -5   4  735.43   24.10
   1  -5   4  782.42   23.20
  -1  -5  -4  744.23   19.50
   1  -5   4  744.93   26.10
  -1   5  -4  781.42   25.00
   1   5   4  765.72   27.40
   1   5   4  727.13   19.50
  -1   5  -4  730.83   22.90
   2  -5   4  447.36   22.10
   2  -5   4  432.36   14.50
   2  -5   4  420.26   19.00
  -2  -5  -4  419.26   16.60
   2   5   4  438.26   16.10
  -2   5  -4  464.25   20.30
   2   5   4  424.96   23.90
  -2   5  -4  422.86   20.10
   2   5   4  436.26   21.80
   3  -5   4  211.18    9.20
   3  -5   4  222.58   18.10
  -3  -5  -4  202.68   13.40
   3  -5   4  223.18    8.80
   3  -5   4  239.08   19.20
   3   5   4  237.88   29.80
  -3   5  -4  206.88   16.90
  -3   5  -4  200.78   15.90
   3   5   4  233.28   18.50
   3   5   4  217.38   14.00
   4  -5   4  160.58   18.60
   4  -5   4  127.39   17.50
  -4   5  -4  149.79   17.30
   4   5   4  127.29   17.30
   4   5   4  146.59   15.40
   5  -5   4  126.09   17.90
   5  -5   4  127.29   20.00
   5   5   4  125.69   19.80
  -5   5  -4  108.49   17.40
   5   5   4  110.69   16.10
  -5  -6   4  120.19   21.20
   5  -6  -4  150.28   20.70
  -5  -6   4  149.88   24.20
   5  -6  -4  160.58   21.90
   5   6  -4  173.28   17.70
  -5   6   4  131.29   16.00
   5   6  -4  171.58   21.80
  -4  -6   4  763.32   27.70
  -4  -6   4  825.32   39.90
   4  -6  -4  725.43   35.20
   4  -6  -4  819.02   35.10
  -4   6   4  768.22   31.60
   4   6  -4  776.72   35.20
   4   6  -4  769.32   26.50
   4   6  -4  738.93   29.00
   3  -6  -4 1097.49   37.80
   3  -6  -4 1105.39   40.20
  -3  -6   4 1109.09   34.20
  -3  -6   4 1093.09   43.10
   3   6  -4 1084.79   31.80
  -3   6   4 1167.18   37.70
   3   6  -4 1165.58   40.30
   3   6  -4 1118.89   33.50
  -3   6   4 1108.59   37.60
   2  -6  -4 1222.08   39.00
  -2  -6   4 1165.18   41.60
  -2  -6   4 1213.58   39.50
   2  -6  -4 1146.49   35.20
   2  -6  -4 1198.48   44.30
  -2   6   4 1193.78   32.00
  -2   6   4 1245.88   42.40
   2   6  -4 1177.18   44.70
  -2   6   4 1173.68   38.10
   2   6  -4 1167.38   31.80
  -1  -6   4 1869.11   56.29
   1  -6  -4 1957.00   56.29
   1  -6  -4 2024.50   53.09
  -1  -6   4 1932.31   46.20
  -1  -6   4 1974.30   55.69
   1  -6  -4 1956.60   48.80
  -1   6   4 1979.30   57.39
  -1   6   4 1998.10   52.39
   1   6  -4 2031.20   46.70
   1   6  -4 1966.10   55.09
   0  -6   4 3701.33   86.29
   0  -6  -4 3735.33   87.29
   0  -6   4 3728.63   90.39
   0  -6  -4 3640.64   93.99
   0  -6   4 3875.21   91.89
   0   6   4 3703.93   87.09
   0   6  -4 3662.53   89.89
   0   6   4 3747.32   94.69
   0   6  -4 3732.73   88.19
   1  -6   4  521.55   20.10
  -1  -6  -4  514.75   15.60
   1  -6   4  539.75   19.40
   1  -6   4  510.85   18.50
  -1  -6  -4  519.35   15.60
  -1  -6  -4  514.75   23.30
   1  -6   4  546.75   23.40
  -1   6  -4  516.85   18.70
   1   6   4  507.75   23.10
  -1   6  -4  521.75   20.50
   1   6   4  498.55   22.40
   1   6   4  515.05   15.70
   2  -6   4  846.32   32.60
   2  -6   4  827.52   32.90
  -2  -6  -4  839.92   35.70
  -2  -6  -4  818.92   24.60
   2  -6   4  806.42   22.90
   2  -6   4  796.72   29.10
   2   6   4  850.21   31.60
   2   6   4  812.02   32.10
  -2   6  -4  817.02   29.50
   2   6   4  802.32   25.10
  -2   6  -4  714.03   32.60
   3  -6   4  320.07   22.70
  -3  -6  -4  327.97   16.40
   3  -6   4  293.07   22.10
   3   6   4  278.17   20.90
  -3   6  -4  315.67   20.30
   3   6   4  302.47   16.60
   4  -6   4  183.28   20.70
   4  -6   4  223.48   23.10
  -4   6  -4  254.07   22.20
   4   6   4  236.78   18.20
   4   6   4  278.77   23.50
   5  -6   4   41.70   15.30
   5   6   4   42.00   12.10
  -5   6  -4   45.00   14.80
   5   6   4   48.10   15.50
   5  -7  -4  -18.00   11.80
   5  -7  -4    1.70   13.00
  -5  -7   4  -31.60    9.20
   5   7  -4   -8.20    7.90
   5   7  -4   -7.80   12.20
  -4  -7   4   35.20    8.30
  -4  -7   4   41.20   14.70
   4  -7  -4   52.49   15.20
   4  -7  -4   72.69   14.70
   4   7  -4   63.89   10.30
  -4   7   4   55.59   11.80
   4   7  -4   59.19   13.30
   4   7  -4   56.59    9.80
   3  -7  -4   43.40   12.30
   3  -7  -4   20.20    8.90
  -3  -7   4   49.60   14.40
  -3  -7   4   41.90    7.60
   3   7  -4   36.40    7.30
  -3   7   4   57.39   11.20
   2  -7  -4   52.29    8.70
   2  -7  -4   62.69   10.60
  -2  -7   4   84.89   14.00
  -2  -7   4   62.79   10.80
   2  -7  -4   31.40    9.70
   2   7  -4   83.09   12.10
   2   7  -4   54.49    6.70
  -2   7   4   52.29    9.50
  -2   7   4   72.49   11.30
  -2   7   4   61.99    7.20
  -1  -7   4  384.06   22.20
  -1  -7   4  429.96   15.30
  -1  -7   4  470.65   20.40
   1  -7  -4  450.65   20.70
   1  -7  -4  423.56   22.00
  -1  -7   4  458.25   25.20
   1  -7  -4  468.85   17.40
   1   7  -4  430.96   21.40
   1   7  -4  502.85   15.60
  -1   7   4  461.75   23.80
  -1   7   4  440.56   19.40
   0  -7  -4  653.53   22.30
   0  -7   4  613.74   24.20
   0  -7   4  614.64   21.20
   0  -7  -4  625.14   26.90
   0  -7   4  625.94   25.30
   0   7   4  664.93   21.90
   0   7  -4  605.74   23.40
   0   7   4  620.44   24.00
   0   7   4  648.54   27.60
   0   7  -4  603.54   22.50
   1  -7   4  105.99   13.30
   1  -7   4  131.99   10.40
   1  -7   4  134.69   10.20
  -1  -7  -4  132.59    7.80
  -1  -7  -4  143.69   14.40
  -1  -7  -4  119.69    7.80
   1   7   4  113.19   12.50
   1   7   4  130.99    8.00
  -1   7  -4  120.69   16.40
  -1   7  -4  130.39   10.40
   1   7   4  132.69   13.90
   2  -7   4  292.87   20.60
  -2  -7  -4  284.87   19.90
  -2  -7  -4  301.87   13.60
   2  -7   4  298.37   12.00
   2  -7   4  288.07   17.00
   2  -7   4  300.57   16.80
   2  -7   4  293.37   21.90
   2   7   4  300.87   19.90
   2   7   4  266.07   19.00
  -2   7  -4  297.47   18.50
   3  -7   4  195.38   19.90
  -3  -7  -4  193.68   13.90
   3  -7   4  216.78   21.70
  -3   7  -4  230.18   19.20
   3   7   4  198.38   19.50
   3   7   4  222.88   17.40
   4  -7   4  198.28   22.40
   4  -7   4  248.08   24.60
   4   7   4  203.18   22.00
   4   7   4  197.58   17.60
  -4   7  -4  186.88   20.90
   5  -7   4   75.39   18.50
   5  -7   4   48.30   17.50
  -5   7  -4   57.49   16.80
   5   7   4   83.89   15.30
   5   7   4   75.09   18.40
   5  -8  -4  252.47   27.50
   5  -8  -4  211.38   24.30
   5   8  -4  248.38   19.50
  -5   8   4  221.78   23.30
  -4  -8   4  169.98   22.80
  -4  -8   4  198.48   14.50
   4  -8  -4  225.48   24.50
   4  -8  -4  222.58   22.10
   4   8  -4  209.88   16.00
   4   8  -4  188.78   14.80
  -4   8   4  242.08   21.30
  -3  -8   4  387.16   28.00
   3  -8  -4  372.26   22.80
   3  -8  -4  384.96   25.30
   3   8  -4  399.86   18.60
  -3   8   4  413.56   24.50
   2  -8  -4  547.25   27.10
  -2  -8   4  569.54   29.60
  -2  -8   4  558.64   27.80
   2  -8  -4  583.94   27.80
   2   8  -4  549.45   20.20
  -2   8   4  627.34   28.50
  -2   8   4  571.24   18.80
   1  -8  -4  950.70   36.00
   1  -8  -4  952.20   33.00
  -1  -8   4 1005.80   36.70
  -1  -8   4  897.21   27.70
  -1  -8   4  906.91   36.90
   1  -8  -4 1005.70   29.70
  -1  -8   4  988.60   33.40
  -1   8   4  905.51   29.70
  -1   8   4  956.40   37.30
   1   8  -4  928.91   37.30
  -1   8   4  971.60   32.40
   1   8  -4  950.10   27.30
   0  -8   4  500.15   22.70
   0  -8  -4  482.65   20.10
   0  -8  -4  494.85   28.40
   0  -8   4  503.35   23.60
   0  -8   4  499.25   20.10
   0   8   4  460.45   21.50
   0   8  -4  478.15   21.30
   0   8  -4  490.05   20.90
   0   8   4  489.95   19.40
   0   8   4  545.35   26.10
   1  -8   4 1482.95   41.40
  -1  -8  -4 1354.16   48.60
   1  -8   4 1519.35   47.60
   1  -8   4 1464.15   42.30
  -1  -8  -4 1470.85   37.90
  -1  -8  -4 1479.65   38.10
  -1   8  -4 1454.55   44.00
   1   8   4 1404.26   38.10
   1   8   4 1457.65   47.70
   1   8   4 1399.06   46.80
  -1   8  -4 1443.46   40.90
  -2  -8  -4   57.59    7.50
   2  -8   4   52.69   14.20
   2  -8   4   49.30   12.60
  -2  -8  -4   52.89   13.10
   2  -8   4   52.19    6.00
   2  -8   4   54.89    9.00
  -2   8  -4   49.70   10.50
   2   8   4   69.19   13.00
   3  -8   4  292.97   25.00
   3  -8   4  327.07   26.10
  -3  -8  -4  230.78   15.20
  -3   8  -4  245.78   20.10
   3   8   4  283.87   22.60
   4  -8   4    5.90   12.60
   4  -8   4    5.80   12.70
   4   8   4   -1.60   10.40
   4   8   4   -0.80    8.00
  -4   8  -4    3.20   10.80
   5  -8   4   43.60   18.60
   5  -8   4   87.19   20.20
   5   8   4   62.09   23.60
  -5   8  -4  102.59   18.50
   5   8   4   56.59   16.50
   5  -9  -4    3.70   15.90
   5  -9  -4   -6.50   14.40
   5   9  -4   10.30    9.10
  -5   9   4   -0.10   11.90
   4  -9  -4  -10.40   13.30
  -4  -9   4    3.00   13.80
  -4  -9   4  -16.80    7.10
   4  -9  -4    0.90   12.40
  -4   9   4    9.40   10.50
   4   9  -4    7.40    7.20
   3  -9  -4   43.20   13.40
  -3  -9   4   54.39   15.20
  -3  -9   4   45.30   10.60
   3  -9  -4   50.69   12.00
   3   9  -4   33.00    7.90
  -3   9   4   48.80   12.90
   2  -9  -4   39.10   11.80
  -2  -9   4   58.99    9.90
  -2  -9   4   55.99   13.90
   2  -9  -4   40.90    8.90
  -2   9   4   59.29   12.90
  -2   9   4   46.40    6.20
   2   9  -4   37.70    6.80
  -1  -9   4   11.10    7.90
   1  -9  -4   13.40    9.00
  -1  -9   4    8.20    8.00
   1  -9  -4   21.90    6.50
  -1  -9   4    2.00    8.40
  -1  -9   4   16.70    6.00
  -1   9   4   14.90    6.40
   1   9  -4   16.30    5.00
   1   9  -4    4.60    7.00
  -1   9   4    9.50    5.20
  -1   9   4   16.50    9.40
   0  -9  -4  227.38   18.20
   0  -9  -4  252.77   15.80
   0  -9   4  269.47   21.60
   0  -9   4  282.17   15.30
   0  -9   4  273.67   19.40
   0   9   4  251.37   16.50
   0   9   4  249.18   14.40
   0   9   4  259.87   20.60
   0   9  -4  255.07   16.50
   0   9  -4  295.07   17.30
  -1  -9  -4   37.60   11.40
  -1  -9  -4   39.10    6.70
   1  -9   4   49.60   12.20
   1  -9   4   40.70    8.10
  -1  -9  -4   32.10    6.10
   1  -9   4   38.00    8.10
  -1   9  -4   39.50    7.00
   1   9   4   32.00    5.80
   1   9   4   25.20    7.70
  -1   9  -4   24.70    9.00
   1   9   4   42.30   11.30
   2  -9   4  360.86   27.30
   2  -9   4  335.67   14.00
   2  -9   4  319.57   23.60
  -2  -9  -4  321.37   15.60
   2  -9   4  360.56   19.80
  -2   9  -4  348.97   22.30
   2   9   4  343.57   23.10
   3  -9   4    4.00   12.70
  -3  -9  -4  -13.00    6.70
   3  -9   4    4.10   13.20
   3   9   4    5.70    9.90
  -3   9  -4    3.20   10.00
   4  -9   4   55.49   18.10
   4  -9   4   54.79   17.90
  -4   9  -4   61.29   16.00
   5  -9   4   -7.90   14.60
   5  -9   4   16.10   17.30
   5   9   4    8.60   13.40
  -5   9  -4   30.00   15.60
  -4 -10   4   -3.60    6.70
  -4 -10   4  -27.90    8.30
  -4 -10   4    7.30   14.90
   4 -10  -4    3.80   15.00
   4  10  -4    5.10    6.90
  -4  10   4   10.80   13.50
  -3 -10   4  680.53   27.50
   3 -10  -4  746.23   37.30
   3 -10  -4  714.93   32.30
  -3 -10   4  685.23   39.90
   3  10  -4  679.53   26.70
  -3  10   4  715.43   35.70
  -2 -10   4  107.09   12.80
   2 -10  -4   97.39   12.90
   2 -10  -4  124.49   17.30
  -2 -10   4   85.59   15.80
   2  10  -4  107.19   11.00
  -2  10   4  106.19   15.60
  -1 -10   4 1096.09   42.60
   1 -10  -4 1101.79   35.30
  -1 -10   4 1130.69   39.20
   1 -10  -4 1167.68   40.30
  -1 -10   4 1010.20   33.50
  -1  10   4 1119.19   44.10
   1  10  -4 1140.29   37.50
   1  10  -4 1121.89   33.30
  -1  10   4 1084.49   35.70
   0 -10  -4   29.00    9.20
   0 -10   4   31.30   10.70
   0 -10   4   40.10    7.60
   0 -10   4   33.00   10.10
   0  10  -4   34.70    9.60
   0  10   4   30.40    8.00
   0  10   4   49.00   13.20
   0  10  -4   24.40    8.40
   0  10   4   24.00    6.80
   1 -10   4  290.77   17.70
  -1 -10  -4  289.57   15.20
   1 -10   4  255.77   16.80
   1 -10   4  293.07   21.90
  -1 -10  -4  286.07   14.20
  -1  10  -4  275.67   16.00
  -1  10  -4  277.67   19.70
   1  10   4  280.37   21.70
   2 -10   4   24.30   12.80
  -2 -10  -4   12.50    6.20
  -2 -10  -4   15.20    3.30
   2 -10   4   15.20   14.50
   2  10   4   -0.90    9.40
  -2  10  -4   19.50   10.40
  -3 -10  -4  288.57   17.90
   3 -10   4  336.47   27.80
   3 -10   4  306.67   28.80
  -3  10  -4  315.17   25.70
   3  10   4  339.57   26.60
   4 -10   4   -0.20   14.60
   4 -10   4    5.50   15.60
   4  10   4  -18.30   11.00
  -4  10  -4   -3.80   11.80
  -4 -11   4   -8.90    6.70
   4 -11  -4   26.10   16.80
   4 -11  -4   -4.30   12.50
   4  11  -4    8.10    8.10
  -4  11   4   -5.10   12.90
  -3 -11   4   -3.60    6.80
   3 -11  -4   -2.50   10.20
   3 -11  -4    9.10   13.30
  -3 -11   4    6.10   13.50
  -3  11   4   -6.10   17.60
  -2 -11   4    4.20    8.60
   2 -11  -4   11.50    8.40
   2 -11  -4    0.50   11.40
  -2 -11   4    8.90   12.10
   2  11  -4   16.00    6.50
  -2  11   4    7.10    4.90
  -2  11   4   20.40   12.60
  -1 -11   4   33.00   11.00
  -1 -11   4   24.80   11.90
   1 -11  -4   19.70    8.40
   1 -11  -4    5.20   10.40
  -1 -11   4   18.00    6.80
   1  11  -4   24.40    9.10
  -1  11   4   13.40   11.40
  -1  11   4   13.70    6.70
   1  11  -4   29.00    6.90
   0 -11  -4  116.49   13.40
   0 -11   4   85.89   14.90
   0 -11   4  116.09   12.70
   0 -11   4  132.99   16.30
   0  11  -4  133.09   15.30
   0  11   4  114.89   12.80
   0  11   4  135.89   18.40
   0  11   4  101.99   13.20
   0  11  -4  123.19   13.70
   1 -11   4   21.60    8.00
   1 -11   4   13.70    8.00
   1 -11   4   13.70   11.50
  -1 -11  -4   17.10    7.40
  -1 -11  -4   23.10    6.70
   1  11   4   32.00   12.00
  -1  11  -4   29.10    7.00
  -1  11  -4   19.00   10.80
  -2 -11  -4  536.55   16.20
   2 -11   4  495.95   33.90
   2 -11   4  521.65   31.70
  -2 -11  -4  487.85   21.70
  -2  11  -4  562.04   30.30
   2  11   4  593.94   32.10
   3 -11   4   -6.70   14.20
  -3 -11  -4  -13.00    9.30
   3 -11   4    4.00   14.40
  -3  11  -4    5.00   11.70
   3  11   4    6.10   11.50
   4 -11   4  147.69   25.80
   4 -11   4  114.99   23.60
  -4  11  -4  136.19   21.00
   4  11   4  126.49   20.30
   4 -12  -4   37.90   15.10
   4 -12  -4   26.10   18.30
  -4  12   4    7.30   13.80
   4  12  -4   35.60    9.50
  -3 -12   4  355.96   32.90
   3 -12  -4  359.06   29.70
   3 -12  -4  324.77   25.30
  -3 -12   4  375.06   21.30
   3  12  -4  367.66   19.30
  -3  12   4  297.97   28.40
  -2 -12   4   41.10   16.30
   2 -12  -4   26.70   14.30
  -2 -12   4   22.30   10.60
   2 -12  -4   36.20   11.50
  -2  12   4   27.50   14.10
   2  12  -4   20.70    7.10
  -2  12   4   26.50    6.50
  -1 -12   4  570.74   25.30
   1 -12  -4  684.83   28.10
  -1 -12   4  643.54   30.90
   1 -12  -4  606.84   31.60
  -1 -12   4  649.14   34.90
  -1  12   4  677.13   36.00
  -1  12   4  675.23   34.30
   1  12  -4  714.03   30.60
   1  12  -4  637.74   25.00
   0 -12   4   60.89   13.50
   0 -12   4   54.99   10.00
   0 -12   4   49.20   14.10
   0 -12  -4   42.10   11.10
   0 -12  -4   67.39    9.40
   0  12   4   70.19   15.50
   0  12  -4   52.39   12.60
   1 -12   4  515.05   25.50
   1 -12   4  515.25   31.00
  -1 -12  -4  499.45   21.90
  -1 -12  -4  567.84   33.10
   1  12   4  550.54   31.00
  -1  12  -4  534.95   29.10
  -1  12  -4  528.55   24.40
  -2 -12  -4   19.80    4.90
   2 -12   4   19.80   15.00
   2 -12   4   22.30   17.80
   2  12   4   38.60   13.50
  -2  12  -4   37.40   20.00
   3 -12   4  255.97   29.60
   3 -12   4  247.88   28.10
  -3  12  -4  275.37   27.20
   3  12   4  239.08   25.50
   4 -12   4  -17.20   16.60
   4 -12   4   -8.90   15.60
   4  12   4    2.70   13.00
  -4  12  -4    1.20   13.30
  -3 -13   4    0.30    9.00
   3 -13  -4   12.10   12.00
   3 -13  -4   23.00   17.90
   3  13  -4    8.10    7.40
  -3  13   4   17.90   15.60
  -2 -13   4   24.40   15.30
  -2 -13   4   27.10   11.10
   2 -13  -4   -5.50    9.20
   2 -13  -4   15.80   13.20
  -2  13   4    1.20   13.50
  -2  13   4   11.90    6.60
   2  13  -4   22.30    7.50
  -1 -13   4  -15.30    6.50
  -1 -13   4    7.80   12.00
   1 -13  -4   -4.60    8.80
   1 -13  -4   -8.30   11.70
  -1 -13   4   -1.60   10.10
  -1  13   4   11.10    8.20
  -1  13   4    3.20   10.60
   1  13  -4    4.10    8.90
  -1  13   4   24.00   13.50
   0 -13  -4  256.77   18.30
   0 -13  -4  217.68   18.00
   0 -13   4  234.88   17.20
   0 -13   4  214.18   22.30
   0 -13  -4  246.88   21.10
   0 -13   4  238.38   24.00
   0  13  -4  278.77   22.50
   0  13   4  227.18   24.00
  -1 -13  -4   13.30    8.60
   1 -13   4   -9.00   12.50
  -1  13  -4  -13.10    7.10
  -1  13  -4   -4.30   10.50
   1  13   4   -4.10   11.60
   2 -13   4  162.28   24.40
  -2 -13  -4   82.39   12.80
   2 -13   4  113.79   21.10
  -2  13  -4   99.59   17.10
   3 -13   4   18.50   17.10
   3 -13   4   -5.50   17.80
  -3  13  -4    0.40   12.80
   3  13   4   19.10   13.00
   3 -14  -4  177.88   25.60
  -3 -14   4  190.98   18.90
   3 -14  -4  185.18   22.00
  -3  14   4  184.98   25.60
  -2 -14   4   33.50   12.80
   2 -14  -4   31.70   12.40
   2 -14  -4   21.70   16.10
  -2  14   4   31.10   15.40
   2  14  -4   37.50   12.00
   2  14  -4   41.10    8.70
   1 -14  -4  298.17   22.30
   1 -14  -4  272.87   26.20
  -1 -14   4  357.46   26.50
  -1 -14   4  253.47   18.80
   1  14  -4  341.87   24.10
  -1  14   4  325.57   28.10
  -1  14   4  345.67   28.10
   0 -14  -4   49.50   13.10
   0 -14   4   44.10   23.90
   0 -14  -4   28.90   10.60
   0 -14  -4   58.89   14.10
   0  14   4   53.79   16.80
   1 -14   4  325.47   30.00
  -1 -14  -4  408.86   21.90
  -1 -14  -4  331.77   21.30
   1  14   4  386.46   29.70
  -1  14  -4  350.86   27.10
   2 -14   4   60.09   19.00
   2 -14   4   39.80   18.70
  -2  14  -4   18.70   13.70
   2  14   4   33.90   13.60
   2 -15  -4   14.80   16.70
   2 -15  -4  -11.90   10.10
  -2 -15   4    7.40   12.20
  -2  15   4   14.20   13.70
   2  15  -4   25.10   11.50
   1 -15  -4  -16.70   11.60
  -1 -15   4   -3.00   13.80
   1 -15  -4    8.50   10.70
  -1  15   4   -1.70   11.80
   1  15  -4  -16.40    9.70
  -1  15   4   22.00   13.90
   0 -15   4   96.79   18.70
   0 -15  -4   89.89   13.90
   0 -15  -4  102.69   16.60
   0  15   4  102.49   18.40
   0  15  -4   80.69   16.00
  -1 -15  -4  -11.50    8.60
   1 -15   4    2.50   16.10
  -1  15  -4    3.50   12.00
   1  15   4   15.10   11.40
   2 -15   4    5.90   17.20
   2 -15   4   25.00   18.20
   2  15   4   44.50   16.30
  -2  15  -4    6.20   12.90
   0 -16   4   78.19   19.20
   0 -16  -4   41.20   15.10
   0 -16  -4   62.59   13.20
   0  16   4   92.09   19.80
   0  16  -4   78.79   16.70
   0  16   4   85.99   19.10
   6   0  -5   19.40   13.50
   5   0  -5  162.68   14.30
  -5   0   5  216.48   19.90
   5   0  -5  215.68   17.50
   5   0  -5  169.18   20.10
  -4   0   5  -10.50    5.60
  -4   0   5    7.10    8.70
   4   0  -5   -4.20    5.60
   4   0  -5   -4.50    3.70
   4   0  -5   -2.40    6.20
   4   0  -5    1.80    8.40
  -4   0   5    4.10    5.20
  -3   0   5 1357.16   41.30
   3   0  -5 1314.17   39.30
   3   0  -5 1361.76   39.60
  -3   0   5 1297.97   40.00
  -3   0   5 1327.57   34.10
  -3   0   5 1326.47   39.70
   3   0  -5 1341.47   41.00
   3   0  -5 1321.07   34.60
  -2   0   5   -2.10    4.40
   2   0  -5    3.40    4.20
  -2   0   5    3.10    3.70
   2   0  -5    1.10    3.50
  -2   0   5    1.90    1.90
   2   0  -5   -2.10    4.30
  -2   0   5   -4.40    3.90
   1   0  -5  543.95   17.50
   1   0  -5  568.94   19.20
  -1   0   5  527.65   19.10
  -1   0   5  566.84   17.30
  -1   0   5  579.14   17.10
   1   0  -5  553.04   17.30
   0   0   5   -1.80    3.30
   0   0  -5    2.40    2.60
   0   0   5    0.50    1.90
   0   0   5    1.40    2.70
   1   0   5  135.39    8.80
   1   0   5  138.99    7.60
   2   0   5    1.30    4.00
   2   0   5   -0.90    4.00
  -2   0  -5    3.10    4.80
   2   0   5    5.50    3.80
   3   0   5  135.19   12.60
   3   0   5  149.79   10.10
   3   0   5  147.09   12.30
  -3   0  -5  140.79   12.50
   4   0   5    3.90    6.60
   4   0   5    3.90    4.90
   4   0   5    2.50    7.90
   5   0   5   20.50   11.60
   5   0   5   18.50   12.90
   6   0   5   -0.60   13.20
   6   0   5    1.10   12.20
   6   0   5   -7.40    6.40
   6  -1  -5   73.99   18.90
   6   1  -5   48.30   16.40
   5  -1  -5    9.80   11.50
  -5  -1   5   -4.20    8.30
   5  -1  -5  -18.10    7.10
   5  -1  -5   -4.40    7.80
   5   1  -5   -9.40    6.10
  -5   1   5   -1.20    6.60
   5   1  -5   -1.20   10.40
  -5   1   5    5.30    7.80
   4  -1  -5  641.84   23.50
  -4  -1   5  669.93   27.10
   4  -1  -5  712.13   31.00
  -4  -1   5  700.93   30.60
   4  -1  -5  660.73   28.20
   4  -1  -5  630.44   25.10
  -4   1   5  670.63   23.40
  -4   1   5  715.73   28.10
   4   1  -5  687.53   30.70
   4   1  -5  656.03   22.40
   4   1  -5  623.14   31.20
   3  -1  -5   11.40    7.10
   3  -1  -5   13.00    5.10
  -3  -1   5   13.50    9.60
  -3  -1   5   13.00    7.50
   3  -1  -5    9.00    6.50
  -3  -1   5    5.60    5.40
   3  -1  -5    6.50    5.60
   3  -1  -5    9.90    4.00
  -3   1   5    8.60    4.10
   3   1  -5    6.40    6.70
  -3   1   5    5.70    5.30
   3   1  -5    3.30    5.30
  -3   1   5    8.40    6.00
  -3   1   5    3.20    5.70
   3   1  -5    8.50    3.30
   2  -1  -5 2910.61   71.79
   2  -1  -5 2864.81   70.89
   2  -1  -5 2924.01   70.99
  -2  -1   5 2865.31   73.39
   2  -1  -5 2859.51   73.69
  -2  -1   5 2937.71   71.49
  -2  -1   5 2929.11   71.19
   2   1  -5 2900.61   64.29
   2   1  -5 2894.61   71.79
  -2   1   5 2977.50   71.89
   2   1  -5 2906.21   68.79
   2   1  -5 2872.51   72.49
  -2   1   5 2887.31   70.39
  -2   1   5 3057.89   72.29
  -2   1   5 2888.01   66.19
  -1  -1   5  296.77   12.20
   1  -1  -5  285.57   11.20
   1  -1  -5  293.57   12.60
  -1  -1   5  296.47   13.90
   1   1  -5  306.17   10.30
  -1   1   5  310.17   12.90
  -1   1   5  282.27   14.00
  -1   1   5  302.47   13.10
  -1   1   5  290.97   10.90
   1   1  -5  293.97   12.80
   0  -1   5 8083.99  182.58
   0  -1   5 8276.27  178.08
   0  -1  -5 8283.37  181.28
   0   1   5 8285.47  182.68
   0   1  -5 8110.49  178.08
   0   1   5 8288.37  177.68
   1   1   5  227.98    8.80
   1   1   5  226.68   10.50
  -1   1  -5  227.08   10.60
   2  -1   5 6394.06  144.79
   2  -1   5 6275.17  145.09
   2  -1   5 6407.86  145.19
  -2  -1  -5 6317.67  143.59
   2   1   5 6408.86  143.29
   2   1   5 6381.06  147.29
   2   1   5 6540.55  145.79
   2   1   5 6321.17  140.99
  -2   1  -5 6263.27  145.29
   3  -1   5   27.10    7.60
   3  -1   5   17.70    6.40
  -3  -1  -5    9.90    6.10
   3  -1   5   22.10    6.70
   3   1   5   17.40    4.20
   3   1   5   17.40    7.90
   3   1   5   19.10    7.70
  -3   1  -5   25.80    8.20
   3   1   5   22.90    6.80
   3   1   5   12.70    6.70
   4  -1   5  911.01   30.60
   4  -1   5  973.70   36.20
   4  -1   5  815.02   32.20
   4   1   5  863.21   35.00
   4   1   5  931.61   34.90
   4   1   5  912.21   26.80
  -4   1  -5  937.61   35.70
   4   1   5  933.31   37.70
   5  -1   5   78.39   18.00
   5  -1   5   94.59   12.40
   5  -1   5  103.49   12.30
   5   1   5   83.59   15.10
   5   1   5  101.39   17.70
   5   1   5   90.39    9.00
   6  -2  -5    4.70   14.30
   6   2  -5    1.00   12.80
   5  -2  -5  139.59   17.70
   5  -2  -5  121.49   12.60
   5  -2  -5  126.59   18.20
  -5  -2   5  123.59   17.20
   5   2  -5   99.99   13.70
  -5   2   5  153.38   14.30
  -5   2   5  158.88   15.30
   5   2  -5  121.19   27.80
   4  -2  -5   31.30   10.90
   4  -2  -5   41.90    7.30
  -4  -2   5   52.09   11.60
   4  -2  -5   46.30    7.30
   4  -2  -5   45.20   11.10
  -4  -2   5   47.60    9.10
  -4   2   5   42.10    8.60
   4   2  -5   48.00    6.70
   4   2  -5   56.89   12.10
   4   2  -5   44.20    9.30
   3  -2  -5  214.08   14.80
   3  -2  -5  220.78   15.40
  -3  -2   5  253.47   15.80
  -3  -2   5  251.67   19.90
   3  -2  -5  230.48   12.40
  -3  -2   5  220.18   13.50
   3  -2  -5  233.18   15.60
   3   2  -5  237.88   16.40
  -3   2   5  235.58   14.00
  -3   2   5  248.98   14.90
   3   2  -5  211.28   15.20
  -3   2   5  241.98   11.90
   3   2  -5  233.48    9.60
  -3   2   5  208.28   14.00
  -2  -2   5  300.27   16.80
   2  -2  -5  306.87   14.80
   2  -2  -5  312.17   14.20
  -2  -2   5  301.27   14.00
   2  -2  -5  315.67   13.50
  -2  -2   5  309.37   14.90
   2  -2  -5  310.97   15.60
  -2   2   5  331.67   15.10
   2   2  -5  298.47   15.40
  -2   2   5  298.47   13.40
   2   2  -5  311.47    8.60
  -2   2   5  294.47   14.00
  -2   2   5  320.27   12.00
   2   2  -5  293.87   15.70
   1  -2  -5 2566.94   64.39
   1  -2  -5 2600.94   63.29
  -1  -2   5 2631.44   64.19
   1  -2  -5 2598.34   60.19
  -1  -2   5 2652.33   65.69
   1   2  -5 2559.44   57.49
   1   2  -5 2596.54   64.89
  -1   2   5 2646.74   65.19
  -1   2   5 2590.94   62.99
  -1   2   5 2640.34   59.99
  -1   2   5 2557.54   62.99
   0  -2   5    1.10    1.90
   0  -2   5   -0.10    3.50
   0  -2  -5    1.60    3.70
   0  -2   5    2.50    2.20
   0   2   5    1.90    4.00
   0   2   5    0.50    1.00
   0   2  -5   -4.60    3.20
   0   2  -5    2.70    2.30
   0   2   5    3.50    2.80
   1  -2   5   78.49    6.80
   1  -2   5   89.99    8.60
   1  -2   5   85.29    7.50
  -1  -2  -5   77.89    7.90
   1   2   5   86.89    9.00
  -1   2  -5   92.29    7.40
   1   2   5   82.49    4.80
   2  -2   5    0.80    5.00
   2  -2   5    6.90    4.70
  -2  -2  -5    1.50    4.40
   2  -2   5    0.90    4.90
   2   2   5    4.10    2.30
  -2   2  -5   -6.50    4.50
   2   2   5    3.80    4.50
   2   2   5    3.60    5.70
   2   2   5    3.40    3.60
  -3  -2  -5   52.29    8.10
   3  -2   5   37.90    9.50
   3  -2   5   33.00    8.00
   3  -2   5   45.50    8.10
  -3   2  -5   45.00    9.20
   3   2   5   33.90    7.60
   3   2   5   26.70    7.50
   3   2   5   21.60    8.30
   3   2   5   39.70    4.30
   3   2   5   44.50    8.20
   4  -2   5   26.90   10.30
   4  -2   5   15.90    6.60
   4  -2   5   24.60    8.60
   4   2   5   23.20    9.00
  -4   2  -5   24.10    9.60
   4   2   5   18.80    4.00
   4   2   5   11.10    9.90
   5  -2   5   54.29   15.30
   5  -2   5   46.20   10.90
   5  -2   5   56.09   10.20
   5   2   5   36.40   11.90
  -5   2  -5   51.89   14.50
   5   2   5   64.79   15.80
   6  -3  -5   36.30   13.60
   6  -3  -5   41.60   16.20
   6   3  -5    1.20   13.20
   6   3  -5   17.30   11.10
  -6   3   5   14.30    9.20
   5  -3  -5  139.09   29.80
  -5  -3   5   50.39   13.40
   5  -3  -5   72.69   15.10
  -5   3   5   68.79   11.30
   5   3  -5   75.69   17.30
  -4  -3   5  251.47   21.80
  -4  -3   5  272.97   19.20
   4  -3  -5  241.08   20.00
   4  -3  -5  271.87   20.80
   4  -3  -5  251.77   13.50
   4   3  -5  255.37   12.60
  -4   3   5  254.47   15.70
   4   3  -5  266.47   20.60
  -4   3   5  265.97   14.90
  -3  -3   5   87.59   12.30
   3  -3  -5  104.19   13.70
   3  -3  -5   79.99   11.30
  -3  -3   5  100.99   10.40
  -3  -3   5   93.39   11.90
   3  -3  -5   92.09   11.50
  -3   3   5   79.39    9.60
   3   3  -5   99.59    6.60
   3   3  -5   75.19   11.70
  -3   3   5   87.49    9.50
  -3   3   5   91.09    9.20
   3   3  -5  104.29   12.50
  -3   3   5  122.79   12.80
   2  -3  -5 2621.64   69.09
   2  -3  -5 2677.43   66.19
  -2  -3   5 2690.73   71.29
  -2  -3   5 2646.24   68.29
   2  -3  -5 2754.92   68.89
  -2   3   5 2695.73   68.29
  -2   3   5 2704.13   65.69
   2   3  -5 2675.13   59.79
  -2   3   5 2666.83   65.79
   2   3  -5 2771.42   69.39
   2   3  -5 2715.43   70.39
  -2   3   5 2725.13   65.19
   1  -3  -5  209.38    8.90
  -1  -3   5  217.48   13.30
  -1  -3   5  206.48   12.10
   1  -3  -5  206.48   12.50
   1  -3  -5  209.78   11.90
  -1   3   5  207.48   11.00
  -1   3   5  202.38   13.30
  -1   3   5  239.18   11.70
   1   3  -5  195.48   12.30
   1   3  -5  207.08    6.70
  -1   3   5  208.18    8.50
   0  -3   5 4131.69   96.89
   0  -3   5 4104.49   92.59
   0  -3  -5 4173.28   93.99
   0  -3  -5 4155.88   98.39
   0   3  -5 4030.90   92.39
   0   3   5 4126.09   93.69
   0   3   5 4225.58   99.89
  -1  -3  -5   12.20    5.00
   1  -3   5    9.30    3.90
  -1  -3  -5    7.30    2.20
   1  -3   5    7.80    5.40
   1  -3   5    8.00    3.70
  -1   3  -5    6.90    4.30
   1   3   5    8.90    2.10
   1   3   5    6.50    4.80
   1   3   5    5.50    2.20
   2  -3   5 1861.01   49.99
   2  -3   5 1922.51   52.09
   2  -3   5 1854.91   51.89
   2  -3   5 1891.41   47.70
  -2  -3  -5 1909.81   47.90
   2   3   5 1867.21   46.60
   2   3   5 1888.11   52.59
   2   3   5 1761.72   40.50
   2   3   5 1883.01   50.19
   2   3   5 1840.42   40.60
  -2   3  -5 1917.41   50.79
   3  -3   5   90.89   10.70
  -3  -3  -5  106.89   10.30
   3  -3   5  119.89   13.30
   3   3   5  111.69   14.00
   3   3   5   95.89   12.80
   3   3   5  101.39   11.30
  -3   3  -5  129.79   14.00
   3   3   5  108.59   11.00
   4  -3   5  844.92   32.90
   4  -3   5  778.52   34.80
   4  -3   5  815.72   28.20
  -4   3  -5  850.91   34.80
   4   3   5  815.02   36.10
   4   3   5  840.12   32.20
   5  -3   5   67.69   12.90
   5  -3   5  104.19   17.90
   5  -3   5   46.50    8.50
  -5   3  -5   76.19   15.10
   5   3   5   88.19   15.30
   5   3   5   80.69   17.40
   6  -4  -5   18.20   13.90
   6  -4  -5   49.00   15.40
   6   4  -5   24.70   12.00
   6   4  -5   17.90   15.60
  -6   4   5   12.70    9.60
   5  -4  -5  134.89   18.60
  -5  -4   5  129.19   20.00
   5  -4  -5  116.09   23.40
   5   4  -5  123.99   15.70
   5   4  -5  126.49   18.80
  -5   4   5   88.69   12.20
   4  -4  -5  291.87   21.40
  -4  -4   5  227.18   22.00
   4  -4  -5  239.48   19.90
  -4   4   5  206.58   15.30
  -4   4   5  246.48   12.70
   4   4  -5  254.27   19.90
   4   4  -5  213.48   11.80
  -3  -4   5  441.36   19.60
  -3  -4   5  473.55   25.80
   3  -4  -5  492.95   23.70
   3  -4  -5  458.95   23.00
  -3  -4   5  485.85   22.90
   3  -4  -5  502.95   22.60
  -3   4   5  524.15   18.50
  -3   4   5  463.55   19.90
  -3   4   5  570.24   32.10
   3   4  -5  466.05   24.10
   3   4  -5  475.65   15.60
  -3   4   5  489.05   23.10
   3   4  -5  473.55   23.30
   2  -4  -5  118.49   10.10
   2  -4  -5  134.19   12.40
  -2  -4   5  120.69   11.10
   2  -4  -5  111.09   11.70
  -2  -4   5  127.49   13.70
  -2   4   5  110.29    8.90
   2   4  -5  128.39   11.80
  -2   4   5  144.59   11.10
   2   4  -5  124.09    6.70
   2   4  -5  147.49   12.80
  -2   4   5  131.29   10.40
  -2   4   5  120.99    9.00
   1  -4  -5  349.17   12.30
   1  -4  -5  365.06   17.50
  -1  -4   5  382.46   18.00
   1  -4  -5  337.37   15.40
  -1  -4   5  355.66   17.60
   1   4  -5  363.66   11.50
   1   4  -5  380.36   17.40
  -1   4   5  362.06   18.80
  -1   4   5  356.56   15.10
  -1   4   5  377.46   12.40
   0  -4   5  569.04   20.90
   0  -4   5  577.44   15.40
   0  -4  -5  598.54   22.80
   0  -4  -5  557.04   18.30
   0  -4   5  580.74   17.70
   0   4   5  566.04   17.90
   0   4  -5  564.14   20.60
   0   4   5  574.64   23.80
   0   4  -5  558.54   17.60
   1  -4   5  769.62   27.60
  -1  -4  -5  794.82   19.60
   1  -4   5  820.32   24.90
   1  -4   5  800.62   24.80
  -1  -4  -5  833.82   28.10
   1   4   5  802.82   19.90
   1   4   5  797.82   20.60
  -1   4  -5  800.62   25.00
   1   4   5  788.22   27.80
   2  -4   5   12.00    5.70
   2  -4   5    1.00    6.20
  -2  -4  -5    2.40    3.50
   2  -4   5    7.70    3.80
   2   4   5   12.40    7.10
   2   4   5    9.20    3.80
   3  -4   5   14.70    4.80
   3  -4   5   19.10    8.70
   3  -4   5   30.20    9.70
  -3  -4  -5   14.00    6.00
  -3   4  -5   16.50    8.10
   3   4   5   11.70    8.60
   3   4   5    9.40    6.30
   3   4   5   13.00    7.20
   4  -4   5   49.70    6.60
   4  -4   5   52.79   12.40
   4  -4   5   34.30   11.70
  -4   4  -5   41.60   12.10
   4   4   5   24.30   11.10
   4   4   5   32.80    9.40
   5  -4   5  -12.80    5.10
   5  -4   5    7.40   10.70
   5  -4   5    1.80    4.40
   5  -4   5    6.80   13.10
   5   4   5   -0.80   11.50
  -5   4  -5    8.20   12.00
   5   4   5   20.20   10.90
   5  -5  -5   52.09   15.20
   5  -5  -5   85.59   19.80
  -5  -5   5   65.49   17.20
  -5   5   5   75.29   12.40
   5   5  -5   56.69    9.70
   5   5  -5  116.29   19.00
   5   5  -5   76.69   12.30
   4  -5  -5  180.88   18.90
  -4  -5   5  189.98   22.00
   4  -5  -5  153.88   18.20
  -4   5   5  167.88    8.60
   4   5  -5  156.18   10.60
  -4   5   5  173.68   15.40
   4   5  -5  176.88   14.10
   4   5  -5  182.08   18.80
  -3  -5   5    7.90    9.30
   3  -5  -5    5.50    7.40
  -3  -5   5   24.60    6.60
   3  -5  -5   14.40    8.60
   3  -5  -5   18.70    9.70
   3   5  -5    7.60    8.20
   3   5  -5   21.00    5.40
  -3   5   5   20.00    4.80
  -3   5   5   20.40    7.50
   3   5  -5   21.50    8.40
  -3   5   5   15.70    6.30
   2  -5  -5  166.58   13.80
  -2  -5   5  163.98   13.00
   2  -5  -5  149.29   13.60
  -2  -5   5  144.59   15.30
   2  -5  -5  153.78   11.40
  -2   5   5  165.88   12.90
  -2   5   5  166.38   10.40
   2   5  -5  149.79   13.90
  -2   5   5  166.98   15.10
  -2   5   5  154.58   12.40
   2   5  -5  171.18    7.80
  -2   5   5  182.08   10.90
   1  -5  -5  782.52   22.40
  -1  -5   5  824.72   29.70
   1  -5  -5  800.22   26.70
  -1  -5   5  810.12   30.10
   1  -5  -5  805.02   29.60
  -1   5   5  822.52   31.20
   1   5  -5  796.82   28.60
   1   5  -5  812.72   22.60
  -1   5   5  848.42   26.60
   0  -5   5 2082.79   49.70
   0  -5  -5 2255.87   49.50
   0  -5  -5 2061.79   58.49
   0  -5  -5 2127.49   52.69
   0  -5   5 2086.69   55.89
   0   5   5 2301.87   55.89
   0   5  -5 2035.50   55.29
   0   5   5 2128.59   59.89
   0   5  -5 2081.59   52.19
  -1  -5  -5 1416.86   33.70
   1  -5   5 1457.85   40.20
   1  -5   5 1431.26   43.50
  -1  -5  -5 1508.35   44.70
   1  -5   5 1444.56   39.50
   1   5   5 1438.26   43.80
  -1   5  -5 1472.05   40.40
   1   5   5 1441.66   35.10
  -1   5  -5 1488.65   43.10
   2  -5   5 1212.78   37.40
   2  -5   5 1162.08   32.60
   2  -5   5 1190.98   40.00
  -2  -5  -5 1214.68   32.70
   2  -5   5 1205.28   40.50
   2   5   5 1196.58   32.30
   2   5   5 1212.18   39.90
  -2   5  -5 1210.98   37.70
   3  -5   5  352.96   22.50
  -3  -5  -5  342.87   16.80
   3  -5   5  404.26   23.70
   3  -5   5  353.86   13.70
   3   5   5  366.06   23.10
   3   5   5  372.66   17.50
  -3   5  -5  355.56   21.00
   4  -5   5  392.76   13.40
   4  -5   5  374.16   26.20
   4  -5   5  385.76   13.60
   4  -5   5  393.36   25.90
  -4   5  -5  420.46   25.90
   4   5   5  452.75   28.00
   4   5   5  463.35   22.90
   5  -5   5  198.48   23.30
   5  -5   5  229.48   22.70
  -5   5  -5  174.88   21.00
   5   5   5  223.98   25.40
   5   5   5  228.68   20.90
   5  -6  -5   79.29   17.50
  -5  -6   5   67.09   19.80
   5  -6  -5   63.79   15.70
  -5   6   5   53.99   11.90
   5   6  -5   76.59   12.20
   5   6  -5   91.69   17.00
   5   6  -5   55.99   10.60
  -4  -6   5  357.46   28.70
   4  -6  -5  340.37   25.60
   4  -6  -5  377.56   24.70
   4   6  -5  384.26   25.50
   4   6  -5  359.16   18.80
  -4   6   5  342.97   21.10
   4   6  -5  317.97   15.30
  -3  -6   5  319.17   17.00
   3  -6  -5  327.27   19.70
   3  -6  -5  300.47   21.00
  -3  -6   5  339.87   24.90
  -3   6   5  317.37   17.90
   3   6  -5  331.27   13.70
   3   6  -5  341.47   15.20
  -3   6   5  337.97   12.80
   3   6  -5  368.16   21.80
  -3   6   5  310.77   19.20
   2  -6  -5  331.67   19.20
  -2  -6   5  316.77   21.30
   2  -6  -5  325.07   19.70
  -2  -6   5  350.76   20.20
   2  -6  -5  351.06   16.60
  -2   6   5  348.87   15.10
   2   6  -5  339.77   12.30
  -2   6   5  356.16   21.70
   2   6  -5  331.77   20.00
  -2   6   5  350.56   18.40
   1  -6  -5  316.77   12.50
  -1  -6   5  270.97   18.00
   1  -6  -5  303.47   16.50
   1  -6  -5  307.07   18.20
  -1  -6   5  301.37   18.30
  -1   6   5  354.96   21.00
  -1   6   5  315.17   15.50
   1   6  -5  315.27   13.10
   1   6  -5  296.67   17.20
   0  -6  -5  124.99    5.80
   0  -6  -5  112.19    9.30
   0  -6   5  128.29   12.50
   0  -6  -5  119.49   12.50
   0  -6   5  125.59    7.50
   0  -6   5  132.69   11.70
   0   6   5  115.19   13.20
   0   6  -5  118.49    9.50
   0   6  -5  113.69   10.40
   0   6   5  128.19    8.90
  -1  -6  -5    1.80    3.00
   1  -6   5    4.60    3.80
  -1  -6  -5   -1.40    2.10
  -1  -6  -5    0.80    5.70
   1  -6   5   -3.40    4.10
   1  -6   5   -0.40    4.10
   1  -6   5    5.90    9.00
  -1   6  -5   -5.80    4.60
  -1   6  -5    1.90    3.90
   1   6   5    7.80    3.00
  -2  -6  -5   25.70    8.30
   2  -6   5   36.60   10.50
   2  -6   5   23.90    9.90
   2  -6   5   18.70    4.80
   2  -6   5   30.90    7.60
   2   6   5   25.40    9.20
  -2   6  -5   32.70    8.50
   2   6   5   26.60    8.30
   2   6   5   30.90    5.50
   3  -6   5   22.30   11.00
   3  -6   5    3.10    9.50
   3  -6   5    9.10    3.60
  -3  -6  -5   17.80    6.40
   3   6   5   12.60    9.80
  -3   6  -5    1.90    8.20
   3   6   5    8.30    6.50
   4  -6   5    8.10   12.60
   4  -6   5   12.10   11.20
   4   6   5   20.00    8.80
  -4   6  -5    9.70   10.40
   4   6   5   13.10   12.00
   5  -6   5   38.70   15.60
   5  -6   5   41.20   15.70
   5   6   5   38.10   14.90
   5   6   5   50.19   13.00
  -5   6  -5   49.80   15.20
   5  -7  -5  127.69   20.00
   5  -7  -5  125.79   20.50
  -5  -7   5  122.99   21.50
  -5   7   5  134.19   25.70
   5   7  -5  116.59   19.90
   5   7  -5  124.79   14.20
   4  -7  -5   81.39   14.90
  -4  -7   5   85.69   18.40
   4  -7  -5   75.09   16.40
  -4  -7   5   84.69   13.40
   4   7  -5   64.89   14.40
   4   7  -5   77.19    9.10
   4   7  -5  100.29   11.30
  -4   7   5   97.69   14.30
  -3  -7   5  729.53   27.80
  -3  -7   5  749.13   36.80
   3  -7  -5  731.03   29.90
   3  -7  -5  740.93   33.00
   3   7  -5  745.83   24.60
  -3   7   5  761.12   31.50
  -3   7   5  739.03   20.10
   3   7  -5  729.43   23.90
  -2  -7   5  206.38   17.10
  -2  -7   5  201.18   19.20
   2  -7  -5  192.18   17.30
   2  -7  -5  176.38   15.50
   2  -7  -5  198.98   13.80
  -2   7   5  206.48   12.10
  -2   7   5  204.58   18.10
  -2   7   5  202.58   17.00
   2   7  -5  179.08   16.50
   2   7  -5  173.68    9.30
  -2   7   5  197.58   14.40
  -1  -7   5 1166.38   29.70
   1  -7  -5 1209.28   32.80
  -1  -7   5 1054.19   41.60
  -1  -7   5 1234.98   41.30
   1  -7  -5 1226.48   38.90
   1  -7  -5 1340.07   56.39
  -1   7   5 1218.48   43.20
   1   7  -5 1209.08   39.90
   1   7  -5 1253.47   34.50
  -1   7   5 1210.78   37.00
   0  -7  -5  212.98   12.90
   0  -7   5  232.98   19.30
   0  -7  -5  242.28    9.60
   0  -7   5  269.37   16.30
   0  -7  -5  250.07   17.50
   0  -7   5  252.17   11.80
   0   7  -5  238.28   13.50
   0   7  -5  215.38   14.30
   0   7   5  259.57   18.80
   0   7   5  225.58   12.10
   1  -7   5 1340.37   43.30
   1  -7   5 1310.57   37.70
   1  -7   5 1244.48   36.60
  -1  -7  -5 1297.97   33.40
  -1  -7  -5 1279.07   31.80
   1   7   5 1272.97   33.50
   1   7   5 1310.47   43.20
  -1   7  -5 1292.87   43.10
   1   7   5 1264.17   43.50
  -1   7  -5 1248.88   37.30
  -2  -7  -5  460.75   25.60
   2  -7   5  466.45   21.40
   2  -7   5  421.36   21.60
   2  -7   5  514.55   27.00
  -2  -7  -5  494.95   17.20
   2  -7   5  484.55   17.50
   2  -7   5  501.15   27.50
  -2   7  -5  461.85   22.80
   2   7   5  480.85   25.40
  -3  -7  -5 1022.00   33.10
   3  -7   5 1034.20   42.70
   3  -7   5 1094.49   43.10
   3   7   5 1064.79   34.20
   3   7   5 1110.59   42.10
  -3   7  -5 1049.89   39.80
   4  -7   5  106.09   19.40
   4  -7   5   82.89   25.80
   4   7   5   94.99   12.70
   4   7   5   98.79   17.70
   5  -7   5   91.49   19.00
   5  -7   5  125.69   21.10
   5   7   5  120.79   16.50
  -5   7  -5  176.98   23.30
   5   7   5  162.88   23.00
  -5  -8   5   49.20   18.50
   5  -8  -5   51.89   17.90
   5  -8  -5   57.69   16.80
  -5   8   5   38.50   12.30
   5   8  -5   38.60    9.90
   4  -8  -5   68.59   14.50
  -4  -8   5   45.80   10.40
  -4  -8   5   83.79   20.70
  -4   8   5   67.39   13.70
   4   8  -5   54.09    8.70
   4   8  -5   68.19   10.10
   3  -8  -5   97.49   13.50
  -3  -8   5  116.09   18.20
   3  -8  -5  126.99   17.60
   3   8  -5  101.19   10.30
  -3   8   5   77.19   12.90
   2  -8  -5  733.93   26.20
   2  -8  -5  689.93   30.30
  -2  -8   5  707.53   33.80
  -2   8   5  713.43   31.30
   2   8  -5  687.83   21.40
  -2   8   5  651.63   32.70
  -2   8   5  688.73   24.30
  -1  -8   5   77.39   12.40
  -1  -8   5   84.29   11.90
  -1  -8   5   71.19   12.10
   1  -8  -5   86.89    8.60
   1  -8  -5   80.29   12.40
   1  -8  -5   67.19   10.80
  -1  -8   5   76.79    6.50
  -1   8   5   90.19   13.60
  -1   8   5   88.79   10.80
   1   8  -5   88.09   12.50
   1   8  -5   81.79    9.50
   1   8  -5   78.59    6.50
   0  -8   5  298.27   18.30
   0  -8   5  303.47   19.70
   0  -8  -5  310.17   19.90
   0  -8  -5  298.67   16.00
   0  -8  -5  302.67   12.20
   0  -8   5  309.27   14.40
   0   8  -5  294.47   17.10
   0   8   5  297.87   17.40
   0   8   5  297.17   14.80
   0   8   5  330.37   21.90
   0   8  -5  304.07   16.30
  -1  -8  -5   59.19    6.20
   1  -8   5   55.29   12.10
  -1  -8  -5   60.39   11.50
   1  -8   5   41.10    7.30
   1  -8   5   55.79    8.50
  -1  -8  -5   56.49    6.60
   1   8   5   70.99   13.00
   1   8   5   66.89    7.00
   1   8   5   49.40    9.70
  -1   8  -5   57.09    9.40
  -1   8  -5   68.59    8.80
   2  -8   5   28.30   12.60
   2  -8   5   35.60    6.00
   2  -8   5   25.00    7.70
  -2  -8  -5   32.60    5.90
   2  -8   5   27.00   11.60
   2   8   5   30.10   10.30
  -2   8  -5   32.30    9.80
   3  -8   5   17.10   12.60
  -3  -8  -5   -1.10    5.70
   3  -8   5   -9.30   10.20
  -3   8  -5   11.10   10.30
   3   8   5    3.90   10.10
   4  -8   5    2.10   23.50
   4  -8   5   21.70   15.00
  -4   8  -5   11.50   13.80
   4   8   5    9.10    7.90
   5  -8   5    1.90   15.20
   5  -8   5    4.40   16.40
   5   8   5   -7.20   18.00
  -5   8  -5    0.90   13.50
   5   8   5    1.70   14.00
   5  -9  -5   12.00   16.30
   5  -9  -5   -7.20   13.00
  -5  -9   5   -1.50   15.70
  -5   9   5   25.40   12.30
   5   9  -5   21.20    9.20
   4  -9  -5   -8.70   12.00
  -4  -9   5    2.30   15.10
   4  -9  -5   15.40   12.80
  -4  -9   5   -9.00    8.30
   4   9  -5  -10.20    6.70
  -4   9   5    6.90   11.50
   4   9  -5    4.80    6.90
   3  -9  -5  601.54   28.60
  -3  -9   5  703.93   37.60
   3  -9  -5  646.84   34.30
  -3   9   5  629.14   32.30
   3   9  -5  623.34   23.40
   2  -9  -5   50.39    9.80
   2  -9  -5   44.50   12.10
  -2  -9   5   61.39   10.40
  -2  -9   5   39.70   12.80
  -2   9   5   35.10   12.30
   2   9  -5   50.99    6.80
  -2   9   5   56.69   12.90
  -2   9   5   50.19    7.10
   1  -9  -5 1138.09   33.40
  -1  -9   5 1161.48   42.50
   1  -9  -5 1114.89   38.60
  -1  -9   5 1096.29   31.20
  -1  -9   5 1186.78   39.60
  -1   9   5 1168.78   44.20
  -1   9   5 1117.39   36.00
  -1   9   5 1062.39   36.70
   1   9  -5 1134.39   39.20
   1   9  -5 1060.19   40.00
   0  -9  -5  357.96   18.40
   0  -9   5  349.47   21.00
   0  -9   5  351.16   16.60
   0  -9   5  344.17   21.20
   0  -9  -5  353.66   14.60
   0   9   5  330.57   16.60
   0   9   5  366.76   23.90
   0   9  -5  338.37   19.20
   0   9  -5  372.86   19.10
   0   9   5  301.97   21.80
   1  -9   5 1745.83   50.99
   1  -9   5 1852.31   51.89
  -1  -9  -5 1887.01   47.60
   1  -9   5 1886.11   58.79
  -1  -9  -5 1837.92   45.90
  -1   9  -5 1923.31   54.79
   1   9   5 1860.31   59.29
   1   9   5 1768.32   47.40
  -1   9  -5 1831.42   51.59
  -2  -9  -5   81.79    8.30
   2  -9   5   49.99   15.70
   2  -9   5   90.69   12.10
   2  -9   5   93.49   10.10
   2  -9   5   75.89   15.40
  -2   9  -5   85.79   13.40
   2   9   5   78.89   14.10
   3  -9   5  963.70   43.60
   3  -9   5  931.61   43.70
  -3  -9  -5  871.01   30.80
  -3   9  -5  980.90   39.90
   3   9   5  905.51   41.10
   4  -9   5   84.19   20.80
   4  -9   5  102.39   21.40
   4   9   5  107.99   19.40
  -4   9  -5   81.99   17.80
  -4 -10   5   46.30   17.80
  -4 -10   5   60.39   10.80
  -4 -10   5   38.70   12.60
   4 -10  -5   96.89   20.00
   4 -10  -5   44.50   16.40
  -4  10   5   65.49   16.20
   4  10  -5   71.19   10.60
  -3 -10   5   -2.70    7.70
   3 -10  -5    2.70    8.80
  -3 -10   5    4.40   12.80
   3 -10  -5   -8.30   11.40
   3  10  -5   -1.20    5.20
  -3  10   5   -9.50   10.80
  -2 -10   5  232.78   24.00
  -2 -10   5  230.28   18.00
   2 -10  -5  189.58   20.30
   2 -10  -5  193.88   16.40
  -2  10   5  171.38   20.70
   2  10  -5  222.78   12.10
  -2  10   5  203.38   12.50
  -2  10   5  231.08   22.20
  -1 -10   5   14.60    7.20
  -1 -10   5   30.10   10.80
   1 -10  -5   10.50    9.60
  -1 -10   5   30.30   11.30
   1 -10  -5   37.90    7.90
  -1  10   5   38.30   12.90
  -1  10   5   26.40    7.30
   1  10  -5   34.10    8.90
   0 -10  -5   87.09   11.40
   0 -10  -5   79.79    8.50
   0 -10   5   84.69   12.20
   0 -10   5   97.79   10.50
   0 -10  -5   92.29    9.40
   0 -10   5   97.39   15.10
   0  10  -5   91.89   12.10
   0  10   5   89.79   10.80
   0  10  -5   96.19   12.10
   0  10   5   89.89   12.20
   0  10   5  105.59   16.10
  -1 -10  -5    5.20    4.30
   1 -10   5    0.30    6.80
  -1 -10  -5    3.50    5.50
   1 -10   5    0.90    5.10
   1 -10   5   -2.20   10.10
  -1  10  -5   -8.90    5.50
   1  10   5    1.20    9.20
  -1  10  -5    4.80    8.30
   1  10   5    5.60    4.30
  -2 -10  -5   65.49    8.10
   2 -10   5   50.29   15.30
   2 -10   5   76.89   18.20
   2 -10   5   90.79   10.20
  -2  10  -5   46.00   12.10
   2  10   5   64.49   14.00
   3  10   5   54.29   15.30
   4 -10   5   11.80   15.80
   4 -10   5    4.70   16.10
  -4  10  -5    1.60   13.30
   4  10   5   -4.90   13.20
   4 -11  -5   13.50   13.40
  -4 -11   5   23.80    9.40
   4 -11  -5   35.50   17.20
  -4 -11   5   49.20   18.80
  -4  11   5   61.99   17.50
   4  11  -5   21.70    8.20
  -3 -11   5  239.78   18.90
   3 -11  -5  259.57   27.40
   3 -11  -5  309.07   22.90
  -3 -11   5  266.17   29.60
   3  11  -5  260.07   14.80
  -2 -11   5   64.59   12.70
   2 -11  -5   50.59   11.60
  -2 -11   5   47.50   15.90
   2 -11  -5   77.99   16.30
  -2  11   5   66.09   15.90
  -2  11   5   66.39   16.10
  -2  11   5   71.49    8.80
   2  11  -5   55.99    7.60
   1 -11  -5  979.90   38.80
   1 -11  -5 1057.59   33.70
  -1 -11   5  913.41   31.00
  -1 -11   5 1068.89   43.30
  -1 -11   5 1044.40   39.70
  -1  11   5  978.60   35.20
  -1  11   5 1077.09   45.10
   1  11  -5 1056.99   36.60
   0 -11  -5    0.50    5.10
   0 -11  -5    0.20    8.00
   0 -11   5    4.80   10.90
   0 -11   5    4.20    5.70
   0 -11  -5    7.50    5.60
   0 -11   5    7.30    9.90
   0  11   5    3.40    6.20
   0  11  -5    3.30    7.40
   0  11   5   -5.40    9.90
   0  11  -5    1.40    8.00
  -1 -11  -5 1187.58   34.90
   1 -11   5 1014.10   37.80
   1 -11   5 1105.79   44.70
   1 -11   5 1157.48   42.90
  -1 -11  -5 1062.69   32.10
  -1  11  -5 1122.19   37.80
   1  11   5 1120.19   45.40
  -1  11  -5 1165.78   41.70
   2 -11   5   24.80   14.40
   2 -11   5   16.60   15.40
   2 -11   5   21.80    6.70
  -2 -11  -5    6.00    5.90
   2  11   5    7.90   10.80
  -2  11  -5   26.20   11.60
   3 -11   5  419.16   35.20
  -3 -11  -5  389.76   21.00
   3 -11   5  452.95   34.20
  -3  11  -5  390.66   29.00
   4 -11   5  -20.70   15.70
   4 -11   5  -14.80   15.80
  -4  11  -5   22.50   14.00
   4  11   5  -11.20   12.20
   4 -12  -5   61.59   20.10
   4 -12  -5   51.39   16.00
  -4 -12   5   33.10   21.00
  -4  12   5   81.49   18.60
  -3 -12   5   14.70    9.40
   3 -12  -5  -14.40    9.80
   3 -12  -5  -11.70   13.50
  -3 -12   5   -8.60   13.60
  -3  12   5   -5.60   13.60
   3  12  -5   -1.20    5.50
   2 -12  -5   53.29   15.70
   2 -12  -5   65.99   11.90
  -2 -12   5   95.79   15.10
  -2 -12   5   68.59   17.00
   2  12  -5   87.69   13.00
  -2  12   5   84.49    9.70
   2  12  -5   86.79    9.10
   1 -12  -5    5.30    7.70
  -1 -12   5   -7.60   10.30
   1 -12  -5   -9.50    9.90
  -1 -12   5  -12.60   10.70
  -1 -12   5   -8.00    5.50
   1  12  -5   10.60    8.50
  -1  12   5  -12.20   10.30
  -1  12   5    0.90    6.70
   0 -12   5  124.29   13.30
   0 -12  -5  177.88   13.30
   0 -12   5  192.58   19.90
   0 -12  -5  155.18   16.00
   0 -12  -5  181.18   14.00
   0 -12   5  203.18   21.50
   0  12   5  138.19   18.80
   0  12  -5  181.68   18.00
  -1 -12  -5   14.90   13.50
   1 -12   5   24.70   14.00
   1 -12   5   13.70    8.90
   1 -12   5   32.30    8.80
  -1 -12  -5   14.70    6.20
  -1  12  -5   20.20    9.50
   1  12   5   13.00   11.70
  -1  12  -5   17.10   10.40
   2 -12   5  -10.00   13.60
  -2 -12  -5   -8.70    6.30
   2 -12   5   -0.20   15.20
   2  12   5   -0.60   11.70
  -2  12  -5   -1.00   17.40
   3 -12   5   -9.50   15.00
   3 -12   5  -26.40   13.70
  -3  12  -5    1.50   12.50
   3  12   5    1.30   13.10
   3 -13  -5   66.39   14.80
   3 -13  -5   90.49   21.20
  -3 -13   5   67.99   13.50
  -3 -13   5   72.79   21.60
  -3  13   5   80.09   18.50
   2 -13  -5   28.00   11.00
  -2 -13   5   47.60   17.80
   2 -13  -5   28.00   15.90
  -2 -13   5   37.70   12.70
   2  13  -5   31.10    7.40
   2  13  -5   43.90   11.80
  -2  13   5   13.30    7.70
  -2  13   5   15.00   12.80
  -1 -13   5  429.26   30.60
  -1 -13   5  403.66   27.20
  -1 -13   5  355.66   18.80
   1 -13  -5  446.46   28.60
   1 -13  -5  417.76   22.10
   1  13  -5  419.16   24.80
  -1  13   5  422.46   30.40
   0 -13   5    2.80   10.50
   0 -13  -5    5.50    7.40
   0 -13   5    7.40    8.10
   0 -13   5   -1.30   12.30
   0 -13  -5    3.50   10.30
   0  13  -5   -1.30    9.50
   0  13   5   -9.40   10.60
   1 -13   5  470.15   31.10
   1 -13   5  473.75   26.00
  -1 -13  -5  460.95   21.80
  -1 -13  -5  444.46   19.90
  -1  13  -5  438.96   24.90
  -1  13  -5  460.95   29.30
   1  13   5  458.75   31.70
   2 -13   5   23.00   16.50
  -2 -13  -5  -12.50    8.50
   2 -13   5    2.40   16.40
  -2  13  -5   32.20   13.60
   2  13   5   12.30   13.10
   3 -13   5  275.97   31.70
   3 -13   5  245.98   29.10
  -3  13  -5  340.87   28.90
   3  13   5  319.17   29.70
  -3 -14   5   56.29   13.50
   3 -14  -5   24.30   13.20
   3 -14  -5   29.20   17.70
   3  14  -5   62.49   19.80
  -3  14   5   48.70   18.00
   2 -14  -5   74.99   14.20
   2 -14  -5   41.80   18.30
  -2 -14   5   60.59   17.30
  -2 -14   5   72.09   15.10
   2  14  -5   77.09   13.30
  -2  14   5   78.89   18.70
  -1 -14   5   17.70   13.40
   1 -14  -5   27.90   14.90
   1 -14  -5   28.40   11.00
  -1 -14   5   10.50    8.30
  -1  14   5   40.40   14.40
  -1  14   5   37.60   15.50
   1  14  -5   34.60   12.20
   0 -14   5   16.80    9.20
   0 -14   5   20.50   15.30
   0 -14  -5   16.10   10.00
   0 -14  -5   20.10    8.10
   0 -14  -5   11.50   10.50
   0 -14   5   40.40   13.70
   0  14   5    4.10   11.70
  -1 -14  -5  -12.50   10.70
  -1 -14  -5   14.20    8.60
   1 -14   5   38.10   17.40
  -1  14  -5    7.70   12.30
   1  14   5   29.20   14.90
   2 -14   5   -2.60   15.20
   2 -14   5   10.70   15.90
  -2  14  -5    9.20   11.10
   2  14   5    2.10   12.40
   2 -15  -5  -10.00   11.00
   2 -15  -5   15.20   17.00
  -2 -15   5    0.90   14.60
  -2  15   5    4.00   12.90
   2  15  -5    7.30    9.50
  -1 -15   5  117.69   18.60
   1 -15  -5  112.69   19.40
   1 -15  -5  124.49   15.00
  -1  15   5  146.49   22.60
   1  15  -5  114.49   17.50
  -1  15   5  135.19   22.30
   0 -15  -5   40.80   10.40
   0 -15   5   30.70   15.90
   0 -15  -5   28.70   13.00
   0  15   5   30.00   14.20
   0  15  -5   45.90   13.30
  -1 -15  -5  235.88   18.90
   1 -15   5  249.97   28.40
  -1  15  -5  264.27   26.30
   1  15   5  272.87   27.80
   6   0  -6    3.40   13.00
   5   0  -6   11.70   17.80
  -5   0   6   -7.00    7.70
   4   0  -6   98.29   14.40
  -4   0   6  131.39   15.30
   4   0  -6   80.39    8.20
   4   0  -6   92.19   11.80
   4   0  -6  106.49   14.10
  -3   0   6   -1.60    2.80
   3   0  -6   -2.80    4.80
  -3   0   6    6.40    5.40
  -3   0   6    1.80    6.00
   3   0  -6    0.90    4.70
   3   0  -6   -2.20    6.50
  -2   0   6  685.83   23.80
  -2   0   6  673.33   16.90
   2   0  -6  663.13   24.50
   2   0  -6  676.03   23.60
   2   0  -6  673.43   24.10
  -2   0   6  658.93   22.80
  -2   0   6  715.43   25.40
   1   0  -6    1.20    3.60
  -1   0   6    1.60    4.40
   1   0  -6   -1.10    3.50
  -1   0   6   -1.60    3.50
  -1   0   6    1.40    2.90
  -1   0   6    3.40    3.00
   1   0  -6   -2.90    2.60
   0   0   6  186.98   11.40
   0   0   6  237.48   11.10
   0   0  -6  212.08    9.40
   0   0   6  228.58    8.70
   1   0   6   -0.80    2.90
   1   0   6   -2.60    3.30
   1   0   6   -2.50    2.90
   2   0   6  740.93   24.00
   2   0   6  754.42   25.30
   2   0   6  739.93   26.60
   2   0   6  704.93   23.50
   3   0   6    3.00    7.50
   3   0   6   -0.80    4.60
   3   0   6   -0.30    5.90
   3   0   6    3.30    5.50
   4   0   6  767.82   32.40
   4   0   6  750.62   35.10
   4   0   6  848.42   33.10
   4   0   6  811.52   26.60
   5   0   6   -0.80   12.20
   5   0   6    5.00   10.50
   6  -1  -6   25.30   14.10
   6   1  -6   -5.70   11.60
   5  -1  -6  304.07   34.90
   5  -1  -6  208.58   16.70
  -5  -1   6  316.27   24.20
   5  -1  -6  222.58   15.50
   5   1  -6  222.98   14.70
  -5   1   6  313.57   21.20
   4  -1  -6  125.19   12.60
  -4  -1   6  151.68   17.80
   4  -1  -6  133.49   15.90
  -4  -1   6  127.39   16.10
  -4   1   6  143.99   10.60
   4   1  -6  151.58   13.90
   4   1  -6  131.39   14.20
   4   1  -6  139.49    9.50
   4   1  -6  115.19   14.90
  -3  -1   6 1319.27   40.30
   3  -1  -6 1295.07   40.40
  -3  -1   6 1276.57   40.70
   3  -1  -6 1341.67   41.30
   3  -1  -6 1346.47   41.30
   3  -1  -6 1352.76   39.70
  -3  -1   6 1340.17   43.30
  -3   1   6 1322.17   34.50
  -3   1   6 1382.36   41.60
   3   1  -6 1322.97   41.40
   3   1  -6 1358.56   42.00
   3   1  -6 1326.87   38.70
   3   1  -6 1320.77   33.00
  -2  -1   6  116.19    9.50
  -2  -1   6  104.99   11.30
   2  -1  -6  106.49    9.50
   2  -1  -6  117.19    9.90
   2  -1  -6  107.69    9.30
  -2  -1   6  117.59    9.40
  -2   1   6  105.59    5.80
   2   1  -6  104.39   10.30
  -2   1   6  116.89    9.60
   2   1  -6  118.19    7.90
   2   1  -6  105.09   10.50
  -2   1   6   91.99    9.90
  -2   1   6  107.69    8.60
  -1  -1   6 4616.04  110.59
  -1  -1   6 4725.13  104.39
   1  -1  -6 4692.43  106.29
   1  -1  -6 4701.03  108.79
   1   1  -6 4588.54  104.69
  -1   1   6 4749.12  108.69
  -1   1   6 4639.64  109.59
   1   1  -6 4763.32  110.49
  -1   1   6 4761.42  109.29
  -1   1   6 4881.41  105.89
   0  -1   6  621.54   17.10
   0  -1   6  605.44   18.40
   0  -1  -6  653.03   20.20
   0  -1   6  608.14   21.50
   0   1   6  629.94   21.60
   0   1  -6  588.54   17.20
   0   1   6  628.64   16.90
   1  -1   6 2845.22   67.19
   1  -1   6 2837.32   67.89
   1   1   6 2829.72   67.59
  -1   1  -6 2784.12   67.19
   1   1   6 2843.12   64.59
   1   1   6 2747.23   69.09
   2  -1   6  103.59    9.90
   2  -1   6   99.59    9.90
   2  -1   6  119.49   10.10
   2   1   6  103.79    9.80
   2   1   6  104.79   11.30
  -2   1  -6   96.89   10.20
   2   1   6  103.79    8.40
   2   1   6  100.29    8.00
   3  -1   6  873.81   33.30
  -3  -1  -6  888.41   30.50
   3  -1   6  885.11   31.00
   3  -1   6  892.61   29.20
   3   1   6  848.62   25.10
  -3   1  -6  857.21   31.40
   3   1   6  860.71   31.60
   3   1   6  899.91   34.20
   4  -1   6    5.00    6.50
   4  -1   6    1.20    8.70
   4  -1   6    3.20    7.00
   4   1   6   20.50    9.00
   4   1   6   26.30   11.30
   4   1   6   12.30    5.00
   4   1   6   12.40    7.70
   5  -1   6   50.59    9.80
   5   1   6   62.19   13.70
   5   1   6   76.89    8.20
   5   1   6   75.79   17.00
   6  -2  -6    6.20   13.20
   6   2  -6   17.30   14.40
   5  -2  -6   29.60    8.50
   5  -2  -6   45.80   13.00
  -5  -2   6   45.20   13.20
   5   2  -6   28.60   14.00
  -5   2   6   46.00   10.00
   5   2  -6   21.30    7.10
  -5   2   6   41.50    9.00
   4  -2  -6   86.89   13.90
   4  -2  -6   92.39   10.60
  -4  -2   6  121.09   13.70
  -4  -2   6   66.09   13.30
   4  -2  -6   84.29   13.60
   4   2  -6   82.59    7.80
  -4   2   6   98.29    9.80
   4   2  -6   97.09   17.70
   4   2  -6  100.19   15.20
  -4   2   6   81.69   11.10
   3  -2  -6   15.70    8.10
  -3  -2   6    6.50    5.80
  -3  -2   6    5.00    7.10
  -3  -2   6   10.10    6.60
   3  -2  -6   10.00    4.70
   3  -2  -6   11.10    6.90
   3  -2  -6    8.10    6.60
   3   2  -6   12.00    7.60
  -3   2   6    6.40    5.70
  -3   2   6   13.10    4.50
   3   2  -6    5.00    4.20
  -3   2   6    4.70    5.90
   3   2  -6    1.60    6.00
   3   2  -6    7.50    2.90
  -3   2   6   10.00    5.80
  -2  -2   6   11.40    5.20
   2  -2  -6   12.20    5.40
  -2  -2   6   19.70    7.20
  -2  -2   6   13.60    5.10
   2  -2  -6    2.10    5.80
   2  -2  -6   13.00    5.70
  -2   2   6   18.20    5.50
  -2   2   6   16.50    5.40
   2   2  -6   10.30    5.20
   2   2  -6   12.10    6.00
  -2   2   6    6.60    4.20
   2   2  -6   21.50    4.00
  -2   2   6   13.30    3.70
   1  -2  -6  444.16   14.50
   1  -2  -6  444.16   18.20
  -1  -2   6  436.96   17.20
  -1  -2   6  432.16   18.80
  -1   2   6  438.56   16.80
   1   2  -6  438.76   18.40
  -1   2   6  455.25   17.70
  -1   2   6  449.86   19.10
   1   2  -6  443.36   11.70
  -1   2   6  441.36   13.90
   0  -2   6  833.82   21.70
   0  -2   6  835.62   21.70
   0  -2  -6  790.72   28.40
   0  -2   6  801.62   26.10
   0   2  -6  797.02   26.00
   0   2   6  849.72   27.70
   0   2  -6  835.02   21.70
   0   2   6  790.92   23.40
   0   2   6  806.42   19.30
  -1  -2  -6  107.29    8.90
   1  -2   6  102.69    7.80
   1  -2   6   98.79    9.00
   1   2   6  103.49    5.40
   1   2   6  105.99   10.10
  -1   2  -6  103.49    8.30
   2  -2   6  774.12   27.20
   2  -2   6  788.22   26.10
  -2  -2  -6  726.73   23.70
   2  -2   6  738.33   26.30
   2   2   6  749.92   21.20
   2   2   6  777.32   23.20
   2   2   6  781.92   31.00
   2   2   6  740.03   25.70
  -2   2  -6  747.63   26.30
   3  -2   6  391.56   19.50
   3  -2   6  385.06   20.60
  -3  -2  -6  375.06   17.70
   3   2   6  370.86   12.30
   3   2   6  346.27   21.20
  -3   2  -6  366.26   19.90
   3   2   6  384.46   18.20
   4  -2   6  310.17   18.70
   4  -2   6  265.67   17.70
   4  -2   6  305.77   21.40
   4   2   6  305.07   10.90
  -4   2  -6  285.07   21.30
   4   2   6  296.17   23.40
   4   2   6  279.57   19.20
   5  -2   6   34.70   10.00
   5  -2   6   33.70   11.10
   5  -2   6   35.20   12.50
   5   2   6   45.10   15.50
   5   2   6   37.00   12.20
   6  -3  -6   37.70   16.90
  -6   3   6   45.90   10.70
   6   3  -6   41.10   15.60
  -5  -3   6  293.87   27.00
   5  -3  -6  339.17   25.60
  -5   3   6  342.47   18.20
   5   3  -6  339.77   27.40
   5   3  -6  289.57   16.10
  -5   3   6  323.97   18.70
   4  -3  -6  140.79   16.60
  -4  -3   6  111.59   16.10
  -4  -3   6  123.89   13.90
   4  -3  -6  143.09   16.80
   4   3  -6  110.59    8.30
  -4   3   6  107.79   11.40
   4   3  -6  124.79   16.40
  -4   3   6  134.39   12.80
  -3  -3   6 1415.46   46.70
  -3  -3   6 1354.06   40.60
   3  -3  -6 1336.37   41.50
  -3  -3   6 1301.07   42.30
   3  -3  -6 1381.76   43.70
  -3   3   6 1413.56   44.30
  -3   3   6 1362.06   42.90
  -3   3   6 1310.57   37.20
   3   3  -6 1331.07   32.60
   3   3  -6 1324.87   44.10
   3   3  -6 1343.97   43.40
  -3   3   6 1318.97   39.50
   2  -3  -6   22.40    7.30
  -2  -3   6   12.60    5.50
  -2  -3   6   18.20    7.70
   2  -3  -6   28.10    6.70
   2  -3  -6   21.30    5.90
  -2   3   6   24.00    6.10
  -2   3   6   17.50    4.70
   2   3  -6   14.50    6.50
   2   3  -6   24.60    3.70
  -2   3   6   19.60    5.70
  -2   3   6   20.70    4.80
   2   3  -6   17.30    6.30
   1  -3  -6  901.01   29.80
  -1  -3   6  898.51   30.40
   1  -3  -6  903.81   23.90
   1  -3  -6  876.41   27.80
  -1  -3   6  927.11   29.30
  -1   3   6  892.31   28.00
  -1   3   6  875.21   27.30
  -1   3   6  915.41   23.60
   1   3  -6  910.81   20.90
   1   3  -6  864.21   29.30
  -1   3   6  864.11   30.70
   0  -3  -6  128.89   10.60
   0  -3   6  145.39    7.30
   0  -3   6  129.09   10.40
   0  -3   6  139.79    6.10
   0   3  -6  133.99   10.10
   0   3   6  136.69    8.20
   0   3  -6  121.99    7.00
   0   3   6  119.89   11.50
   1  -3   6 3004.50   72.49
  -1  -3  -6 2954.10   74.09
   1  -3   6 2960.80   70.89
   1  -3   6 3027.50   74.79
  -1   3  -6 2967.20   71.19
   1   3   6 2935.51   74.69
   1   3   6 2909.61   67.39
   1   3   6 2940.51   65.49
   2  -3   6  415.56   17.00
   2  -3   6  401.96   17.90
  -2  -3  -6  376.36   14.80
   2  -3   6  403.86   20.20
   2  -3   6  402.86   19.50
   2   3   6  376.96   10.80
   2   3   6  383.66   11.40
   2   3   6  389.96   14.40
   2   3   6  409.56   18.10
   2   3   6  388.36   20.10
   3  -3   6 1063.59   37.20
  -3  -3  -6 1066.39   33.50
   3  -3   6 1059.19   37.60
   3   3   6 1051.79   39.30
   3   3   6 1083.69   39.40
   3   3   6 1096.49   33.70
  -3   3  -6 1118.89   37.80
   4  -3   6   90.39   14.60
   4  -3   6   72.59    9.80
   4  -3   6   86.49   13.40
   4   3   6  115.99   17.40
   4   3   6  109.59   13.60
  -4   3  -6   83.29   14.20
   5  -3   6   48.70   11.80
   5  -3   6   35.60   14.70
   5  -3   6   36.20    8.80
   5   3   6   37.10   15.10
  -5   3  -6   14.50   11.70
   5   3   6   40.30   12.30
   6  -4  -6   50.19   16.40
   6   4  -6   62.29   18.80
  -5  -4   6    6.00   12.90
   5  -4  -6   10.80   12.40
   5   4  -6   11.30    8.30
   5   4  -6   -2.50   11.70
   5   4  -6   11.00    6.80
  -5   4   6   14.20    8.30
   4  -4  -6   70.79   13.40
   4  -4  -6   47.10   12.70
  -4  -4   6   62.59   14.90
  -4  -4   6   54.89    9.60
  -4   4   6   70.09    8.60
   4   4  -6   54.09    6.30
   4   4  -6   51.79   12.80
  -4   4   6   60.69    9.50
  -3  -4   6    7.30    8.60
  -3  -4   6    5.20    5.40
   3  -4  -6   10.00    7.70
   3  -4  -6   14.00    9.00
   3  -4  -6   11.50    6.70
   3   4  -6    8.40    8.10
  -3   4   6   11.20    7.80
  -3   4   6   10.80    5.60
  -3   4   6   13.20    5.40
   3   4  -6   11.70    7.40
   3   4  -6   15.90    3.30
   2  -4  -6  321.47   18.10
  -2  -4   6  355.86   21.90
  -2  -4   6  326.97   17.50
   2  -4  -6  340.07   15.50
   2  -4  -6  344.77   18.50
  -2   4   6  348.17   16.20
   2   4  -6  323.57   18.60
  -2   4   6  329.57   14.40
   2   4  -6  351.46   10.80
  -2   4   6  327.77   16.90
  -2   4   6  364.56   19.80
   2   4  -6  346.17   10.90
  -2   4   6  337.27   15.80
   2   4  -6  348.57    9.70
  -1  -4   6  467.25   20.80
   1  -4  -6  426.66   14.00
   1  -4  -6  445.96   20.50
   1  -4  -6  472.05   18.90
  -1  -4   6  434.36   20.50
  -1   4   6  468.75   14.20
   1   4  -6  443.36   20.00
  -1   4   6  440.66   21.80
   1   4  -6  454.35   13.00
  -1   4   6  448.46   17.90
   0  -4   6  811.62   27.40
   0  -4  -6  793.02   28.40
   0  -4   6  823.12   23.20
   0  -4  -6  836.62   24.60
   0   4  -6  791.72   27.00
   0   4   6  851.61   30.70
   0   4  -6  793.72   22.90
   1  -4   6 1042.60   31.00
  -1  -4  -6 1105.69   35.10
   1  -4   6 1103.49   32.30
   1  -4   6 1055.79   34.70
  -1   4  -6 1082.39   31.60
   1   4   6 1097.49   35.50
   1   4   6 1064.39   27.30
  -2  -4  -6 1017.80   28.10
   2  -4   6 1003.20   35.30
   2  -4   6 1018.10   30.50
   2  -4   6 1003.10   32.60
   2  -4   6 1051.69   40.30
  -2   4  -6 1024.30   33.40
   2   4   6 1012.70   27.90
   2   4   6 1021.00   35.90
   3  -4   6  295.07   14.80
  -3  -4  -6  307.67   15.80
   3  -4   6  328.37   21.40
   3  -4   6  315.97   20.80
   3   4   6  333.07   21.60
  -3   4  -6  312.27   19.90
   3   4   6  327.77   16.40
   4  -4   6  575.84   29.20
   4  -4   6  612.24   31.20
   4  -4   6  555.34   21.10
   4  -4   6  529.75   21.60
  -4   4  -6  549.05   29.50
   4   4   6  585.04   31.60
   4   4   6  613.54   26.50
   5  -4   6  142.89   17.70
   5  -4   6  168.78   22.00
   5  -4   6  133.89   11.10
   5  -4   6  116.49   11.10
   5   4   6  128.39   19.60
  -5   4  -6  186.98   21.70
   5   4   6  163.28   18.70
   5  -5  -6  368.26   28.00
   5  -5  -6  345.47   28.40
  -5  -5   6  452.95   50.19
   5   5  -6  436.76   30.40
  -5   5   6  380.56   22.20
   5   5  -6  381.56   21.80
   5   5  -6  323.87   17.20
   4  -5  -6  275.57   21.80
  -4  -5   6  193.78   16.10
   4  -5  -6  257.97   22.70
  -4  -5   6  252.87   24.90
  -4   5   6  237.38   16.80
   4   5  -6  234.78   11.80
  -4   5   6  251.07   12.60
   4   5  -6  251.27   17.70
   4   5  -6  276.57   22.70
   3  -5  -6  474.45   24.80
  -3  -5   6  446.46   27.20
  -3  -5   6  428.96   20.20
   3  -5  -6  443.26   21.90
  -3   5   6  428.16   20.10
   3   5  -6  440.86   16.30
  -3   5   6  419.86   17.70
   3   5  -6  410.56   14.00
  -3   5   6  418.26   20.10
   3   5  -6  426.36   24.10
   2  -5  -6  591.34   25.00
   2  -5  -6  602.54   21.40
  -2  -5   6  568.24   27.10
   2  -5  -6  546.05   25.20
  -2   5   6  591.04   20.80
  -2   5   6  602.84   33.80
  -2   5   6  615.24   21.90
  -2   5   6  599.14   23.80
  -2   5   6  584.84   26.90
   2   5  -6  570.94   15.60
   1  -5  -6 1551.44   38.70
   1  -5  -6 1526.65   47.80
  -1  -5   6 1524.45   48.20
  -1  -5   6 1645.54   48.30
   1  -5  -6 1589.94   44.50
  -1   5   6 1578.04   50.09
   1   5  -6 1595.14   47.20
  -1   5   6 1619.64   44.10
   1   5  -6 1657.93   39.00
   0  -5  -6 1272.27   34.80
   0  -5   6 1235.78   38.20
   0  -5   6 1211.68   30.50
   0  -5  -6 1235.58   40.10
   0   5   6 1293.97   34.50
   0   5  -6 1224.28   37.60
   0   5   6 1295.87   42.20
   0   5  -6 1303.27   34.10
   1  -5   6 1040.40   31.90
   1  -5   6 1051.99   32.30
  -1  -5  -6 1116.69   36.90
   1  -5   6 1099.69   36.40
  -1   5  -6 1101.19   32.60
   1   5   6 1074.49   27.70
   1   5   6 1049.30   37.00
   2  -5   6  374.56   22.20
   2  -5   6  371.16   21.20
  -2  -5  -6  353.36   13.50
   2  -5   6  322.67   17.50
   2  -5   6  388.16   16.20
  -2   5  -6  375.66   19.10
   2   5   6  365.46   21.10
   2   5   6  362.56   13.70
  -3  -5  -6  192.48   12.90
   3  -5   6  204.28   18.80
   3  -5   6  218.58   19.60
   3  -5   6  193.78   11.60
   3   5   6  179.98   12.90
  -3   5  -6  248.58   18.60
   3   5   6  203.88   19.70
   4  -5   6   58.69    7.40
   4  -5   6   93.19   16.00
   4  -5   6   78.89    8.40
   4  -5   6   81.79   15.80
   4   5   6   65.29   15.10
  -4   5  -6   59.99   13.70
   4   5   6   92.69   12.80
   5  -5   6   61.19   14.70
   5  -5   6  103.09   18.10
  -5   5  -6   82.39   17.20
   5   5   6   44.80   11.70
   5   5   6   69.59   16.60
   5  -6  -6    6.70   12.90
   5  -6  -6   13.10   14.60
  -5  -6   6   20.60   14.40
   5   6  -6    7.40   11.90
   5   6  -6   -9.20    6.50
  -5   6   6  -10.90    8.00
   5   6  -6   -0.50    7.30
  -4  -6   6   -2.30    7.10
   4  -6  -6   -3.70   11.00
  -4  -6   6   -2.10   11.40
   4  -6  -6   -4.30   10.00
   4   6  -6    2.40   10.00
   4   6  -6   14.70    6.50
   4   6  -6    8.70    4.80
  -4   6   6    3.30    8.10
  -3  -6   6   74.69   15.00
   3  -6  -6   48.10   10.60
  -3  -6   6   51.19   10.60
   3  -6  -6   45.70   12.50
  -3   6   6   53.89    7.30
   3   6  -6   70.19    7.50
  -3   6   6   58.79    9.10
  -3   6   6   40.90    8.80
   3   6  -6   51.59    6.40
   2  -6  -6  331.57   19.90
   2  -6  -6  309.27   15.50
  -2  -6   6  301.47   19.40
   2  -6  -6  325.47   19.70
  -2  -6   6  273.67   21.00
   2   6  -6  294.37   19.20
  -2   6   6  301.67   17.40
  -2   6   6  347.17   16.10
   2   6  -6  303.07    9.70
  -2   6   6  318.07   21.30
   1  -6  -6  144.09    8.30
   1  -6  -6  141.89   13.20
  -1  -6   6  114.39   13.80
   1  -6  -6  146.19   13.00
  -1   6   6  138.69   11.30
  -1   6   6  151.58   16.40
   1   6  -6  149.49    9.00
   1   6  -6  175.28   14.20
   0  -6  -6  359.16   16.00
   0  -6   6  363.96   12.90
   0  -6   6  413.86   19.60
   0  -6   6  464.55   24.10
   0  -6  -6  396.66   20.90
   0   6  -6  375.56   18.40
   0   6  -6  389.86   15.80
   0   6   6  371.76   15.50
  -1  -6  -6  188.88   15.70
   1  -6   6  201.08   16.00
   1  -6   6  187.28   12.60
   1  -6   6  170.08   11.60
   1  -6   6  172.98   10.70
  -1  -6  -6  175.18    5.90
   1   6   6  180.98    8.70
  -1   6  -6  187.48   12.30
  -1   6  -6  189.38   13.00
   1   6   6  180.78   15.70
   2  -6   6  394.96   24.50
  -2  -6  -6  401.26   14.60
   2  -6   6  429.06   20.20
   2  -6   6  413.56   17.10
  -2  -6  -6  401.46   22.40
   2  -6   6  399.26   23.30
   2   6   6  400.16   22.90
   2   6   6  402.36   22.90
  -2   6  -6  388.96   20.50
   2   6   6  430.66   15.20
  -3  -6  -6  359.56   17.30
   3  -6   6  377.36   15.20
   3  -6   6  376.86   25.30
   3  -6   6  460.35   27.60
  -3   6  -6  423.26   24.40
   3   6   6  410.56   18.20
   3   6   6  436.56   25.70
   4  -6   6  526.65   31.60
   4  -6   6  533.55   32.50
   4   6   6  515.35   24.30
  -4   6  -6  525.85   30.60
   4   6   6  550.44   32.60
   5  -6   6  159.78   22.40
   5  -6   6  154.28   21.40
   5   6   6  182.28   19.20
  -5   6  -6  179.38   22.00
   5   6   6  218.78   26.80
  -5  -7   6  100.99   22.10
   5  -7  -6  101.09   20.00
   5  -7  -6  100.99   18.40
   5   7  -6   86.39   18.20
  -5   7   6   66.59   14.00
   5   7  -6   89.69   12.00
   4  -7  -6  255.77   22.10
  -4  -7   6  281.97   28.20
  -4  -7   6  199.98   17.60
   4  -7  -6  250.97   24.40
  -4   7   6  261.37   20.50
   4   7  -6  230.08   14.60
   4   7  -6  217.48   12.80
   3  -7  -6   76.19   12.50
  -3  -7   6   69.19   15.70
   3  -7  -6   78.39   14.90
  -3   7   6   88.99    8.50
   3   7  -6   75.99    7.70
  -3   7   6   77.29   12.60
   3   7  -6   61.89    6.80
   2  -7  -6  740.63   30.70
   2  -7  -6  750.42   25.80
  -2  -7   6  763.92   34.30
  -2   7   6  699.03   30.30
  -2   7   6  755.52   34.40
  -2   7   6  738.43   26.00
   2   7  -6  725.73   18.90
  -2   7   6  661.53   29.50
   1  -7  -6  301.97   18.10
   1  -7  -6  301.67   19.60
   1  -7  -6  324.47   12.80
  -1  -7   6  322.87   20.20
  -1  -7   6  271.57   19.60
   1   7  -6  319.77   14.20
  -1   7   6  293.57   16.10
  -1   7   6  311.77   22.00
   0  -7   6  728.93   28.30
   0  -7  -6  717.63   18.30
   0  -7   6  723.13   21.90
   0  -7  -6  694.13   34.30
   0  -7   6  738.83   29.50
   0  -7  -6  714.03   18.10
   0  -7  -6  699.53   24.50
   0   7   6  707.73   24.00
   0   7   6  709.83   31.50
   0   7  -6  733.63   27.70
   0   7  -6  740.53   24.80
   1  -7   6  396.76   22.80
  -1  -7  -6  414.86   11.60
  -1  -7  -6  382.16   22.10
   1  -7   6  397.56   18.80
   1  -7   6  409.46   17.00
  -1  -7  -6  404.16   14.80
  -1   7  -6  455.45   20.10
  -1   7  -6  416.66   18.70
   1   7   6  426.26   24.10
   1   7   6  417.36   14.70
   2  -7   6  681.93   34.80
   2  -7   6  793.02   33.80
   2  -7   6  744.03   28.20
   2  -7   6  742.93   24.90
  -2  -7  -6  742.43   22.20
  -2   7  -6  757.52   30.10
   2   7   6  787.32   33.70
   3  -7   6  135.59   19.10
   3  -7   6  129.39    8.70
   3  -7   6  118.09   18.10
  -3  -7  -6  140.09   11.70
   3   7   6  134.69   17.50
   3   7   6  116.29   11.90
  -3   7  -6  152.88   17.10
   4  -7   6  166.78   22.90
   4  -7   6  218.08   24.10
  -4   7  -6  198.68   22.10
   4   7   6  213.08   17.00
   5  -7   6   49.00   16.90
   5  -7   6   91.79   19.00
   5   7   6   74.89   13.80
   5   7   6   61.99   17.10
  -5   7  -6   55.89   17.30
   5  -8  -6   33.40   15.70
  -5  -8   6   43.20   16.50
   5  -8  -6   35.00   17.30
  -5   8   6   31.50   11.80
   5   8  -6   28.10    9.00
   4  -8  -6    0.20   10.90
   4  -8  -6   17.30   14.10
  -4  -8   6   -4.30   14.20
  -4   8   6   -3.90    9.10
   4   8  -6    2.50    5.60
   4   8  -6   -2.40    5.60
   3  -8  -6    3.20    7.90
   3  -8  -6    6.60   11.30
  -3  -8   6    7.50   12.20
   3   8  -6    6.20    4.50
  -3   8   6   12.90    4.40
  -3   8   6    7.90    9.50
   2  -8  -6  112.79   12.10
  -2  -8   6  139.19   18.30
   2  -8  -6  127.99   16.00
  -2   8   6  134.89   12.30
   2   8  -6  129.69    6.40
  -2   8   6  119.19   17.00
  -2   8   6  104.99   14.70
   1  -8  -6    4.50    4.30
  -1  -8   6   11.60    8.90
   1  -8  -6   11.70    8.50
  -1  -8   6   17.20    9.10
  -1  -8   6   14.50    8.90
   1  -8  -6   10.90    9.20
   1   8  -6    4.10    6.90
  -1   8   6   16.20   10.10
  -1   8   6    7.10    9.30
   1   8  -6    6.20    5.30
   0  -8   6   85.59   12.90
   0  -8  -6  115.79    6.80
   0  -8   6  128.69    9.30
   0  -8  -6  123.99   12.00
   0  -8  -6  121.09   14.80
   0  -8   6  131.79   15.00
   0  -8  -6  117.49    6.70
   0   8   6  156.98   18.60
   0   8   6  129.99   10.10
   0   8  -6   93.69   10.10
   0   8  -6  137.59   13.00
   1  -8   6  373.86   17.40
  -1  -8  -6  425.06   15.90
   1  -8   6  426.66   24.20
  -1  -8  -6  397.36   12.30
   1  -8   6  424.26   20.00
  -1   8  -6  415.26   19.50
   1   8   6  420.86   25.30
  -1   8  -6  410.46   20.90
   1   8   6  386.36   22.00
   2  -8   6  269.27   23.10
   2  -8   6  234.88   24.30
   2  -8   6  219.18   15.90
   2  -8   6  261.17   14.00
  -2   8  -6  269.97   19.40
   2   8   6  226.58   21.10
   3  -8   6  308.97   26.10
   3  -8   6  327.97   27.90
   3  -8   6  272.17   10.50
  -3  -8  -6  262.47   15.10
  -3   8  -6  259.97   22.60
   3   8   6  306.97   25.20
   4  -8   6  155.08   23.40
   4  -8   6  164.28   23.10
  -4   8  -6  145.69   19.40
   4   8   6  165.08   16.00
   4   8   6  190.38   23.20
   5  -8   6   74.39   20.50
   5  -8   6   93.59   21.60
   5   8   6  115.09   16.30
   5   8   6   71.99   18.90
  -5   8  -6  164.38   22.70
  -5  -9   6  100.09   21.40
   5  -9  -6   65.69   19.90
   5  -9  -6   89.49   19.00
  -5   9   6   56.79   15.00
   5   9  -6   38.70    8.50
  -4  -9   6  445.46   35.90
   4  -9  -6  473.85   32.70
   4  -9  -6  485.05   28.80
   4   9  -6  395.76   20.20
   4   9  -6  440.26   19.70
  -4   9   6  454.35   29.40
   3  -9  -6   49.20   11.20
  -3  -9   6   65.29   16.70
   3  -9  -6   29.50   13.60
  -3   9   6   53.49   13.40
  -3   9   6   45.10    5.20
  -3   9   6   46.80    5.10
   3   9  -6   42.50    6.40
   2  -9  -6  877.01   36.60
   2  -9  -6  906.51   42.40
  -2  -9   6  862.71   39.70
  -2   9   6  943.71   41.80
  -2   9   6  837.22   28.20
  -2   9   6  877.01   30.90
   2   9  -6  872.81   23.20
  -2   9   6  901.81   38.10
  -1  -9   6   31.90    4.50
   1  -9  -6   36.30    6.80
  -1  -9   6   42.30   11.60
  -1  -9   6   34.90   10.30
   1  -9  -6   17.70    8.90
  -1   9   6   38.00    8.10
  -1   9   6   32.50    8.00
   1   9  -6   29.90    7.70
  -1   9   6   27.10   10.60
   0  -9   6  929.01   35.40
   0  -9   6  947.11   36.80
   0  -9  -6  935.31   25.30
   0  -9  -6  980.80   31.90
   0  -9  -6  907.91   25.50
   0   9   6  896.41   30.50
   0   9   6  905.71   34.50
   0   9   6  930.41   39.20
   0   9  -6  944.71   32.30
  -1  -9  -6   92.29    9.30
   1  -9   6  103.59   16.40
   1  -9   6   97.09   10.60
   1  -9   6   86.99   11.00
  -1  -9  -6   77.39    6.30
   1   9   6   94.79   16.00
   1   9   6   97.99    8.50
  -1   9  -6  102.99   12.70
  -1   9  -6   76.69   10.10
   2  -9   6  527.45   20.70
   2  -9   6  526.95   24.20
   2  -9   6  515.25   30.80
   2  -9   6  488.55   32.70
  -2  -9  -6  520.95   18.00
   2   9   6  515.95   29.60
  -2   9  -6  529.15   27.30
  -3  -9  -6   57.39    9.10
   3  -9   6   77.09   17.20
   3  -9   6   52.09   16.30
   3   9   6   54.79   14.90
  -3   9  -6  112.49   17.20
   4  -9   6  172.18   25.40
   4  -9   6  152.68   24.70
   4   9   6  158.78   22.40
  -4   9  -6  148.99   20.70
   4 -10  -6  -17.50   10.40
  -4 -10   6  -16.80   14.10
   4 -10  -6   11.00   14.90
  -4  10   6   -4.40   11.20
   4  10  -6    1.20    5.40
  -3 -10   6   28.70   10.70
   3 -10  -6   35.90   11.60
  -3 -10   6   24.70   23.40
   3 -10  -6   48.70   15.30
   3  10  -6   33.70    5.90
  -3  10   6   40.20   14.00
  -2 -10   6   37.20   11.40
  -2 -10   6   28.50   13.10
   2 -10  -6   56.69   14.30
   2 -10  -6   44.10    9.40
  -2  10   6   35.60    7.10
   2  10  -6   40.50    4.90
   2  10  -6   49.10    9.00
  -2  10   6   40.00   12.90
  -2  10   6   11.70   12.00
  -1 -10   6   66.59    7.00
  -1 -10   6   73.59   13.80
   1 -10  -6   83.19   13.40
  -1 -10   6   52.99   12.70
   1 -10  -6   77.89    9.00
  -1  10   6   79.19   15.40
  -1  10   6   63.69   10.10
   1  10  -6   56.19    9.70
   0 -10   6   32.10   10.10
   0 -10  -6   34.40    5.60
   0 -10   6   32.80    7.20
   0 -10  -6   28.20    5.50
   0 -10   6   28.30   11.00
   0 -10  -6   26.20    9.00
   0  10  -6   27.60    8.50
   0  10   6   25.20    6.70
   0  10   6   41.20   13.10
   0  10   6   13.10    8.10
   0  10  -6   21.60    7.80
   1 -10   6  105.49   11.30
   1 -10   6   90.79   16.20
  -1 -10  -6  115.69   10.60
  -1 -10  -6   97.69    7.10
   1  10   6  111.79    9.50
   1  10   6  129.69   18.50
  -1  10  -6   73.59   12.00
  -1  10  -6  101.69   12.00
   2 -10   6   17.70    6.50
  -2 -10  -6   14.80    5.40
   2 -10   6   21.60   16.10
   2 -10   6   11.80   13.20
  -2  10  -6   15.50   10.50
   2  10   6   24.60   11.80
   3 -10   6  236.38   28.30
  -3 -10  -6  203.28   14.80
   3 -10   6  238.08   26.00
  -3  10  -6  224.48   23.10
   3  10   6  194.18   26.20
   4 -10   6    9.70   16.90
   4 -10   6  -13.70   15.40
   4  10   6   -0.30   13.00
  -4  10  -6   -2.90   12.90
   4 -11  -6   98.69   21.20
  -4 -11   6  114.39   23.80
   4 -11  -6  105.69   18.50
  -4 -11   6   98.59   13.80
  -4  11   6   75.39   18.30
   3 -11  -6   17.50   15.20
  -3 -11   6    1.40   14.40
   3 -11  -6    0.20    9.70
  -3 -11   6    1.20    9.10
  -3  11   6   -2.00   15.10
   3  11  -6    4.80    4.50
   2 -11  -6  457.55   29.70
  -2 -11   6  562.04   27.80
   2 -11  -6  494.85   23.30
  -2 -11   6  466.75   32.60
  -2  11   6  460.15   30.40
   2  11  -6  507.85   23.30
  -2  11   6  436.66   20.30
  -2  11   6  511.65   33.70
  -1 -11   6   48.80   14.40
   1 -11  -6   45.70    8.20
  -1 -11   6   32.90   12.90
   1 -11  -6   41.20   11.90
  -1  11   6   43.80   14.20
   1  11  -6   48.70    9.60
  -1  11   6   34.70    8.80
   0 -11  -6  632.04   21.20
   0 -11   6  665.53   24.80
   0 -11   6  643.54   33.30
   0 -11  -6  644.64   21.50
   0 -11  -6  651.13   27.60
   0 -11   6  679.53   32.00
   0  11   6  566.34   25.30
   0  11   6  700.63   36.30
   0  11  -6  659.53   28.70
   1 -11   6   11.50   12.70
   1 -11   6   18.60   10.30
   1 -11   6   11.40    8.50
  -1 -11  -6    2.00    6.30
   1  11   6    1.10   11.20
  -1  11  -6   12.90    9.30
   1  11   6    8.90    5.40
  -1  11  -6   11.10   11.20
   2 -11   6  534.15   22.00
   2 -11   6  495.35   34.80
  -2 -11  -6  495.55   18.70
   2 -11   6  482.85   35.40
  -2  11  -6  518.15   29.60
   2  11   6  517.65   33.20
   3 -11   6   29.90   18.30
  -3 -11  -6   14.10    9.10
   3 -11   6   30.70   17.30
   3  11   6   21.30   13.00
  -3  11  -6   31.60   14.40
   4 -11   6   65.09   21.80
   4 -11   6  108.29   24.50
  -4  11  -6   47.30   16.30
   4  11   6   66.19   17.50
  -4 -12   6   41.00   18.60
   4 -12  -6    5.40   13.40
   4 -12  -6   23.30   16.40
  -4 -12   6   15.70   10.50
  -4  12   6   48.20   17.90
  -3 -12   6   54.99   18.90
   3 -12  -6   75.09   14.20
  -3 -12   6   50.59   12.20
   3 -12  -6   61.69   18.20
  -3  12   6   73.89   18.40
  -2 -12   6   -0.40    9.80
   2 -12  -6    2.10    7.90
   2 -12  -6    3.10   12.50
   2  12  -6    3.00    7.40
  -2  12   6   -7.20    6.30
  -2  12   6    9.00   12.40
  -2  12   6    5.90   14.00
   1 -12  -6   46.20    8.90
  -1 -12   6   49.00   14.50
  -1 -12   6   42.80   13.70
   1 -12  -6   43.00   13.00
  -1 -12   6   40.00    6.70
   1  12  -6   56.89   11.00
  -1  12   6   59.29   15.90
  -1  12   6   49.80   10.20
   0 -12  -6   29.10   10.50
   0 -12  -6   22.50    6.50
   0 -12  -6   26.60    6.70
   0 -12   6   36.40   12.50
   0 -12   6   34.30   13.60
   0 -12   6   26.30    7.50
   0  12   6   63.19   16.20
   0  12  -6   41.80   10.50
  -1 -12  -6  200.48   11.40
   1 -12   6  205.68   15.90
  -1 -12  -6  203.08   17.10
   1 -12   6  237.38   24.50
   1 -12   6  219.48   19.20
  -1  12  -6  258.27   21.60
  -1  12  -6  206.28   17.90
   1  12   6  228.28   24.60
   2 -12   6  -11.70   14.20
   2 -12   6   -1.50    6.30
   2 -12   6   -1.90   13.50
  -2 -12  -6  -11.00    5.40
   2  12   6   -2.20   12.70
  -2  12  -6   13.30   10.70
   3 -12   6   57.89   19.80
   3 -12   6   84.09   20.60
   3  12   6   89.99   20.00
  -3  12  -6  120.49   20.70
   3 -13  -6    9.60   11.10
  -3 -13   6   23.90   11.30
   3 -13  -6   11.70   16.50
  -3 -13   6   24.30   16.70
  -3  13   6   -0.60   15.40
   3  13  -6   10.70    8.80
   2 -13  -6  357.36   21.70
  -2 -13   6  333.57   32.50
  -2 -13   6  383.86   26.40
   2 -13  -6  395.26   30.20
  -2  13   6  338.37   30.50
  -2  13   6  303.07   19.40
   2  13  -6  389.36   22.60
   1 -13  -6   10.60    7.90
  -1 -13   6   10.70   12.60
  -1 -13   6    5.60   12.40
  -1 -13   6   12.30    6.40
   1 -13  -6    3.70   12.00
   1  13  -6   23.70   10.20
  -1  13   6   17.50   13.40
   0 -13  -6  349.87   17.30
   0 -13  -6  390.26   23.90
   0 -13  -6  366.06   17.10
   0 -13   6  404.86   19.90
   0 -13   6  387.76   29.00
   0 -13   6  349.27   26.40
   0  13   6  350.66   38.40
   0  13  -6  413.56   25.50
  -1 -13  -6   47.00    8.90
   1 -13   6   28.60   10.70
   1 -13   6   37.20   16.40
  -1 -13  -6   15.30    6.90
  -1  13  -6   45.60   19.10
   1  13   6   34.90   13.90
   2 -13   6  220.78   28.10
   2 -13   6  156.18   24.30
  -2  13  -6  197.98   22.70
   2  13   6  166.68   22.50
   3 -13   6    1.80   17.00
   3 -13   6   55.29   20.40
  -3  13  -6   21.10   13.90
   3  13   6   20.10   15.00
  -2 -14   6  -11.60   11.00
   2 -14  -6    6.40   16.00
  -2 -14   6    0.20   13.50
   2 -14  -6    9.20    9.80
   2  14  -6    5.50    8.80
  -2  14   6   18.60   15.20
   1 -14  -6   44.40   27.20
  -1 -14   6   74.09   18.40
   1 -14  -6   71.59   11.50
  -1 -14   6   76.69   19.50
  -1  14   6   56.49   16.10
  -1  14   6   63.99   18.00
   1  14  -6   58.19   12.70
   0 -14  -6   11.10   11.30
   0 -14  -6   40.40    9.30
   0 -14   6   52.39   14.70
   0 -14   6   39.90   16.20
   0  14   6   66.69   17.80
  -1 -14  -6   28.70    9.00
   1 -14   6   36.40   17.60
   1  14   6   29.60   15.40
  -1  14  -6   46.40   13.80
   2 -14   6    2.20   16.10
   2 -14   6    7.70   16.60
  -2  14  -6   13.30   14.30
   2  14   6   23.30   14.40
   1 -15  -6   64.09   11.60
  -1 -15   6   93.69   18.40
   1 -15  -6   61.99   16.60
  -1 -15   6   62.89   17.10
  -1  15   6   79.09   18.10
   1  15  -6   83.79   15.00
  -1  15   6  100.89   19.40
   0 -15  -6  162.48   18.90
   0 -15   6  168.78   23.80
   0 -15   6  289.27   28.80
   0  15   6  207.28   26.20
   0  15  -6  243.68   23.20
  -1 -15  -6    9.50    9.30
   1 -15   6    2.10   15.10
  -1  15  -6    6.60   11.90
   1  15   6   13.00   15.00
   6   0  -7   -9.80   13.00
   5   0  -7  188.88   22.00
  -5   0   7  213.98   21.30
   4   0  -7   -4.80    9.00
  -4   0   7    4.00    8.60
   4   0  -7  -11.60    6.20
  -3   0   7 2942.21   76.89
  -3   0   7 2845.32   72.79
   3   0  -7 2741.23   73.39
   3   0  -7 2688.23   72.59
  -3   0   7 2756.22   73.29
  -3   0   7 2732.33   63.29
   3   0  -7 2752.82   70.99
  -2   0   7    1.80    4.40
   2   0  -7   -2.00    4.80
  -2   0   7   -3.30    3.70
   2   0  -7    4.30    4.40
   2   0  -7   -2.10    4.80
  -2   0   7    0.20    1.40
  -2   0   7    1.20    5.50
  -1   0   7  577.04   20.80
  -1   0   7  615.54   19.50
  -1   0   7  608.14   19.90
   1   0  -7  593.14   22.20
   1   0  -7  584.04   19.10
  -1   0   7  576.54   22.30
   0   0   7   -3.20    3.40
   0   0  -7    0.50    2.90
   0   0   7    1.50    2.60
   0   0   7    0.40    4.40
   1   0   7 3214.68   74.19
   1   0   7 3180.18   75.19
   1   0   7 3059.59   76.39
   2   0   7   -4.70    5.20
   2   0   7    1.50    4.60
   2   0   7    0.00    4.50
   2   0   7    4.80    5.10
   3   0   7 1228.58   38.30
   3   0   7 1163.58   35.20
   3   0   7 1246.38   42.40
   4   0   7   -8.80    8.70
   4   0   7   -4.20    7.00
   4   0   7   -1.00    5.30
   4   0   7    1.60    7.40
   5   0   7  313.87   28.80
   6  -1  -7   68.79   19.00
  -6  -1   7   56.39   13.90
   6   1  -7   58.99   18.30
  -5  -1   7   53.99   13.60
   5  -1  -7   46.70   18.50
   5   1  -7   30.40    7.40
   5   1  -7   21.90   12.80
  -5   1   7   30.00   10.50
   4  -1  -7   28.40    7.90
   4  -1  -7   15.80    9.70
  -4  -1   7   30.60   10.80
  -4   1   7   22.40    9.30
   4   1  -7   27.60    8.70
   4   1  -7   27.00   11.20
  -4   1   7   27.10    5.70
   4   1  -7   13.20    7.70
  -3  -1   7   61.29    9.30
   3  -1  -7   76.49    9.90
   3  -1  -7   50.09    9.60
  -3  -1   7   67.39   11.40
   3  -1  -7   51.29    8.50
  -3  -1   7   54.99    9.10
  -3   1   7   58.29    5.80
  -3   1   7   49.30    9.00
  -3   1   7   47.50    9.10
   3   1  -7   59.79   10.60
  -3   1   7   66.39   10.70
   3   1  -7   52.29    9.30
   3   1  -7   64.09    8.10
  -2  -1   7  208.98   12.40
  -2  -1   7  207.58   15.00
   2  -1  -7  209.58   12.60
   2  -1  -7  205.78   12.70
   2  -1  -7  225.78   13.40
  -2  -1   7  192.68   12.60
   2   1  -7  226.58   14.00
  -2   1   7  220.68   14.20
  -2   1   7  201.78    8.00
   2   1  -7  221.08   14.20
   2   1  -7  201.58   10.70
  -2   1   7  209.88   12.80
  -2   1   7  202.18   11.60
  -1  -1   7   28.50    6.90
   1  -1  -7   34.40    5.60
  -1  -1   7   30.70    5.20
  -1  -1   7   28.10    2.00
  -1  -1   7   29.30    4.00
   1  -1  -7   28.00    5.20
   1   1  -7   38.10    7.20
  -1   1   7   35.60    6.10
  -1   1   7   30.30    6.40
   1   1  -7   33.10    4.20
  -1   1   7   27.70    6.30
  -1   1   7   37.60    4.90
   0  -1   7  106.49    7.90
   0  -1   7  116.39   10.40
   0  -1   7  116.09    6.40
   0   1   7  101.89    9.80
   0   1   7  106.89    6.10
   1  -1   7   15.90    5.00
   1  -1   7    6.90    5.20
   1  -1   7    5.90    3.90
   1   1   7    6.80    3.00
  -1   1  -7    4.90    4.30
   1   1   7   15.80    4.60
   1   1   7    7.20    5.10
   2  -1   7   16.50    5.70
   2  -1   7   13.80    6.50
   2  -1   7    7.30    5.20
   2  -1   7   20.00    6.90
   2   1   7   16.00    4.90
   2   1   7   21.30    8.50
   2   1   7   17.90    6.00
   2   1   7    9.40    4.70
  -2   1  -7   15.40    6.80
   3  -1   7   64.69   10.40
   3  -1   7   51.99    8.90
   3   1   7   64.79    7.20
   3   1   7   49.70   10.90
  -3   1  -7   58.49   10.80
   3   1   7   67.89    9.70
   4  -1   7   54.89   10.90
   4  -1   7   50.29   10.90
   4  -1   7   83.79   13.70
   4   1   7   73.89   11.80
   4   1   7   69.69    7.60
   4   1   7   66.59   14.30
   5  -1   7   11.50    7.70
   5  -1   7    1.10   12.90
   5  -1   7    0.90    9.80
   5   1   7    4.70   12.10
   5   1   7    0.90    4.30
   5   1   7   17.90   10.70
   6  -2  -7   56.49   17.00
  -6  -2   7   29.70   13.80
   6   2  -7   22.40   14.40
   5  -2  -7  773.12   31.00
  -5  -2   7  829.52   40.10
   5  -2  -7  815.72   43.60
  -5   2   7  873.21   33.90
  -5   2   7  831.82   29.10
   5   2  -7  788.22   26.10
   5   2  -7  900.01   40.40
   4  -2  -7   28.80   10.40
   4  -2  -7   32.80   11.00
   4  -2  -7   28.10    7.30
  -4  -2   7   30.10   11.50
   4   2  -7   26.40   11.00
  -4   2   7   30.30    6.50
   4   2  -7   29.70    4.80
   4   2  -7   36.10    8.50
  -4   2   7   27.80   13.10
  -3  -2   7 1498.85   49.50
  -3  -2   7 1457.95   46.00
   3  -2  -7 1472.05   46.10
   3  -2  -7 1526.65   43.90
   3  -2  -7 1518.25   45.60
  -3  -2   7 1539.95   49.90
   3  -2  -7 1528.85   47.00
   3   2  -7 1516.75   41.80
   3   2  -7 1608.24   51.79
  -3   2   7 1486.75   39.10
  -3   2   7 1552.44   46.20
   3   2  -7 1553.74   47.70
  -3   2   7 1493.25   46.40
   2  -2  -7  132.79   10.50
   2  -2  -7  156.78   19.60
   2  -2  -7  145.39   11.20
  -2  -2   7  142.09   11.10
  -2  -2   7  149.69   14.00
  -2  -2   7  145.59   10.90
  -2   2   7  141.59   11.20
   2   2  -7  163.58   13.30
  -2   2   7  150.88    8.30
  -2   2   7  160.18   10.00
   2   2  -7  153.98   12.70
  -2   2   7  137.89   11.80
   2   2  -7  154.68    8.40
  -1  -2   7 3198.58   81.49
   1  -2  -7 3267.87   75.09
   1  -2  -7 3146.89   79.69
  -1  -2   7 3251.77   79.09
   1   2  -7 3292.77   71.89
  -1   2   7 3282.97   78.89
  -1   2   7 3269.97   80.19
  -1   2   7 3266.97   74.39
  -1   2   7 3246.48   81.99
   1   2  -7 3282.67   81.59
   0  -2  -7  973.00   29.90
   0  -2   7  958.30   25.30
   0  -2   7  968.60   26.10
   0  -2   7 1008.70   31.20
   0   2   7  959.70   27.80
   0   2  -7  975.80   25.50
   0   2   7  958.30   31.90
   0   2   7  956.10   23.20
  -1  -2  -7 1751.22   48.10
   1  -2   7 1754.42   45.90
   1  -2   7 1744.63   45.50
   1  -2   7 1794.02   48.40
   1   2   7 1761.62   46.40
   1   2   7 1779.22   41.60
   1   2   7 1781.52   49.20
  -1   2  -7 1794.42   45.80
   2  -2   7  154.08   12.50
   2  -2   7  139.69   13.10
   2  -2   7  152.08   11.80
   2   2   7  158.68    9.30
   2   2   7  164.08   12.20
  -2   2  -7  157.28   12.60
   2   2   7  146.29   13.90
   2   2   7  144.69    9.30
   3  -2   7 1134.89   38.40
   3  -2   7 1169.68   38.70
   3   2   7 1176.68   35.60
   3   2   7 1135.89   41.30
   3   2   7 1104.69   29.40
  -3   2  -7 1159.08   39.00
   4  -2   7   49.20   10.20
   4  -2   7   37.50    9.00
   4  -2   7   49.50   11.80
   4   2   7   53.09   11.40
   4   2   7   33.50   13.10
   4   2   7   49.40    5.00
  -4   2  -7   68.79   13.90
   5  -2   7  465.75   29.30
   5  -2   7  346.37   23.60
   5  -2   7  444.16   23.80
   5   2   7  432.76   31.70
   5   2   7  482.35   27.80
   6  -3  -7   38.50   16.90
  -6   3   7   37.80    9.50
   6   3  -7   40.10   15.20
   5  -3  -7  303.07   26.20
   5  -3  -7  318.17   29.00
  -5  -3   7  250.77   26.50
   5   3  -7  258.77   13.80
  -5   3   7  284.87   17.40
   5   3  -7  303.67   25.40
   4  -3  -7  373.26   24.40
  -4  -3   7  362.46   26.40
   4  -3  -7  361.16   23.70
  -4   3   7  409.86   21.10
   4   3  -7  355.86   13.00
   4   3  -7  372.86   18.80
   4   3  -7  371.46   24.60
  -3  -3   7   90.49   12.50
   3  -3  -7   93.29   11.90
   3  -3  -7   93.59   11.80
   3  -3  -7   99.99   13.30
  -3  -3   7   80.99   12.90
  -3   3   7   88.69    8.80
   3   3  -7  103.59   13.30
   3   3  -7  122.49   14.80
  -3   3   7  109.49   12.00
   3   3  -7   93.19    8.70
  -2  -3   7   27.80    9.90
  -2  -3   7    4.50    5.60
   2  -3  -7   15.20    5.50
   2  -3  -7    8.50    7.00
   2  -3  -7   17.70    6.70
   2   3  -7   14.20   12.30
  -2   3   7   17.20    4.80
  -2   3   7   21.00    6.60
  -2   3   7   19.50    7.10
   2   3  -7   14.80    3.10
   2   3  -7   15.20    6.90
  -2   3   7   25.60    6.60
  -2   3   7    7.60    4.40
   1  -3  -7  135.49   10.90
  -1  -3   7  118.89   10.70
   1  -3  -7  129.69    7.40
   1  -3  -7  132.39   11.30
  -1  -3   7  130.49   12.30
   1   3  -7  129.29    4.70
  -1   3   7  139.59    7.00
  -1   3   7  155.68   11.50
   1   3  -7  120.29   11.20
  -1   3   7  133.99   10.10
  -1   3   7  120.49   13.10
   0  -3   7  262.67   14.90
   0  -3  -7  230.58   13.70
   0  -3   7  239.98   10.10
   0  -3   7  261.37    9.60
   0   3  -7  265.37   14.50
   0   3  -7  250.77   10.30
   0   3   7  283.17   16.70
   0   3   7  240.48   11.40
   1  -3   7  721.83   23.10
   1  -3   7  722.43   25.20
  -1  -3  -7  711.43   25.70
   1   3   7  709.93   17.60
  -1   3  -7  718.03   23.30
   1   3   7  690.23   20.30
   1   3   7  692.03   26.70
   2  -3   7   10.50    7.50
   2  -3   7    5.00    5.10
   2  -3   7    4.00    5.40
   2  -3   7    8.60    8.10
   2   3   7    7.10    2.50
   2   3   7   11.00    4.00
   2   3   7    5.80    6.00
  -2   3  -7    5.40    6.00
   2   3   7    6.90    7.10
   2   3   7    9.00    3.30
   3  -3   7    7.60    6.20
   3  -3   7   -0.90    7.80
  -3  -3  -7    2.90    5.20
   3  -3   7   -1.70    7.90
  -3   3  -7   12.40    8.50
   3   3   7    5.70    6.10
   3   3   7    3.20    9.20
   4  -3   7   18.20   10.40
   4  -3   7   25.40   10.80
   4  -3   7   21.10    7.40
  -4   3  -7   40.30   12.00
   4   3   7   25.20   11.50
   4   3   7   39.60   10.10
   5  -3   7    5.00    7.10
   5  -3   7    0.60   11.70
   5  -3   7   -4.10    8.60
   5   3   7    6.90   12.60
   5   3   7   -1.20    8.50
  -5   3  -7   -2.90   11.30
   5  -4  -7  190.88   22.10
   5  -4  -7  184.08   21.40
  -5  -4   7  184.58   23.10
  -5   4   7  193.38   14.10
  -5   4   7  202.38   16.20
   5   4  -7  190.18   16.90
   5   4  -7  218.88   23.10
   4  -4  -7  163.58   18.80
   4  -4  -7  133.09   16.10
  -4  -4   7  127.49   18.70
   4   4  -7  156.08   18.60
  -4   4   7  139.09   12.70
   4   4  -7  115.99   11.90
  -4   4   7  163.98   13.70
   4   4  -7  130.89    7.60
   3  -4  -7  598.34   28.00
   3  -4  -7  590.94   27.80
   3  -4  -7  631.84   25.60
  -3  -4   7  596.94   30.50
  -3  -4   7  606.04   25.00
   3   4  -7  614.74   28.60
  -3   4   7  613.74   24.20
   3   4  -7  566.04   24.00
   3   4  -7  593.64   14.80
  -3   4   7  600.34   22.40
  -3   4   7  551.34   26.00
  -2  -4   7  451.65   22.40
   2  -4  -7  468.65   22.40
  -2  -4   7  468.05   24.50
   2  -4  -7  527.45   23.20
   2  -4  -7  503.95   19.00
  -2   4   7  488.35   20.60
   2   4  -7  481.15   26.60
  -2   4   7  521.75   34.80
   2   4  -7  490.05   12.60
  -2   4   7  472.95   17.80
   2   4  -7  457.95   12.80
  -2   4   7  510.95   24.80
  -2   4   7  488.55   19.70
  -1  -4   7 1493.65   45.70
   1  -4  -7 1547.75   43.40
   1  -4  -7 1498.75   45.80
  -1  -4   7 1527.65   46.30
   1  -4  -7 1554.94   37.30
  -1   4   7 1465.45   42.20
   1   4  -7 1544.85   45.70
   1   4  -7 1511.35   35.50
  -1   4   7 1568.54   37.20
  -1   4   7 1491.15   48.10
   0  -4   7  802.82   21.00
   0  -4  -7  843.72   29.70
   0  -4   7  846.52   23.70
   0  -4   7  811.32   28.70
   0   4  -7  804.32   23.40
   0   4   7  810.82   24.80
   0   4   7  831.22   31.60
   0   4  -7  808.22   28.40
   1  -4   7 1248.18   35.80
   1  -4   7 1263.27   37.70
  -1  -4  -7 1272.37   40.20
   1  -4   7 1324.17   40.60
  -1   4  -7 1250.27   36.10
   1   4   7 1297.37   41.20
   1   4   7 1277.17   32.60
   2  -4   7  449.46   19.00
   2  -4   7  407.86   20.90
   2  -4   7  437.96   23.10
   2  -4   7  439.76   22.50
   2   4   7  422.76   12.20
   2   4   7  442.16   11.70
   2   4   7  422.06   19.70
  -2   4  -7  471.45   21.00
   2   4   7  443.56   23.20
   2   4   7  449.56   15.20
   3  -4   7 1098.99   40.50
   3  -4   7 1063.39   33.40
  -3  -4  -7 1054.39   33.00
   3  -4   7 1022.60   39.30
   3   4   7 1089.09   41.40
  -3   4  -7 1078.59   38.50
   3   4   7 1054.69   32.70
   4  -4   7  370.96   25.50
   4  -4   7  360.46   18.70
   4  -4   7  358.26   18.00
   4  -4   7  347.47   24.40
   4   4   7  365.26   20.80
  -4   4  -7  347.47   24.20
   4   4   7  374.26   27.70
   5  -4   7  267.07   23.00
   5  -4   7  268.37   25.80
   5  -4   7  235.28   14.90
   5   4   7  280.67   22.20
   5   4   7  285.17   28.00
  -5   4  -7  283.47   26.70
   5  -5  -7   -1.70   12.20
   5  -5  -7   13.50   12.80
  -5  -5   7   21.40   15.40
   5   5  -7    6.60    7.60
   5   5  -7   18.60   12.70
  -5   5   7   -6.20    7.40
  -4  -5   7   63.09   15.30
   4  -5  -7   52.79   14.90
   4  -5  -7   46.40   12.00
  -4   5   7   49.00    9.60
   4   5  -7   62.29    5.90
   4   5  -7   70.99   14.90
  -4   5   7   61.59    8.30
   4   5  -7   53.49    8.60
  -3  -5   7   56.49   13.30
  -3  -5   7   58.99    9.60
   3  -5  -7   44.50   11.80
   3  -5  -7   36.00    8.80
  -3   5   7   52.99    8.50
  -3   5   7   48.30    8.80
   3   5  -7   47.50    5.90
  -3   5   7   47.60    9.40
   3   5  -7   51.79    4.30
   2  -5  -7   24.90    6.70
   2  -5  -7   28.20    9.00
   2  -5  -7   14.30    8.00
  -2  -5   7   31.90    9.60
  -2  -5   7   32.40    8.00
  -2   5   7   27.50    5.60
  -2   5   7   24.80    7.60
  -2   5   7   37.10    7.50
   2   5  -7   38.10    3.70
  -2   5   7   27.30    7.50
   2   5  -7   25.80    7.90
  -2   5   7   44.20   11.10
   1  -5  -7   82.59   10.50
   1  -5  -7   75.59    6.10
  -1  -5   7   85.69   12.30
   1  -5  -7   64.29    9.50
   1   5  -7   76.49    5.80
  -1   5   7   67.99   14.00
  -1   5   7   77.79    9.30
   1   5  -7   73.99    9.90
   0  -5  -7   42.50    8.50
   0  -5   7   49.20    4.20
   0  -5   7   59.09    9.40
   0  -5  -7   40.40    6.90
   0   5  -7   58.09    6.50
   0   5   7   55.89    6.90
   0   5  -7   54.79    8.10
   0   5   7   39.00    9.80
   1  -5   7   54.79    7.20
  -1  -5  -7   65.19   10.10
   1  -5   7   50.89    8.20
   1  -5   7   59.19   10.20
   1   5   7   48.60   10.00
   1   5   7   67.79    5.80
  -1   5  -7   48.70    7.90
   2  -5   7   28.90    6.40
   2  -5   7   19.80    9.40
   2  -5   7    8.80    5.80
   2  -5   7   13.50    9.60
  -2  -5  -7   27.40    4.70
   2   5   7   21.10    4.40
  -2   5  -7   42.60    9.30
   2   5   7   34.30   10.30
   3  -5   7    3.80    9.80
  -3  -5  -7   11.60    5.60
   3  -5   7    9.20    5.70
   3  -5   7   10.10   10.00
   3   5   7    3.70    5.40
  -3   5  -7    5.30    9.10
   3   5   7    0.90    9.40
   4  -5   7    4.10   11.00
   4  -5   7   -0.10    5.30
   4  -5   7    0.70    5.50
   4  -5   7   -3.60   11.70
   4   5   7    6.50   11.30
  -4   5  -7    3.80   11.10
   4   5   7    3.80    7.70
   5  -5   7   10.40   13.00
   5  -5   7   17.90   14.10
   5  -5   7    8.70    4.30
  -5   5  -7   22.00   13.50
   5   5   7   14.30    9.90
   5   5   7    8.20   13.90
  -5  -6   7   49.40   17.10
   5  -6  -7   75.79   18.20
   5  -6  -7   60.59   16.50
   5   6  -7   86.99   12.20
  -5   6   7   48.30   11.30
   5   6  -7   73.49   17.20
  -4  -6   7  281.07   27.60
   4  -6  -7  279.17   24.10
   4  -6  -7  272.27   21.80
   4   6  -7  283.37   15.10
  -4   6   7  278.67   19.10
   4   6  -7  313.67   24.90
  -4   6   7  290.47   13.80
   3  -6  -7  474.55   22.90
  -3  -6   7  413.96   21.80
   3  -6  -7  469.35   26.20
  -3  -6   7  504.05   30.10
  -3   6   7  457.75   22.70
  -3   6   7  420.26   20.50
   3   6  -7  452.35   14.20
   3   6  -7  454.95   15.50
  -3   6   7  494.25   20.50
  -2  -6   7  734.43   32.80
   2  -6  -7  698.43   29.00
   2  -6  -7  691.03   24.00
  -2  -6   7  682.73   30.60
   2  -6  -7  653.03   30.00
  -2   6   7  641.14   26.90
  -2   6   7  712.53   23.90
  -2   6   7  669.03   32.10
   2   6  -7  702.53   19.50
  -2   6   7  695.33   26.00
  -2   6   7  706.83   28.90
   2   6  -7  662.73   30.20
  -1  -6   7 1180.68   49.50
  -1  -6   7 1344.17   44.00
   1  -6  -7 1310.17   32.70
  -1   6   7 1282.77   45.90
   1   6  -7 1291.37   42.80
  -1   6   7 1289.97   38.90
   1   6  -7 1331.67   33.90
   0  -6  -7  789.02   31.50
   0  -6   7  770.22   21.20
   0  -6   7  821.52   30.10
   0  -6  -7  786.12   25.90
   0   6   7  749.82   32.90
   0   6   7  754.12   24.90
   0   6  -7  790.42   29.00
   0   6  -7  818.22   25.00
   1  -6   7  917.21   35.10
   1  -6   7  962.00   32.00
  -1  -6  -7  948.31   35.80
   1  -6   7  922.61   30.40
   1   6   7  948.51   26.20
   1   6   7  988.00   37.10
  -1   6  -7  980.90   33.70
   2  -6   7 1253.77   44.40
   2  -6   7 1142.99   44.60
   2  -6   7 1228.58   36.60
   2  -6   7 1246.38   40.30
  -2  -6  -7 1178.68   31.40
   2   6   7 1268.07   44.30
  -2   6  -7 1256.67   40.40
   3  -6   7  422.76   27.60
   3  -6   7  432.56   27.40
  -3  -6  -7  394.36   17.30
   3  -6   7  390.86   17.10
   3   6   7  393.66   26.40
   3   6   7  388.06   17.70
  -3   6  -7  426.06   24.60
   4  -6   7  301.17   13.50
   4  -6   7  320.47   13.30
   4  -6   7  309.17   26.20
   4   6   7  331.37   37.60
   4   6   7  349.96   19.80
  -4   6  -7  348.57   26.10
   5  -6   7  201.98   24.10
   5  -6   7  177.88   24.40
   5   6   7  226.78   20.20
   5   6   7  207.28   25.90
  -5   6  -7  222.68   25.30
  -5  -7   7  151.58   25.20
   5  -7  -7  104.19   18.60
   5  -7  -7  134.19   22.80
  -5   7   7  155.88   18.10
   5   7  -7  124.59   13.50
   4  -7  -7   55.59   13.80
  -4  -7   7   80.29   18.60
   4   7  -7   42.10    6.00
  -4   7   7   48.10   11.20
  -4   7   7   52.99    5.70
   4   7  -7   49.20    7.80
   3  -7  -7   79.89   12.20
  -3  -7   7   60.29   15.00
   3  -7  -7   62.39   13.80
   3   7  -7   74.59    6.70
  -3   7   7   81.29   12.40
   3   7  -7   82.89    6.70
  -3   7   7   82.89    9.40
   2  -7  -7    6.40    9.10
   2  -7  -7   11.70    5.80
  -2  -7   7    3.20    9.20
  -2   7   7   23.40    6.90
   2   7  -7   15.00    4.60
  -2   7   7   22.50   10.50
  -2   7   7   10.30    8.60
   1  -7  -7    0.60    7.10
  -1  -7   7    2.20    7.10
   1  -7  -7    7.60    6.50
   1  -7  -7    5.30    3.60
  -1  -7   7    3.00    7.50
   1   7  -7   -0.60    6.40
   1   7  -7    6.90    4.10
  -1   7   7    0.30    5.10
  -1   7   7    3.50    9.40
   0  -7   7   46.50   12.10
   0  -7  -7   42.90    7.50
   0  -7   7   50.39    5.50
   0  -7  -7   36.00    9.30
   0  -7   7   43.30   10.10
   0   7   7   41.60    6.80
   0   7   7   38.90   11.20
   0   7  -7   39.30    7.10
   0   7  -7   54.09    9.60
   1  -7   7   58.99   12.10
   1  -7   7   38.10    6.50
   1  -7   7   29.30    7.70
   1  -7   7   36.80    7.40
  -1  -7  -7   36.10   10.40
  -1   7  -7   36.30    7.30
  -1   7  -7   27.30    7.60
   1   7   7   36.10   10.40
   1   7   7   40.40    5.40
   2  -7   7   64.19   14.30
   2  -7   7   56.89   14.80
  -2  -7  -7   62.59    6.20
   2  -7   7   61.89    8.70
   2   7   7   71.29   13.40
  -2   7  -7   66.49   11.60
   3  -7   7    5.80   11.70
  -3  -7  -7   -2.80    5.00
   3  -7   7    3.80    4.90
   3  -7   7    9.30   11.90
   3   7   7    5.10   11.00
  -3   7  -7   10.60   10.50
   3   7   7    3.20    5.60
   4  -7   7   13.00   12.40
   4  -7   7   -1.90   13.40
   4   7   7    6.60   12.50
  -4   7  -7   -1.90   10.50
   4   7   7    1.30    7.60
   5  -7   7   34.90   16.80
   5  -7   7   44.10   18.40
   5   7   7   32.00   10.80
   5   7   7   31.30   16.10
  -5   7  -7   35.20   14.70
   5  -8  -7   24.30   15.40
  -5  -8   7   20.60   16.10
   5  -8  -7   13.60   12.80
  -5   8   7    7.50   10.30
   5   8  -7    4.60    5.30
   4  -8  -7  276.67   23.60
  -4  -8   7  208.68   26.00
   4  -8  -7  321.97   28.00
  -4   8   7  329.57   23.70
   4   8  -7  265.77   13.40
   4   8  -7  298.07   14.70
   3  -8  -7   92.69   16.30
  -3  -8   7  104.19   18.10
   3  -8  -7  107.99   14.00
  -3   8   7   97.99   10.80
   3   8  -7   89.39    8.50
   3   8  -7  106.39    6.70
  -3   8   7  115.09   15.60
   2  -8  -7  804.22   33.30
  -2  -8   7  714.03   35.50
   2  -8  -7  743.33   26.10
  -2   8   7  777.02   29.10
   2   8  -7  720.13   23.70
  -2   8   7  745.63   36.90
  -2   8   7  746.33   33.40
   1  -8  -7  181.48    9.70
   1  -8  -7  164.38   15.40
  -1  -8   7  192.08   18.80
  -1   8   7  182.08   19.70
   1   8  -7  178.58   11.70
  -1   8   7  140.89   12.50
   1   8  -7  159.68   15.40
   0  -8   7 1452.25   46.70
   0  -8   7 1477.15   48.20
   0  -8  -7 1476.55   42.20
   0  -8   7 1462.65   38.10
   0   8  -7 1408.36   50.59
   0   8   7 1436.76   50.89
   0   8   7 1391.76   41.00
   0   8  -7 1404.86   41.60
   1  -8   7  288.47   14.70
   1  -8   7  316.87   18.20
   1  -8   7  299.87   22.30
  -1   8  -7  285.47   17.30
  -1   8  -7  300.87   17.90
   1   8   7  267.37   22.30
   1   8   7  260.87   12.50
   2  -8   7  465.05   20.10
   2  -8   7  493.05   29.10
   2  -8   7  389.86   30.00
   2  -8   7  493.05   22.60
  -2  -8  -7  472.15   15.10
  -2   8  -7  473.05   25.00
   2   8   7  410.56   27.00
  -3  -8  -7  139.09   11.50
   3  -8   7  180.08   22.30
   3  -8   7  170.88   10.90
   3  -8   7  126.69   20.30
   3   8   7  163.28   21.20
  -3   8  -7  155.68   18.10
   4  -8   7  209.88   26.50
   4  -8   7  208.58   27.20
   4   8   7  186.68   23.20
  -4   8  -7  185.88   21.40
   4   8   7  199.68   16.50
  -4  -9   7    8.80   15.10
   4  -9  -7  -18.90   12.40
   4  -9  -7   16.00   11.20
  -4   9   7    4.00   11.20
   4   9  -7  -14.40    5.40
   4   9  -7    0.40    3.80
   3  -9  -7   25.40   13.40
   3  -9  -7   12.10    9.60
  -3  -9   7   16.40   14.00
   3   9  -7   18.20    3.30
  -3   9   7   13.90   11.50
  -3   9   7   15.70    5.80
   2  -9  -7   32.00   12.10
  -2  -9   7   21.50   11.90
   2  -9  -7   25.40    7.80
  -2   9   7   30.40   11.60
  -2   9   7   35.00    8.80
  -2   9   7   14.40   12.70
   2   9  -7   24.80    6.50
  -1  -9   7    0.60    9.20
   1  -9  -7   -3.60    8.40
   1  -9  -7    1.00    4.30
  -1  -9   7   -0.70    8.80
   1   9  -7    5.30    5.20
  -1   9   7   -3.60   11.10
  -1   9   7   -8.00    5.30
   0  -9   7   44.80    6.60
   0  -9   7   30.10    9.30
   0  -9  -7   37.40    3.60
   0  -9  -7   36.60    3.60
   0  -9   7   48.20   12.00
   0   9  -7   36.00    8.20
   0   9   7   52.79   13.50
   0   9   7   28.10    7.00
   0   9  -7   41.90    9.10
   1  -9   7   -3.00   10.20
   1  -9   7    5.90    5.50
   1  -9   7    6.50   11.50
  -1  -9  -7    4.20    5.30
   1   9   7    7.00   10.70
   1   9   7    4.50    4.40
  -1   9  -7    3.90    6.80
  -1   9  -7    2.20    7.70
   2  -9   7  -11.10   13.50
   2  -9   7   -5.90    6.20
  -2  -9  -7   -1.10    3.30
   2  -9   7   20.70   12.70
   2  -9   7    9.40    6.40
   2   9   7   -4.80    9.50
  -2   9  -7   12.40    9.90
   3  -9   7   -2.10    3.80
  -3  -9  -7   -4.70    5.40
   3  -9   7    6.50   14.10
   3  -9   7   -4.40   19.90
  -3   9  -7   15.30   12.90
   3   9   7   -2.70   11.00
   4  -9   7   -2.70   15.80
   4  -9   7   12.20   16.80
  -4   9  -7    5.50   12.90
   4   9   7   24.40   15.70
   4 -10  -7  435.56   28.40
  -4 -10   7  458.25   37.70
   4 -10  -7  449.86   34.60
  -4  10   7  412.66   31.20
  -3 -10   7    9.60   14.80
   3 -10  -7   20.80   21.80
   3 -10  -7   14.20   10.00
  -3  10   7    8.70    4.90
  -3  10   7    7.70   12.10
  -3  10   7   13.00    5.80
   2 -10  -7  643.54   32.70
  -2 -10   7  617.54   30.00
  -2 -10   7  597.84   34.60
   2 -10  -7  575.14   26.20
  -2  10   7  537.75   23.30
  -2  10   7  612.14   33.50
  -2  10   7  577.84   26.50
  -2  10   7  691.43   38.20
  -1 -10   7   90.99   15.10
   1 -10  -7   97.59    9.40
  -1 -10   7   91.39   15.30
   1 -10  -7   80.79   13.20
  -1  10   7  105.79   19.10
  -1  10   7  115.49   12.50
   1  10  -7   93.49   10.70
   0 -10   7  352.96   25.40
   0 -10   7  345.77   23.50
   0 -10   7  396.36   20.30
   0 -10  -7  375.36   20.00
   0 -10  -7  353.16   11.90
   0 -10  -7  363.66   12.00
   0  10   7  365.36   27.00
   0  10  -7  358.26   20.20
  -1 -10  -7   15.70    2.70
   1 -10   7   14.10   12.90
   1 -10   7   25.40    7.10
  -1 -10  -7   17.00    6.50
  -1 -10  -7   16.20    3.10
   1 -10   7    7.50    8.00
   1  10   7   18.40    5.50
   1  10   7    6.30   10.70
  -1  10  -7   15.60    8.70
  -1  10  -7    3.90    8.20
  -2 -10  -7  775.72   22.30
   2 -10   7  682.23   41.90
   2 -10   7  798.82   28.70
   2 -10   7  862.81   40.80
  -2  10  -7  854.71   35.90
   2  10   7  765.02   39.40
   3 -10   7   62.09   18.10
  -3 -10  -7   39.30    8.70
   3 -10   7   18.90   17.00
  -3  10  -7   58.09   14.70
   3  10   7   38.30   14.90
   4 -10   7  249.28   30.00
   4 -10   7  210.78   28.70
  -4  10  -7  207.88   24.60
   4  10   7  219.28   25.70
   4 -11  -7    9.20   14.90
  -4 -11   7   -9.80    9.00
  -4 -11   7   -5.80   16.00
   4 -11  -7   12.40   12.60
  -4  11   7   10.60   13.80
   4  11  -7   -1.90    2.90
   3 -11  -7  131.79   21.60
  -3 -11   7  171.38   18.70
   3 -11  -7  141.59   16.70
  -3 -11   7  106.89   21.60
   3  11  -7  144.39   13.00
  -3  11   7  120.49   20.30
  -2 -11   7    5.70   12.40
  -2 -11   7   31.70   12.30
   2 -11  -7   37.20    9.20
   2 -11  -7    9.00   12.50
   2  11  -7   40.00    8.90
  -2  11   7   48.40   15.40
  -2  11   7   20.00    7.30
  -2  11   7   18.00   14.90
   1 -11  -7  102.79   10.00
  -1 -11   7   72.49   14.90
  -1 -11   7   73.59   14.90
   1 -11  -7   97.79   15.60
  -1  11   7  138.99   20.80
  -1  11   7   93.89   12.80
   1  11  -7   90.79   11.70
   0 -11  -7   -6.90    7.90
   0 -11   7   -2.00    9.40
   0 -11   7    0.20    5.00
   0 -11   7    7.20   11.80
   0 -11  -7   -3.70    3.50
   0 -11  -7    2.00    3.50
   0  11   7  -10.50    5.70
   0  11  -7    5.00    7.40
   0  11   7   -6.40   11.70
  -1 -11  -7    2.40    3.00
   1 -11   7    7.30   13.50
   1 -11   7   12.70    9.10
   1 -11   7    4.50    6.00
  -1 -11  -7    5.80    6.10
  -1 -11  -7   12.50    3.40
  -1  11  -7   15.10    8.60
   1  11   7    5.20    5.10
  -1  11  -7    3.20    9.30
   1  11   7    9.40   11.40
   2 -11   7    3.30   15.10
   2 -11   7    0.50    6.90
   2 -11   7  -17.80   12.30
  -2 -11  -7   -5.60    4.20
   2  11   7   11.80   14.60
  -2  11  -7  -12.00    9.30
   3 -11   7    9.10   15.90
   3 -11   7   26.10   16.90
  -3  11  -7   33.90   14.50
   3  11   7   -7.20   11.90
  -3 -12   7   -5.80    9.90
   3 -12  -7    3.20   14.80
   3 -12  -7   -2.90    9.50
  -3 -12   7   -2.60   14.60
   3  12  -7    0.80    6.80
  -3  12   7   -7.30   12.80
   2 -12  -7  389.06   20.80
   2 -12  -7  395.86   48.50
  -2 -12   7  381.76   32.50
  -2 -12   7  380.06   26.30
  -2  12   7  429.96   33.60
  -2  12   7  442.36   31.10
   2  12  -7  382.36   20.90
  -2  12   7  340.17   19.80
   1 -12  -7   38.60    7.70
  -1 -12   7   15.70   12.80
   1 -12  -7   33.40   12.50
  -1 -12   7   23.50   12.90
   1  12  -7   37.00   10.40
   0 -12   7  358.06   26.10
   0 -12   7  372.76   17.30
   0 -12  -7  337.07   13.60
   0 -12  -7  338.87   14.00
   0 -12  -7  366.46   22.30
   0 -12   7  404.76   29.20
   0  12   7  357.46   29.50
   0  12  -7  346.47   22.20
  -1 -12  -7    0.60    3.50
   1 -12   7    0.40    8.80
  -1 -12  -7   12.90    7.60
  -1 -12  -7    1.10    3.60
   1 -12   7    5.70   17.50
   1 -12   7    9.10    7.20
   1  12   7  -11.70    5.20
   1  12   7   15.10   19.80
  -1  12  -7    5.40    9.40
   2 -12   7  238.08   16.90
   2 -12   7  262.57   28.60
   2 -12   7  233.98   28.60
   2  12   7  257.97   27.70
  -2  12  -7  247.98   23.80
   3 -12   7    2.20   16.90
   3 -12   7    5.00   16.20
  -3  12  -7   37.70   14.80
   3  12   7   16.80   14.80
   3 -13  -7   13.90   14.70
  -3 -13   7   51.29   19.90
  -3 -13   7   19.30   11.30
   3 -13  -7   10.40   11.00
   3  13  -7   17.80    8.60
  -3  13   7    4.60   13.90
  -2 -13   7  -17.20   13.60
   2 -13  -7  -15.10   13.20
   2 -13  -7   -6.60    8.10
  -2 -13   7  -11.60   11.10
   2  13  -7   -3.20    7.50
  -2  13   7   -4.90   12.50
  -2  13   7   10.10   15.00
  -1 -13   7   14.90   13.80
   1 -13  -7    3.50   11.70
   1 -13  -7   10.40    6.50
  -1 -13   7   -6.20   11.10
  -1  13   7   -6.00   12.00
   1  13  -7    1.40    8.70
   0 -13   7   80.89   17.90
   0 -13   7   84.59   16.30
   0 -13  -7   93.09   14.20
   0 -13   7  102.59   11.00
   0 -13  -7   80.29    8.00
   0  13   7  118.89   21.30
   0  13  -7   78.79   13.80
  -1 -13  -7   16.70    7.40
   1 -13   7    6.30   14.90
   1 -13   7   18.60   10.60
   1  13   7   33.40   16.00
  -1  13  -7    9.50   18.00
   2 -13   7   -6.30   15.20
   2 -13   7  -15.80   14.40
  -2  13  -7  -10.70   10.70
   2  13   7    3.30   12.70
   2 -14  -7  162.78   23.30
  -2 -14   7  169.88   24.20
  -2 -14   7  132.49   19.80
   2 -14  -7  182.28   17.40
   2  14  -7  171.78   18.00
  -2  14   7  214.48   26.80
   1 -14  -7   77.09   20.00
  -1 -14   7   83.99   18.90
  -1 -14   7   94.79   18.80
   1 -14  -7   68.79   10.90
  -1  14   7  123.59   19.70
  -1  14   7   77.89   17.90
   1  14  -7   81.29   13.70
   0 -14   7  253.67   25.60
   0 -14   7  281.17   29.90
   0 -14  -7  242.08   21.40
   0  14   7  276.97   28.80
   0  14  -7  224.18   26.80
  -1 -14  -7   17.00    8.50
   1 -14   7   28.00   17.60
   1 -14   7   21.20   10.70
  -1  14  -7   21.80   12.10
   1  14   7   49.80   16.90
   2 -14   7  155.18   27.00
   2 -14   7  114.79   23.10
   2  14   7  107.99   20.40
  -2  14  -7  145.49   20.40
   1 -15  -7   13.90   14.00
  -1 -15   7    3.10   13.40
  -1 -15   7    7.10   14.60
  -1  15   7    9.10   14.90
   1  15  -7   -9.30    9.40
  -1  15   7   -9.20   12.20
   0 -15   7    6.60   12.40
   0 -15  -7   17.30   12.00
   0 -15   7    3.60   15.10
   0  15  -7    2.70   10.70
   0  15   7    7.90   12.70
   1 -15   7    1.20   16.00
  -1  15  -7    2.50   11.60
  -6   0   8  228.88   24.20
   6   0  -8  307.27   29.30
   5   0  -8    7.30   11.90
  -5   0   8    6.20   10.50
   4   0  -8 3553.04   93.79
   4   0  -8 3329.27   89.69
  -4   0   8 3605.64   95.19
   4   0  -8 3376.86   91.19
  -3   0   8    4.80    7.10
  -3   0   8   -4.50    5.00
   3   0  -8   -5.00    5.00
   3   0  -8    7.70    5.50
   3   0  -8   10.20    7.50
  -3   0   8   -0.60    5.00
   2   0  -8 1329.07   38.60
  -2   0   8 1383.46   43.20
  -2   0   8 1383.16   39.40
  -2   0   8 1418.36   41.50
   2   0  -8 1376.66   42.10
   2   0  -8 1418.96   40.70
  -1   0   8   -0.30    3.20
  -1   0   8    0.50    5.30
  -1   0   8   -1.00    1.70
   1   0  -8   -0.70    3.20
  -1   0   8   -5.60    3.70
  -1   0   8    4.50    4.20
   0   0   8 2183.18   59.29
   0   0  -8 2235.68   54.99
   0   0   8 2267.67   53.29
   0   0   8 2222.08   57.49
   1   0   8   -3.70    3.30
   1   0   8    2.30    5.00
   2   0   8 1223.58   39.70
   2   0   8 1221.58   36.00
   2   0   8 1445.76   52.29
   2   0   8 1196.68   37.50
   3   0   8    6.20    5.90
   3   0   8    0.60    8.10
   3   0   8    3.50    6.60
   4   0   8  165.68   16.70
   4   0   8  148.79   18.90
   4   0   8  156.58   12.60
   5   0   8  -11.50   12.90
   5   0   8  -12.60    9.10
  -5  -1   8  108.79   17.90
   5  -1  -8   78.19   15.90
   5   1  -8   89.59   17.70
  -5   1   8  107.29   15.50
  -4  -1   8   -1.20    8.80
   4  -1  -8    3.40    7.10
   4  -1  -8    3.80    9.70
  -4   1   8   19.90    5.00
   4   1  -8    2.50    9.10
   4   1  -8    3.70    6.40
  -4   1   8   10.40    8.70
   3  -1  -8   46.80    8.00
   3  -1  -8   46.30   10.00
  -3  -1   8   40.60    8.60
  -3  -1   8   25.40    8.20
  -3  -1   8   42.40   11.10
   3  -1  -8   47.30    8.30
   3   1  -8   38.10    8.90
   3   1  -8   58.79    8.10
  -3   1   8   49.10    5.00
  -3   1   8   46.20    8.70
  -3   1   8   43.40   10.40
  -3   1   8   37.70   11.70
   3   1  -8   39.40    9.60
  -2  -1   8   -3.10    6.40
  -2  -1   8    1.00    4.90
  -2  -1   8    6.00    4.50
   2  -1  -8   -7.80    4.50
   2  -1  -8    3.90    4.40
   2  -1  -8    3.80    5.50
   2   1  -8   -5.40    5.10
   2   1  -8    2.30    3.20
  -2   1   8   -0.60    3.80
  -2   1   8    0.70    2.20
   2   1  -8    1.80    5.70
  -2   1   8   -0.10    6.00
  -2   1   8   -2.90    4.40
  -1  -1   8 1548.15   41.50
  -1  -1   8 1527.45   45.20
  -1  -1   8 1582.14   39.10
   1  -1  -8 1513.55   41.90
  -1  -1   8 1538.15   34.60
   1   1  -8 1530.75   44.90
  -1   1   8 1526.75   44.70
  -1   1   8 1573.74   43.30
   1   1  -8 1530.05   38.10
  -1   1   8 1513.95   39.10
  -1   1   8 1502.35   43.90
   0  -1   8    7.20    5.40
   0  -1   8    1.60    4.00
   0  -1   8   11.20    3.20
   0  -1  -8    9.60    4.50
   0   1   8   10.70    5.90
   0   1   8    8.50    3.10
   0   1   8   13.50    6.00
   1  -1   8 2363.26   58.69
   1  -1   8 2366.66   62.69
   1  -1   8 2304.87   59.69
   1   1   8 2359.86   59.19
   1   1   8 2355.36   55.79
   1   1   8 2361.66   61.89
   2  -1   8   -2.10    5.10
   2  -1   8    4.60    6.30
   2  -1   8    4.70    6.60
   2  -1   8    1.70    6.10
   2   1   8   -6.70    7.60
   2   1   8   -2.10    4.50
  -2   1  -8   -1.20    5.50
   2   1   8   -0.80    6.30
   2   1   8   -3.60    4.10
   3  -1   8  785.62   30.20
   3  -1   8  807.12   29.60
   3  -1   8  837.42   33.80
   3   1   8  797.32   28.50
   3   1   8  851.01   34.50
   3   1   8  780.72   25.40
   4  -1   8   -7.20    7.80
   4  -1   8    0.40   10.40
   4  -1   8    9.00    9.30
   4  -1   8   -4.00    6.30
   4   1   8    7.10    4.70
   4   1   8   10.20    8.70
   4   1   8    2.20   10.70
   5  -1   8  301.77   24.80
   5  -1   8  303.37   18.20
   5  -1   8  311.57   29.20
   5   1   8  268.07   12.50
   5   1   8  292.47   27.70
   5  -2  -8    1.60   11.10
   5  -2  -8  -16.40    7.40
  -5  -2   8    7.20   12.70
  -5   2   8   17.10    9.30
   5   2  -8   12.40   12.70
  -5   2   8   15.40    6.60
   4  -2  -8  457.15   28.60
  -4  -2   8  573.84   31.60
   4  -2  -8  593.34   28.90
   4   2  -8  515.45   23.20
   4   2  -8  544.75   29.00
  -4   2   8  566.74   27.30
  -4   2   8  523.25   19.30
   3  -2  -8    7.20    6.60
   3  -2  -8   -3.40    7.00
  -3  -2   8    5.30    6.50
  -3  -2   8    9.80    8.30
   3   2  -8   13.50    8.70
  -3   2   8    3.70    6.30
  -3   2   8    5.80    3.70
   3   2  -8   11.10    7.40
  -3   2   8    2.00    5.50
   3   2  -8    3.20    4.60
  -2  -2   8 2128.89   58.29
  -2  -2   8 2199.28   59.19
   2  -2  -8 2232.38   56.69
  -2  -2   8 2199.68   62.69
   2  -2  -8 2117.79   58.99
   2   2  -8 2151.88   52.79
  -2   2   8 2214.98   60.19
   2   2  -8 2147.99   61.09
  -2   2   8 2185.28   55.69
   2   2  -8 2242.18   76.29
  -2   2   8 2183.88   59.39
  -2   2   8 2194.98   59.29
  -2   2   8 2236.98   52.79
  -1  -2   8  150.08   13.10
   1  -2  -8  159.18    9.20
  -1  -2   8  149.69   11.00
   1  -2  -8  157.88   11.60
  -1  -2   8  162.98    6.80
  -1   2   8  158.58   12.60
  -1   2   8  155.98   10.90
   1   2  -8  160.98   12.60
  -1   2   8  156.58    8.10
  -1   2   8  137.59   13.30
   1   2  -8  153.88    6.40
   0  -2   8  599.24   23.70
   0  -2  -8  601.84   22.30
   0  -2   8  604.14   19.30
   0  -2   8  601.84   18.10
   0   2  -8  636.64   18.50
   0   2   8  581.74   20.50
   0   2   8  612.34   25.00
   0   2   8  598.14   16.10
  -1  -2  -8    7.60    5.30
   1  -2   8    0.00    4.20
   1  -2   8    7.90    4.10
   1  -2   8    8.00    5.80
  -1   2  -8    4.40    4.40
   1   2   8    7.10    2.80
   1   2   8    8.90    6.40
   1   2   8    5.40    4.20
   2  -2   8  439.26   20.40
   2  -2   8  403.06   20.90
   2  -2   8  438.76   20.70
   2   2   8  435.86   19.80
   2   2   8  443.46   22.70
   2   2   8  447.56   16.20
   2   2   8  387.86   16.50
  -2   2  -8  435.56   19.90
   3  -2   8   15.60    8.20
   3  -2   8   15.20    7.90
   3   2   8   20.90    4.40
   3   2   8   16.80    7.90
  -3   2  -8   16.00    8.90
   3   2   8   27.00   11.00
   4  -2   8  201.78   17.00
   4  -2   8  185.98   18.50
   4  -2   8  153.38   16.50
   4   2   8  171.18   20.30
   4   2   8  175.78    8.40
  -4   2  -8  205.38   20.20
   4   2   8  193.58   17.20
   5  -2   8    0.90   10.50
   5  -2   8    0.00   13.30
   5  -2   8   -5.60    8.30
   5   2   8   -2.60    9.00
   5   2   8   10.00   14.60
   5  -3  -8   -2.70    9.80
  -5  -3   8   -2.80   12.10
   5   3  -8   -1.80   11.60
  -5   3   8   -1.30    6.10
  -5   3   8    2.80    7.60
   4  -3  -8   47.20   12.70
   4  -3  -8   50.79   11.80
  -4  -3   8   62.49   14.60
   4   3  -8   56.99    9.10
   4   3  -8   60.99   14.00
  -4   3   8   63.19   15.70
  -4   3   8   56.69    8.00
   3  -3  -8 1061.99   37.90
  -3  -3   8  951.20   34.50
  -3  -3   8 1016.80   40.20
   3  -3  -8  960.90   36.20
   3  -3  -8 1021.50   34.70
   3   3  -8 1052.09   31.10
   3   3  -8 1028.70   37.80
  -3   3   8 1007.30   35.50
  -3   3   8  936.71   33.10
  -3   3   8 1007.30   29.50
   2  -3  -8  803.52   26.20
   2  -3  -8  840.12   30.30
  -2  -3   8  809.82   32.50
   2  -3  -8  791.42   30.00
  -2  -3   8  787.42   29.20
  -2   3   8  810.62   29.40
  -2   3   8  823.62   25.50
  -2   3   8  789.22   32.80
   2   3  -8  792.32   21.20
  -2   3   8  787.82   25.20
  -2   3   8  787.12   30.50
  -1  -3   8  809.92   28.10
  -1  -3   8  794.92   29.80
   1  -3  -8  781.52   22.20
   1  -3  -8  757.52   27.90
   1   3  -8  746.63   28.90
  -1   3   8  762.22   27.90
  -1   3   8  787.22   21.40
  -1   3   8  737.43   30.80
  -1   3   8  759.52   26.10
   0  -3   8   88.89    6.60
   0  -3   8   97.59   11.00
   0  -3  -8  100.99   10.30
   0  -3   8   92.79    6.80
   0   3   8   97.19   12.30
   0   3  -8   93.79    7.10
   0   3  -8   98.89   10.90
   0   3   8   97.79    8.00
   1  -3   8 1270.97   38.60
  -1  -3  -8 1218.58   38.60
   1  -3   8 1258.77   35.40
   1  -3   8 1203.18   35.00
  -1   3  -8 1280.97   35.90
   1   3   8 1281.27   33.60
   1   3   8 1249.97   40.20
   1   3   8 1224.68   29.10
   2  -3   8  304.37   18.70
   2  -3   8  294.27   19.70
   2  -3   8  320.37   16.80
   2  -3   8  321.77   17.60
  -2   3  -8  303.97   17.50
   2   3   8  327.77   11.50
   2   3   8  334.67   20.20
   2   3   8  297.37   13.00
   2   3   8  318.87   12.80
   2   3   8  332.67   17.40
   3  -3   8  805.22   32.20
   3  -3   8  794.22   29.30
   3  -3   8  770.22   32.20
   3   3   8  747.93   19.30
  -3   3  -8  791.62   32.10
   3   3   8  811.12   34.80
   3   3   8  785.22   26.90
   3   3   8  748.63   19.20
   4  -3   8   14.40   10.40
   4  -3   8   21.20    8.00
   4  -3   8   24.10    8.90
   4  -3   8   55.79   12.80
   4   3   8   49.70   14.50
  -4   3  -8   37.60   12.70
   4   3   8   33.60    8.90
   5  -3   8  250.27   25.10
   5  -3   8  265.07   18.40
   5  -3   8  249.68   21.00
   5   3   8  261.67   28.00
   5   3   8  265.97   22.30
   5  -4  -8   -1.80   12.70
   5  -4  -8   14.80   12.80
  -5   4   8   10.10    7.70
   5   4  -8   10.80    8.00
  -5   4   8    9.60    8.00
   5   4  -8   16.90   13.00
   4  -4  -8  421.26   27.40
   4  -4  -8  473.45   26.50
  -4  -4   8  445.86   30.60
   4   4  -8  456.45   28.70
  -4   4   8  395.36   19.00
  -4   4   8  445.96   22.20
   4   4  -8  387.46   18.90
  -3  -4   8   49.70   10.00
   3  -4  -8   53.29    9.50
   3  -4  -8   60.89   12.10
  -3  -4   8   38.30   11.50
   3  -4  -8   71.49   12.90
   3   4  -8   61.59    6.50
  -3   4   8   63.49    8.70
  -3   4   8   50.79    9.80
   3   4  -8   70.19   13.00
  -3   4   8   44.70    8.00
   2  -4  -8 1455.35   44.40
   2  -4  -8 1417.86   39.10
   2  -4  -8 1335.27   44.50
  -2  -4   8 1391.16   47.00
  -2  -4   8 1394.76   44.40
  -2   4   8 1415.56   38.40
   2   4  -8 1389.66   45.70
  -2   4   8 1383.26   46.40
  -2   4   8 1379.16   42.90
  -2   4   8 1404.46   42.80
  -2   4   8 1392.86   40.60
  -1  -4   8  440.46   22.40
   1  -4  -8  435.66   14.10
   1  -4  -8  440.66   21.10
  -1  -4   8  410.16   21.00
   1  -4  -8  424.86   19.80
  -1   4   8  428.26   20.20
  -1   4   8  405.16   23.40
   1   4  -8  425.16   21.10
  -1   4   8  441.06   18.70
   1   4  -8  428.56   12.20
  -1   4   8  420.26   13.50
   0  -4   8  914.21   24.10
   0  -4   8  934.21   32.40
   0  -4  -8  915.51   32.50
   0   4   8  930.71   28.10
   0   4   8  959.70   35.50
   0   4  -8  906.11   26.00
   0   4  -8  914.01   31.90
   1  -4   8  241.18   12.90
  -1  -4  -8  235.48   15.90
   1  -4   8  242.88   17.10
   1  -4   8  265.77   15.80
   1   4   8  246.98   10.80
   1   4   8  241.08   17.70
  -1   4  -8  264.47   13.90
   2  -4   8  132.99   14.80
   2  -4   8  140.09   16.10
   2  -4   8  130.69   11.80
   2  -4   8  149.59   12.70
   2   4   8  131.09    7.70
   2   4   8  143.39    8.20
   2   4   8  140.69    6.60
   2   4   8  122.99   12.20
  -2   4  -8  131.59   13.30
   2   4   8  144.29   15.50
   3  -4   8    3.10   10.10
   3  -4   8    8.00    9.70
   3  -4   8   17.80    7.60
   3   4   8   11.10    5.50
   3   4   8    9.40    9.90
  -3   4  -8   14.70    9.00
   4  -4   8   38.70   13.30
   4  -4   8   43.30    9.70
   4  -4   8   59.59   14.70
   4  -4   8   42.80   10.40
  -4   4  -8   34.90   13.00
   4   4   8   42.80    9.90
   4   4   8   27.40   15.20
   5  -4   8   23.90   13.40
   5  -4   8   28.90   12.90
  -5   4  -8    3.00   12.10
   5   4   8   16.50   14.10
   5   4   8   -3.70    8.80
   5  -5  -8    1.00   12.60
   5  -5  -8    5.30   12.50
  -5  -5   8    7.50   13.90
   5   5  -8   15.10   14.50
  -5   5   8   -3.40    6.90
   5   5  -8    5.20    7.20
   4  -5  -8    5.50   12.30
  -4  -5   8    5.00   12.40
   4  -5  -8    1.50    9.60
   4   5  -8    1.50   11.00
  -4   5   8   11.00    7.10
   4   5  -8    2.20    4.90
   4   5  -8    5.80    5.60
  -4   5   8   13.90    6.60
   3  -5  -8  153.68   14.90
  -3  -5   8  139.89   17.60
   3  -5  -8  177.58   18.50
  -3   5   8  137.69   13.90
   3   5  -8  133.69    7.80
  -3   5   8  138.89   12.30
  -3   5   8  163.18   13.60
   3   5  -8  141.99    7.80
   2  -5  -8  203.48   12.40
   2  -5  -8  218.78   16.80
  -2  -5   8  211.78   16.50
  -2  -5   8  193.48   18.80
   2  -5  -8  192.28   16.00
  -2   5   8  196.18   11.30
  -2   5   8  162.58   13.70
  -2   5   8  164.88   14.40
  -2   5   8  211.28   15.30
   2   5  -8  197.58   16.60
  -2   5   8  201.68   18.30
  -1  -5   8  863.61   33.70
   1  -5  -8  899.71   33.70
   1  -5  -8  884.41   23.70
  -1  -5   8  867.21   35.70
   1   5  -8  893.01   37.50
  -1   5   8  920.41   30.20
  -1   5   8  914.41   37.20
   1   5  -8  924.71   23.60
   0  -5   8  600.74   20.40
   0  -5   8  632.74   17.30
   0  -5   8  633.64   17.00
   0  -5  -8  654.43   26.90
   0  -5   8  652.03   26.80
   0   5   8  631.04   29.40
   0   5  -8  615.84   20.50
   0   5  -8  591.74   25.10
   0   5   8  653.53   21.80
  -1  -5  -8  458.95   23.10
   1  -5   8  469.45   19.20
   1  -5   8  468.65   23.70
   1  -5   8  503.15   22.00
   1   5   8  476.05   16.20
  -1   5  -8  501.05   20.10
   1   5   8  463.55   24.30
   2  -5   8   24.10    7.40
   2  -5   8   27.10   10.50
   2  -5   8   20.40    9.90
   2  -5   8   26.30    7.50
   2   5   8   21.80    3.10
   2   5   8   27.80    2.80
  -2   5  -8   26.30    8.30
   2   5   8   23.90    4.20
   2   5   8   17.80    9.10
   3  -5   8  263.77   16.10
   3  -5   8  273.17   22.10
   3  -5   8  286.07   23.10
   3   5   8  248.18   14.20
  -3   5  -8  260.67   20.30
   3   5   8  263.47   22.90
   4  -5   8  184.68   21.60
   4  -5   8  206.98   14.50
   4  -5   8  188.68   14.80
   4  -5   8  215.08   23.40
  -4   5  -8  209.88   21.90
   4   5   8  240.58   24.90
   4   5   8  219.68   16.60
   5  -5   8   88.29   10.40
   5  -5   8  136.89   22.80
   5  -5   8  135.79   21.60
   5   5   8  106.59   15.30
  -5   5  -8  121.89   21.00
   5   5   8   84.59   19.30
   5  -6  -8  251.47   25.90
   5  -6  -8  215.88   25.20
  -5  -6   8  208.28   26.50
  -5   6   8  221.48   18.70
   5   6  -8  242.08   16.20
   5   6  -8  250.87   27.10
  -4  -6   8  131.89   19.90
   4  -6  -8  124.29   16.50
   4  -6  -8  115.39   18.40
   4   6  -8  100.39    9.60
  -4   6   8  111.19   11.40
  -4   6   8  109.59   13.40
   4   6  -8   96.19    9.90
   3  -6  -8  575.84   30.00
  -3  -6   8  647.64   34.30
   3  -6  -8  611.54   25.50
  -3   6   8  584.64   26.00
  -3   6   8  554.54   24.50
   3   6  -8  561.34   15.90
  -3   6   8  551.64   23.80
   3   6  -8  563.74   15.90
   2  -6  -8   96.79   13.80
   2  -6  -8   97.09    9.90
  -2  -6   8   65.09   12.80
  -2   6   8   98.49   13.10
  -2   6   8   88.69   15.00
  -2   6   8   96.89   12.00
   2   6  -8   78.89    5.10
  -2   6   8   85.89    8.50
  -1  -6   8  477.75   25.40
   1  -6  -8  517.25   15.30
   1  -6  -8  522.25   23.00
  -1  -6   8  514.85   25.90
   1  -6  -8  486.25   24.60
   1   6  -8  462.45   23.80
   1   6  -8  525.25   16.50
  -1   6   8  493.65   21.10
  -1   6   8  519.75   28.50
   0  -6   8  144.39    7.00
   0  -6   8  162.68   15.20
   0  -6   8  164.68    7.30
   0  -6  -8  176.48   15.40
   0   6  -8  171.58   11.10
   0   6  -8  173.88   14.30
   0   6   8  154.78   10.80
   0   6   8  150.58   17.00
   1  -6   8  792.62   32.50
   1  -6   8  783.92   29.50
  -1  -6  -8  744.83   32.10
   1  -6   8  791.82   27.20
  -1   6  -8  775.82   27.80
   1   6   8  804.92   27.70
   1   6   8  803.92   34.00
   2  -6   8   52.29   13.70
   2  -6   8   62.59    9.60
   2  -6   8   60.39   14.80
   2   6   8   47.00   11.80
  -2   6  -8   59.59   11.10
   3  -6   8   63.19   15.40
   3  -6   8   41.70   13.10
  -3  -6  -8   41.40    7.10
   3  -6   8   50.59    8.50
   3   6   8   37.00   13.60
  -3   6  -8   40.10   12.00
   3   6   8   52.99    7.60
   4  -6   8   38.00    7.20
   4  -6   8   42.00   15.70
   4  -6   8   33.70    7.30
   4  -6   8   24.60   13.50
  -4  -6  -8   28.10   11.00
  -4   6  -8   52.79   14.20
   4   6   8   58.09   16.70
   4   6   8   43.40    9.50
   5  -6   8    9.30   14.60
   5  -6   8   17.60   15.90
  -5   6  -8   19.50   14.50
   5   6   8   12.20   14.80
   5   6   8    9.90    9.70
   5  -7  -8    2.40   12.10
   5  -7  -8   17.80   15.50
  -5  -7   8    8.50   15.90
   5   7  -8   -6.70    4.10
  -5   7   8   30.40   10.90
   4  -7  -8   76.59   15.10
   4  -7  -8   39.70   14.00
  -4  -7   8   44.70   21.00
   4   7  -8   68.99    7.50
  -4   7   8   53.29    7.20
  -4   7   8   49.10   11.50
   4   7  -8   55.79    7.20
   3  -7  -8  136.89   14.60
  -3  -7   8  115.79   18.00
   3  -7  -8  141.09   18.30
   3   7  -8  132.69    6.80
  -3   7   8  146.39   13.80
   3   7  -8  130.79    6.70
  -3   7   8  166.68   17.30
   2  -7  -8  407.56   23.40
   2  -7  -8  391.16   17.40
  -2  -7   8  404.76   26.70
  -2   7   8  387.26   23.50
  -2   7   8  406.16   21.00
   2   7  -8  387.16   13.50
  -2   7   8  336.77   26.00
   1  -7  -8  788.42   21.60
   1  -7  -8  855.51   31.10
  -1  -7   8  814.22   34.50
   1   7  -8  744.33   31.80
  -1   7   8  804.72   37.10
   1   7  -8  778.02   24.00
  -1   7   8  781.82   29.00
   0  -7  -8  710.83   25.30
   0  -7  -8  644.94   34.50
   0  -7   8  664.63   19.20
   0  -7   8  664.03   28.80
   0  -7   8  652.43   29.40
   0   7  -8  705.83   24.00
   0   7   8  715.43   33.50
   0   7   8  612.44   23.30
   1  -7   8  311.47   20.60
   1  -7   8  283.97   14.30
   1  -7   8  306.57   16.70
   1  -7   8  322.27   22.60
   1   7   8  301.97   13.20
   1   7   8  316.07   23.20
  -1   7  -8  323.87   17.80
   2  -7   8  797.72   29.00
   2  -7   8  705.53   37.90
   2  -7   8  821.92   36.60
   2   7   8  824.62   36.90
  -2   7  -8  781.32   31.50
   3  -7   8  156.98   21.40
  -3  -7  -8  127.29   10.60
   3  -7   8  201.68   23.50
   3  -7   8  146.59   12.60
   3   7   8  143.39   11.20
  -3   7  -8  149.99   17.30
   3   7   8  139.49   18.80
   4  -7   8  103.39    8.80
   4  -7   8  108.39    8.40
   4  -7   8  117.09   20.80
  -4  -7  -8  115.89   14.50
   4  -7   8  169.78   37.20
   4   7   8  133.09   13.60
   4   7   8  116.09   20.30
  -4   7  -8  130.49   19.00
  -5  -8   8  199.08   27.70
   5  -8  -8  134.99   19.90
   5  -8  -8  163.08   23.50
  -5   8   8  224.38   21.40
   4  -8  -8   88.69   15.80
  -4  -8   8   46.80   17.50
   4  -8  -8   74.79   17.20
  -4   8   8   53.89   12.80
   4   8  -8   33.90    4.90
  -3  -8   8  610.84   36.60
   3  -8  -8  619.24   33.20
   3  -8  -8  665.73   28.00
  -3   8   8  610.84   31.10
  -3   8   8  599.04   24.90
   3   8  -8  599.74   18.80
   3   8  -8  590.74   18.50
  -2  -8   8  124.89   17.30
   2  -8  -8  141.79   12.30
   2  -8  -8  122.99   16.40
  -2   8   8  157.08   18.30
  -2   8   8  162.88   21.30
  -2   8   8  131.59   14.30
   2   8  -8  124.79    9.20
   1  -8  -8  810.72   31.60
  -1  -8   8  775.02   35.10
   1  -8  -8  817.32   22.60
  -1   8   8  857.11   39.10
   1   8  -8  875.71   26.40
  -1   8   8  776.32   29.60
   0  -8   8  323.57   21.30
   0  -8  -8  312.87   17.50
   0  -8   8  320.07   12.30
   0  -8   8  329.07   22.70
   0   8   8  349.96   25.20
   0   8  -8  305.97   18.40
   0   8   8  290.97   15.60
   0   8  -8  274.97   18.90
   1  -8   8  199.78   19.80
   1  -8   8  211.38   12.40
   1  -8   8  208.98   16.60
   1   8   8  194.08   20.90
  -1   8  -8  204.98   16.00
   1   8   8  199.18   10.90
  -1   8  -8  188.78   15.50
   2  -8   8   12.00   12.20
   2  -8   8    8.20    6.50
   2  -8   8   20.10    7.40
   2  -8   8   25.30   14.40
  -2   8  -8   13.90    9.00
   2   8   8   25.50   11.70
   3  -8   8  398.76   18.00
   3  -8   8  389.96   31.20
  -3  -8  -8  371.46   16.30
   3  -8   8  421.56   29.80
   3   8   8  402.26   29.90
  -3   8  -8  431.16   28.10
   4  -8   8  -12.80   14.50
   4  -8   8   16.30   15.10
   4   8   8   11.80   13.50
  -4   8  -8   -5.80   12.80
   4  -9  -8    7.60   11.50
  -4  -9   8    5.40   15.10
   4  -9  -8   31.20   15.70
  -4   9   8   29.50   12.90
   4   9  -8    3.30    2.10
   4   9  -8   -1.20    2.30
   4   9  -8   -2.40    2.20
   3  -9  -8   80.99   13.10
   3  -9  -8  104.49   18.20
  -3  -9   8   83.69   20.30
  -3   9   8   78.59   10.30
   3   9  -8   73.99    7.60
   3   9  -8   89.29    8.70
  -3   9   8   98.89   17.10
   2  -9  -8   84.59   15.10
   2  -9  -8  115.49   11.60
  -2  -9   8   96.09   16.90
   2   9  -8  104.89    9.70
  -2   9   8  119.49   16.50
  -2   9   8   97.69   17.80
   1  -9  -8   94.49   13.80
   1  -9  -8   82.49    7.40
  -1  -9   8   90.09   15.20
  -1  -9   8   86.09   14.30
  -1   9   8  109.39   18.50
   1   9  -8   89.09    9.80
   0  -9   8  442.66   26.30
   0  -9   8  399.76   15.10
   0  -9   8  405.36   24.50
   0  -9  -8  420.06   20.40
   0   9   8  420.66   28.20
   0   9  -8  400.86   19.80
   0   9   8  362.46   18.20
   0   9  -8  372.76   25.70
   1  -9   8   15.00   11.90
   1  -9   8   15.00    5.70
   1  -9   8    8.80    8.20
  -1   9  -8   11.40    8.70
   1   9   8   11.80    4.80
   1   9   8   20.80   12.90
   2  -9   8  485.85   30.80
   2  -9   8  497.25   22.50
   2  -9   8  451.95   22.90
   2  -9   8  461.65   33.40
   2   9   8  550.94   33.00
  -2   9  -8  514.25   27.40
   3  -9   8   15.90   15.20
   3  -9   8    2.20    5.00
   3  -9   8    3.90   14.00
  -3  -9  -8    7.80    5.40
   3   9   8   -1.60   12.00
  -3   9  -8   15.50   12.00
   4  -9   8  134.09   24.80
   4  -9   8  142.49   24.90
  -4   9  -8  182.28   23.90
   4   9   8  157.18   24.20
   4 -10  -8   25.30   12.70
   4 -10  -8    7.70   15.40
  -4 -10   8   23.20   17.70
  -4  10   8    2.60   11.40
   4  10  -8   -1.20    2.90
   3 -10  -8  849.91   33.00
   3 -10  -8  794.12   40.40
  -3 -10   8  793.62   43.60
  -3  10   8  811.12   26.50
   3  10  -8  774.42   25.80
  -3  10   8  782.82   39.30
  -3  10   8  797.52   28.80
   2 -10  -8   81.99   16.00
   2 -10  -8   88.39   10.10
  -2 -10   8   94.89   17.60
  -2 -10   8   84.19   15.20
  -2  10   8   59.59   16.70
   2  10  -8   82.79    9.50
  -2  10   8   84.39   16.10
  -2  10   8   80.29   12.10
  -1 -10   8  415.46   27.10
   1 -10  -8  478.15   25.50
  -1 -10   8  520.35   30.40
   1 -10  -8  443.56   15.90
  -1  10   8  459.55   31.80
   1  10  -8  473.65   21.00
   0 -10   8   10.10    4.60
   0 -10   8    0.80    9.00
   0 -10  -8   -6.80    7.30
   0 -10   8   -8.20   10.30
   0  10   8   -0.10   10.80
   0  10   8   -8.20    5.50
   0  10  -8   -4.30    6.20
   1 -10   8  437.76   28.90
   1 -10   8  406.06   18.90
   1 -10   8  393.26   23.20
  -1  10  -8  393.36   22.60
   1  10   8  374.76   28.60
   1  10   8  395.96   16.90
  -1  10  -8  415.16   23.40
   2 -10   8   19.40   17.00
   2 -10   8    3.20   13.40
   2 -10   8   -0.70    7.00
   2  10   8   17.00   13.50
  -2  10  -8    3.70   10.60
   3 -10   8   35.20   18.50
   3 -10   8   53.39    6.90
   3 -10   8   68.09   19.70
  -3  10  -8   52.19   14.80
   3  10   8   59.09   18.10
   4 -10   8   19.10   17.90
   4 -10   8  -20.70   16.70
   4  10   8    8.70   12.80
  -4  10  -8    0.20   13.20
   4 -11  -8   46.10   14.90
  -4 -11   8   53.39   14.00
   4 -11  -8   52.89   19.70
  -4 -11   8   53.59   19.10
  -4  11   8   73.59   18.30
  -3 -11   8   42.80   13.50
  -3 -11   8   45.70   17.00
   3 -11  -8   57.79   11.80
   3 -11  -8   38.90   16.60
  -3  11   8   42.30   14.60
   3  11  -8   45.90    8.60
  -2 -11   8  164.48   19.60
  -2 -11   8  110.09   21.30
   2 -11  -8  125.29   18.70
   2 -11  -8  121.29   12.80
  -2  11   8  134.49   15.80
  -2  11   8  137.09   20.20
  -2  11   8  101.29   19.50
  -2  11   8  105.69   15.90
   2  11  -8  134.49   12.70
   1 -11  -8    9.00   10.30
   1 -11  -8    6.80    4.70
  -1 -11   8    5.20   11.90
  -1 -11   8    7.50   11.30
  -1  11   8   17.70   13.30
   1  11  -8    4.60    6.80
   0 -11  -8  532.45   25.20
   0 -11   8  507.05   29.70
   0 -11   8  567.44   33.00
   0  11  -8  573.54   25.90
   0  11   8  581.64   34.80
   0  11   8  453.35   23.00
   1 -11   8   90.69   10.50
   1 -11   8   66.09   12.30
   1 -11   8  122.49   20.40
  -1  11  -8   78.49   14.00
   1  11   8   66.29    8.40
   1  11   8   69.69   16.20
   2 -11   8  258.37   26.90
   2 -11   8  279.37   27.40
   2 -11   8  222.38   28.40
  -2  11  -8  224.78   28.00
   2  11   8  264.57   27.80
   3 -11   8  -15.10   15.10
   3 -11   8    8.90   16.20
  -3  11  -8    4.00   12.30
   3  11   8    4.90   13.40
   3 -12  -8  255.87   28.00
  -3 -12   8  272.77   31.90
  -3 -12   8  268.67   23.40
   3 -12  -8  258.37   21.00
  -3  12   8  295.37   28.70
   3  12  -8  228.88   15.80
  -2 -12   8    3.80   13.90
  -2 -12   8   -7.00   10.10
   2 -12  -8    4.10    7.00
   2 -12  -8   19.90   14.60
   2  12  -8   -0.70    6.20
  -2  12   8   26.40   15.50
  -2  12   8   -5.20    7.90
  -2  12   8   16.00    8.90
  -2  12   8    3.00   13.10
   1 -12  -8  165.88   10.80
  -1 -12   8  163.58   21.80
   1 -12  -8  191.28   20.60
  -1 -12   8  174.68   22.80
   1  12  -8  190.98   16.50
  -1  12   8  158.58   23.20
   0 -12   8   24.50   12.20
   0 -12  -8    0.50    8.90
   0 -12   8   10.00    5.20
   0 -12   8   -6.30   13.70
   0  12   8   27.50   14.60
   0  12  -8   11.10    8.50
   1 -12   8   86.39   13.90
   1 -12   8  103.89   20.30
   1  12   8  113.19   20.80
  -1  12  -8   97.29   15.60
   1  12   8   64.99    9.50
   2 -12   8   18.20   16.70
   2 -12   8   15.60   17.70
   2 -12   8    9.50    8.30
   2  12   8    1.40   13.60
  -2  12  -8   -4.80   11.20
   3 -12   8   12.10   18.70
   3 -12   8   39.10   18.60
  -3  12  -8   47.10   16.00
   3  12   8   35.10   15.00
  -3 -13   8  106.19   16.80
  -3 -13   8   79.39   22.90
   3 -13  -8  127.09   22.80
   3 -13  -8   97.29   15.10
   3  13  -8   67.19   10.70
  -3  13   8  164.68   23.80
  -2 -13   8   79.79   19.10
   2 -13  -8   81.79   11.10
   2 -13  -8   55.99   17.60
  -2 -13   8   59.69   15.30
  -2  13   8   66.89   16.80
  -2  13   8   79.69   14.20
   2  13  -8   95.79   12.60
  -2  13   8   74.09   19.20
   1 -13  -8   13.90   12.10
   1 -13  -8  -10.70    3.10
  -1 -13   8   -5.30   11.80
  -1 -13   8    9.60   12.60
   1 -13  -8   -3.80    4.50
  -1  13   8    8.50   13.80
   1  13  -8   -1.20    7.50
   0 -13   8  159.78   19.90
   0 -13   8  179.78   24.50
   0 -13   8  130.49   11.20
   0 -13  -8  176.38   18.50
   0  13  -8  168.28   17.90
   0  13   8  171.78   23.40
   1 -13   8   -5.70   13.90
  -1 -13  -8   -3.40    6.90
   1 -13   8   -1.40    9.90
   1  13   8    6.90   12.30
  -1  13  -8    4.70   11.10
   2 -13   8  179.98   16.60
   2 -13   8  155.18   24.00
   2 -13   8  164.08   26.30
  -2  13  -8  185.38   22.30
   2  13   8  152.28   22.80
  -2 -14   8   33.20   15.00
  -2 -14   8   94.19   21.70
   2 -14  -8   72.79   18.60
   2  14  -8   79.29   12.20
  -2  14   8   72.59   20.00
  -2  14   8   88.39   20.20
   1 -14  -8  139.49   19.20
  -1 -14   8  128.39   21.00
  -1 -14   8   93.79   20.60
   1  14  -8  125.89   15.30
  -1  14   8  100.49   20.40
   0 -14   8   39.10   17.20
   0 -14  -8   48.00   12.90
   0 -14   8   32.40   14.30
   0  14   8   37.30   16.50
   0  14  -8   35.90   12.70
   1 -14   8   16.10   10.90
   1 -14   8   17.20   15.10
  -1  14  -8   15.90   11.90
   1  14   8   34.30   17.70
   5   0  -9   92.79   18.40
  -5   0   9  108.89   17.60
   4   0  -9    6.20    9.30
   4   0  -9   -2.90    6.10
  -4   0   9   -0.10    8.80
  -3   0   9    0.20    4.80
   3   0  -9    5.90    6.90
   3   0  -9    6.40    5.60
   3   0  -9   -4.40    7.30
  -3   0   9    2.20    7.60
   2   0  -9    7.40    6.30
  -2   0   9    3.40    5.20
   2   0  -9   -2.10    5.30
  -2   0   9   -4.30    3.60
   2   0  -9    3.10    4.40
  -2   0   9   -5.20    5.70
   1   0  -9   -0.90    3.40
  -1   0   9   -2.20    3.50
  -1   0   9    0.80    4.80
  -1   0   9    0.60    1.90
  -1   0   9    5.30    5.00
  -1   0   9    4.30    5.90
   0   0   9   -0.20    3.10
   0   0  -9    3.40    3.50
   0   0   9   -0.70    4.50
   0   0   9    0.20    5.50
   0   0   9   -1.40    3.10
   1   0   9  318.27   16.90
   1   0   9  326.37   14.90
   2   0   9   -1.50    6.30
   2   0   9    4.10    5.00
   2   0   9   -1.80    5.60
   2   0   9    2.20    5.50
   3   0   9  350.26   18.60
   3   0   9  366.46   19.20
   3   0   9  350.66   23.10
   4   0   9   -0.20   11.10
   4   0   9    7.30    8.20
   4   0   9   -5.20    5.40
   5   0   9   14.00   14.90
   5   0   9   17.10   11.30
  -5  -1   9    6.90   11.50
   5  -1  -9   16.40   13.20
   5   1  -9    4.50   12.20
  -5   1   9    6.10   10.60
   4  -1  -9  305.97   27.60
  -4  -1   9  368.36   26.30
   4  -1  -9  381.56   24.60
  -4   1   9  363.16   13.50
  -4   1   9  366.26   23.70
   4   1  -9  334.07   19.90
   4   1  -9  393.66   25.10
   3  -1  -9  401.96   21.20
  -3  -1   9  342.17   22.80
   3  -1  -9  362.76   22.40
   3  -1  -9  370.76   19.60
   3   1  -9  385.96   21.70
  -3   1   9  385.66   22.70
  -3   1   9  355.76   11.70
   3   1  -9  383.96   17.60
   3   1  -9  318.57   20.30
  -2  -1   9 1653.83   47.60
   2  -1  -9 1562.04   45.70
  -2  -1   9 1638.14   45.80
   2  -1  -9 1713.23   45.90
  -2  -1   9 1657.63   50.59
   2   1  -9 1603.44   51.79
  -2   1   9 1553.34   47.00
   2   1  -9 1589.74   42.50
  -2   1   9 1604.94   44.00
  -2   1   9 1591.24   37.80
   2   1  -9 1646.94   51.89
  -2   1   9 1470.15   54.29
  -1  -1   9  265.17   13.50
  -1  -1   9  277.17   12.50
  -1  -1   9  292.57    8.60
   1  -1  -9  289.47   14.10
   1   1  -9  278.37   11.40
  -1   1   9  289.57   15.10
  -1   1   9  280.57   17.00
  -1   1   9  274.27   12.20
   1   1  -9  279.77   16.70
  -1   1   9  281.47   16.40
   0  -1   9 2582.74   68.89
   0  -1   9 2578.84   61.29
   0  -1  -9 2547.34   64.39
   0  -1   9 2569.24   64.79
   0   1   9 2554.94   68.69
   0   1   9 2495.25   60.39
   0   1   9 2650.83   68.59
   0   1   9 2630.04   62.19
   1  -1   9  102.89   11.90
   1  -1   9   98.29    8.80
   1  -1   9  121.39   10.80
   1   1   9  114.79   12.20
   1   1   9   99.49    9.10
   1   1   9  109.79    7.60
   2  -1   9 1555.94   46.70
   2  -1   9 1453.05   45.90
   2  -1   9 1553.84   44.00
   2  -1   9 1579.44   45.10
   2   1   9 1508.25   44.90
   2   1   9 1473.05   43.70
   2   1   9 1513.15   47.60
   2   1   9 1564.14   41.50
   3  -1   9  101.89   15.10
   3  -1   9   97.19   12.20
   3   1   9  103.29   15.20
   3   1   9   80.69    9.50
   3   1   9  109.89   12.00
   4  -1   9  402.66   21.30
   4  -1   9  450.15   25.10
   4  -1   9  434.56   29.40
   4   1   9  450.85   29.70
   4   1   9  468.85   24.30
   4   1   9  420.56   17.50
   5  -1   9   29.90   15.90
   5  -1   9    6.90    7.60
   5  -1   9   10.30   10.90
   5   1   9   20.00   11.30
   5   1   9   12.30    4.50
   5   1   9   19.90   15.50
  -5  -2   9  152.68   21.50
   5  -2  -9  174.88   21.50
   5   2  -9  169.48   22.10
  -5   2   9  143.89   17.30
   4  -2  -9   24.20   10.50
  -4  -2   9   28.60   12.50
   4   2  -9   12.60    6.70
   4   2  -9   28.00   12.10
  -4   2   9   25.30    9.80
  -4   2   9   28.10    5.50
  -3  -2   9  657.73   31.80
   3  -2  -9  670.23   27.70
  -3   2   9  687.63   30.00
   3   2  -9  668.03   23.30
   3   2  -9  702.33   30.60
  -3   2   9  653.93   20.00
  -2  -2   9  131.29   15.30
  -2  -2   9  121.19   12.90
   2  -2  -9  142.79   11.50
  -2  -2   9  109.39   11.10
   2  -2  -9  133.69   12.20
  -2   2   9  127.49   11.70
   2   2  -9  143.69    8.20
  -2   2   9  134.49    8.40
  -2   2   9  123.19   14.80
  -2   2   9  146.99   10.30
   2   2  -9  137.69   14.20
  -2   2   9  135.09   12.90
  -1  -2   9   16.30    2.20
  -1  -2   9   22.10    8.20
  -1  -2   9   18.70    3.40
   1  -2  -9   28.60    6.70
  -1  -2   9    9.70    4.80
  -1   2   9   20.90    8.30
  -1   2   9   21.20    6.90
  -1   2   9   13.20    3.80
   1   2  -9   10.00    6.00
   1   2  -9   19.80    3.20
  -1   2   9   12.50    5.70
   0  -2   9   -0.20    4.00
   0  -2   9    3.60    3.00
   0  -2  -9    4.30    4.20
   0  -2   9    5.80    6.10
   0   2   9    8.70    4.50
   0   2   9    6.00    6.90
   0   2   9    1.70    2.20
   1  -2   9  118.09   10.60
  -1  -2  -9  106.69   10.50
   1  -2   9  107.69   12.30
   1  -2   9  108.99    9.10
  -1   2  -9  109.69   10.10
   1   2   9  110.79    6.50
   1   2   9  105.89    9.50
   1   2   9  103.29   12.40
   2  -2   9   19.20    7.50
   2  -2   9   15.70    7.90
   2  -2   9   26.80    6.80
   2  -2   9   26.00    7.90
   2   2   9   26.10    6.80
  -2   2  -9   19.40    7.90
   2   2   9   20.00    7.20
   2   2   9   23.90    9.20
   2   2   9   26.00    5.50
   3  -2   9   57.19   12.40
   3  -2   9   76.99   12.50
   3  -2   9   56.39   11.80
  -3   2  -9   49.10   11.50
   3   2   9   54.89    7.00
   3   2   9   57.69   13.10
   4  -2   9   39.30   14.30
   4  -2   9   34.40   11.70
   4  -2   9   29.00   10.40
   4   2   9   39.10   10.10
   4   2   9   38.40   16.10
   4   2   9   33.80    4.40
   5  -2   9   84.69   12.90
   5  -2   9   92.59   16.80
   5  -2   9   73.19   19.70
   5   2   9  123.69   20.60
  -5  -3   9   42.10   18.20
   5  -3  -9   24.60   13.60
  -5   3   9   28.70    7.10
  -5   3   9   42.10   10.90
   5   3  -9   38.70   15.80
   4  -3  -9  570.34   29.50
  -4  -3   9  640.14   34.80
  -4   3   9  625.34   29.10
   4   3  -9  604.04   32.30
   4   3  -9  564.74   23.30
  -4   3   9  559.44   21.00
   3  -3  -9  542.45   25.90
  -3  -3   9  548.45   30.10
   3  -3  -9  551.64   24.50
  -3   3   9  529.85   19.10
  -3   3   9  577.34   26.90
  -3   3   9  578.14   23.40
   3   3  -9  509.15   27.10
   3   3  -9  545.65   22.10
   2  -3  -9  880.21   32.70
   2  -3  -9  907.31   28.70
  -2  -3   9  922.71   35.90
  -2  -3   9  859.51   31.60
  -2   3   9  891.61   33.30
   2   3  -9  929.91   34.60
  -2   3   9  888.71   27.70
  -2   3   9  879.21   27.50
   2   3  -9  901.81   22.30
  -2   3   9  877.91   31.90
   1  -3  -9  415.26   19.90
  -1  -3   9  432.06   20.10
  -1  -3   9  429.66   22.30
   1   3  -9  419.96   21.30
  -1   3   9  440.06   19.10
  -1   3   9  382.36   23.10
  -1   3   9  443.46   14.20
  -1   3   9  418.86   21.00
   0  -3   9 2839.42   67.09
   0  -3  -9 2798.42   73.49
   0   3   9 2842.62   69.99
   0   3  -9 2837.42   66.79
   0   3   9 2795.42   61.69
   0   3   9 2862.11   77.49
  -1  -3  -9  474.05   21.60
   1  -3   9  461.65   18.50
   1  -3   9  472.15   18.80
   1  -3   9  478.75   22.20
   1   3   9  467.95   19.60
  -1   3  -9  483.95   19.30
   1   3   9  478.65   12.80
   1   3   9  484.35   17.20
   1   3   9  445.56   23.10
   2  -3   9 1724.83   52.99
   2  -3   9 1690.23   49.90
   2  -3   9 1707.63   49.40
   2  -3   9 1729.73   51.59
  -2   3  -9 1731.33   49.90
   2   3   9 1678.03   42.90
   2   3   9 1730.43   53.99
   2   3   9 1784.42   59.49
   2   3   9 1668.63   42.50
   3  -3   9   86.89   11.70
   3  -3   9   84.69   14.10
   3  -3   9   85.09   13.10
  -3   3  -9   79.99   12.60
   3   3   9   84.99    5.80
   3   3   9   70.39    5.20
   3   3   9   84.99    9.70
   3   3   9   74.59   14.20
   4  -3   9  154.48   17.90
   4  -3   9  208.08   21.20
   4  -3   9  181.38   17.10
   4  -3   9  173.68   21.20
   4   3   9  150.78   22.30
   4   3   9  179.18   15.80
  -4   3  -9  158.48   23.00
   5  -3   9   32.00    9.90
   5  -3   9   53.49   18.10
   5  -3   9   44.10   12.50
   5  -3   9   47.50   15.70
   5   3   9   18.20   15.30
   5   3   9   47.80   12.10
  -5  -4   9    3.30   13.10
   5  -4  -9    5.40   11.80
   5   4  -9    4.40    7.20
   5   4  -9   20.40   14.40
  -5   4   9    6.30    6.90
  -5   4   9   16.50    8.70
   4  -4  -9   38.30   11.70
  -4  -4   9   52.79   16.10
   4  -4  -9   31.80   13.60
   4   4  -9   69.89   15.90
  -4   4   9   61.69   11.30
   4   4  -9   43.90    7.50
  -4   4   9   41.70    7.70
   3  -4  -9   13.30    7.60
  -3  -4   9   20.20   10.60
   3  -4  -9   30.40   11.50
  -3   4   9   13.00    6.10
  -3   4   9   11.70    6.50
   3   4  -9   14.40    4.10
  -2  -4   9    8.40    7.10
   2  -4  -9   10.00    7.90
   2  -4  -9   17.60    6.00
   2  -4  -9   14.40    8.90
  -2  -4   9    3.10    7.70
  -2   4   9    9.10    9.00
  -2   4   9    9.30    6.60
   2   4  -9   -0.20    7.30
  -2   4   9    8.40    4.40
  -2   4   9   14.80    7.40
  -2   4   9   -3.30    5.20
   1  -4  -9   21.30    4.30
  -1  -4   9    7.90    6.60
   1  -4  -9   17.60    6.70
  -1  -4   9    4.80    7.60
   1   4  -9   17.40    2.80
  -1   4   9   11.30    3.10
  -1   4   9   11.90    5.80
  -1   4   9    0.50    9.40
   1   4  -9   13.10    8.10
   0  -4   9   63.39    6.60
   0  -4  -9   71.79   10.20
   0  -4   9   56.69    6.30
   0  -4   9   90.89   12.10
   0   4   9   70.49    8.20
   0   4  -9   75.49    7.40
   0   4  -9   74.29   10.10
   0   4   9   72.39   12.60
   1  -4   9  239.08   13.40
   1  -4   9  267.67   13.70
  -1  -4  -9  255.17   16.80
   1  -4   9  252.57   19.50
  -1   4  -9  258.67   14.40
   1   4   9  247.58   11.70
   1   4   9  254.57   19.10
   2  -4   9   26.80    7.20
   2  -4   9   38.00   11.80
   2  -4   9   37.30   10.60
   2   4   9   61.49   12.80
   2   4   9   45.30    4.90
   2   4   9   43.80    5.10
  -2   4  -9   50.89    9.80
   3  -4   9  147.79   17.80
   3  -4   9  134.59   16.80
   3  -4   9  168.38   15.30
   3   4   9  167.88   20.10
  -3   4  -9  170.88   17.80
   3   4   9  155.98   11.80
   4  -4   9   41.40   13.40
   4  -4   9   31.40   12.10
   4  -4   9   44.50    9.90
  -4   4  -9   41.60   12.90
   4   4   9   31.60    9.00
   4   4   9   37.30   14.50
   5  -4   9   38.50   13.60
   5  -4   9    4.00   12.80
   5  -4   9   32.00    9.10
   5   4   9   51.99   18.10
  -5   4  -9   50.29   15.70
   5   4   9   24.10   10.80
   5  -5  -9   65.99   17.00
   5  -5  -9   84.49   18.80
  -5  -5   9  124.29   23.50
   5   5  -9   49.90   15.00
   5   5  -9   88.99   10.80
  -5   5   9   74.49   11.50
  -4  -5   9  382.56   30.30
   4  -5  -9  330.67   23.30
   4  -5  -9  367.46   26.60
   4   5  -9  322.57   15.30
  -4   5   9  315.87   27.30
   4   5  -9  333.67   14.80
  -4   5   9  320.77   17.90
   3  -5  -9  417.86   25.30
  -3  -5   9  431.86   29.00
   3  -5  -9  404.86   21.00
   3   5  -9  409.26   12.20
   3   5  -9  403.36   11.80
  -3   5   9  395.16   19.60
  -3   5   9  430.16   20.20
  -3   5   9  440.66   23.20
  -2  -5   9 2263.87   69.19
   2  -5  -9 2144.79   66.39
   2  -5  -9 2339.47   65.29
   2  -5  -9 2332.87   58.19
  -2   5   9 2394.16   70.19
  -2   5   9 2299.47   70.09
  -2   5   9 2244.58   62.79
  -2   5   9 2248.48   57.39
   1  -5  -9 2817.82   63.69
   1  -5  -9 2696.93   76.59
  -1  -5   9 2865.81   77.99
  -1  -5   9 2738.43   77.09
  -1   5   9 2780.32   72.49
   1   5  -9 2791.12   63.29
   1   5  -9 2707.43   76.19
  -1   5   9 2805.72   81.29
   0  -5   9 1875.41   48.20
   0  -5   9 1977.70   56.59
   0  -5   9 1846.72   44.70
   0  -5  -9 1890.01   56.99
   0   5  -9 1877.21   56.09
   0   5   9 1934.51   60.29
   0   5   9 1876.41   50.29
   0   5  -9 1914.81   48.30
   1  -5   9  478.75   19.80
   1  -5   9  519.15   27.20
   1  -5   9  497.65   25.00
  -1  -5  -9  494.35   24.70
   1   5   9  464.35   17.00
   1   5   9  473.25   26.10
   2  -5   9  804.92   35.20
   2  -5   9  784.52   34.40
   2  -5   9  798.62   33.70
   2   5   9  825.92   34.90
   2   5   9  779.12   21.00
  -2   5  -9  779.72   30.50
   2   5   9  765.82   20.60
   3  -5   9  494.45   29.30
   3  -5   9  512.55   29.90
   3   5   9  512.45   19.70
  -3   5  -9  499.15   27.40
   3   5   9  533.55   30.50
   4  -5   9  403.66   27.10
   4  -5   9  423.76   29.60
   4  -5   9  372.56   28.00
   4   5   9  358.66   20.30
   4   5   9  383.86   30.10
  -4   5  -9  352.06   26.90
   5  -5   9   45.70   16.50
   5  -5   9   33.80    8.50
   5  -5   9   47.50   16.30
  -5   5  -9   17.70   13.70
   5   5   9   30.10   16.50
   5   5   9   36.80   11.70
  -5  -6   9   59.49   20.20
   5  -6  -9   18.20   15.80
   5  -6  -9   39.20   14.90
  -5   6   9   30.50    9.70
   4  -6  -9   39.00   11.90
   4  -6  -9   39.30   15.40
  -4  -6   9   21.80   19.40
   4   6  -9   29.20    5.20
  -4   6   9   17.80    7.90
  -4   6   9   27.60    8.50
  -3  -6   9   28.90   12.90
   3  -6  -9   39.90   13.00
   3  -6  -9   18.20    8.00
  -3   6   9   24.50    7.00
  -3   6   9   33.40    9.40
  -3   6   9   45.20   10.20
  -2  -6   9    8.40    9.70
   2  -6  -9    9.70    9.80
   2  -6  -9    7.70    5.50
  -2   6   9   -2.30    9.00
  -2   6   9   -1.80    7.60
  -2   6   9   12.80    4.80
   1  -6  -9  184.98   16.50
  -1  -6   9  208.48   18.90
  -1  -6   9  186.58   18.80
   1  -6  -9  192.78   16.30
   1  -6  -9  192.28    8.20
  -1   6   9  190.38   13.80
   1   6  -9  213.78   17.10
   1   6  -9  204.08    9.50
  -1   6   9  195.18   20.40
   0  -6   9   62.59    5.00
   0  -6  -9   71.09   11.20
   0  -6   9   50.09    4.50
   0  -6   9   67.19   11.50
   0   6   9   63.69    8.10
   0   6   9   55.19   12.90
   0   6  -9   72.69   11.50
   0   6  -9   66.59    7.80
   1  -6   9    7.00    7.00
   1  -6   9    4.60    4.50
   1  -6   9   19.00   10.00
   1   6   9   16.00    4.50
   1   6   9    1.50    8.70
  -1   6  -9   15.50    6.90
   2  -6   9   97.19   15.90
   2  -6   9  122.89   18.40
   2   6   9  109.59    4.90
  -2   6  -9   92.69   12.40
   2   6   9  136.89   18.40
   3  -6   9  200.68   15.20
   3  -6   9  222.28   23.40
   3  -6   9  212.98   23.00
  -3   6  -9  175.28   18.80
   3   6   9  212.58   12.40
   3   6   9  221.28   23.40
   4  -6   9   21.30   14.90
   4  -6   9   29.80    8.00
   4  -6   9   43.00   16.00
  -4   6  -9   41.20   14.40
   4   6   9   49.50    9.40
   4   6   9   33.80   15.70
   5  -7  -9   84.39   20.20
  -5  -7   9   95.89   22.30
   5  -7  -9   86.19   18.30
  -5   7   9  101.69   14.30
   4  -7  -9  144.29   21.00
   4  -7  -9  139.69   17.60
  -4  -7   9   95.89   20.10
  -4   7   9  125.49   15.00
  -4   7   9  129.39   12.70
   3  -7  -9  504.15   29.80
   3  -7  -9  493.75   23.90
  -3  -7   9  447.96   32.10
  -3   7   9  480.95   26.00
  -3   7   9  496.65   24.50
   2  -7  -9  911.61   29.00
  -2  -7   9  972.70   41.70
   2  -7  -9  933.81   36.80
   2   7  -9  957.40   24.00
  -2   7   9  891.31   42.00
  -2   7   9  875.71   36.70
  -2   7   9 1024.50   36.40
   1  -7  -9  528.85   24.80
   1  -7  -9  483.05   14.10
  -1  -7   9  522.25   28.30
  -1   7   9  471.95   22.00
  -1   7   9  531.95   31.30
   1   7  -9  490.75   17.30
   0  -7   9  523.65   15.00
   0  -7   9  521.55   26.60
   0  -7   9  486.55   14.20
   0   7   9  572.44   30.80
   0   7   9  512.55   20.70
   0   7  -9  472.25   24.50
   0   7  -9  532.95   20.50
   1  -7   9  885.71   33.30
   1  -7   9  829.02   29.80
   1  -7   9  879.71   36.90
   1  -7   9  796.42   26.50
   1   7   9  872.61   38.60
  -1   7  -9  857.51   30.60
   1   7   9  828.02   25.60
   2  -7   9  155.08   19.70
   2  -7   9  171.98   17.90
   2  -7   9  175.38   23.40
   2   7   9  156.88   19.60
  -2   7  -9  144.99   15.90
   3  -7   9  172.98   22.30
   3  -7   9  215.08   25.00
   3  -7   9  201.18   15.40
   3   7   9  221.38   24.20
  -3   7  -9  180.98   20.10
   4  -7   9   99.59   20.70
   4  -7   9   69.89   18.50
   4  -7   9   88.19   10.20
  -4   7  -9  123.99   19.00
   4   7   9   99.29   20.90
   4   7   9   96.59   11.20
   4  -8  -9   72.19   17.70
   4  -8  -9  110.69   15.90
  -4  -8   9   80.99   20.20
  -4   8   9   65.29   13.90
   3  -8  -9   24.30   13.40
  -3  -8   9   25.10   14.40
   3  -8  -9   45.80   10.30
   3   8  -9   38.40    3.40
  -3   8   9    7.90    9.50
  -3   8   9   53.69   10.30
   3   8  -9   33.10    3.20
  -2  -8   9  325.37   26.00
   2  -8  -9  346.17   16.20
   2  -8  -9  319.77   22.80
  -2   8   9  311.77   20.90
  -2   8   9  359.76   28.90
   2   8  -9  328.07   12.70
  -2   8   9  304.47   23.50
  -1  -8   9    6.30    9.10
   1  -8  -9    4.40    8.40
   1  -8  -9    2.00    2.60
  -1   8   9    5.40   10.60
   1   8  -9   -4.30    4.30
   0  -8  -9  152.08   14.20
   0  -8   9  122.89    6.40
   0  -8   9  115.99   16.20
   0  -8   9  144.89    7.30
   0  -8   9  100.49   14.00
   0   8   9  136.19   11.70
   0   8  -9  152.48   25.30
   0   8   9  146.49   19.10
   0   8  -9  160.58   15.10
   1  -8   9   42.50    6.60
   1  -8   9   56.69   13.70
   1  -8   9   53.49   11.00
   1   8   9   36.90    6.20
   1   8   9   27.20   11.90
  -1   8  -9   45.50   10.00
   2  -8   9   -9.30    5.80
   2  -8   9    7.00    7.20
   2  -8   9   -9.70   11.40
   2   8   9    6.80   10.40
  -2   8  -9   -5.50    8.60
   3  -8   9   67.99   17.60
   3  -8   9   55.29    9.30
   3  -8   9   56.29   17.50
   3   8   9   51.99   15.50
  -3   8  -9   72.99   22.50
   4  -8   9   64.49    6.80
   4  -8   9   82.09   19.90
   4  -8   9   85.19   21.80
   4   8   9   90.89   20.30
  -4   8  -9   93.49   19.10
  -4  -9   9   11.10   16.10
   4  -9  -9   26.90   15.50
   4  -9  -9   15.40   11.50
  -4   9   9   32.30   14.70
   3  -9  -9  347.27   42.60
   3  -9  -9  439.56   22.70
  -3  -9   9  416.76   32.40
   3   9  -9  353.16   13.00
  -3   9   9  404.46   28.20
   3   9  -9  402.36   13.60
  -3   9   9  377.16   21.50
   2  -9  -9  216.48   13.40
   2  -9  -9  185.28   20.40
  -2  -9   9  224.58   24.60
  -2   9   9  193.28   18.00
  -2   9   9  236.48   25.90
   2   9  -9  207.58   11.30
  -2   9   9  164.48   19.20
  -1  -9   9  533.55   29.10
   1  -9  -9  492.95   26.20
  -1  -9   9  548.35   30.70
   1  -9  -9  499.05   14.40
  -1   9   9  531.35   33.20
   1   9  -9  515.45   20.50
   0  -9   9  318.47   23.30
   0  -9  -9  300.17   18.40
   0  -9   9  300.07   11.20
   0  -9   9  356.96   25.30
   0   9   9  322.17   25.90
   0   9  -9  299.77   17.40
   1  -9   9 1155.28   35.80
   1  -9   9 1300.07   48.50
   1  -9   9 1201.28   42.50
  -1   9  -9 1168.68   42.30
   1   9   9 1184.78   34.40
  -1   9  -9 1159.58   40.40
   1   9   9 1237.28   49.50
   2  -9   9  109.69   13.30
   2  -9   9   89.09   12.30
   2  -9   9   88.89   17.90
   2   9   9   72.59   16.30
  -2   9  -9  117.09   15.50
   3  -9   9  272.67   28.80
   3  -9   9  242.18   29.00
   3  -9   9  297.67   16.50
   3   9   9  313.37   29.30
  -3   9  -9  277.87   25.50
   4  -9   9    1.70   17.30
   4  -9   9  -12.50   15.30
   4   9   9   22.80   14.90
  -4   9  -9   11.20   14.30
   4 -10  -9   92.79   20.40
   4 -10  -9   84.69   15.10
  -4 -10   9   81.69   21.00
  -4  10   9   80.59   17.60
  -3 -10   9   18.30   15.60
   3 -10  -9   29.70   15.90
   3 -10  -9   38.20   10.20
   3  10  -9   27.10    5.50
  -3  10   9   31.50   13.80
  -3  10   9   16.30    8.20
   2 -10  -9    1.30    6.00
   2 -10  -9   20.70   12.80
  -2 -10   9    8.20   12.90
  -2  10   9    1.80   10.80
  -2  10   9    5.60    8.90
   2  10  -9    4.20    5.30
  -2  10   9   -0.90   12.20
  -1 -10   9    4.60   11.50
  -1 -10   9    4.00   10.60
   1 -10  -9    3.50   10.20
   1 -10  -9    9.70    3.10
  -1  10   9   -2.90   12.40
   1  10  -9    5.90    6.30
   0 -10   9   48.80   14.60
   0 -10   9   39.70    5.00
   0 -10  -9   45.80   10.90
   0 -10   9   29.20   11.20
   0  10   9   22.30    7.30
   0  10   9   40.00   13.60
   0  10  -9   41.00    9.30
   1 -10   9   16.30    5.70
   1 -10   9   -0.90    8.40
   1 -10   9    2.00   12.10
  -1  10  -9   -3.10    8.20
   1  10   9  -11.90   11.40
   1  10   9   -6.00    4.30
   2 -10   9   62.89   19.20
   2 -10   9   69.99   11.50
   2 -10   9   51.39   16.60
  -2  10  -9   74.49   14.60
   2  10   9   43.10   14.60
   3 -10   9   -8.90    5.50
   3 -10   9    4.00   16.60
   3 -10   9    8.70   15.70
  -3  10  -9    8.40   13.00
   3  10   9    3.90   13.10
   3 -11  -9   76.39   12.60
   3 -11  -9   75.29   18.90
  -3 -11   9   67.29   19.70
  -3 -11   9  112.89   17.80
  -3  11   9   52.59   16.90
   2 -11  -9   63.99   16.80
   2 -11  -9   37.70    8.20
  -2 -11   9   43.60   17.20
  -2 -11   9   50.09   15.10
  -2  11   9   57.79   10.40
   2  11  -9   46.10    8.40
  -2  11   9   57.59   16.40
  -2  11   9   22.20   15.50
  -2  11   9   41.40   11.70
   1 -11  -9  648.44   18.50
  -1 -11   9  706.63   37.60
  -1 -11   9  726.83   36.20
   1 -11  -9  727.83   32.80
   1  11  -9  723.73   27.60
   0 -11  -9   -2.50    8.60
   0 -11   9    4.40   13.40
   0 -11   9   -1.10    9.90
   0 -11   9    4.40    3.70
   0  11  -9   -3.90    7.90
   0  11   9   -1.00   12.10
   1 -11   9  507.05   22.00
   1 -11   9  510.35   35.10
   1 -11   9  578.04   28.70
   1  11   9  547.85   35.60
   1  11   9  463.35   20.20
  -1  11  -9  551.54   27.90
   2 -11   9   -4.70   14.90
   2 -11   9    3.40    8.00
   2 -11   9   22.30   15.70
  -2  11  -9   -4.70    9.80
   2  11   9    0.70   12.70
   3 -11   9  202.58   12.50
   3 -11   9  141.29   25.50
   3 -11   9  282.47   31.50
   3  11   9  278.67   29.80
  -3  11  -9  222.98   24.20
   3 -12  -9    9.30    9.70
  -3 -12   9   10.90   15.70
   3 -12  -9   12.40   15.90
  -3 -12   9    6.90   12.30
  -3  12   9   -5.50   13.50
   2 -12  -9   12.90   13.40
  -2 -12   9   30.00   15.80
   2  12  -9    7.60    6.90
  -2  12   9   11.40   10.10
  -2  12   9   -0.10   15.30
  -2  12   9   30.30   14.90
   1 -12  -9   17.80   11.60
  -1 -12   9    7.70   14.20
  -1 -12   9    6.90   17.20
  -1  12   9    6.40   14.40
   1  12  -9   22.10    8.50
   0 -12   9   10.20   12.20
   0 -12   9    4.80   13.70
   0 -12   9   -2.70    3.70
   0 -12  -9    8.00    9.60
   0  12  -9   -4.50    7.60
   0  12   9    6.00   14.20
   1 -12   9   15.10   10.80
   1 -12   9   23.10   15.20
   1  12   9   35.30   16.10
   1  12   9   16.70    6.90
  -1  12  -9    8.60    9.70
   2 -12   9   76.79   22.60
   2 -12   9   41.40   17.80
   2 -12   9   66.59   11.80
  -2  12  -9   44.10   14.00
   2  12   9   75.09   18.80
   2 -13  -9  -10.80    4.40
  -2 -13   9   16.80   15.90
   2 -13  -9   -8.40   12.90
  -2 -13   9   -7.50   12.60
  -2  13   9    5.60   13.80
   2  13  -9  -13.80    6.10
  -2  13   9   -6.20    8.90
  -2  13   9   -4.50   13.30
  -1 -13   9  393.26   31.20
   1 -13  -9  433.06   29.00
  -1 -13   9  446.06   33.50
   1  13  -9  411.06   22.90
  -1  13   9  381.56   33.20
   0 -13   9   34.70   17.50
   0 -13  -9    3.20    9.90
   0 -13   9   11.80    4.90
   0 -13   9   34.30   13.70
   0  13  -9    6.90   10.20
   0  13   9   -3.30   14.20
   1 -13   9  433.76   33.60
   1 -13   9  372.86   26.30
  -1  13  -9  328.07   25.20
   1  13   9  348.97   31.60
   2 -13   9   -3.80    8.20
   2 -13   9    9.10   16.90
   2 -13   9   25.00   19.80
  -2  13  -9   -3.80   12.20
   2  13   9   21.80   14.90
   1 -14  -9   11.90   13.10
  -1 -14   9    8.40   13.20
  -1 -14   9    8.00   15.70
   1  14  -9    4.40    9.10
  -1  14   9    6.30   14.20
   0 -14  -9   20.80   11.10
   0 -14   9   26.50   14.00
   0 -14   9   13.90   16.10
   0  14  -9    6.30    9.80
   0  14   9   20.50   16.00
   1 -14   9  -10.10    9.80
   1 -14   9    9.00   16.30
   1  14   9   -4.60   13.60
  -1  14  -9    0.70   11.50
  -5   0  10    4.60   11.30
   5   0 -10  -12.40   10.40
   4   0 -10  121.09   15.90
   4   0 -10  133.69   14.50
  -4   0  10  169.78   20.30
   3   0 -10    4.90    8.50
   3   0 -10    1.00    5.50
  -3   0  10    5.90    8.80
  -2   0  10  604.24   27.70
  -2   0  10  579.24   22.30
  -2   0  10  541.85   24.40
   2   0 -10  588.14   21.80
   2   0 -10  595.94   26.80
  -1   0  10   -0.70    2.10
   1   0 -10    0.20    3.70
  -1   0  10   -5.00    4.30
  -1   0  10    7.00    5.50
  -1   0  10    0.80    3.60
  -1   0  10    1.40    6.50
   0   0  10 2254.47   54.79
   0   0  10 2313.37   56.59
   0   0 -10 2200.98   56.49
   0   0  10 2197.88   62.59
   0   0  10 2199.48   60.59
   1   0  10    0.90    5.50
   1   0  10   -0.70    4.10
   1   0  10   -2.30    6.70
   2   0  10 1895.71   54.89
   2   0  10 1943.21   51.49
   2   0  10 1878.81   54.29
   2   0  10 1932.01   56.89
   3   0  10   -0.80    9.80
   3   0  10    8.70    6.90
   3   0  10    1.60    6.90
   4   0  10  342.87   35.80
   4   0  10  349.37   22.10
   5   0  10    3.60   10.60
   5   0  10   12.00   15.30
  -5  -1  10  192.28   22.70
   5  -1 -10  173.28   20.60
   5   1 -10  181.18   22.20
  -5   1  10  199.38   21.90
  -4  -1  10    3.90   10.40
   4  -1 -10    3.20    9.60
   4   1 -10    5.60    6.90
  -4   1  10    2.30    9.90
   4   1 -10    6.40   10.80
  -3  -1  10  504.45   28.00
   3  -1 -10  493.45   23.10
   3  -1 -10  539.55   25.20
   3   1 -10  509.25   21.00
   3   1 -10  538.75   26.60
  -3   1  10  488.45   13.60
  -3   1  10  479.35   22.50
  -3   1  10  517.95   27.70
   2  -1 -10    2.50    4.60
   2  -1 -10   -1.30    5.80
  -2  -1  10    7.40    6.10
  -2  -1  10   10.60    8.00
  -2  -1  10    9.00    5.20
  -2   1  10    5.70    5.40
   2   1 -10   -1.90    6.60
  -2   1  10    2.80    4.40
  -2   1  10    5.20    2.50
  -2   1  10    2.90    5.60
  -2   1  10    5.10    7.10
   1  -1 -10  967.70   31.00
  -1  -1  10 1048.40   30.00
  -1  -1  10 1047.80   24.70
  -1  -1  10  997.30   31.10
  -1  -1  10 1007.20   36.10
  -1   1  10  935.81   34.50
   1   1 -10 1023.90   28.00
  -1   1  10  997.50   35.60
  -1   1  10 1023.70   29.00
  -1   1  10  995.70   33.20
   0  -1  10    9.00    7.00
   0  -1  10   19.40    4.10
   0  -1 -10   16.10    5.30
   0  -1  10   25.90    6.80
   0   1  10   17.60    4.20
   0   1  10   20.40    7.90
   0   1  10   19.00    4.10
   0   1  10   11.50    7.10
   1  -1  10  881.21   28.20
   1  -1  10  845.22   32.80
   1  -1  10  912.91   30.70
   1   1  10  910.91   29.10
   1   1  10  895.81   43.80
   1   1  10  866.91   25.50
   2  -1  10   14.90    7.50
   2  -1  10   15.60    8.60
   2  -1  10   -4.40    5.50
   2   1  10   13.40    7.10
   2   1  10   10.00    9.70
   2   1  10   -0.40    4.80
   2   1  10   20.20    9.50
   3  -1  10  183.08   19.70
   3  -1  10  155.98   16.60
   3  -1  10  157.18   15.60
   3   1  10  190.58   20.60
   3   1  10  182.28   14.30
   3   1  10  167.88   13.40
   4  -1  10    5.30    9.30
   4  -1  10    8.60    8.60
   4   1  10    8.70    8.80
   4   1  10    2.00    5.10
   4   1  10   -0.80   12.00
   5  -1  10    1.80    7.30
   5  -1  10   12.50   14.50
   5  -1  10   18.90   12.10
   5   1  10    3.80    4.20
   5   1  10   19.30   11.20
   5   1  10   -0.30   14.40
  -5  -2  10   18.00   15.60
   5  -2 -10    7.90   12.10
  -5   2  10   -1.90   10.00
   5   2 -10    0.70   11.90
   4  -2 -10  161.28   18.40
  -4  -2  10  142.09   18.60
  -4   2  10  141.19   17.90
   4   2 -10  161.58   19.20
   4   2 -10  142.39   13.80
  -4   2  10  136.09    9.10
  -3  -2  10   -2.90    8.40
   3  -2 -10   15.20    7.40
   3  -2 -10    1.70    7.60
   3   2 -10   -8.20    3.70
  -3   2  10    2.40    5.20
  -3   2  10   -1.20    2.80
  -3   2  10   -1.70    7.80
   3   2 -10    1.50    8.70
   2  -2 -10 1327.57   38.40
  -2  -2  10 1177.38   39.60
   2  -2 -10 1264.17   40.40
  -2  -2  10 1150.98   40.40
  -2  -2  10 1297.87   45.00
  -2   2  10 1298.17   43.10
  -2   2  10 1296.67   41.10
  -2   2  10 1259.57   41.40
  -2   2  10 1289.57   33.50
   2   2 -10 1234.68   43.00
  -2   2  10 1313.47   36.70
   2   2 -10 1229.88   32.70
   1  -2 -10   31.10    6.40
  -1  -2  10   42.00    4.90
  -1  -2  10   40.40    7.30
  -1  -2  10   51.59   10.60
  -1  -2  10   38.90    3.40
   1   2 -10   38.50    4.40
  -1   2  10   36.20    9.40
   1   2 -10   37.60    9.00
  -1   2  10   40.00    7.90
  -1   2  10   36.00    6.00
  -1   2  10   31.40    8.60
   0  -2  10 2775.62   73.69
   0  -2  10 2757.42   64.49
   0  -2  10 2628.14   67.19
   0  -2 -10 2627.34   69.49
   0   2  10 2851.81   75.19
   0   2  10 2706.33   73.79
   0   2  10 2645.14   61.99
   0   2  10 2659.73   68.49
   1  -2  10   32.70    6.20
   1  -2  10   30.60    8.60
   1  -2  10   37.50    7.80
  -1  -2 -10   34.00    7.20
   1   2  10   29.40    8.80
   1   2  10   35.60    6.80
   1   2  10   39.30    4.80
   2  -2  10 1542.05   48.00
   2  -2  10 1597.34   47.30
   2  -2  10 1505.15   47.00
   2  -2  10 1616.34   49.80
   2  -2  10 1625.64   50.49
   2   2  10 1598.24   51.19
   2   2  10 1553.24   41.30
   3  -2  10   72.89   12.80
   3  -2  10   83.49   13.10
   3  -2  10   83.39   12.30
   3  -2  10   78.79   14.20
   3   2  10  102.49   16.20
   3   2  10   71.19   10.00
   3   2  10   79.59    8.40
   4  -2  10  671.53   30.90
   4  -2  10  750.82   33.60
   4  -2  10  696.43   31.90
   4   2  10  761.42   30.30
   4   2  10  703.03   37.70
   4   2  10  642.74   19.70
   5  -2  10   38.60   17.60
   5  -2  10   11.10   10.40
   5  -2  10    0.70    8.10
   5  -2  10   14.20   11.30
   5   2  10   16.90   15.50
   5   2  10   23.90   12.50
  -5  -3  10  274.47   29.10
   5  -3 -10  235.38   25.00
  -5   3  10  224.28   13.90
  -5   3  10  239.08   21.40
   5   3 -10  282.57   28.80
  -4  -3  10   61.49   15.50
   4  -3 -10   63.49   12.70
  -4   3  10   64.49    7.80
   4   3 -10   72.99   15.60
   4   3 -10   81.39    9.90
  -4   3  10   77.69   13.60
   3  -3 -10  451.35   24.50
   3  -3 -10  463.85   22.80
  -3  -3  10  417.66   27.40
   3   3 -10  422.56   16.30
  -3   3  10  419.46   16.30
  -3   3  10  476.65   21.30
  -3   3  10  447.06   25.20
   2  -3 -10  276.37   18.00
   2  -3 -10  310.77   15.80
  -2  -3  10  274.27   17.10
  -2  -3  10  300.57   22.00
  -2   3  10  281.77   14.00
  -2   3  10  302.17   19.60
   2   3 -10  296.87    8.90
  -2   3  10  303.47   14.80
  -2   3  10  296.97   20.00
   1  -3 -10  808.22   29.40
  -1  -3  10  785.52   32.20
  -1  -3  10  712.93   28.30
   1   3 -10  810.12   31.70
  -1   3  10  791.22   22.00
  -1   3  10  785.02   30.90
  -1   3  10  722.83   33.30
   0  -3  10  613.14   19.60
   0  -3  10  640.84   27.40
   0  -3 -10  623.94   25.20
   0  -3  10  611.64   20.80
   0   3  10  598.34   22.50
   0   3  10  612.84   15.30
   1  -3  10  930.41   34.10
   1  -3  10  908.61   29.60
   1  -3  10  925.21   29.30
  -1  -3 -10  888.11   32.60
   1   3  10  912.01   22.20
   1   3  10  915.21   28.00
  -1   3 -10  896.11   29.50
   1   3  10  907.71   35.20
   2  -3  10   10.80    7.80
   2  -3  10    4.10    7.20
   2  -3  10    5.60    7.90
   2  -3  10    3.80    8.80
   2   3  10    8.90    9.40
  -2   3 -10    2.30    7.60
   2   3  10    3.70    3.70
   2   3  10    3.90    3.80
   3  -3  10   48.90   11.40
   3  -3  10   44.40   12.00
   3  -3  10   52.09   10.30
   3  -3  10   53.09   12.70
   3   3  10   49.10    5.00
  -3   3 -10   44.50   11.50
   3   3  10   58.89    6.30
   3   3  10   63.29    8.90
   3   3  10   44.80   13.30
   4  -3  10   55.69   13.20
   4  -3  10   56.89   23.40
   4  -3  10   39.00   12.50
   4  -3  10   28.40   10.40
   4   3  10   47.40   15.50
   4   3  10   45.70   10.00
   5  -3  10   19.40   13.10
   5  -3  10    5.00   10.60
   5  -3  10   10.70   12.70
   5  -3  10    5.40    9.00
   5   3  10   26.50   12.40
   5   3  10   32.40   15.90
  -5  -4  10   45.30   17.10
   5  -4 -10   20.80   12.90
  -5   4  10   22.60   10.40
   5   4 -10   -6.80   12.40
  -5   4  10   21.40    7.60
   5   4 -10   19.20    7.80
   4  -4 -10   40.60   11.90
  -4  -4  10   24.20   13.20
   4   4 -10   44.70    7.20
   4   4 -10   42.50   14.40
  -4   4  10   48.00    8.60
  -4   4  10   45.70   12.10
  -3  -4  10   87.69   16.60
   3  -4 -10   99.29   12.50
  -3   4  10   89.69   13.60
  -3   4  10  104.89   11.50
   3   4 -10   99.89    6.00
  -3   4  10  107.89   10.40
   3   4 -10   96.59    6.30
   2  -4 -10   40.70    9.00
  -2  -4  10   22.50    9.40
   2  -4 -10   31.90    6.90
  -2   4  10   24.20    7.70
  -2   4  10   55.69   12.10
  -2   4  10   37.70    6.20
  -2   4  10   50.09   10.90
   1  -4 -10   -3.20    6.30
  -1  -4  10    6.70    6.30
  -1  -4  10    3.00    7.00
  -1   4  10    7.00    9.80
   1   4 -10   -9.60    5.90
  -1   4  10    8.10    3.10
  -1   4  10   10.40    7.40
  -1   4  10    2.10    5.70
   0  -4  10  594.04   19.40
   0  -4  10  577.94   18.70
   0  -4  10  539.55   26.40
   0   4 -10  562.34   19.30
   0   4  10  560.94   21.70
   0   4  10  629.24   29.90
   1  -4  10  231.08   17.30
   1  -4  10  218.18   13.30
   1  -4  10  227.38   13.80
  -1  -4 -10  242.78   16.60
   1   4  10  237.28   12.10
   1   4  10  264.37   19.90
   2  -4  10  731.93   31.30
   2  -4  10  683.13   28.70
   2  -4  10  737.73   32.80
   2  -4  10  693.33   27.70
   2   4  10  639.04   19.30
  -2   4 -10  694.13   28.00
   2   4  10  669.23   32.20
   2   4  10  667.93   20.60
   3  -4  10  354.06   23.80
   3  -4  10  293.67   24.20
   3  -4  10  319.17   23.50
   3  -4  10  340.37   20.90
   3   4  10  330.17   25.70
  -3   4 -10  323.77   22.90
   3   4  10  338.47   16.00
   4  -4  10  365.16   27.00
   4  -4  10  364.86   28.70
   4  -4  10  361.16   22.40
   4   4  10  338.27   19.70
   4   4  10  352.66   30.20
  -4   4 -10  346.87   26.50
   5  -5 -10   40.40   14.00
  -5  -5  10   17.50   16.10
   5   5 -10    1.60    3.80
  -5   5  10    7.00    6.90
  -5   5  10   40.90    8.80
   4  -5 -10  123.89   16.40
   4  -5 -10  117.09   18.70
  -4  -5  10  126.69   22.00
  -4   5  10  139.49   13.00
  -4   5  10  152.38   16.90
   4   5 -10  138.29    9.00
  -3  -5  10  374.26   27.70
   3  -5 -10  313.17   19.30
   3  -5 -10  380.66   24.90
  -3   5  10  369.96   18.90
  -3   5  10  325.87   17.90
  -3   5  10  351.06   22.70
  -2  -5  10  981.40   40.60
   2  -5 -10 1005.70   30.00
  -2   5  10  923.71   34.10
  -2   5  10  960.70   36.50
  -2   5  10  905.81   40.20
  -2   5  10  953.40   28.80
  -1  -5  10  571.14   29.20
  -1  -5  10  576.44   27.80
   1  -5 -10  577.24   27.10
  -1   5  10  608.24   27.70
  -1   5  10  588.04   32.30
   1   5 -10  576.84   16.60
  -1   5  10  608.74   24.50
   0  -5  10    6.90    4.00
   0  -5 -10   19.50    7.40
   0  -5  10    7.60    7.60
   0  -5  10    6.30    3.60
   0   5  10   11.80    5.40
   0   5 -10    9.30    5.00
   0   5 -10   -2.10    5.70
   0   5  10    6.60    9.20
   1  -5  10  137.29   11.20
   1  -5  10  148.39   11.60
   1  -5  10  162.38   17.20
   1  -5  10  161.48   15.60
   1   5  10  129.49    9.60
  -1   5 -10  150.48   12.80
   1   5  10  138.89   16.80
   2  -5  10  101.89   16.00
   2  -5  10  105.49   13.20
   2  -5  10   86.49   15.10
   2   5  10  103.89    6.80
   2   5  10   88.39   14.90
   2   5  10  102.19    5.30
  -2   5 -10  103.89   13.40
   3  -5  10   46.80    9.80
   3  -5  10   38.60   13.00
   3  -5  10   42.40   14.40
   3   5  10   21.00   13.00
  -3   5 -10   36.10   12.30
   3   5  10   49.40    7.30
   4  -5  10    1.10    7.70
   4  -5  10    6.90   12.20
   4  -5  10   14.10   12.70
  -4   5 -10    0.20   12.00
   4   5  10    5.00   12.40
   4   5  10    8.60    7.50
   5  -6 -10   10.10   13.50
  -5  -6  10    4.30   14.10
   5   6 -10    2.10    3.40
  -5   6  10   -5.80    7.40
  -5   6  10    1.10    4.40
  -4  -6  10  125.59   20.60
   4  -6 -10  109.09   15.70
   4  -6 -10  129.99   20.00
  -4   6  10  121.39   13.20
  -4   6  10  153.58   16.30
  -3  -6  10  116.59   18.80
   3  -6 -10  118.19   13.20
   3  -6 -10  134.79   18.40
  -3   6  10  149.59   15.10
  -3   6  10  149.59   16.60
  -3   6  10  118.79   12.10
   2  -6 -10  357.76   23.60
   2  -6 -10  358.66   16.10
  -2  -6  10  341.97   25.10
  -2   6  10  360.16   15.30
  -2   6  10  310.37   21.00
  -2   6  10  309.17   25.30
  -2   6  10  341.77   21.90
  -1  -6  10   26.50   10.00
   1   6 -10   41.80    5.20
  -1   6  10   26.70   12.10
  -1   6  10   34.20    7.80
   0  -6  10  129.89    5.90
   0  -6  10  130.19    6.50
   0  -6  10  148.19   16.70
   0   6  10  117.19   16.40
   0   6 -10  125.29   14.50
   0   6  10  117.29   10.60
   0   6 -10  136.49   10.50
   1  -6  10  689.73   26.30
   1  -6  10  744.33   24.80
   1  -6  10  682.83   30.00
   1  -6  10  753.22   33.70
   1   6  10  726.73   34.80
  -1   6 -10  734.53   27.20
   1   6  10  734.73   23.60
   2  -6  10  665.23   28.40
   2  -6  10  649.64   33.60
   2  -6  10  621.54   34.40
  -2   6 -10  650.63   28.60
   2   6  10  609.84   17.60
   2   6  10  665.03   34.30
   3  -6  10  380.16   29.00
   3  -6  10  290.97   26.10
   3  -6  10  326.87   19.80
  -3   6 -10  319.37   23.80
   3   6  10  323.87   14.00
   3   6  10  308.87   27.20
   4  -6  10  171.08   23.10
   4  -6  10  186.18   16.10
   4  -6  10  155.98   27.70
   4   6  10  217.38   26.90
   4   6  10  162.98   13.80
  -4   6 -10  260.17   25.30
  -5  -7  10  -10.60   15.50
   5  -7 -10  -11.90   11.30
   5  -7 -10   -5.30   15.10
  -5   7  10    0.20    7.90
   4  -7 -10  171.68   22.80
   4  -7 -10  216.28   20.60
  -4  -7  10  199.98   26.60
  -4   7  10  199.08   18.30
  -3  -7  10  130.29   20.20
   3  -7 -10  153.78   19.70
   3  -7 -10  149.39   15.20
  -3   7  10  135.39   12.80
  -3   7  10  136.79   16.50
  -3   7  10  131.89   15.60
   2  -7 -10  344.37   23.00
  -2  -7  10  317.27   26.20
   2  -7 -10  338.07   15.50
  -2   7  10  356.86   22.30
  -2   7  10  289.87   26.70
  -2   7  10  267.67   21.50
   1  -7 -10  575.34   27.10
  -1  -7  10  593.54   31.60
   1   7 -10  597.64   19.40
  -1   7  10  664.23   35.70
   0  -7  10  931.61   37.30
   0   7  10  896.91   30.60
   0   7  10  911.01   41.00
   0   7 -10  913.31   29.30
   1  -7  10   39.20    8.50
   1  -7  10   50.29   13.30
   1  -7  10   53.99   11.80
   1  -7  10   46.80    7.30
   1   7  10   45.60   13.30
   1   7  10   37.90    6.30
  -1   7 -10   53.99    9.80
   2  -7  10  116.99   13.90
   2  -7  10  140.79   22.00
   2  -7  10  126.59   18.70
  -2   7 -10  150.68   16.00
   2   7  10  117.69    5.20
   2   7  10  119.39   18.20
   3  -7  10   11.40   21.60
   3  -7  10   29.70   15.00
   3  -7  10   29.50    9.40
   3   7  10   33.80   15.30
  -3   7 -10   16.20   11.80
   4  -7  10   -0.40   15.30
   4  -7  10   -6.30    6.00
   4  -7  10  -10.90   14.10
  -4   7 -10   -3.50   12.10
   4   7  10    2.80    6.20
   4   7  10  -10.80   13.20
  -4  -8  10   36.00   18.20
   4  -8 -10   34.40   11.90
   4  -8 -10   36.50   17.10
  -4   8  10    8.90    5.80
  -4   8  10   25.80   10.90
   3  -8 -10  101.29   13.20
   3  -8 -10   99.79   30.70
  -3  -8  10  143.09   34.60
  -3   8  10   90.29   15.20
  -3   8  10   80.79   13.00
   2  -8 -10    7.90    5.60
  -2  -8  10    0.60   11.40
   2  -8 -10    2.10   10.60
  -2   8  10    4.70    8.10
  -2   8  10   -3.50   11.30
   2   8 -10    6.10    3.00
  -2   8  10   -5.20    8.70
   1  -8 -10 1623.14   51.79
  -1  -8  10 1643.24   57.49
   1   8 -10 1635.34   43.40
  -1   8  10 1724.23   62.19
   0  -8  10    3.00    8.70
   0  -8  10   23.10   12.30
   0   8  10   28.20   13.80
   0   8 -10   14.20    6.50
   1  -8  10  406.36   17.20
   1  -8  10  414.46   24.60
   1  -8  10  405.86   27.50
   1   8  10  405.06   16.80
   1   8  10  397.66   28.30
  -1   8 -10  428.46   22.10
   2  -8  10   80.19   19.10
   2  -8  10  134.69   14.80
   2  -8  10  145.09   13.90
   2  -8  10  138.99   20.60
  -2   8 -10  181.78   18.50
   2   8  10  164.58   21.90
   3  -8  10  466.95   34.20
   3  -8  10  453.65   22.50
   3  -8  10  410.56   33.90
   3   8  10  401.76   32.80
  -3   8 -10  480.75   29.60
   4  -8  10   65.39   20.10
   4  -8  10   55.99    7.90
   4  -8  10   83.29   21.30
  -4   8 -10   52.79   15.80
   4   8  10   63.89   18.40
   4  -9 -10  195.58   24.50
   4  -9 -10  206.48   20.60
  -4  -9  10  173.08   26.00
  -4   9  10  144.29   27.00
  -3  -9  10   91.59   19.50
   3  -9 -10   57.19   16.60
   3  -9 -10   70.29   11.70
  -3   9  10   76.59   12.40
  -3   9  10   60.59   14.70
   2  -9 -10   94.19    9.90
   2  -9 -10   86.99   15.40
  -2  -9  10   74.29   16.70
  -2   9  10  106.39   15.50
   2   9 -10   89.69    7.80
  -2   9  10   97.59   20.30
  -2   9  10  106.59   16.50
  -1  -9  10   10.10   10.70
   1  -9 -10   -4.40    9.60
  -1   9  10    4.60   12.90
   1   9 -10    9.80    5.80
   0  -9  10  519.95   30.40
   0  -9  10  545.05   29.90
   0   9  10  557.54   33.70
   0   9  10  503.85   22.60
   0   9 -10  525.15   22.90
   1  -9  10    7.30   12.50
   1  -9  10   -4.40    4.40
   1  -9  10    3.70    8.90
   1   9  10    6.50    4.70
   1   9  10   -0.30   11.90
  -1   9 -10   -3.40    7.80
   2  -9  10  103.89   13.60
  -2   9 -10  122.39   16.20
   2   9  10  100.09   20.50
   3  -9  10   11.10   15.70
   3  -9  10   30.20   17.30
   3   9  10   -1.50   13.90
  -3   9 -10    7.10   11.50
   4 -10 -10    5.80   11.00
  -4 -10  10    2.30   15.80
   4 -10 -10    0.30   15.20
  -4  10  10   18.90   12.40
   3 -10 -10   38.80   15.80
  -3 -10  10   16.80   15.40
   3 -10 -10   27.20    9.50
  -3  10  10   43.60   15.10
  -3  10  10   41.40   10.10
   2 -10 -10   15.80   12.80
   2 -10 -10   33.30    7.00
  -2 -10  10   27.00   16.10
  -2  10  10   36.10   15.70
  -2  10  10   53.89   12.70
  -2  10  10   22.60   12.20
   2  10 -10   38.20    6.50
  -1 -10  10  237.78   25.10
  -1 -10  10  255.47   24.60
   1 -10 -10  250.77   21.40
  -1  10  10  236.88   26.80
   1  10 -10  226.48   14.70
   0 -10  10  141.49   18.00
   0 -10  10  106.79   18.10
   0  10  10  106.49   18.50
   0  10  10   81.19   12.90
   0  10 -10  131.19   13.40
   1 -10  10  700.43   25.50
   1 -10  10  759.52   33.90
   1 -10  10  820.02   57.79
  -1  10 -10  789.82   32.10
   1  10  10  854.01   58.69
   1  10  10  712.93   25.30
   2 -10  10   16.10   17.00
   2 -10  10   18.70   14.60
   2 -10  10   37.50   10.50
   2  10  10   48.70   16.40
  -2  10 -10   51.59   12.80
   3 -10  10  189.88   28.40
   3 -10  10  264.07   28.70
   3 -10  10  245.58   19.80
  -3  10 -10  274.37   25.90
   3  10  10  285.87   31.60
   3 -11 -10   20.30   15.70
   3 -11 -10   11.30    9.20
  -3 -11  10   15.80   17.40
  -3  11  10    5.10   13.50
  -3  11  10    1.50    7.90
  -2 -11  10  305.87   30.70
   2 -11 -10  273.27   14.20
   2 -11 -10  262.67   25.70
  -2  11  10  301.67   33.30
  -2  11  10  308.67   30.20
  -2  11  10  256.67   22.40
   2  11 -10  265.67   16.60
  -1 -11  10   -1.00   12.50
   1 -11 -10   -8.50    9.70
  -1  11  10    7.70   13.10
   1  11 -10    2.00    6.40
   0 -11  10  136.59   20.70
   0 -11 -10  113.79   14.60
   0 -11  10  142.49   19.40
   0  11  10  151.18   23.70
   0  11 -10  135.99   15.20
   1 -11  10   48.90   16.30
   1 -11  10   34.50    7.00
   1 -11  10   50.99   12.80
   1  11  10   21.90    7.00
   1  11  10   21.20   13.30
  -1  11 -10   36.10   11.30
   2 -11  10  227.08   19.60
   2 -11  10  173.68   26.60
   2 -11  10  236.88   28.50
  -2  11 -10  270.77   24.00
   2  11  10  222.78   27.00
   3 -11  10  -43.60   12.90
   3 -11  10    9.30    7.40
   3 -11  10   13.90   16.40
   3  11  10   -4.70   15.40
  -3  11 -10   10.40   14.10
  -3 -12  10  138.09   20.70
   3 -12 -10  115.19   21.20
  -3 -12  10   84.29   21.00
   3 -12 -10  100.99   13.90
  -3  12  10   54.39   17.20
  -2 -12  10  -17.60   12.00
   2 -12 -10   10.80   15.20
  -2 -12  10   24.80   14.30
   2  12 -10    3.60    6.30
  -2  12  10    3.90   14.80
  -2  12  10    5.70   12.60
  -2  12  10   -2.70   10.00
  -1 -12  10  253.77   27.20
   1 -12 -10  257.57   23.80
  -1 -12  10  274.47   26.70
  -1  12  10  277.87   30.00
   1  12 -10  255.67   17.60
   0 -12 -10    9.90    9.80
   0 -12  10   17.60   15.10
   0 -12  10    4.10   10.20
   0  12 -10   -8.30    8.40
   0  12  10   15.50   15.80
   1 -12  10  561.64   37.70
   1 -12  10  572.54   30.80
   1  12  10  532.25   37.30
  -1  12 -10  583.14   30.50
   2 -12  10   11.00    9.80
   2 -12  10   12.30   18.00
   2 -12  10    8.30   16.40
   2  12  10    0.50   15.20
  -2  12 -10   -4.50   10.20
  -2 -13  10   72.89   18.70
  -2 -13  10  112.79   21.00
   2 -13 -10   76.09   18.80
  -2  13  10  101.89   22.10
  -2  13  10   77.09   15.40
  -2  13  10  122.59   22.10
   2  13 -10   42.00    9.10
  -1 -13  10   63.39   18.70
   1 -13 -10   47.80   16.90
  -1 -13  10   62.59   17.00
   1  13 -10   51.29   10.60
  -1  13  10   11.60   15.60
   0 -13 -10  147.99   16.80
   0 -13  10  149.59   23.60
   0  13 -10  156.18   17.10
   0  13  10  135.69   22.00
   1 -13  10   13.40   11.40
   1 -13  10   21.80   18.00
   1  13  10   -4.30   13.20
  -1  13 -10    8.00   10.60
  -1 -14  10   70.89   19.40
   1  14 -10   55.49   11.70
   0 -14  10   -7.80   12.40
   0 -14 -10    2.90   10.70
   0 -14  10   24.40   16.30
   0  14 -10  -13.50    9.00
   0  14  10   -0.40   13.70
  -5   0  11  538.85   35.50
   5   0 -11  540.15   33.70
   4   0 -11    0.90    7.60
  -4   0  11    0.10    9.60
   4   0 -11   -1.50    9.90
   3   0 -11  631.54   29.10
  -3   0  11  630.64   32.10
   3   0 -11  597.34   24.80
  -2   0  11   -9.30    7.20
   2   0 -11    0.60    4.30
  -2   0  11   -3.80    4.50
  -1   0  11 2205.08   57.29
  -1   0  11 2234.38   61.89
  -1   0  11 2263.87   52.49
  -1   0  11 2228.28   60.69
   1   0 -11 2303.87   57.39
  -1   0  11 2248.58   65.19
   0   0  11    2.20    3.60
   0   0 -11    0.50    4.30
   0   0  11    4.60    7.20
   0   0  11    4.10    4.10
   0   0  11    5.70    6.20
   1   0  11 4120.99  117.29
   1   0  11 4186.58   99.99
   1   0  11 4162.38  107.09
   2   0  11   -3.40    7.30
   2   0  11   -3.40    5.20
   3   0  11  465.55   27.60
   3   0  11  411.96   22.70
   3   0  11  412.36   21.10
   4   0  11   -5.90    7.70
   4   0  11   -9.70    9.90
   4   0  11    5.60    7.20
  -5  -1  11   -6.30   24.00
   5  -1 -11   -1.30   12.40
  -5   1  11  -13.80   10.90
   5   1 -11   21.10   13.90
  -4  -1  11   24.40   11.90
   4  -1 -11   14.30   10.50
  -4   1  11   18.90   11.60
   4   1 -11   22.30    8.80
   4   1 -11   34.60   13.10
   3  -1 -11    5.20    5.80
   3  -1 -11    7.30    9.00
  -3  -1  11   -9.00    7.70
  -3   1  11    3.00    9.70
   3   1 -11   10.60    8.90
   3   1 -11    3.00    4.80
  -2  -1  11    8.80    8.20
  -2  -1  11   13.10    6.60
   2  -1 -11    4.90    5.00
   2   1 -11    0.00    3.60
  -2   1  11    5.10    2.30
  -2   1  11   12.70    6.30
  -2   1  11    9.00    8.50
  -2   1  11    5.10    4.90
  -1  -1  11   20.70    5.90
  -1  -1  11   19.40    5.90
   1  -1 -11   13.30    5.30
  -1  -1  11   16.40    8.10
  -1  -1  11   11.80    2.80
  -1   1  11   15.70    4.80
  -1   1  11   12.10    6.30
   1   1 -11   19.00    6.80
  -1   1  11   19.10    3.90
  -1   1  11   12.30    8.10
  -1   1  11   13.30    7.30
   0  -1  11   34.70    8.10
   0  -1  11   41.20    7.50
   0  -1  11   39.40    5.80
   0  -1  11   35.70    9.70
   0  -1 -11   49.99    7.80
   0   1  11   39.80    7.40
   0   1  11   42.90   10.20
   0   1  11   48.50    6.90
   0   1  11   45.40    6.50
   0   1  11   61.39   11.50
   1  -1  11    5.20    7.60
   1  -1  11    9.20    5.70
   1  -1  11    6.70    6.50
   1   1  11   -1.20    4.40
   1   1  11   10.80    7.40
   1   1  11    1.70    4.00
   2  -1  11   10.60    6.80
   2  -1  11    9.20    8.50
   2  -1  11   11.60    8.30
   2  -1  11   15.00    8.50
   2   1  11   14.70    9.00
   2   1  11   12.40    5.50
   3  -1  11    8.50   10.30
   3  -1  11   -1.30    7.30
   3  -1  11    1.20    7.60
   3   1  11   11.80    7.10
   3   1  11  -12.30    8.50
   3   1  11   -1.10    6.20
   4  -1  11  249.88   26.60
   4  -1  11  215.98   19.50
   4  -1  11  255.27   19.00
   4   1  11  217.98   25.00
   4   1  11  219.08   13.80
   4   1  11  225.88   18.40
   5  -2 -11  125.69   19.30
  -5  -2  11  182.88   24.80
  -5   2  11  136.49   19.50
   5   2 -11  129.09   21.40
  -4  -2  11   36.80   14.60
   4  -2 -11   30.30   11.50
   4   2 -11   42.00    7.80
   4   2 -11   34.30   13.50
  -4   2  11   35.70    4.60
  -4   2  11   26.90   12.00
  -3  -2  11  707.73   35.20
   3  -2 -11  672.63   29.10
   3  -2 -11  666.93   28.80
  -3   2  11  682.53   27.30
  -3   2  11  666.63   32.60
   3   2 -11  681.63   23.30
  -3   2  11  656.63   18.90
   2  -2 -11  129.19   12.40
   2  -2 -11   86.59   10.50
  -2  -2  11  145.09   17.50
  -2  -2  11  102.29   12.00
   2   2 -11  101.09    7.20
  -2   2  11  119.39    8.40
  -2   2  11  126.39   15.50
  -2   2  11  119.39    9.90
  -1  -2  11 1243.18   43.10
  -1  -2  11 1188.48   37.50
  -1  -2  11 1222.78   32.00
   1  -2 -11 1164.58   37.50
  -1  -2  11 1173.48   28.50
  -1   2  11 1241.68   32.80
  -1   2  11 1169.58   38.50
  -1   2  11 1135.09   42.10
  -1   2  11 1223.28   42.30
   0  -2  11   15.80    4.60
   0  -2  11   12.80    7.70
   0  -2  11   16.10    6.40
   0  -2 -11   13.60    5.90
   0   2  11   15.90    5.10
   0   2  11   10.50    8.00
   0   2  11   23.70    6.80
   0   2  11   14.10    3.30
   1  -2  11  915.11   35.20
   1  -2  11  872.01   28.80
   1  -2  11  844.82   30.20
   1   2  11  864.21   28.60
   1   2  11  881.31   24.20
   1   2  11  880.91   32.80
   1   2  11  915.11   35.10
   2  -2  11  178.88   17.90
   2  -2  11  166.68   16.60
   2  -2  11  154.58   16.90
   2  -2  11  185.38   15.10
   2   2  11  176.98   18.50
   2   2  11  180.58   10.80
   3  -2  11  609.64   30.80
   3  -2  11  608.84   28.00
   3  -2  11  549.95   29.60
   3  -2  11  637.54   30.10
   3   2  11  590.94   23.50
   3   2  11  581.94   22.40
   3   2  11  604.84   32.90
   4  -2  11   79.19   14.20
   4  -2  11   66.79   15.90
   4  -2  11   67.79   13.20
   4  -2  11   44.90   12.20
   4   2  11   74.19   12.20
   4   2  11   37.40   14.90
   4   2  11   57.89    6.00
   5  -3 -11  -12.50   11.30
  -5  -3  11   12.80   14.70
  -5   3  11  -14.10   10.00
  -5   3  11   -6.10    4.50
   5   3 -11   18.40   14.70
   4  -3 -11   16.70   10.70
  -4  -3  11   24.90   13.00
  -4   3  11   26.70    5.60
   4   3 -11   12.90    6.20
  -4   3  11   22.10   11.30
   4   3 -11   29.20   12.70
   3  -3 -11    5.10    7.30
  -3  -3  11   17.70   11.00
  -3   3  11   -1.10    8.50
  -3   3  11   14.60    4.80
   3   3 -11   10.10    3.80
  -3   3  11    3.30    5.80
   2  -3 -11    0.90    5.70
   2  -3 -11   16.30    6.60
  -2  -3  11   21.20    9.60
  -2   3  11   18.30    6.10
   2   3 -11   16.20    2.20
  -2   3  11    3.70    8.20
  -2   3  11   23.50    8.60
  -2   3  11   14.50    5.30
   1  -3 -11    4.20    5.80
  -1  -3  11    8.80    9.00
  -1   3  11    3.80    3.10
  -1   3  11   -5.40    5.30
  -1   3  11   -2.70    8.60
  -1   3  11    8.90    7.60
   0  -3  11   18.90    4.60
   0  -3  11   17.10    5.80
   0  -3 -11    4.10    6.80
   0  -3  11   28.00    9.00
   0   3  11   19.60    2.60
   0   3  11   17.80    9.60
   0   3  11   13.80    6.00
   1  -3  11  543.95   21.10
   1  -3  11  529.85   26.30
   1  -3  11  527.75   22.00
  -1  -3 -11  480.85   23.80
   1   3  11  518.55   27.40
   1   3  11  498.45   14.00
   1   3  11  505.45   21.70
  -1   3 -11  512.15   21.40
   1   3  11  532.35   14.00
   1   3  11  505.75   19.90
   2  -3  11  426.06   22.80
   2  -3  11  432.06   24.60
   2  -3  11  441.46   23.80
   2  -3  11  435.36   25.90
   2   3  11  440.76   15.50
  -2   3 -11  450.15   22.90
   2   3  11  416.66   16.70
   2   3  11  424.86   26.20
   3  -3  11  101.59   15.70
   3  -3  11  129.39   16.60
   3  -3  11  127.19   15.40
   3  -3  11  104.29   14.60
   3   3  11  129.49   11.50
  -3   3 -11   80.59   14.00
   3   3  11  108.89    8.80
   3   3  11  118.29   18.20
   3   3  11  109.09    8.90
   4  -3  11  108.99   15.00
   4  -3  11   75.29   14.80
   4  -3  11   96.09   17.30
   4  -3  11   98.99   20.60
   4   3  11   82.79   19.10
   4   3  11  113.39   13.30
   5  -4 -11  304.27   26.10
  -5  -4  11  233.48   27.70
   5   4 -11  315.67   29.10
  -5   4  11  254.97   15.00
  -5   4  11  307.37   24.00
  -4  -4  11  213.88   25.60
   4  -4 -11  231.28   20.40
   4   4 -11  198.58   11.00
   4   4 -11  186.38   11.50
  -4   4  11  220.48   14.40
  -4   4  11  214.18   20.80
  -3  -4  11  782.22   38.50
   3  -4 -11  719.73   28.60
  -3   4  11  707.03   32.80
  -3   4  11  665.63   26.80
  -3   4  11  699.23   24.30
  -2  -4  11  222.78   21.00
   2  -4 -11  209.68   13.70
   2  -4 -11  206.28   16.70
  -2   4  11  211.58   15.00
  -2   4  11  246.88   19.60
  -2   4  11  232.58   12.40
  -2   4  11  246.28   21.40
  -1  -4  11 1620.84   50.79
   1  -4 -11 1528.55   49.40
  -1  -4  11 1646.34   53.49
  -1   4  11 1604.44   51.49
  -1   4  11 1634.54   38.90
  -1   4  11 1581.44   48.00
  -1   4  11 1556.24   55.49
   0  -4  11   95.29   13.60
   0  -4  11   95.59    8.40
   0  -4  11   80.19    7.80
   0  -4 -11   61.29   10.30
   0   4 -11   90.49    8.50
   0   4  11   83.89    9.70
   0   4  11   96.19   15.20
   1  -4  11  766.32   27.00
   1  -4  11  795.02   32.70
   1  -4  11  783.22   27.10
  -1   4 -11  772.92   27.60
   1   4  11  773.42   25.70
   1   4  11  754.32   29.30
   1   4  11  799.92   35.10
   2  -4  11  254.27   20.50
   2  -4  11  249.68   21.30
   2  -4  11  264.57   18.30
   2  -4  11  260.27   19.60
   2   4  11  245.18    9.60
   2   4  11  235.58   11.60
   2   4  11  233.78   22.00
  -2   4 -11  247.28   18.10
   3  -4  11  812.22   38.30
   3  -4  11  800.62   35.70
   3  -4  11  826.12   35.40
   3  -4  11  752.32   32.50
  -3   4 -11  806.22   34.70
   3   4  11  805.32   25.80
   3   4  11  770.42   19.00
   3   4  11  798.02   39.40
   3   4  11  713.83   19.80
   4  -4  11  154.78   17.70
   4  -4  11  113.09   18.50
   4  -4  11  143.99   19.50
   4  -4  11  112.79   18.20
   4   4  11  130.09   21.10
   4   4  11  141.49   14.10
  -4   4 -11  157.68   20.40
  -5  -5  11    6.40   13.90
   5  -5 -11   14.90   12.60
  -5   5  11    4.60    6.50
   5   5 -11    0.10    3.50
  -5   5  11    0.00    9.20
  -4  -5  11   17.40   14.20
   4  -5 -11    4.90   10.40
  -4   5  11   -3.30    5.60
   4   5 -11    0.60    2.00
  -4   5  11   10.10    9.60
  -3  -5  11    8.40   11.60
   3  -5 -11    9.40    8.60
  -3   5  11   16.00    6.60
  -3   5  11    9.00    6.90
  -3   5  11   24.30   10.20
   2  -5 -11   35.50    7.10
  -2  -5  11   18.50   11.10
  -2   5  11   31.80   11.90
  -2   5  11   41.00   10.80
  -2   5  11   25.90    5.80
  -1  -5  11   12.20    9.10
  -1   5  11   27.60    7.70
  -1   5  11   28.90   12.80
  -1   5  11   24.40   10.00
   0  -5  11  141.09    8.40
   0  -5  11  145.89   16.90
   0  -5  11  127.79    9.60
   0   5  11  153.78   18.40
   0   5 -11  137.09   10.20
   0   5  11  119.09   10.90
   1  -5  11    0.60    5.60
   1  -5  11   12.60    8.20
   1  -5  11    6.80    9.70
   1  -5  11   19.00    6.10
   1   5  11   20.50   10.90
  -1   5 -11   16.10    6.80
   2  -5  11  116.99   13.50
   2  -5  11  127.59   15.30
   2  -5  11  115.59   16.90
   2  -5  11  129.09   18.70
   2   5  11  133.49   18.30
  -2   5 -11  146.39   15.10
   3  -5  11  112.39   16.30
   3  -5  11   82.39   16.30
   3  -5  11  110.99   14.30
   3  -5  11  131.49   19.40
   3   5  11   96.29    9.30
  -3   5 -11   97.39   14.90
   3   5  11  120.99   25.90
   4  -5  11   64.19   16.30
   4  -5  11   74.79   12.70
   4  -5  11   97.79   18.60
   4  -5  11   80.69   17.60
  -4   5 -11  107.29   18.20
   4   5  11   64.69   18.10
   4   5  11   90.89   10.70
  -5  -6  11  107.79   21.80
   5  -6 -11   95.99   17.50
  -5   6  11   86.99   12.20
  -4  -6  11  307.47   30.90
   4  -6 -11  319.37   23.10
  -4   6  11  299.57   22.30
  -4   6  11  262.47   18.00
  -3  -6  11  190.48   23.00
   3  -6 -11  236.88   17.20
  -3   6  11  220.58   17.40
  -3   6  11  227.08   15.00
  -3   6  11  211.18   20.50
   2  -6 -11  330.67   15.40
  -2  -6  11  323.47   25.90
  -2   6  11  317.77   14.40
  -2   6  11  276.07   26.00
  -2   6  11  321.47   22.80
  -1  -6  11   35.80   11.40
  -1   6  11   32.40   13.80
  -1   6  11   36.10   10.90
   1   6 -11   24.60    4.40
   0  -6  11  890.81   22.60
   0  -6  11  915.51   23.50
   0  -6  11  959.20   38.90
   0   6  11  984.30   42.30
   0   6  11  951.50   35.60
   0   6 -11 1000.00   29.70
   1  -6  11  482.95   28.80
   1  -6  11  518.65   26.80
   1  -6  11  465.55   19.30
   1  -6  11  458.35   21.00
   1   6  11  475.55   18.80
   1   6  11  514.95   30.30
  -1   6 -11  459.25   21.90
   2  -6  11  489.65   30.10
   2  -6  11  376.76   28.90
   2  -6  11  516.85   26.20
   2  -6  11  484.65   23.60
  -2   6 -11  452.75   25.00
   2   6  11  462.75   30.20
   2   6  11  450.15   15.00
   3  -6  11  201.18   18.20
   3  -6  11  208.68   24.30
   3  -6  11  182.28   22.40
  -3   6 -11  176.28   21.80
   3   6  11  218.98   24.70
   3   6  11  163.58    9.50
   4  -6  11  163.48   16.70
   4  -6  11  191.88   25.80
   4  -6  11  172.58   23.00
   4  -6  11  191.28   23.20
   4   6  11  189.88   13.70
  -4   6 -11  227.88   25.00
   4   6  11  201.38   26.50
   4  -7 -11   14.00   10.70
   4  -7 -11   13.90   13.80
  -4  -7  11   21.60   16.50
  -4   7  11   -6.10    8.20
  -4   7  11   13.10    8.70
   3  -7 -11   10.30   14.90
   3  -7 -11    4.40    7.50
  -3   7  11   15.70   10.30
  -3   7  11    2.30    8.30
  -2  -7  11    0.90   10.80
   2  -7 -11  -10.90   10.20
   2  -7 -11    5.90    4.80
  -2   7  11    3.80    8.80
  -2   7  11  -26.10    8.90
  -1  -7  11   -5.50    8.40
  -1   7  11    3.20   11.30
   1   7 -11    3.30    4.00
   0  -7  11  247.58   21.40
   0   7  11  286.77   25.00
   0   7 -11  260.97   14.70
   0   7  11  231.18   15.00
   1  -7  11   88.09   13.60
   1  -7  11   54.89   14.60
   1  -7  11   78.29    8.40
   1  -7  11   91.89    9.50
   1  -7  11   73.89   15.20
   1   7  11   86.69   17.40
  -1   7 -11   79.09   11.10
   1   7  11   70.39    8.40
   2  -7  11  120.99   14.70
   2  -7  11  104.69   19.10
   2  -7  11   79.49   17.90
   2   7  11   95.79   17.90
  -2   7 -11  112.29   14.50
   2   7  11  102.99    6.00
   3  -7  11   58.59   29.60
   3  -7  11   57.49   11.30
   3  -7  11   51.09   17.00
   3   7  11   27.00   14.80
  -3   7 -11   67.89   14.80
   4  -7  11   59.79   10.90
   4  -7  11   84.59   20.10
   4  -7  11   90.19   21.80
   4   7  11   42.80   16.30
  -4   7 -11   68.39   17.00
   4  -8 -11   87.69   19.50
  -4  -8  11  112.39   23.40
   4  -8 -11   90.39   15.40
  -4   8  11   55.99   10.80
  -4   8  11   96.59   15.50
   3  -8 -11  164.78   15.10
   3  -8 -11  153.48   21.10
  -3  -8  11  147.99   22.30
  -3   8  11  144.79   18.10
  -3   8  11  162.08   19.00
  -2  -8  11  447.96   31.90
   2  -8 -11  424.36   16.80
   2  -8 -11  454.75   28.30
  -2   8  11  439.86   27.00
  -2   8  11  441.36   27.80
  -2   8  11  412.36   32.40
  -1  -8  11  136.39   19.00
   1   8 -11  118.29    9.50
  -1   8  11  155.58   22.20
   0  -8  11  397.96   26.40
   0  -8  11  414.96   27.60
   0   8  11  387.86   19.70
   0   8 -11  416.16   19.20
   0   8  11  372.96   28.90
   1  -8  11  153.88   20.40
   1  -8  11  172.58   12.50
   1  -8  11  167.38   11.20
   1  -8  11  183.78   19.20
   1   8  11  166.88   11.50
  -1   8 -11  183.28   15.90
   1   8  11  150.38   20.70
   2  -8  11  513.75   34.20
   2  -8  11  457.95   35.00
   2  -8  11  524.15   24.30
   2  -8  11  531.55   27.30
  -2   8 -11  547.95   28.30
   3  -8  11  165.58   16.30
   3  -8  11  151.98   23.90
   3  -8  11  180.08   24.40
  -3   8 -11  141.89   18.80
   3   8  11  122.79   20.80
   4  -9 -11    5.50   10.50
   4  -9 -11    5.70   14.30
  -4  -9  11   14.90   15.90
   3  -9 -11   -5.00   13.10
   3  -9 -11    9.00    7.40
  -3  -9  11    3.40   14.30
  -3   9  11    2.00    9.20
  -3   9  11   19.30   11.50
   2  -9 -11   12.20   12.70
   2  -9 -11   11.90    5.20
   2   9 -11    6.70    3.50
  -2   9  11    6.10   10.30
  -2   9  11   15.60   12.00
  -2   9  11   10.00   20.70
  -1  -9  11   -7.10   10.50
   1  -9 -11   11.90   10.80
   1   9 -11   -2.50    4.70
  -1   9  11    7.70   13.20
   0  -9  11    7.50   13.00
   0  -9  11   34.10   11.80
   0   9  11   -5.30    5.80
   0   9 -11   15.70    7.40
   0   9  11    6.10   13.10
   1  -9  11    3.40    5.90
   1  -9  11   -3.30    4.80
   1  -9  11    1.90   13.00
   1  -9  11    3.40    8.50
  -1   9 -11    6.40    8.90
   1   9  11   -7.50    4.30
   1   9  11   11.80   12.80
   2  -9  11   52.79   18.20
   2  -9  11   32.70   15.90
   2  -9  11   40.00   11.20
   2   9  11   43.00   15.30
  -2   9 -11   34.10   12.30
   3  -9  11   28.00   17.70
   3  -9  11   32.20    9.60
   3  -9  11   24.30   17.00
  -3   9 -11   38.80   14.80
   3   9  11   44.40   15.60
   3 -10 -11    6.70   14.70
  -3 -10  11   -7.60   13.40
   3 -10 -11    5.00    7.90
  -3  10  11  -10.30    8.70
  -3  10  11    6.70   19.20
   2 -10 -11  454.75   16.70
  -2 -10  11  493.05   35.00
   2  10 -11  433.66   15.90
  -2  10  11  528.25   38.10
  -2  10  11  479.55   29.00
  -2  10  11  497.95   31.90
  -1 -10  11   11.60   12.50
   1 -10 -11    6.70   10.70
  -1 -10  11   17.40   14.10
  -1  10  11   12.70   13.20
   1  10 -11    7.70    6.70
   0 -10  11 1086.79   45.70
   0  10  11 1089.19   55.29
   0  10 -11 1129.19   37.30
   1 -10  11   29.50    6.70
   1 -10  11   24.90   10.70
   1 -10  11   22.60   15.50
   1  10  11   40.30   16.40
   1  10  11   10.40    6.00
  -1  10 -11   36.40   10.70
   2 -10  11  305.67   30.60
   2 -10  11  298.17   33.50
   2 -10  11  310.37   22.70
  -2  10 -11  334.27   28.10
   2  10  11  281.27   29.20
   3 -10  11  -16.30   15.00
   3 -10  11   21.70    8.70
   3 -10  11   45.60   19.40
  -3  10 -11   24.80   14.60
   3  10  11   28.90   16.10
  -3 -11  11   -4.10   15.20
   3 -11 -11    4.90   14.70
   3 -11 -11    1.50    7.10
  -3  11  11   -6.90    8.80
  -3  11  11    7.90   12.70
  -2 -11  11    8.90   14.10
   2 -11 -11   -4.10   13.40
   2 -11 -11   -3.00    2.40
  -2 -11  11   15.70   14.70
  -2  11  11    6.10   10.40
  -2  11  11   -1.30   11.50
  -2  11  11  -13.90   11.90
  -1 -11  11   46.50   16.50
   1 -11 -11   26.20   12.50
  -1 -11  11   24.80   15.40
   1  11 -11   30.10    7.70
  -1  11  11   21.80   15.20
   0 -11  11   -5.90   10.00
   0 -11  11    2.40   14.20
   0  11  11   -3.50   12.60
   0  11 -11   -3.40    7.30
   1 -11  11    9.20   10.10
   1 -11  11    3.70   15.00
   1 -11  11    3.70    5.50
   1  11  11    3.10    6.00
  -1  11 -11    5.60    9.80
   1  11  11    5.00   13.20
   2 -11  11   20.80   16.60
   2 -11  11    8.40    9.40
   2 -11  11    2.60   15.90
  -2  11 -11   10.60   11.80
   2  11  11   19.00   15.40
  -2 -12  11  144.39   23.80
   2 -12 -11  107.39   18.90
  -2 -12  11  179.08   23.40
  -2  12  11  145.79   18.90
  -2  12  11  165.48   26.40
  -2  12  11  159.98   23.60
   1 -12 -11   -0.60   11.30
  -1 -12  11   24.40   15.60
  -1 -12  11   11.50   12.90
   1  12 -11    2.20    6.30
  -1  12  11   13.80   14.40
   0 -12  11  258.67   27.40
   0  12 -11  267.77   20.00
   0  12  11  285.97   31.40
   1 -12  11    8.30   11.40
   1 -12  11   10.00   16.50
   1  12  11   -7.60   13.20
   2 -12  11  176.58   19.30
   2 -12  11  157.68   25.30
   2 -12  11  131.19   24.70
  -2  12 -11  158.08   19.80
   2  12  11  128.29   21.70
  -1 -13  11   27.40   16.80
   1 -13 -11   17.00   12.90
  -1 -13  11   -4.70   13.40
  -1  13  11   -1.30   13.50
   1  13 -11    7.90    8.40
   0 -13  11   14.00   15.40
   0 -13  11    2.90   11.60
   0  13 -11    2.50    8.30
   0  13  11   -1.50   13.70
   1 -13  11   -8.40   15.70
   1 -13  11   23.60   12.10
   1  13  11   13.20   13.10
  -1  13 -11    4.40   10.30
   5   0 -12  -17.80   11.40
  -5   0  12    4.40   14.80
   4   0 -12  176.78   20.10
  -4   0  12  159.08   20.00
   4   0 -12  154.28   18.30
   3   0 -12    1.30    8.10
   3   0 -12   -1.70    4.90
  -3   0  12   -6.70    9.40
  -2   0  12  173.78   18.90
   2   0 -12  159.78   11.60
  -1   0  12    3.10    8.20
  -1   0  12   -2.60    4.20
  -1   0  12    0.20    6.10
   1   0 -12    4.30    4.50
  -1   0  12    0.80    2.60
   0   0  12  151.88   15.30
   0   0  12  174.98   11.00
   0   0  12  183.98   18.00
   0   0 -12  176.68   11.90
   0   0  12  167.48   10.50
   1   0  12   -1.90    6.80
   1   0  12   -0.20    8.40
   1   0  12   -2.80    4.70
   1   0  12    0.30    5.20
   2   0  12  172.88   18.50
   2   0  12  187.68   17.20
   2   0  12  189.08   20.40
   3   0  12   10.10    7.00
   3   0  12    5.00   10.60
   3   0  12    1.30    8.30
   4   0  12   -0.90    7.90
   4   0  12   -7.80    7.00
   4   0  12    2.90   12.90
   5  -1 -12  166.88   21.20
  -5  -1  12  147.19   22.90
  -5   1  12  230.18   26.20
   5   1 -12  145.39   22.10
   4  -1 -12    2.20   10.30
  -4  -1  12    6.30   11.50
   4   1 -12   19.70    8.70
   4   1 -12   15.20   12.10
  -4   1  12   12.00   11.40
   3  -1 -12  699.93   30.80
  -3  -1  12  684.93   35.30
  -3   1  12  693.43   34.70
   3   1 -12  664.43   24.80
  -2  -1  12    6.60    5.50
  -2  -1  12    3.00    9.30
   2  -1 -12   -0.20    5.30
  -2   1  12    1.40    5.30
  -2   1  12   -0.80    5.90
  -2   1  12   -1.80    2.00
  -2   1  12    4.30    2.30
   2   1 -12    0.80    3.70
  -2   1  12  -10.30    8.10
  -1  -1  12 1292.77   45.70
  -1  -1  12 1278.17   31.60
  -1  -1  12 1283.37   37.80
  -1  -1  12 1285.57   38.80
   1  -1 -12 1375.56   39.50
  -1   1  12 1326.47   36.40
  -1   1  12 1251.97   44.90
  -1   1  12 1322.97   35.80
  -1   1  12 1179.48   42.60
   1   1 -12 1298.67   35.20
   0  -1  12   10.40    5.50
   0  -1  12    4.30    6.60
   0  -1  12   -4.10    3.00
   0  -1  12    9.50    8.70
   0  -1 -12    4.10    4.90
   0   1  12    0.30    7.60
   0   1  12   -3.80    7.50
   0   1  12    2.60    3.50
   0   1  12    7.10    4.20
   0   1  12    1.50    5.20
   1  -1  12  463.95   26.10
   1  -1  12  500.45   23.70
   1   1  12  497.65   18.10
   1   1  12  532.75   27.90
   1   1  12  455.85   20.70
   1   1  12  524.05   26.10
   2  -1  12  271.87   21.70
   2  -1  12  267.27   20.30
   2  -1  12  266.37   16.60
   2  -1  12  239.68   19.60
   2   1  12  262.57   14.20
   2   1  12  247.98   20.90
   3  -1  12  682.43   29.00
   3  -1  12  740.73   34.70
   3  -1  12  613.04   31.30
   3  -1  12  704.53   34.50
   3   1  12  701.53   26.90
   3   1  12  684.33   35.60
   4  -1  12    0.00    8.50
   4  -1  12   15.40   13.50
   4  -1  12   17.80   10.70
   4  -1  12    7.90    9.20
   4   1  12    0.10   13.30
   4   1  12    8.20    6.10
   4   1  12    4.50    7.70
   5  -2 -12   35.90   14.40
  -5  -2  12   38.10   17.30
   5   2 -12   42.80   16.10
  -5   2  12   47.40   14.30
   4  -2 -12  283.57   23.20
  -4  -2  12  294.47   28.50
   4   2 -12  294.27   17.10
   4   2 -12  261.77   25.60
  -4   2  12  302.87   26.40
   3  -2 -12  188.58   17.20
   3  -2 -12  173.68   15.80
  -3  -2  12  138.59   18.40
   3   2 -12  185.88   11.10
  -3   2  12  169.28    7.40
  -3   2  12  189.18   21.00
  -2  -2  12  234.18   18.30
   2  -2 -12  219.58   15.90
  -2  -2  12  256.87   22.10
  -2   2  12  249.88   20.40
  -2   2  12  241.38   18.10
   2   2 -12  234.78   10.40
  -2   2  12  257.47   11.60
  -2   2  12  233.58   13.50
  -1  -2  12   18.20    9.20
  -1  -2  12   34.00    5.60
  -1  -2  12   32.70    3.50
  -1  -2  12   40.70    8.80
   1  -2 -12   32.00    7.50
  -1   2  12   23.80    9.50
  -1   2  12   33.20    5.70
  -1   2  12   37.40   13.20
   0  -2  12  320.07   18.00
   0  -2  12  374.66   18.50
   0  -2  12  328.17   14.10
   0  -2  12  350.66   22.50
   0  -2 -12  327.77   18.10
   0   2  12  355.06   12.50
   0   2  12  306.97   17.20
   0   2  12  350.96   16.00
   0   2  12  340.07   22.50
   0   2  12  332.67   22.80
   1  -2  12   -6.80    6.00
   1  -2  12    4.70    8.50
   1   2  12    6.50    3.40
   1   2  12   -2.00    7.50
   1   2  12    2.70    5.70
   1   2  12   -3.90    4.50
   2  -2  12  255.47   20.80
   2  -2  12  210.28   18.10
   2  -2  12  186.98   18.80
   2  -2  12  248.38   17.70
   2   2  12  206.68   20.90
   2   2  12  227.68   12.10
   3  -2  12  102.49   16.10
   3  -2  12  114.49   15.30
   3  -2  12  119.89   14.60
   3  -2  12  132.69   18.20
   3   2  12  134.39   12.70
   3   2  12  126.29   18.10
   3   2  12  120.69   12.70
   4  -2  12   -5.40    8.80
   4  -2  12   -9.50    9.80
   4  -2  12    2.30   13.70
   4  -2  12    8.00    9.90
   4   2  12    1.50    7.70
   4   2  12   -1.30    3.80
   4   2  12    3.10   12.80
  -5  -3  12   81.09   19.40
   5  -3 -12   92.79   18.50
  -5   3  12   86.69   16.60
   5   3 -12   76.59   18.60
  -4  -3  12   14.40   20.40
   4  -3 -12   48.40   12.70
   4   3 -12   42.00    7.20
  -4   3  12   41.40    5.70
  -4   3  12   24.10   12.20
  -3  -3  12  551.74   33.00
   3  -3 -12  576.74   25.90
  -3   3  12  448.16   32.50
   3   3 -12  493.45   15.90
  -3   3  12  573.34   30.70
  -3   3  12  492.15   17.30
   2  -3 -12   30.80    8.10
  -2  -3  12   27.10   11.10
  -2   3  12   21.70    9.40
  -2   3  12   31.30    6.30
  -2   3  12   24.50    6.70
  -2   3  12   26.50   10.40
  -1  -3  12  887.11   33.00
   1  -3 -12  930.01   33.30
  -1  -3  12  885.91   37.30
  -1   3  12  887.81   38.50
  -1   3  12  896.51   25.40
  -1   3  12  906.71   36.80
   0  -3  12  364.86   17.30
   0  -3  12  364.66   23.40
   0  -3 -12  372.66   20.10
   0  -3  12  378.26   15.10
   0   3  12  369.16   17.30
   0   3  12  396.96   24.30
   0   3  12  364.56   10.70
   0   3  12  374.26   25.10
   0   3  12  340.67   18.10
   1  -3  12 1232.98   44.00
   1  -3  12 1192.98   37.90
   1   3  12 1232.08   43.20
   1   3  12 1159.38   28.30
   1   3  12 1193.48   28.20
   1   3  12 1183.98   36.40
   1   3  12 1187.48   44.70
   2  -3  12  215.58   18.40
   2  -3  12  244.88   19.20
   2  -3  12  263.17   22.30
   2  -3  12  232.68   20.40
   2   3  12  236.18   22.10
   2   3  12  245.78   11.10
   2   3  12  232.38   13.00
   3  -3  12  197.68   19.70
   3  -3  12  172.38   20.80
   3  -3  12  158.38   18.30
   3  -3  12  157.48   17.30
   3   3  12  198.48   13.10
   3   3  12  198.28   23.00
   3   3  12  189.08   11.90
   3   3  12  192.78   10.20
   4  -3  12   19.00   12.90
   4  -3  12    1.80   10.10
   4  -3  12   11.30   11.30
   4  -3  12   12.70   11.80
   4   3  12   16.80    8.10
   4   3  12   -4.30   12.70
  -5  -4  12   90.99   20.80
   5  -4 -12   70.29   16.30
  -5   4  12   74.19   16.40
   4  -4 -12  130.09   16.40
  -4  -4  12  147.99   22.80
  -4   4  12  116.69   10.10
  -4   4  12  140.69   19.40
   3  -4 -12  121.99   13.70
  -3  -4  12  142.39   20.80
  -3   4  12  126.79   10.60
  -3   4  12  133.79   17.30
  -3   4  12  138.89   13.50
  -2  -4  12  230.18   21.80
  -2   4  12  230.58   12.60
  -2   4  12  221.28   21.20
  -2   4  12  225.28   20.20
  -1  -4  12   94.69   14.50
   1  -4 -12   96.59   12.50
  -1   4  12   88.49   15.70
  -1   4  12  107.89   15.30
  -1   4  12  101.29    6.40
   0  -4  12   10.70    4.90
   0  -4  12   12.20    4.70
   0  -4  12   -0.10    8.00
   0   4  12   10.80    6.00
   0   4  12   -8.40    8.00
   1  -4  12  176.88   18.40
   1  -4  12  199.28   14.50
   1  -4  12  180.18   13.40
   1   4  12  191.88   20.50
  -1   4 -12  244.78   15.50
   1   4  12  199.18   12.80
   2  -4  12   59.19   11.00
   2  -4  12   40.10   11.10
   2  -4  12   44.10   12.40
   2  -4  12   54.59   13.90
   2   4  12   44.30    6.50
  -2   4 -12   49.90   11.00
   2   4  12   57.99   14.60
   2   4  12   58.29    4.90
   3  -4  12   75.49   14.20
   3  -4  12   62.59   16.20
   3  -4  12   71.39   13.20
   3  -4  12   58.29   13.40
  -3   4 -12   49.60   12.30
   3   4  12   51.49    5.20
   3   4  12   68.59   24.70
   3   4  12   73.29    8.30
   3   4  12   55.49    5.60
   4  -4  12    3.20   12.40
   4  -4  12    8.50   12.50
   4  -4  12    1.60    9.00
   4  -4  12   -7.80   10.10
   4   4  12    2.60    6.80
   4   4  12   -6.70   14.50
  -4  -5  12   28.40   16.30
   4  -5 -12   24.20   11.00
  -4   5  12   30.50   11.60
  -4   5  12   30.60    7.10
  -3  -5  12  319.37   28.10
   3  -5 -12  351.16   20.10
  -3   5  12  324.07   17.80
  -3   5  12  327.17   25.10
  -3   5  12  295.57   17.30
  -2  -5  12  379.56   27.70
   2  -5 -12  381.36   17.20
  -2   5  12  323.57   26.60
  -2   5  12  383.56   24.80
  -2   5  12  356.46   15.40
  -1  -5  12  397.46   26.40
  -1   5  12  386.06   24.60
  -1   5  12  399.06   29.00
   0  -5  12  337.97   13.50
   0  -5  12  355.96   15.50
   0  -5  12  361.36   24.20
   0   5  12  365.96   18.70
   0   5 -12  370.76   16.10
   0   5  12  422.76   27.90
   1  -5  12  620.94   24.50
   1  -5  12  647.14   32.20
   1  -5  12  611.44   23.70
   1  -5  12  647.94   31.00
  -1   5 -12  585.64   24.60
   1   5  12  585.84   22.70
   1   5  12  629.64   33.60
   2  -5  12  383.36   27.70
   2  -5  12  347.47   21.20
   2  -5  12  397.76   24.40
   2  -5  12  376.66   26.30
   2   5  12  348.47   14.60
  -2   5 -12  408.06   23.00
   2   5  12  358.96   27.80
   3  -5  12  487.55   28.20
   3  -5  12  466.05   26.60
   3  -5  12  467.45   32.30
   3  -5  12  518.25   31.20
   3   5  12  486.95   33.80
   3   5  12  470.95   16.60
   4  -5  12  192.88   19.20
   4  -5  12  212.08   24.70
   4  -5  12  145.99   21.50
   4  -5  12  154.78   20.50
   4   5  12  198.58   14.50
   4   5  12  171.78   24.00
  -4   5 -12  214.38   23.70
   4  -6 -12  288.07   22.00
  -4  -6  12  261.97   30.10
  -4   6  12  251.07   17.50
  -4   6  12  235.08   22.40
   3  -6 -12   75.19   10.90
  -3   6  12   65.29   14.10
  -3   6  12   84.19   12.00
  -3   6  12   72.99   10.00
  -2  -6  12  214.28   23.90
   2  -6 -12  205.78   12.30
  -2   6  12  213.38   20.90
  -2   6  12  182.08   11.00
  -2   6  12  158.78   21.00
  -1  -6  12  111.29   16.20
  -1   6  12  114.69   15.90
  -1   6  12   85.19   17.60
   0  -6  12  156.98   18.40
   0   6 -12  131.19   11.10
   0   6  12  117.99   18.80
   0   6  12  117.29   11.80
   1  -6  12   11.60    6.30
   1  -6  12    7.30    9.80
   1  -6  12   16.80   12.40
   1  -6  12   21.90    6.90
   1   6  12   13.20   12.00
   1   6  12   19.80    5.90
  -1   6 -12   17.50    7.90
   2  -6  12   47.70   10.60
   2  -6  12   69.89   13.70
   2  -6  12   89.39   17.30
   2  -6  12   83.09   17.00
  -2   6 -12   52.09   11.30
   2   6  12   62.59   16.20
   3  -6  12    7.40    8.70
   3  -6  12    5.20   10.20
   3  -6  12    8.10   14.30
   3  -6  12   12.30   15.50
   3   6  12    2.10   13.30
  -3   6 -12   -2.50    9.90
   4  -6  12   91.19   17.80
   4  -6  12  107.69   19.90
   4  -6  12  122.79   21.90
   4  -6  12  110.59   14.30
  -4   6 -12  116.59   18.80
   4   6  12  155.18   24.90
   4  -7 -12  110.99   15.00
  -4  -7  12  130.59   22.70
  -4   7  12  148.69   15.90
  -4   7  12  172.38   19.60
   3  -7 -12   84.49   11.60
  -3  -7  12   74.29   17.80
  -3   7  12  103.29   14.30
  -3   7  12   90.99   15.60
   2  -7 -12  218.88   12.10
  -2  -7  12  251.67   26.20
  -2   7  12  227.78   21.60
  -2   7  12  223.68   26.10
  -1  -7  12  264.77   24.20
   1   7 -12  268.87   11.60
  -1   7  12  337.07   28.30
  -1   7  12  250.57   22.40
   0  -7  12  491.35   29.50
   0   7 -12  469.65   29.40
   0   7  12  514.95   32.50
   0   7  12  409.96   20.90
   1  -7  12  240.48   14.50
   1  -7  12  238.58   13.10
   1  -7  12  290.67   23.00
   1  -7  12  294.17   25.50
  -1   7 -12  277.17   18.00
   1   7  12  239.58   14.00
   1   7  12  268.87   25.60
   2  -7  12  266.07   26.60
   2  -7  12  264.77   28.70
   2  -7  12  317.97   22.90
   2  -7  12  278.57   19.50
   2   7  12  268.97   10.90
  -2   7 -12  315.77   22.20
   3  -7  12  177.88   24.30
   3  -7  12  226.28   20.00
   3  -7  12  167.78   23.40
   3  -7  12  212.98   21.50
  -3   7 -12  215.68   22.60
   3   7  12  152.78   22.90
  -4  -8  12   -0.10   15.40
   4  -8 -12   21.60   10.90
  -4   8  12   40.20   11.60
  -4   8  12    2.30    9.00
   3  -8 -12  168.68   14.90
  -3  -8  12  191.98   25.60
  -3   8  12  220.58   22.20
  -3   8  12  196.88   20.70
   2  -8 -12   -1.20    4.10
  -2   8  12   -9.10   12.20
  -2   8  12    3.70   10.30
  -1  -8  12   60.39   15.10
  -1   8  12   49.60   16.20
   1   8 -12   63.79    7.20
   0  -8  12   10.80   10.50
   0  -8  12    4.40   11.50
   0   8 -12   15.90    6.70
   0   8  12   41.20   16.00
   1  -8  12   73.79   13.40
   1  -8  12   84.69   17.30
   1  -8  12   74.49    9.00
   1  -8  12   77.99    8.60
   1   8  12   59.89   16.00
   1   8  12   81.99    9.50
  -1   8 -12   80.49   11.90
   2  -8  12   -4.30   12.70
   2  -8  12    2.10    9.00
   2  -8  12    5.30   15.00
   2  -8  12    9.00    8.40
   2   8  12   -0.50   12.00
  -2   8 -12    7.90   10.20
   3  -8  12   31.40   17.00
   3  -8  12   11.60   11.00
   3  -8  12    8.40   14.60
   3  -8  12   30.80    9.60
   3   8  12   33.30   16.00
  -3   8 -12   30.70   14.40
   3  -9 -12   65.09   10.00
   3  -9 -12   56.89   17.90
  -3  -9  12   28.20   15.30
  -3   9  12   45.30   13.40
  -3   9  12   32.70   12.70
  -2  -9  12  426.66   32.70
   2  -9 -12  260.47   11.70
  -2   9  12  364.36   27.00
  -2   9  12  372.86   34.40
  -2   9  12  342.67   26.00
  -1  -9  12   82.69   16.60
   1   9 -12   64.99    8.20
  -1   9  12   71.79   22.40
   0  -9  12  376.06   27.80
   0   9  12  367.06   34.00
   0   9 -12  370.36   19.60
   1  -9  12  104.89   19.50
   1  -9  12  107.99   17.30
   1  -9  12  118.29    9.70
   1  -9  12  125.79   11.00
   1   9  12  101.69   10.70
  -1   9 -12  107.99   13.60
   1   9  12  134.69   20.80
   2  -9  12  305.77   20.40
   2  -9  12  303.87   29.20
   2  -9  12  311.37   32.10
   2  -9  12  276.37   22.30
   2   9  12  290.77   30.80
  -2   9 -12  260.67   25.90
   3  -9  12    9.30    9.10
   3  -9  12    8.20   17.30
   3  -9  12    4.50   16.30
  -3   9 -12   -0.20   11.80
   3   9  12   10.40   15.80
   3 -10 -12   27.00   15.20
  -3 -10  12   -8.00   14.60
   3 -10 -12    3.00    6.10
  -3  10  12    8.80   10.70
  -3  10  12   10.00   12.40
   2 -10 -12    9.80   13.10
  -2 -10  12    1.30   13.80
  -2  10  12    2.00   10.30
  -2  10  12   -3.80   11.20
  -2  10  12   -5.20   15.00
  -1 -10  12  114.19   20.70
  -1 -10  12   86.59   18.30
  -1  10  12  107.79   19.80
   0 -10  12    6.30   12.00
   0 -10  12    6.00   12.10
   0  10 -12    5.90    7.50
   0  10  12    4.80   13.70
   1 -10  12   12.10   14.90
   1 -10  12   11.50    5.50
   1 -10  12   13.80    5.30
   1 -10  12   15.00   11.30
  -1  10 -12   15.50   10.00
   1  10  12    7.60   13.70
   1  10  12   -1.60    6.20
   2 -10  12    2.40   15.90
   2 -10  12   20.70   11.30
   2 -10  12    0.90   16.00
   2  10  12   18.40   15.80
  -2  10 -12   28.70   12.70
   3 -11 -12  -16.40    4.70
   3 -11 -12   21.00   16.10
  -3 -11  12   -8.10   16.00
  -3  11  12    1.60   10.20
  -3  11  12   13.70   12.40
  -2 -11  12  424.96   36.00
   2 -11 -12  405.26   30.00
  -2 -11  12  463.85   33.90
  -2  11  12  484.75   33.40
  -2  11  12  468.75   39.30
  -2  11  12  426.96   30.30
  -1 -11  12   18.50   14.60
  -1 -11  12    3.10   14.60
  -1  11  12   27.10   15.70
   1  11 -12   -4.50    6.10
   0 -11  12  311.17   28.90
   0  11  12  288.47   30.50
   0  11 -12  247.58   18.30
   1 -11  12   15.00   11.50
   1 -11  12    1.00   14.40
   1 -11  12    2.80    5.00
  -1  11 -12    3.40   10.20
   1  11  12    9.60   14.70
   2 -11  12   45.70   20.50
   2 -11  12   43.30   12.80
   2 -11  12   26.70   18.70
  -2  11 -12   71.69   15.60
   2  11  12   49.90   18.60
  -2 -12  12   30.60   17.20
  -2 -12  12   52.39   19.10
   2 -12 -12   36.00   15.70
  -2  12  12   17.10   16.50
  -2  12  12   32.60   14.00
  -2  12  12    9.30   12.40
  -1 -12  12  126.89   20.50
  -1 -12  12  124.09   22.10
  -1  12  12   92.59   20.00
   1  12 -12  109.69   12.00
   0 -12  12   20.30   13.10
   0 -12  12   -5.40   14.90
   0  12 -12   20.60    9.70
   0  12  12   19.00   15.80
   1 -12  12  128.39   18.30
   1 -12  12  104.09    9.30
   1 -12  12   76.09   20.50
  -1  12 -12   90.99   15.10
   1  12  12   98.59   22.50
   0 -13  12  123.59   23.10
   0  13 -12  127.19   14.90
   5   0 -13    1.90   13.40
  -5   0  13   -5.30   13.90
  -4   0  13    0.80   11.60
   4   0 -13   -9.00   10.90
   3   0 -13   17.10    6.40
  -3   0  13    1.40   10.70
  -2   0  13    0.40    9.30
   2   0 -13    6.20    5.10
  -2   0  13   -2.50    5.40
  -1   0  13   47.30   11.60
   1   0 -13   65.59    8.00
  -1   0  13   73.89    8.60
  -1   0  13   71.99   10.70
  -1   0  13   62.39    6.00
   0   0  13   -0.70    3.90
   0   0  13   -4.10    7.40
   0   0  13    2.90    8.40
   0   0  13   -6.90    4.10
   1   0  13  341.97   21.90
   1   0  13  330.57   16.60
   1   0  13  365.76   24.40
   1   0  13  308.77   17.10
   2   0  13   -2.10    7.50
   2   0  13    1.70    5.70
   2   0  13   20.70   11.40
   2   0  13    5.20    8.50
   3   0  13  232.58   24.50
   3   0  13  244.68   17.10
   3   0  13  196.78   19.70
   3   0  13  286.87   24.60
   4   0  13  -17.20   13.10
   4   0  13   -1.40    8.80
   4   0  13    7.40    8.00
  -5  -1  13   22.60   15.00
   5  -1 -13   23.90   13.80
   5   1 -13   42.20   14.60
  -5   1  13   -0.40   12.40
   4  -1 -13  700.93   34.90
  -4  -1  13  640.74   39.60
  -4   1  13  663.13   38.40
   4   1 -13  694.53   34.00
   3  -1 -13   36.40    8.70
  -3  -1  13   32.40   13.70
   3   1 -13   35.40    7.00
  -3   1  13   45.60   14.30
   2  -1 -13 1722.13   49.30
  -2  -1  13 1747.53   58.49
  -2  -1  13 1601.14   50.29
  -2   1  13 1712.83   39.00
  -2   1  13 1686.53   39.30
  -2   1  13 1759.82   58.59
  -2   1  13 1656.63   52.09
   2   1 -13 1742.43   45.20
   1  -1 -13    1.70    4.90
  -1  -1  13   -2.10    5.10
  -1  -1  13    8.60    9.50
  -1  -1  13    7.20    5.90
  -1  -1  13    4.50    2.80
   1   1 -13    7.60    3.90
  -1   1  13    5.70    8.30
  -1   1  13   -4.70    3.60
  -1   1  13    4.00    3.50
  -1   1  13    4.70    8.90
   0  -1  13 1194.68   40.10
   0  -1  13 1186.78   44.10
   0  -1 -13 1185.38   37.50
   0  -1  13 1148.69   33.30
   0  -1  13 1123.09   36.20
   0   1  13 1144.69   32.50
   0   1  13 1158.68   44.20
   0   1  13 1159.98   34.50
   0   1  13 1191.18   43.30
   1  -1  13  107.69   14.40
   1  -1  13   74.59    9.40
   1  -1  13   81.69   13.80
   1   1  13   78.09   15.20
   1   1  13   86.19    8.80
   1   1  13   76.59   13.90
   1   1  13   59.89    9.00
   2  -1  13  467.15   28.20
   2  -1  13  409.86   20.90
   2  -1  13  455.15   26.30
   2  -1  13  405.96   25.00
   2   1  13  411.66   26.70
   2   1  13  441.76   18.50
   3  -1  13   21.10    8.90
   3  -1  13   17.70   12.70
   3  -1  13   28.80   11.10
   3  -1  13   12.30   11.00
   3   1  13   22.50    9.50
   3   1  13   22.50   13.20
   3   1  13   11.00    7.20
   4  -1  13  161.58   25.70
   4  -1  13  215.28   20.00
   4  -1  13  209.58   19.10
   4  -1  13  163.08   22.10
   4   1  13  226.78   18.60
   4   1  13  188.98   25.80
   5  -2 -13   36.50   14.50
  -5  -2  13   29.80   18.60
   5   2 -13   29.70   14.80
  -5   2  13   34.90   19.20
   4  -2 -13   29.70   11.50
  -4  -2  13   34.00   14.20
   4   2 -13   27.10    7.80
  -4   2  13   20.00   12.40
  -3  -2  13   24.40   12.70
   3  -2 -13   26.50    9.70
   3   2 -13   16.80    5.10
  -3   2  13   14.70   11.30
  -2  -2  13   -1.10    9.50
   2  -2 -13   14.00    6.80
  -2   2  13    6.00    9.30
   2   2 -13    2.80    3.30
  -2   2  13    3.30    4.20
  -2   2  13    0.40    4.70
  -2   2  13    7.60    7.60
  -1  -2  13  300.07   13.50
  -1  -2  13  280.67    9.90
  -1  -2  13  288.37   17.40
  -1  -2  13  322.37   23.50
  -1   2  13  301.37   13.50
  -1   2  13  281.97   22.10
  -1   2  13  299.47   13.40
  -1   2  13  328.57   23.10
   0  -2 -13   31.20    7.70
   0  -2  13   44.90    9.10
   0  -2  13   16.30    9.80
   0  -2  13   36.60    9.70
   0  -2  13   23.60    5.10
   0   2  13   20.80    8.10
   0   2  13   30.80    4.80
   0   2  13   26.80   11.00
   0   2  13   57.19   13.00
   0   2  13   23.60    6.30
   1  -2  13  485.55   23.50
   1  -2  13  464.25   20.70
   1  -2  13  507.45   28.10
   1   2  13  514.15   28.00
   1   2  13  475.65   16.00
   1   2  13  483.15   29.00
   1   2  13  437.36   20.60
   1   2  13  476.15   16.30
   2  -2  13   17.60   10.30
   2  -2  13   14.80    9.90
   2  -2  13    2.40    7.80
   2  -2  13   35.00   12.00
   2   2  13    9.60    4.90
   2   2  13   11.50   11.60
   2   2  13    1.80    5.40
   3  -2  13  514.55   30.80
   3  -2  13  613.24   28.40
   3  -2  13  603.34   31.80
   3  -2  13  617.54   33.00
   3   2  13  577.04   25.30
   3   2  13  582.54   23.20
   3   2  13  521.25   20.90
   4  -2  13   13.70   11.00
   4  -2  13   11.90   11.30
   4  -2  13   24.10   10.20
   4  -2  13   15.00   12.60
   4   2  13   14.90    5.10
   4   2  13   18.50   15.30
   4   2  13   19.30    8.80
  -4  -3  13  412.26   33.70
   4  -3 -13  420.06   26.10
  -4   3  13  377.66   29.90
  -4   3  13  371.76   12.20
  -3  -3  13   39.20   14.00
   3  -3 -13   51.39   11.30
  -3   3  13   35.10   12.30
   3   3 -13   41.90    4.10
  -3   3  13   41.70    5.40
  -2  -3  13  703.23   35.90
   2  -3 -13  660.33   33.30
  -2   3  13  651.13   32.30
  -2   3  13  760.22   25.50
  -2   3  13  724.63   24.90
  -2   3  13  713.53   34.30
  -1  -3  13   77.19   13.80
  -1  -3  13  115.69    6.40
   1  -3 -13  105.69   12.90
  -1  -3  13  110.29   14.50
  -1   3  13  147.09   17.80
  -1   3  13  143.19   19.00
   0  -3  13  938.11   31.30
   0  -3  13  988.00   39.80
   0  -3 -13  926.41   48.40
   0  -3  13  896.71   34.70
   0  -3  13  938.21   28.50
   0   3  13 1004.10   35.50
   0   3  13  941.01   39.60
   0   3  13  945.81   23.20
   0   3  13  970.60   23.50
   0   3  13  959.60   34.00
   0   3  13  926.61   40.40
   1  -3  13   88.39   10.10
   1  -3  13   96.69   15.50
   1   3  13  105.19    4.90
   1   3  13  109.29   12.60
   1   3  13   99.19    4.80
   1   3  13  118.69   16.90
   2  -3  13  262.67   22.90
   2  -3  13  278.87   22.60
   2  -3  13  257.27   20.20
   2  -3  13  297.37   21.20
   2   3  13  293.47   11.80
   2   3  13  254.57   14.40
   2   3  13  303.67   25.00
   3  -3  13   40.10   12.30
   3  -3  13   50.39   15.60
   3  -3  13   41.00   14.10
   3  -3  13   55.59   14.20
   3   3  13   42.30    7.50
   3   3  13   32.70    6.50
   3   3  13   30.10   14.00
   3   3  13   43.60    7.60
   4  -3  13  132.29   18.20
   4  -3  13   94.49   17.50
   4  -3  13  115.99   18.00
   4  -3  13  119.09   21.40
   4   3  13  125.29   21.90
   4   3  13  136.49   14.20
   4  -4 -13    7.20   10.20
  -4  -4  13    9.70   13.60
  -4   4  13    4.10    4.60
  -4   4  13   -1.20   10.80
   3  -4 -13   12.10    8.70
  -3  -4  13   -0.50   11.90
  -3   4  13    8.80   10.30
  -3   4  13    3.70    4.90
  -2  -4  13   21.80   11.40
  -2   4  13   43.10   12.40
  -2   4  13   12.70    5.20
  -2   4  13   15.70    9.90
  -1  -4  13  198.48   21.20
  -1   4  13  180.28   20.10
  -1   4  13  202.28   23.00
  -1   4  13  180.38    8.30
   0  -4  13  128.39   10.00
   0  -4  13  134.99   10.70
   0  -4  13  159.88   18.20
   0   4  13  136.39   18.00
   0   4  13  127.19   12.80
   0   4  13  181.08   21.90
   1  -4  13  175.78   14.30
   1  -4  13  170.88   19.40
   1  -4  13  140.59   12.80
   1   4  13  169.08   15.00
   1   4  13  201.38   22.00
   2  -4  13  105.69   17.60
   2  -4  13   93.39   13.70
   2  -4  13   99.39   16.10
   2  -4  13  118.59   16.80
   2   4  13   85.19   16.40
   2   4  13   87.29    9.30
   3  -4  13   50.19   13.10
   3  -4  13   51.19   13.90
   3  -4  13   33.00   11.30
   3  -4  13   36.90   14.80
   3   4  13   39.30    5.30
   3   4  13   44.30    6.60
   3   4  13   24.30    4.90
   3   4  13   41.20   15.80
   4  -4  13    2.10   12.80
   4  -4  13   13.80   12.50
   4  -4  13   19.80   11.20
   4  -4  13    9.90   15.90
   4   4  13   -1.90    6.60
   4   4  13   14.70   15.10
   4  -5 -13  229.38   20.70
  -4  -5  13  199.58   26.80
  -4   5  13  202.58   23.10
  -4   5  13  211.18   13.50
   3  -5 -13  240.18   17.60
  -3  -5  13  240.88   27.40
  -3   5  13  217.18   15.10
  -3   5  13  199.58   15.00
  -3   5  13  211.68   23.50
  -2  -5  13  466.65   31.00
  -2   5  13  437.96   28.20
  -2   5  13  399.26   29.60
  -2   5  13  399.36   16.40
  -1  -5  13  214.98   22.90
  -1   5  13  167.98   23.20
  -1   5  13  198.38   20.60
   0  -5  13  340.17   13.20
   0  -5  13  363.86   25.50
   0  -5  13  329.77   15.10
   0   5  13  302.17   20.90
   0   5  13  372.66   28.00
   1  -5  13  365.56   18.70
   1  -5  13  395.36   26.20
   1  -5  13  360.66   19.40
   1  -5  13  427.26   26.70
   1   5  13  369.26   18.50
  -1   5 -13  384.56   20.00
   1   5  13  411.56   29.20
   2  -5  13  247.68   19.50
   2  -5  13  306.57   25.50
   2  -5  13  246.48   23.40
   2  -5  13  254.47   21.90
   2   5  13  238.98   25.40
  -2   5 -13  277.07   20.40
   2   5  13  249.68   13.00
   3  -5  13  168.38   31.30
   3  -5  13  192.68   23.90
   3  -5  13  196.98   21.20
   3  -5  13  182.68   20.30
   3   5  13  188.78    8.60
   3   5  13  196.68   23.60
  -3   5 -13  174.28   19.40
   4  -5  13    7.60   14.20
   4  -5  13   22.50   11.80
   4  -5  13    9.60   12.60
   4  -5  13   -1.80   11.80
   4   5  13   35.50   17.10
   4   5  13    0.20    5.90
   4  -6 -13   12.40   10.50
  -4  -6  13   17.70   16.60
  -4   6  13   -5.90    6.40
  -4   6  13    6.80   10.80
  -3  -6  13   65.09   16.40
   3  -6 -13   53.99   10.30
  -3   6  13   41.70    9.80
  -3   6  13   41.50    8.30
  -3   6  13   62.99   14.70
  -2  -6  13   19.00   12.50
  -2   6  13    3.80    4.30
  -2   6  13   26.40   12.20
  -2   6  13    3.30   11.00
  -1  -6  13   94.99   16.70
  -1   6  13  100.19   16.10
  -1   6  13  101.99   19.10
   0  -6  13  143.19   18.30
   0   6 -13  145.39   11.60
   0   6  13  139.59   19.80
   1  -6  13  329.77   17.20
   1  -6  13  381.16   27.90
   1  -6  13  327.77   24.60
  -1   6 -13  316.37   18.90
   1   6  13  275.07   16.00
   1   6  13  351.56   28.60
   2  -6  13   94.49   19.00
   2  -6  13   77.39   14.80
   2  -6  13   61.39   11.70
   2  -6  13   78.99   16.80
   2   6  13   62.49    7.20
  -2   6 -13   86.59   13.20
   2   6  13  110.89   29.10
   3  -6  13   80.19   20.70
   3  -6  13   48.70   12.40
   3  -6  13   58.99   15.60
   3  -6  13   54.59   13.50
   3   6  13   70.69   19.10
  -3   6 -13   72.69   14.80
  -4  -7  13   61.19   20.20
   4  -7 -13   40.00   11.50
  -4   7  13   18.30   11.90
  -4   7  13   47.90   10.70
  -3  -7  13  364.16   32.40
   3  -7 -13  342.17   19.10
  -3   7  13  343.97   27.20
  -3   7  13  347.47   23.00
  -2  -7  13  211.98   34.60
  -2   7  13  204.68   21.60
  -2   7  13  162.58   23.50
  -1  -7  13  895.31   41.60
  -1   7  13  844.22   44.00
  -1   7  13  742.73   37.70
   0  -7  13   76.49   15.90
   0   7 -13   90.39   10.30
   0   7  13   95.09   18.50
   1  -7  13  354.96   26.20
   1  -7  13  326.17   27.10
   1  -7  13  300.47   16.20
   1  -7  13  300.17   14.80
  -1   7 -13  330.97   19.90
   1   7  13  298.07   16.40
   1   7  13  300.67   29.10
   2  -7  13   88.49   18.60
   2  -7  13   87.59   31.00
   2  -7  13  100.09   15.70
   2  -7  13   98.59   13.30
   2   7  13  121.79   21.00
  -2   7 -13  107.59   15.40
   3  -7  13  120.79   22.10
   3  -7  13  100.79   15.20
   3  -7  13  103.29   16.20
   3  -7  13  102.49   20.70
  -3   7 -13  111.09   17.80
   3   7  13  123.89   21.40
  -3  -8  13    0.00   13.50
   3  -8 -13  -12.80    6.20
  -3   8  13   -1.40   10.00
  -3   8  13    0.30    9.80
  -2  -8  13  112.39   20.80
  -2   8  13  117.29   25.60
  -2   8  13  103.99   18.50
  -1  -8  13   52.49   15.10
  -1   8  13   69.09   14.90
   1   8 -13   67.59    6.80
  -1   8  13   55.99   17.00
   0  -8  13   65.09   15.00
   0   8  13   46.20   16.30
   0   8 -13   49.50    8.90
   1  -8  13   54.49    6.90
   1  -8  13   46.40   12.90
   1  -8  13   34.80   15.30
   1  -8  13   68.99    8.50
  -1   8 -13   63.09   12.10
   1   8  13   71.39   17.90
   1   8  13   58.59    9.20
   2  -8  13  151.98   18.40
   2  -8  13  170.48   24.40
   2  -8  13  133.39   14.80
   2  -8  13  137.29   23.30
  -2   8 -13  145.59   17.40
   2   8  13  156.28   23.80
   2   8  13  128.59    7.30
   3  -8  13   22.90   16.20
   3  -8  13    8.50   15.70
   3  -8  13   -6.10    8.70
   3  -8  13    2.40   10.40
  -3   8 -13   11.90   11.90
   3   8  13   18.50   15.60
  -3  -9  13  459.45   37.40
  -3   9  13  371.16   28.20
  -3   9  13  358.26   28.50
  -2  -9  13    8.30   14.40
  -2   9  13   24.80   11.60
  -2   9  13   42.60   19.10
  -2   9  13   25.00   13.10
  -1  -9  13  690.63   39.70
  -1   9  13  684.63   42.10
  -1   9  13  583.54   34.40
   1   9 -13  653.23   21.70
   0  -9  13   94.29   20.00
   0  -9  13   92.69   16.80
   0   9 -13   84.49   11.20
   0   9  13  132.39   22.90
   1  -9  13  301.27   14.30
   1  -9  13  356.86   31.20
   1  -9  13  342.57   26.30
   1  -9  13  319.47   14.90
   1   9  13  342.07   31.50
  -1   9 -13  350.66   22.20
   2  -9  13   45.80   19.80
   2  -9  13   36.40   12.20
   2  -9  13   29.70    9.60
   2  -9  13   14.90   16.50
  -2   9 -13   30.20   12.10
   2   9  13   27.30   15.30
  -3 -10  13  -11.40   13.90
   3 -10 -13   -7.60    4.50
  -3  10  13   -0.40   11.30
  -3  10  13   -8.70   11.50
  -2 -10  13   -1.60   14.30
  -2  10  13  -13.10   13.50
  -2  10  13   -8.80   10.80
  -2  10  13   13.90   11.40
  -1 -10  13   96.39   20.40
  -1 -10  13   94.19   20.00
  -1  10  13   92.89   17.50
   1  10 -13   94.39    9.70
  -1  10  13  101.19   21.50
   0 -10  13   95.89   29.80
   0 -10  13   85.09   19.40
   0  10 -13  105.29   12.30
   0  10  13   59.89   17.80
   1 -10  13   40.00   16.90
   1 -10  13   28.90   12.70
   1 -10  13   20.70    5.60
   1  10  13    9.90   14.20
  -1  10 -13    7.20    9.60
   2 -10  13   98.49   23.00
   2 -10  13  107.79   17.00
   2 -10  13  101.69   22.50
   2 -10  13   67.39   11.80
   2  10  13   66.19   18.20
  -2  10 -13   76.09   14.90
  -2 -11  13   12.30   15.50
  -2 -11  13    3.60   14.80
  -2  11  13   23.90   13.20
  -2  11  13   18.70   18.20
  -2  11  13   28.90   14.70
  -1 -11  13  348.37   32.50
  -1 -11  13  359.16   31.30
  -1  11  13  305.47   32.90
   0 -11  13   24.00   13.80
   0 -11  13   15.20   16.00
   0  11  13   13.80   17.30
   0  11 -13    6.80    8.30
   1 -11  13  107.19   22.60
   1 -11  13  113.09    7.90
  -1  11 -13  166.28   20.60
   1  11  13   83.89   20.10
  -1 -12  13  -18.90   12.90
  -1 -12  13   17.50   15.90
  -1  12  13  -13.30   12.80
   0 -12  13   56.89   16.20
   0 -12  13   69.09   20.10
   0  12  13   38.00   16.40
   0  12 -13   57.99   11.10
  -4   0  14    6.00   13.00
   3   0 -14   -7.50    5.60
  -3   0  14    0.00   10.80
   2   0 -14  668.93   24.70
  -2   0  14  630.34   26.10
  -2   0  14  692.13   35.50
   1   0 -14    7.30    5.10
  -1   0  14   -2.00    6.60
  -1   0  14    5.40    9.20
  -1   0  14   -2.60    5.00
   0   0  14 1413.06   47.50
   0   0  14 1301.57   39.20
   0   0  14 1438.46   51.29
   0   0  14 1358.56   38.90
   1   0  14    2.30    5.60
   1   0  14    0.80    8.40
   1   0  14  -11.20   10.20
   2   0  14  887.21   38.50
   2   0  14  907.51   37.40
   2   0  14  880.01   41.10
   2   0  14  883.41   30.60
   3   0  14   26.90   18.40
   3   0  14    0.10    7.10
   3   0  14   -1.70    9.60
   4   0  14  423.36   33.60
   4   0  14  404.76   31.40
   4   0  14  393.36   22.40
   4   0  14  414.66   24.20
   4  -1 -14   36.20   14.30
  -4  -1  14   24.20   14.70
   3  -1 -14  112.19   12.70
  -3  -1  14  114.39   18.50
  -3   1  14  120.99   19.00
   3   1 -14  124.49   11.00
  -2  -1  14    4.40    9.80
   2  -1 -14   22.80    6.60
  -2   1  14    7.30    2.20
  -2   1  14    7.30    2.00
  -2   1  14    8.10   10.10
   2   1 -14    9.60    4.90
  -2   1  14    6.20    6.90
  -2   1  14    4.50    5.80
  -1  -1  14  193.38   13.70
  -1  -1  14  225.08   21.70
   1  -1 -14  174.48   13.50
  -1  -1  14  170.18    8.30
  -1  -1  14  160.88   13.20
   1   1 -14  170.98   10.90
  -1   1  14  180.68   10.10
  -1   1  14  173.58   11.70
  -1   1  14  171.08   17.50
  -1   1  14  185.18   20.40
   0  -1  14   40.30   10.30
   0  -1 -14   27.60    7.50
   0  -1  14   38.50    6.70
   0  -1  14   40.70    7.90
   0  -1  14   49.10   13.00
   0   1  14   37.90    6.70
   0   1  14   38.70   11.70
   0   1  14   36.40   11.80
   0   1  14   34.10    6.00
   1  -1  14   15.60    8.80
   1  -1  14   21.40   11.50
   1  -1  14   30.20   13.00
   1   1  14   21.40    5.60
   1   1  14   19.20   11.20
   1   1  14    9.50    4.40
   1   1  14   31.40   11.80
   2  -1  14    6.30   10.10
   2  -1  14   -5.90    6.30
   2  -1  14   11.40    9.70
   2  -1  14    8.70   11.10
   2   1  14    0.40    5.40
   2   1  14   13.10   11.20
   2   1  14   -9.40   10.30
   3  -1  14    9.40   11.50
   3  -1  14    6.70   13.70
   3  -1  14    1.20    7.60
   3  -1  14  -16.20   10.50
   3   1  14   14.90    7.70
   3   1  14    6.30    9.50
   3   1  14   17.90   12.70
   4  -1  14  -11.60    9.20
   4  -1  14   -0.60   12.00
   4  -1  14    9.20   14.40
   4   1  14  -15.10    6.20
   4   1  14   -9.40    7.80
   4   1  14   10.10   13.60
  -4  -2  14  203.08   26.00
   4  -2 -14  175.98   20.00
  -4   2  14  170.48   22.80
  -3  -2  14   53.39   14.90
  -3   2  14   49.60   14.90
  -2  -2  14  488.35   30.80
   2  -2 -14  447.66   22.40
  -2   2  14  507.25   30.20
  -2   2  14  461.75   16.30
  -2   2  14  440.26   19.50
  -2   2  14  455.65   15.00
   2   2 -14  455.35   15.30
  -2   2  14  463.95   25.10
  -1  -2  14  254.07   16.70
  -1  -2  14  246.48   12.60
   1  -2 -14  216.98   16.00
  -1  -2  14  218.08   22.10
  -1  -2  14  222.78    8.90
  -1   2  14  258.87   22.70
  -1   2  14  278.37   22.20
  -1   2  14  238.58   12.50
  -1   2  14  235.58   12.20
   0  -2  14  693.73   28.20
   0  -2  14  693.83   23.50
   0  -2  14  688.33   34.40
   0  -2  14  717.03   28.60
   0  -2 -14  670.93   31.80
   0   2  14  754.52   35.40
   0   2  14  680.03   22.30
   0   2  14  694.73   34.40
   1  -2  14  133.69   14.80
   1  -2  14  143.69   15.70
   1  -2  14  113.49   16.80
   1   2  14  168.98   21.20
   1   2  14  131.79    9.00
   1   2  14  154.98   18.70
   1   2  14  142.59    8.80
   2  -2  14  800.22   38.10
   2  -2  14  748.53   31.20
   2  -2  14  740.83   36.00
   2  -2  14  814.92   34.80
   2   2  14  684.43   27.30
   2   2  14  790.12   24.60
   2   2  14  826.52   38.50
   3  -2  14   38.50   13.00
   3  -2  14   44.20   14.30
   3  -2  14   43.60   10.90
   3  -2  14   47.70   14.70
   3   2  14   47.30    9.70
   3   2  14   30.60   14.20
   3   2  14   49.30   10.90
   3   2  14   50.39    8.40
   4  -2  14  182.38   23.00
   4  -2  14  156.48   20.00
   4  -2  14  201.58   20.70
   4  -2  14  153.88   19.40
   4   2  14  162.58   11.90
   4   2  14  204.68   27.00
   4   2  14  218.78   17.30
   4  -3 -14   25.30   12.40
  -4  -3  14   17.10   15.40
  -4   3  14   22.40   14.10
  -3  -3  14  301.97   44.30
  -3   3  14  296.37   11.40
  -3   3  14  360.16   27.60
  -2  -3  14   94.39   17.70
  -2   3  14  110.69   16.00
  -2   3  14   90.49    9.90
  -2   3  14   90.89   16.30
  -2   3  14   91.09    9.50
  -1  -3  14  236.48   22.30
  -1   3  14  198.88   21.90
  -1   3  14  215.38   15.10
  -1   3  14  224.98   22.20
  -1   3  14  215.38   13.00
   0  -3  14    9.90    6.90
   0  -3  14    2.90    4.70
   0  -3  14    2.50   10.50
   0   3  14    7.20   11.00
   0   3  14    8.80    2.50
   0   3  14    0.70    5.10
   0   3  14   11.60   10.90
   0   3  14    8.20    2.50
   1  -3  14    4.00    9.50
   1  -3  14  -10.10    6.70
   1  -3  14   -5.50    7.10
   1   3  14    3.70    5.90
   1   3  14   12.70   10.60
   1   3  14   -0.90    9.70
   2  -3  14   17.10    9.40
   2  -3  14   32.70   13.40
   2  -3  14   29.90   10.70
   2  -3  14   23.80   11.00
   2   3  14   23.20    4.40
   2   3  14    3.60   12.30
   3  -3  14   14.30   11.60
   3  -3  14   10.30   13.00
   3  -3  14   15.40   10.80
   3  -3  14   12.70   11.00
   3   3  14   16.50    6.10
   3   3  14  -10.40   11.20
   3   3  14   -8.10    5.00
   3   3  14    8.30    7.00
   4  -4 -14  217.98   21.10
  -4  -4  14  259.87   30.20
  -4   4  14  183.68    9.70
  -4   4  14  198.98   23.80
  -3  -4  14  217.28   25.70
  -3   4  14  229.28   12.40
  -3   4  14  248.38   24.50
  -2  -4  14  502.15   32.80
  -2   4  14  530.85   31.40
  -2   4  14  481.15   19.10
  -2   4  14  530.65   31.30
  -1  -4  14  242.18   23.50
  -1   4  14  242.98   24.50
  -1   4  14  252.27   23.20
  -1   4  14  230.38    9.20
   0  -4  14 1034.80   31.10
   0  -4  14 1049.09   43.90
   0  -4  14  940.31   30.10
   0   4  14  990.70   43.50
   0   4  14 1084.39   45.80
   1  -4  14  430.06   28.00
   1   4  14  444.16   30.20
   1   4  14  378.56   19.30
   2  -4  14  788.72   38.30
   2  -4  14  759.72   32.80
   2  -4  14  766.82   36.90
   2  -4  14  748.93   34.90
   2   4  14  750.62   39.50
   2   4  14  719.63   26.00
   3  -4  14   50.39   14.40
   3  -4  14   73.69   17.80
   3  -4  14   50.09   13.00
   3   4  14   38.30    6.30
   3   4  14   65.49   17.70
   3   4  14   42.70    5.80
  -4  -5  14  105.49   21.20
   4  -5 -14   61.49   12.70
  -4   5  14   97.49   18.40
   3  -5 -14   87.39   12.10
  -3  -5  14  116.19   21.00
  -3   5  14   70.49   15.90
  -3   5  14   94.59   10.70
  -3   5  14   63.29   12.70
  -2  -5  14  123.39   21.30
  -2   5  14   82.89   17.50
  -2   5  14  117.59   17.40
  -2   5  14  105.59    8.90
  -1  -5  14   35.90   13.00
  -1   5  14   31.70   12.50
  -1   5  14   35.90   14.00
   0  -5  14   40.20    6.80
   0  -5  14   49.30   13.20
   0  -5  14   60.69    6.10
   0   5  14   24.80   13.30
   0   5  14   57.89   15.20
   1  -5  14   23.50   11.10
   1  -5  14   19.30    7.50
   1  -5  14   15.00   12.80
   1   5  14   -0.30    6.40
   1   5  14   15.30   13.10
   2  -5  14    8.90    9.80
   2  -5  14   18.80   14.90
   2  -5  14    1.10    8.50
   2  -5  14   18.20   12.30
   2   5  14   12.30   12.50
   2   5  14   -3.10    5.00
   3  -5  14   -5.60   10.20
   3  -5  14   23.30   12.70
   3  -5  14   -7.90   13.10
   3  -5  14   10.90   10.20
   3   5  14   27.40   15.90
   4  -6 -14   86.09   14.40
  -4  -6  14   90.39   20.80
  -4   6  14   72.49   10.30
  -4   6  14   83.89   18.30
   3  -6 -14  140.79   14.40
  -3  -6  14  120.59   20.90
  -3   6  14  103.89   13.20
  -3   6  14  154.28   21.50
  -3   6  14   96.29   11.40
  -2  -6  14  317.37   28.90
  -2   6  14  340.57   26.70
  -2   6  14  250.17   27.10
  -1  -6  14  443.46   31.50
  -1   6  14  435.26   32.40
  -1   6  14  483.15   30.40
   0  -6  14  742.83   38.40
   0   6  14  783.72   41.30
   1  -6  14  465.65   29.00
   1  -6  14  465.95   31.00
   1  -6  14  424.96   19.90
   1   6  14  416.56   31.30
   1   6  14  373.86   19.40
  -1   6 -14  456.35   22.70
   2  -6  14  218.88   18.90
   2  -6  14  235.68   28.90
   2  -6  14  216.58   25.20
   2  -6  14  244.18   23.20
  -2   6 -14  247.48   20.40
   2   6  14  211.38   12.70
   2   6  14  273.27   28.10
   3  -6  14  131.19   17.90
   3  -6  14  137.19   23.00
   3  -6  14  141.19   21.60
   3  -6  14  165.38   20.00
  -3   6 -14  125.89   18.10
   3   6  14  145.99   24.10
  -3  -7  14   24.40   15.70
   3  -7 -14   31.00    8.70
  -3   7  14   33.10   13.00
  -3   7  14   27.30    9.70
  -2  -7  14  120.19   21.60
  -2   7  14  110.39   29.00
  -2   7  14   92.39   16.20
  -1   7  14   23.80   12.40
  -1   7  14   10.20   13.90
   0  -7  14   62.29   15.90
   0   7  14   69.09   16.80
   0   7 -14   79.99    9.60
   1  -7  14   20.10    6.70
   1  -7  14   10.40   13.10
   1  -7  14   18.10   12.30
   1  -7  14    7.70    5.60
   1   7  14   29.40   14.70
   1   7  14    2.10    6.60
  -1   7 -14   19.90    8.50
   2  -7  14   -2.00   14.90
   2  -7  14    7.40    9.10
   2  -7  14    1.60   12.60
   2  -7  14   -9.60    9.70
  -2   7 -14    4.60    9.20
   2   7  14   -9.60    4.20
   2   7  14   16.90   14.60
   3  -7  14  -11.10   13.50
   3  -7  14   -9.80   12.10
   3  -7  14  -10.80    9.60
   3  -7  14  -10.40   15.30
   3   7  14  -25.40   12.40
  -3   7 -14    4.80   11.50
  -3  -8  14  119.69   22.30
  -3   8  14   99.79   15.70
  -3   8  14  154.78   21.00
  -2  -8  14  169.98   25.40
  -2   8  14  182.48   22.70
  -2   8  14   82.49   20.60
  -1  -8  14  298.97   28.60
  -1   8  14  324.97   27.60
  -1   8  14  362.96   32.30
   0  -8  14  232.88   25.50
   0  -8  14  217.08   25.00
   0   8  14  274.57   29.20
   0   8 -14  266.27   15.70
   1  -8  14  261.87   25.10
   1  -8  14  256.57   27.20
   1  -8  14  255.57   13.70
   1  -8  14  258.07   13.00
   1   8  14  319.47   30.60
  -1   8 -14  291.37   19.70
   1   8  14  233.98   16.10
   2  -8  14  143.79   19.50
   2  -8  14  132.79   22.20
   2  -8  14  126.09   14.60
   2  -8  14  141.69   23.40
   2   8  14  118.99   22.20
  -2   8 -14  121.49   16.40
  -3  -9  14   32.50   16.80
  -3   9  14   -3.90   12.10
  -3   9  14  -12.00   11.60
  -2  -9  14   82.99   20.90
  -2   9  14   84.09   17.30
  -2   9  14   76.79   15.90
  -2   9  14   72.59   20.30
  -1  -9  14   23.10   15.40
  -1   9  14   -5.00   19.80
  -1   9  14    0.10   14.10
   0  -9  14   65.79   18.50
   0  -9  14   80.99   16.40
   0   9  14   89.59   21.00
   0   9 -14   63.49    9.50
   1  -9  14   12.80   15.40
   1  -9  14   -4.00   12.10
   1  -9  14   -3.00    4.20
   1   9  14    7.80   15.70
  -1   9 -14    7.50    8.90
   2  -9  14   18.50   16.40
   2  -9  14   16.60    9.10
   2  -9  14   22.70   12.00
   2  -9  14   14.10   17.40
   2   9  14    3.30   15.10
  -2   9 -14   14.90   11.20
  -2 -10  14    0.10   15.50
  -2  10  14   27.80   18.90
  -2  10  14   22.80   12.10
  -2  10  14   22.40   17.10
  -1 -10  14  304.87   31.50
  -1 -10  14  341.97   32.40
  -1  10  14  358.26   29.30
  -1  10  14  329.97   33.20
   0 -10  14   19.10   14.70
   0 -10  14   11.50   13.80
   0  10 -14    7.90    7.60
   0  10  14    5.40   14.30
   1 -10  14  249.97   29.10
   1 -10  14  303.57   26.90
  -1  10 -14  262.67   20.80
   1  10  14  254.17   29.80
  -1 -11  14   -1.20   13.10
  -1 -11  14  -15.10   13.60
  -1  11  14  -14.10   11.50
  -1  11  14   -9.10   15.60
   1  11 -14  -11.00    4.20
   0 -11  14   27.00   15.10
   0 -11  14   -2.30   15.70
   0  11  14  -22.40   14.10
   0  11 -14   -2.00    7.90
   1 -11  14   -8.10   16.30
   1 -11  14   10.50   13.00
  -1  11 -14    4.20    9.60
  -4   0  15  -13.60   11.80
   3   0 -15  450.35   24.30
  -2   0  15   -2.50   10.30
   2   0 -15   -5.30    5.40
  -1   0  15  538.95   17.60
   1   0 -15  545.05   22.00
  -1   0  15  569.34   32.30
  -1   0  15  504.15   29.60
   0   0  15    1.00    8.00
   0   0  15    2.20   10.10
   0   0  15    2.10    4.90
   0   0  15   -6.30    4.30
   1   0  15  411.56   29.10
   1   0  15  361.46   17.70
   1   0  15  387.56   25.50
   2   0  15   -4.70    6.30
   2   0  15    1.00    9.80
   2   0  15    0.20   10.50
   2   0  15   -2.20   12.10
   3   0  15  295.77   28.10
   3   0  15  240.98   25.90
   3   0  15  231.48   17.60
   3   0  15  214.68   22.20
  -4  -1  15   89.89   21.00
  -4   1  15   63.49   17.50
  -3  -1  15    6.00   12.20
   3  -1 -15   17.50    9.40
  -3   1  15   10.80   13.80
   3   1 -15    4.90    6.00
  -2  -1  15  110.39   17.90
   2  -1 -15  165.88   14.30
  -2   1  15  181.58   21.90
  -2   1  15  146.69   14.70
   2   1 -15  136.79   10.40
  -2   1  15  116.19   12.30
  -1  -1  15   11.20    6.40
  -1  -1  15   -2.00    3.00
   1  -1 -15    3.90    6.10
  -1  -1  15   -0.20    9.80
  -1  -1  15    7.80    6.60
  -1   1  15    2.90    8.20
  -1   1  15    2.30    3.80
  -1   1  15    4.00    5.20
  -1   1  15   12.40   11.10
   0  -1  15  333.77   21.00
   0  -1  15  359.06   16.60
   0  -1  15  378.26   27.30
   0  -1  15  359.56   22.20
   0   1  15  385.86   27.90
   0   1  15  347.87   15.50
   0   1  15  430.86   26.60
   0   1  15  362.56   19.70
   1  -1  15   24.10   12.10
   1  -1  15    6.20    7.40
   1  -1  15   19.40    9.80
   1   1  15   18.30    5.80
   1   1  15   16.40   11.60
   1   1  15   29.30   12.00
   1   1  15    9.40    5.00
   2  -1  15  592.14   25.50
   2  -1  15  636.54   32.70
   2  -1  15  602.94   34.80
   2  -1  15  574.44   31.40
   2   1  15  542.15   32.90
   2   1  15  612.94   53.89
   2   1  15  523.55   30.20
   3  -1  15   -3.10   11.60
   3  -1  15    8.80    8.60
   3  -1  15   22.30   12.30
   3  -1  15   -2.30   10.80
   3   1  15    6.50   12.60
   3   1  15   -5.90   12.10
   3   1  15    1.20    9.40
   3   1  15    8.00    6.60
  -4  -2  15  106.69   22.10
  -4   2  15  112.29   20.70
  -3  -2  15  239.38   26.50
  -3   2  15  200.08   23.70
  -2  -2  15   24.90   12.60
  -2   2  15   15.90   12.50
  -2   2  15    8.70    3.50
  -2   2  15   18.70    4.60
  -2   2  15    9.30    7.20
  -2   2  15   16.00    9.70
  -1  -2  15  616.64   17.50
  -1  -2  15  665.83   22.20
  -1  -2  15  661.83   35.50
  -1   2  15  617.14   21.50
  -1   2  15  617.14   21.90
  -1   2  15  682.13   33.30
  -1   2  15  653.33   35.30
   0  -2  15   47.90   13.10
   0  -2  15   36.90    9.00
   0  -2  15   38.90    9.60
   0  -2  15   30.40    6.50
   0   2  15   45.30   12.80
   0   2  15   31.70   12.80
   0   2  15   43.00    7.70
   1  -2  15  697.13   36.50
   1  -2  15  721.63   31.20
   1   2  15  651.43   26.50
   1   2  15  698.03   20.90
   1   2  15  678.93   35.40
   1   2  15  683.43   37.20
   2  -2  15   85.89   16.80
   2  -2  15   76.89   12.30
   2  -2  15   72.99   15.70
   2  -2  15   76.19   14.10
   2   2  15  103.69   19.40
   2   2  15   67.09    7.70
   2   2  15   93.49   17.00
   3  -2  15  225.28   23.90
   3  -2  15  214.58   24.30
   3  -2  15  229.88   19.80
   3  -2  15  225.08   25.10
   3   2  15  199.68   18.10
   3   2  15  236.58   14.80
   3   2  15  201.38   24.10
  -4  -3  15   -4.10   13.80
  -4   3  15   -0.90   12.90
  -3  -3  15   99.99   20.00
  -3   3  15   50.59    4.50
  -3   3  15   61.09   15.20
  -3   3  15   45.70    4.20
  -2   3  15  117.19    9.00
  -2   3  15  131.69   16.90
  -2   3  15  124.39   11.00
  -2   3  15  164.48   21.40
  -2   3  15  130.19   11.60
  -1  -3  15   23.50   12.40
  -1   3  15   12.90    4.50
  -1   3  15   17.50   11.20
  -1   3  15   15.70   11.20
  -1   3  15   10.20    5.50
   0  -3  15  187.38   14.80
   0  -3  15  195.18   12.10
   0  -3  15  197.38   23.40
   0   3  15  213.38   23.70
   0   3  15  188.68   22.20
   0   3  15  196.78    6.60
   1  -3  15    2.60    7.70
   1  -3  15   -2.30   10.70
   1   3  15   -0.40   11.10
   1   3  15    1.20   11.30
   2  -3  15  284.27   25.50
   2  -3  15  280.67   21.00
   2  -3  15  289.17   26.10
   2  -3  15  256.17   21.30
   2   3  15  292.87   33.90
   2   3  15  258.57   10.00
   2   3  15  250.07    9.60
   2   3  15  219.88   15.60
   3  -3  15   10.20   11.40
   3  -3  15   18.00   11.00
   3  -3  15  -16.40   12.60
   3  -3  15   24.80   12.20
   3   3  15   17.00    5.80
   3   3  15   25.50   14.40
  -4  -4  15   73.69   19.00
   4  -4 -15   75.79   13.70
  -4   4  15   50.39   16.10
  -3  -4  15  171.08   24.10
  -3   4  15  175.68   10.50
  -3   4  15  215.38   24.70
  -2  -4  15  178.38   22.30
  -2   4  15  171.08   21.30
  -2   4  15  134.69   10.40
  -2   4  15  148.49   20.00
  -1  -4  15  470.25   31.40
  -1   4  15  457.15   31.40
  -1   4  15  462.45   13.50
  -1   4  15  463.15   31.00
  -1   4  15  421.56   19.90
   0  -4  15  269.37   25.70
   0  -4  15  269.27   14.30
   0  -4  15  235.38   13.50
   0   4  15  249.48   24.90
   0   4  15  276.07   25.10
   1  -4  15  283.37   25.80
   1  -4  15  293.57   19.50
   1   4  15  327.87   27.60
   1   4  15  419.66   50.29
   2  -4  15   47.50   13.40
   2  -4  15   42.00   14.40
   2  -4  15   56.19   15.70
   2  -4  15   51.99   12.20
   2   4  15   48.80    8.90
   2   4  15   52.89   16.70
   3  -4  15   73.39   14.30
   3  -4  15  101.39   17.30
   3  -4  15   65.39   18.50
   3  -4  15  107.99   17.00
   3   4  15   84.09    9.10
   3   4  15   81.09    5.80
  -4  -5  15  -15.40   13.40
   4  -5 -15   13.90   10.40
  -4   5  15    4.70   13.90
  -4   5  15    9.50    4.90
  -3  -5  15   49.70   17.00
  -3   5  15   45.60   15.40
  -3   5  15   40.10   10.20
  -2  -5  15    2.70   11.20
  -2   5  15    3.90    4.50
  -2   5  15    0.20   11.20
  -2   5  15   21.00   12.80
  -1  -5  15   18.00   18.90
  -1   5  15    8.20   12.10
  -1   5  15    4.70   10.60
   0  -5  15   52.39   14.70
   0  -5  15   57.19    5.80
   0  -5  15   38.40    6.70
   0   5  15   59.09   16.20
   0   5  15   62.39   17.20
   1  -5  15   22.90   13.10
   1  -5  15   32.30   16.70
   1   5  15    7.00   13.30
   2  -5  15  110.19   17.30
   2  -5  15  115.09   15.40
   2  -5  15  168.48   23.00
   2  -5  15  184.68   21.70
   2   5  15  143.59   21.70
   2   5  15  115.99   12.10
   3  -5  15  100.79   18.20
   3  -5  15  107.39   17.70
   3  -5  15   90.89   15.80
   3  -5  15   55.59   18.10
   3   5  15   99.19   19.90
  -3  -6  15  139.39   22.90
  -3   6  15  111.49   19.60
  -3   6  15  141.09   14.70
  -2  -6  15  394.86   31.90
  -2   6  15  359.66   28.70
  -2   6  15  363.86   31.60
  -1  -6  15  146.79   22.40
  -1   6  15  148.19   20.40
  -1   6  15  139.49   21.10
   0  -6  15  188.78   24.60
   0   6  15  203.48   25.80
   0   6  15  266.07   28.80
   1  -6  15  252.77   16.30
   1  -6  15  286.77   28.10
   1  -6  15  302.57   26.30
   1   6  15  289.07   28.90
   2  -6  15   63.49   12.70
   2  -6  15   66.59   15.30
   2  -6  15   62.69   18.70
   2  -6  15   82.99   17.10
   2   6  15   59.79   17.20
   3  -6  15   51.39   15.20
   3  -6  15   41.30   14.30
   3  -6  15   66.19   16.60
   3  -6  15   41.60   18.60
   3   6  15   52.09   17.20
  -3  -7  15    0.30   13.50
  -3   7  15   -5.40    7.50
  -2  -7  15    7.60   12.80
  -2   7  15    1.10   18.70
  -2   7  15  -11.50   11.50
  -1  -7  15   53.99   15.70
  -1   7  15   63.99   20.50
  -1   7  15   57.39   20.60
   0  -7  15   81.59   18.00
   0   7  15   89.39   19.90
   0   7  15   88.39   18.40
   1  -7  15  128.89   11.00
   1  -7  15  150.38   12.40
   1  -7  15  173.98   23.10
   1   7  15  203.58   26.90
  -1   7 -15  168.88   16.30
   2  -7  15   16.90   15.20
   2  -7  15   17.20    9.60
   2  -7  15   27.20   17.00
   2   7  15   43.60   15.20
  -2   7 -15   31.70   11.40
  -3  -8  15   33.10   18.10
  -3   8  15   72.69   20.10
  -3   8  15   47.50   13.00
  -2  -8  15  123.69   22.70
  -2   8  15  134.29   23.60
  -2   8  15  103.09   18.80
  -2   8  15  118.39   18.00
  -1  -8  15   44.40   16.00
  -1   8  15   51.59   15.30
  -1   8  15   50.89   19.00
   0  -8  15  309.67   28.30
   0  -8  15  296.77   27.90
   0   8  15  292.17   31.70
   1  -8  15   47.20   17.10
   1  -8  15   50.29    7.00
   1  -8  15   79.89   18.20
  -1   8 -15   49.99   11.30
   1   8  15   47.30   17.00
   2  -8  15  232.58   18.60
   2  -8  15  207.18   27.00
   2  -8  15  234.08   28.40
   2  -8  15  274.17   25.60
  -2   8 -15  244.88   21.40
   2   8  15  177.18   25.60
  -2  -9  15   35.20   16.30
  -2   9  15   23.40   12.80
  -2   9  15   10.40   15.60
  -1  -9  15   71.09   18.20
  -1   9  15   88.99   17.70
  -1   9  15   75.09   20.50
   0  -9  15   -4.50   14.70
   0  -9  15    1.10   12.90
   0   9 -15   -1.80    6.40
   0   9  15  -20.70   14.20
   1  -9  15  225.08   25.60
   1  -9  15  189.68   26.30
  -1   9 -15  208.78   18.40
   1   9  15  239.08   29.40
  -1 -10  15   19.20   16.90
  -1 -10  15   21.60   16.90
  -1  10  15   23.80   14.10
  -1  10  15   40.40   17.60
   0 -10  15  242.28   28.30
   0 -10  15  226.58   26.80
   0  10 -15  210.78   16.00
   0  10  15  243.08   31.00
   1 -10  15  -15.70   14.70
   1 -10  15    2.60   12.00
  -1  10 -15    0.80   10.00
   1  10  15   21.80   16.90
  -4   0  16   64.99   19.00
  -3   0  16   -6.70   12.50
   2   0 -16   79.59   10.30
  -2   0  16   92.89   17.50
  -1   0  16    7.80    7.50
  -1   0  16   -4.30   11.50
   1   0 -16  -18.90    5.80
  -1   0  16  -10.70    3.30
  -1   0  16  -13.70    5.50
   0   0  16    2.20    5.40
   0   0  16    7.00    9.30
   0   0  16   13.00    6.60
   0   0  16    9.10   12.10
   1   0  16    0.50   13.40
   1   0  16    1.90    6.10
   1   0  16   -4.80    5.60
   1   0  16   11.30   10.10
   2   0  16    4.70   12.80
   2   0  16   16.70   11.70
   2   0  16   14.30   11.20
   2   0  16    4.10    6.70
   3   0  16    0.30    7.60
   3   0  16   13.70   13.00
   3   0  16   -4.20   10.80
   3   0  16   10.20   14.30
  -4  -1  16    9.10   14.60
  -4   1  16   -9.00   14.30
  -3  -1  16  503.95   35.90
  -3   1  16  482.05   35.10
   2  -1 -16   -8.50    7.20
  -2  -1  16   -5.00   10.80
  -2   1  16    1.10    7.10
   2   1 -16  -11.80    4.50
  -2   1  16  -14.00   11.60
  -1  -1  16  566.64   17.60
  -1  -1  16  637.74   24.70
   1  -1 -16  573.14   25.10
  -1   1  16  618.84   29.70
  -1   1  16  587.74   20.00
  -1   1  16  543.55   22.10
   0  -1  16   -1.50    5.00
   0  -1  16    1.30   11.00
   0  -1  16    0.20    6.20
   0  -1  16    1.70    7.70
   0   1  16    3.80    4.60
   0   1  16  -15.60    5.30
   0   1  16   -7.30   11.20
   0   1  16    0.70    9.60
   1  -1  16  711.53   56.89
   1  -1  16  592.54   25.90
   1  -1  16  547.65   24.80
   1  -1  16  645.54   31.10
   1   1  16  611.64   21.80
   1   1  16  629.94   33.90
   1   1  16  585.04   21.20
   1   1  16  599.74   36.10
   2  -1  16   -4.10    9.80
   2  -1  16   -3.10   12.10
   2  -1  16   14.00   12.20
   2  -1  16    6.00    7.80
   2   1  16  -22.90   10.50
   2   1  16   -2.90   12.20
   3  -1  16  401.86   23.10
   3  -1  16  323.47   27.80
   3  -1  16  420.06   32.50
   3  -1  16  445.46   31.60
   3   1  16  509.35   35.50
   3   1  16  366.06   25.60
   3   1  16  456.05   21.10
   3   1  16  421.26   32.60
  -4  -2  16   10.20   14.70
  -4   2  16    2.40   13.20
  -3  -2  16   -0.30   11.40
  -3   2  16    3.20   13.30
  -2  -2  16   10.90   12.30
  -2   2  16   15.40    4.10
  -2   2  16   19.90    3.70
  -2   2  16   49.80   21.00
  -2   2  16   26.60    7.70
  -2   2  16   19.70    9.30
  -1  -2  16   -1.10    2.50
  -1  -2  16    2.00    4.60
  -1  -2  16   -3.20   16.90
  -1   2  16   -3.50    4.50
  -1   2  16   -5.70    4.20
  -1   2  16   -0.20   12.00
  -1   2  16    2.50    9.40
   0  -2  16   28.30   16.00
   0  -2  16   24.20    6.30
   0   2  16   26.90   13.10
   1  -2  16    6.60   20.30
   1  -2  16    2.20    7.90
   1   2  16   -0.70    4.50
   1   2  16    2.70   11.30
   1   2  16   23.10   11.60
   1   2  16    9.40    3.90
   2  -2  16    8.40   11.70
   2  -2  16   14.90   12.00
   2  -2  16   -1.80   10.30
   2  -2  16   -3.80    7.40
   2   2  16    1.50   13.50
   2   2  16   18.60   14.10
   2   2  16    2.60    4.60
   2   2  16    6.40    4.60
   3  -2  16   20.40   10.40
   3  -2  16   25.20   12.50
   3  -2  16   14.80   13.00
   3   2  16   15.50    9.90
   3   2  16    5.30   14.30
   3   2  16   23.30   14.80
   3   2  16    6.10    6.30
  -3  -3  16  326.07   30.90
  -3   3  16  337.97   30.40
  -2  -3  16  101.39   19.90
  -2   3  16  100.19   15.60
  -2   3  16  107.59   10.30
  -2   3  16   81.49    9.80
  -2   3  16  133.69   27.00
  -2   3  16   81.89    8.20
  -1  -3  16  593.64   35.10
  -1   3  16  577.74   33.60
  -1   3  16  615.74   22.00
   0  -3  16   32.60    6.70
   0  -3  16   57.09    9.30
   0   3  16   50.59   16.20
   0   3  16   47.50   15.00
   1  -3  16  469.25   40.50
   1  -3  16  446.96   24.80
   1   3  16  466.15   32.70
   1   3  16  481.65   32.70
   2  -3  16   58.99   13.90
   2  -3  16   50.29   15.20
   2  -3  16   39.00   11.60
   2   3  16   37.90   15.50
   2   3  16   73.69   18.80
   3  -3  16  167.98   23.70
   3  -3  16  213.78   21.30
   3  -3  16  235.98   24.50
   3  -3  16  188.28   22.50
   3   3  16  185.38   16.20
   3   3  16  167.88   22.90
   3   3  16  202.98   10.90
  -3  -4  16    5.90   13.80
  -3   4  16   14.10    4.40
  -3   4  16   27.10   13.50
  -2  -4  16    8.90   12.30
  -2   4  16   -4.30    4.70
  -2   4  16    4.70    5.10
  -2   4  16   -3.10   11.20
  -2   4  16  -11.70    9.20
  -1  -4  16   13.30   12.00
  -1   4  16    2.00    6.40
  -1   4  16   11.00   11.90
  -1   4  16    8.70   13.60
   0  -4  16   -7.90    4.60
   0  -4  16   -5.90   11.00
   0  -4  16    1.90    4.80
   0   4  16    0.20   11.90
   0   4  16   10.50   11.20
   1  -4  16  -13.20   11.00
   1  -4  16    5.90    7.90
   1   4  16   24.00   13.40
   1   4  16    1.60   11.80
   2  -4  16    6.80   10.40
   2  -4  16   13.20   13.90
   2  -4  16    3.10   11.60
   2  -4  16    1.40    9.60
   2   4  16    3.30   12.40
  -3  -5  16  136.09   23.60
  -3   5  16  108.39   20.20
  -2  -5  16   11.60   12.50
  -2   5  16    0.10    7.60
  -2   5  16    4.70   11.30
  -2   5  16   -0.50   11.30
  -2   5  16   14.70    5.00
  -1  -5  16  226.28   26.20
  -1   5  16  207.88   25.90
  -1   5  16  173.68   22.30
   0  -5  16  295.47   15.50
   0  -5  16  351.36   29.40
   0  -5  16  319.47   10.70
   0   5  16  364.76   30.40
   0   5  16  332.27   29.40
   1  -5  16  275.17   27.20
   1  -5  16  350.66   29.40
   1  -5  16  306.67   19.40
   1   5  16  280.67   28.20
   1   5  16  275.97   28.80
   2  -5  16  159.08   21.20
   2  -5  16  170.38   24.30
   2  -5  16  109.49   17.70
   2  -5  16  154.28   17.40
   2   5  16  134.09   22.80
  -3  -6  16   36.70   18.60
  -3   6  16   40.80    9.20
  -3   6  16   46.10   16.40
  -2  -6  16  -25.00   11.40
  -2   6  16   -0.10   11.60
  -2   6  16   -6.20   12.10
  -1  -6  16    1.10   12.70
  -1   6  16    5.80   12.20
   0  -6  16    4.30   12.50
   0   6  16   -3.00   11.50
   0   6  16    4.60   12.90
   1  -6  16   10.70   12.50
   1  -6  16   -3.40   13.60
   1  -6  16   -6.20    5.90
   1   6  16   -1.90   13.00
   2  -6  16   39.10   10.40
   2  -6  16   27.40   14.30
   2  -6  16   44.40   14.20
   2  -6  16   48.40   18.00
   2   6  16   50.39   18.30
  -2  -7  16  330.37   32.90
  -2   7  16  313.77   24.00
  -2   7  16  295.97   32.00
  -2   7  16  336.47   29.50
  -1  -7  16   77.09   18.50
  -1   7  16   94.09   18.60
  -1   7  16   71.49   18.00
   0  -7  16  175.48   22.90
   0   7  16  119.09   21.50
   0   7  16  133.39   21.70
   1  -7  16   58.49   16.70
   1  -7  16   50.39    7.90
   1  -7  16   73.79   18.20
   1   7  16   47.90   18.00
   2  -7  16  230.78   18.60
   2  -7  16  186.18   24.80
   2  -7  16  176.18   24.40
   2  -7  16  239.58   26.10
   2   7  16  178.58   25.20
  -2  -8  16    3.80   14.50
  -2   8  16   -9.10   14.00
  -2   8  16   33.10   12.40
  -2   8  16   -1.60   12.40
  -1  -8  16  141.19   21.90
  -1   8  16  145.79   24.00
  -1   8  16  177.18   23.80
   0  -8  16    7.70   11.50
   0  -8  16   27.50   17.10
   0   8  16   19.60   13.40
   0   8  16   13.10   15.70
   1  -8  16   -2.60   14.70
   1  -8  16  -15.40   11.10
   1  -8  16    0.50    4.40
   1   8  16    1.40   13.90
  -1  -9  16   31.80   17.40
  -1   9  16    6.80   15.30
  -1   9  16   29.80   14.50
   0  -9  16  146.69   21.80
   0  -9  16  135.69   24.90
   0   9  16  200.48   28.80
   0   9  16  189.58   25.70
  -3   0  17  274.17   30.50
  -2   0  17   -3.00   12.00
  -1   0  17  340.57   20.70
  -1   0  17  339.07   18.40
  -1   0  17  365.36   29.40
  -1   0  17  347.07   13.80
   0   0  17   18.20   12.00
   0   0  17   -2.70    8.80
   1   0  17  110.39   11.90
   1   0  17  113.19   17.30
   1   0  17  113.49   20.00
   2   0  17    5.50   13.40
   2   0  17  -17.20   20.00
   2   0  17    7.60   11.20
   2   0  17    7.10    6.70
  -3  -1  17   36.20   16.30
  -3   1  17   40.40   15.50
  -2  -1  17  310.07   29.40
  -2   1  17  309.47   29.10
  -1  -1  17   39.10   14.70
  -1  -1  17   41.00    5.40
  -1  -1  17   45.70   14.00
  -1   1  17   42.50   11.40
  -1   1  17   44.60    9.20
  -1   1  17   36.60    6.40
  -1   1  17   42.80   15.60
   0  -1  17  178.98   22.80
   0  -1  17  179.28   13.40
   0  -1  17  201.58   18.70
   0   1  17  210.68   21.50
   0   1  17  188.58   12.10
   0   1  17  245.88   26.10
   1  -1  17   30.50    9.00
   1  -1  17   23.50   11.30
   1  -1  17   15.00   13.00
   1   1  17   15.00   13.60
   1   1  17   16.40    5.90
   1   1  17   44.20   13.70
   1   1  17   21.50    6.20
   2  -1  17   59.89   15.80
   2  -1  17   37.90   14.20
   2  -1  17   52.39   16.00
   2  -1  17   35.50    9.40
   2   1  17   37.50   12.70
   2   1  17   43.50   17.50
   2   1  17   57.19   15.40
  -3  -2  17   99.49   20.20
  -3   2  17  146.59   22.50
  -2  -2  17   12.50   13.50
  -2   2  17    7.90    3.00
  -2   2  17    6.50   12.70
  -2   2  17    3.30    2.70
  -2   2  17    5.60    9.00
  -2   2  17   15.50    7.40
  -1  -2  17  165.88   22.40
  -1  -2  17  192.98   11.90
  -1   2  17  172.48   23.50
  -1   2  17  155.18   11.60
  -1   2  17  173.88   11.60
  -1   2  17  174.78   19.50
   0  -2  17   64.99   16.70
   0  -2  17   60.19   11.10
   0   2  17   69.19   17.50
   0   2  17   65.89    6.70
   0   2  17   52.09   13.80
   1  -2  17  364.56   25.00
   1  -2  17  357.86   22.60
   1  -2  17  393.26   31.40
   1   2  17  377.06   13.70
   1   2  17  367.86   29.20
   1   2  17  388.06   32.30
   1   2  17  389.46   13.10
   2  -2  17   -0.70   11.80
   2  -2  17    8.90    8.80
   2  -2  17   23.50   11.40
   2  -2  17  -18.00   11.20
   2   2  17    5.80    4.40
   2   2  17   22.70   15.30
   2   2  17   21.70   13.60
  -3  -3  17   37.00   14.00
  -3   3  17   35.30   17.10
  -2  -3  17  295.17   30.30
  -2   3  17  376.16   30.40
  -2   3  17  218.58   12.50
  -2   3  17  277.07   13.80
  -2   3  17  327.37   25.00
  -1  -3  17   13.70   13.30
  -1   3  17   39.50   13.80
  -1   3  17   17.60   13.20
  -1   3  17    3.30    6.50
   0  -3  17   61.29   17.00
   0  -3  17   31.30    8.30
   0  -3  17   69.29   10.00
   0   3  17   31.00   14.60
   0   3  17   50.49   14.90
   1  -3  17   98.59   14.80
   1  -3  17  119.19   20.60
   1   3  17   82.39   18.60
   1   3  17   65.79   19.50
   2  -3  17   69.69   13.40
   2  -3  17  126.79   20.60
   2  -3  17  114.49   21.00
   2  -3  17  112.29   16.90
   2   3  17  122.89   23.40
   2   3  17  106.19   19.90
  -3  -4  17   91.49   19.80
  -3   4  17   84.69   20.30
  -2  -4  17   54.89   17.50
  -2   4  17   33.70   13.60
  -2   4  17   71.19   18.30
  -1  -4  17  242.98   28.50
  -1   4  17  194.28   24.50
  -1   4  17  212.28   25.30
   0  -4  17   83.89    9.70
   0  -4  17  124.59   10.00
   0  -4  17   99.89   18.60
   0   4  17  134.39   21.20
   0   4  17  111.99   19.20
   1  -4  17  228.48   18.30
   1  -4  17  250.17   27.30
   1   4  17  253.07   28.30
   1   4  17  223.58   26.50
   2  -4  17   78.49   14.00
   2  -4  17  114.49   21.40
   2  -4  17   83.09   14.30
   2  -4  17  108.79   19.90
   2   4  17   79.19   19.20
   2   4  17  113.99   22.00
  -3  -5  17   43.50   17.10
  -3   5  17   36.80    6.90
  -3   5  17   49.30   16.10
  -2  -5  17  147.49   23.30
  -2   5  17  141.89   14.80
  -2   5  17  147.49   23.70
  -2   5  17  127.39   23.30
  -1  -5  17  214.38   27.40
  -1   5  17  252.27   40.90
  -1   5  17  239.88   26.90
   0  -5  17  272.47   28.60
   0   5  17  247.08   27.70
   0   5  17  183.78   23.50
   1  -5  17   53.59   17.60
   1  -5  17   65.09   16.90
   1  -5  17   68.29   10.90
   1   5  17   65.09   18.30
   1   5  17   43.30   16.10
   2  -5  17   -3.40   14.30
   2  -5  17   39.20   13.70
   2  -5  17   12.00   10.50
   2  -5  17   25.00   14.10
   2   5  17   15.70   14.20
  -2  -6  17  119.09   22.00
  -2   6  17  100.69   20.30
  -2   6  17  117.99   15.00
  -2   6  17  125.49   21.90
  -1  -6  17  290.97   31.40
  -1   6  17  324.47   30.90
  -1   6  17  280.17   29.60
   0  -6  17   75.09   18.40
   0   6  17   81.99   19.00
   0   6  17   81.59   18.70
   1  -6  17   86.59   10.60
   1  -6  17  112.89   21.40
   1  -6  17   71.79   18.00
   1   6  17   54.19   16.80
   1   6  17   91.49   19.80
  -2  -7  17   33.50   15.90
  -2   7  17    1.30   15.40
  -2   7  17    9.40   13.40
  -2   7  17    1.50   10.10
  -1  -7  17   31.70   15.60
  -1   7  17   30.10   16.00
  -1   7  17   65.09   18.90
   0  -7  17   87.59   20.70
   0   7  17   88.79   21.30
   0   7  17   69.79   18.20
   1  -7  17   92.19   20.00
   1  -7  17   71.79   18.80
   1  -7  17   92.79    9.40
   1   7  17   87.99   19.10
  -1  -8  17   84.39   19.40
  -1   8  17   78.59   21.20
  -1   8  17   77.39   18.70
   0  -8  17  154.28   25.10
   0  -8  17  145.39   22.10
   0   8  17  211.98   26.90
   0   8  17  166.98   24.30
  -3   0  18    4.30   14.20
  -2   0  18  667.63   40.80
  -1   0  18   -9.80    7.00
  -1   0  18    6.50   12.40
   0   0  18  456.25   33.20
   0   0  18  398.96   26.30
   1   0  18  -10.10   10.60
   1   0  18   15.60   14.90
   1   0  18   -7.10    5.70
   2   0  18  580.14   34.90
   2   0  18  694.13   42.60
   2   0  18  572.64   24.40
   2   0  18  595.04   35.70
  -3  -1  18   43.10   18.90
  -3   1  18   36.70   17.30
  -2  -1  18   37.50   15.80
  -2   1  18   35.70   15.50
  -1  -1  18   -5.00    6.00
  -1  -1  18   -2.30    3.20
  -1  -1  18    2.70   13.90
  -1   1  18    0.00   12.00
  -1   1  18    3.40    9.00
   0  -1  18   16.10   14.80
   0  -1  18   20.90    9.30
   0   1  18   30.70   14.10
   0   1  18   14.70   10.80
   1  -1  18  119.69   20.30
   1  -1  18  103.59   17.60
   1  -1  18  127.29   13.70
   1   1  18  146.59   10.70
   1   1  18  155.48   21.50
   1   1  18  111.59   21.20
   2  -1  18    9.40   13.70
   2  -1  18    5.50   14.30
   2  -1  18   -4.20    7.50
   2  -1  18    6.30   12.40
   2   1  18    4.20   11.70
   2   1  18    1.90   13.40
   2   1  18   -7.60   11.10
  -2  -2  18  466.05   35.80
  -2   2  18  437.76   25.90
  -2   2  18  455.55   34.20
  -1  -2  18   50.69    7.40
  -1  -2  18   55.79   16.30
  -1   2  18   95.39   19.30
  -1   2  18   66.69   14.10
   0  -2  18  607.74   38.60
   0  -2  18  598.84   26.50
   0   2  18  578.34   37.80
   0   2  18  605.34   34.30
   0   2  18  542.65   17.70
   1  -2  18   39.90   16.00
   1  -2  18   41.00   10.90
   1  -2  18   56.69   12.40
   1   2  18   43.10   21.90
   1   2  18   36.00    3.80
   1   2  18   32.30   16.30
   2  -2  18  163.38   22.00
   2  -2  18  222.48   34.50
   2  -2  18  198.98   25.40
   2  -2  18  188.18   17.90
   2   2  18  176.88   20.50
   2   2  18  183.08   23.60
   2   2  18  157.48   25.20
  -2  -3  18   16.40   14.40
  -2   3  18   18.80   14.90
  -2   3  18    2.80   10.40
  -2   3  18    3.40    4.70
  -1  -3  18   10.60   13.60
  -1   3  18   23.00   13.00
  -1   3  18    0.60   12.70
   0  -3  18   29.10    7.70
   0  -3  18   14.70   13.80
   0   3  18   15.80   13.60
   0   3  18   40.30   14.80
   1  -3  18    9.90   12.50
   1  -3  18    9.30   10.80
   1  -3  18   17.40   10.00
   1   3  18    4.40   14.10
   1   3  18  -22.30   10.00
  -2  -4  18  235.58   29.50
  -2   4  18  192.98   24.60
  -1  -4  18  117.59   21.60
  -1   4  18  131.89   23.10
  -1   4  18  160.08   24.40
   0  -4  18  355.96   14.80
   0  -4  18  367.46   31.80
   0   4  18  420.26   34.40
   0   4  18  421.36   32.30
   1  -4  18   58.29   16.00
   1  -4  18   64.69   11.90
   1   4  18   50.69   16.80
   1   4  18   66.39   18.50
  -2  -5  18    1.20   13.40
  -2   5  18   -3.80   11.40
  -2   5  18   -0.80    7.60
  -2   5  18   -6.80   12.50
  -1  -5  18   35.60   15.60
  -1   5  18   -4.90   13.00
  -1   5  18   -0.30   12.40
   0  -5  18   -8.20   12.60
   0   5  18    5.10   13.90
   0   5  18    3.90   13.70
   1  -5  18   36.30   16.00
   1  -5  18   19.40   15.00
   1  -5  18   35.30    8.20
   1   5  18   42.40   17.20
   1   5  18   35.50   15.80
  -1  -6  18  197.48   26.10
  -1   6  18  181.18   24.80
  -1   6  18  186.28   26.50
   0  -6  18  191.58   27.10
   0   6  18  179.68   25.10
   0   6  18  173.28   25.80
  -2   0  19    4.70   11.90
  -1   0  19   34.80   15.60
  -1   0  19   29.30    9.30
   0   0  19   10.80   10.20
   0   0  19   -5.70   12.30
   1   0  19  170.98   26.40
   1   0  19  134.89   13.00
   1   0  19  144.19   19.10
  -2  -1  19   -6.80   13.40
  -2   1  19   24.30   14.00
  -1  -1  19  -17.90   11.70
  -1  -1  19    3.90    6.40
  -1   1  19    6.70   13.80
  -1   1  19  -11.30    7.50
   0  -1  19  387.16   23.60
   0  -1  19  377.66   33.00
   0   1  19  331.37   16.50
   0   1  19  342.77   26.60
   0   1  19  407.86   32.90
   1  -1  19    5.00   11.20
   1  -1  19   -1.40   12.70
   1  -1  19    6.90    7.70
   1   1  19   -5.10   14.40
   1   1  19    5.50    5.30
   1   1  19    9.70   11.30
  -2  -2  19   45.80   17.50
  -2   2  19   29.90   14.70
  -1  -2  19  155.98   22.60
  -1   2  19  190.38   21.10
  -1   2  19  145.69   21.80
   0  -2  19   55.29   18.30
   0  -2  19   48.70   10.70
   0   2  19   36.20   14.50
   0   2  19   35.00   15.30
   0   2  19   24.20    6.60
   1  -2  19   37.80   11.10
   1  -2  19   40.10   17.00
   1  -2  19   21.30   11.40
   1   2  19   36.00   14.40
   1   2  19   48.20   18.30
  -1  -3  19   74.49   19.90
  -1   3  19  105.89   22.00
  -1   3  19  107.59   17.60
   0  -3  19  148.59   23.60
   0  -3  19  158.88   20.10
   0   3  19  180.48   23.70
   0   3  19  178.28   25.90
  -1  -4  19  189.48   26.20
  -1   4  19  269.27   29.10
  -1   4  19  236.88   26.10
   0  -4  19   81.59   18.90
   0   4  19   55.19   17.50
   0   4  19  120.39   21.50
   0   0   0    0.00    0.00
_computing_structure_solution     'SHELXT 2014/5 (Sheldrick, 2014)'
;
_shelx_hkl_checksum              40173
_shelx_res_file
;
    mo_phm_123_0m_a.res created by SHELXL-2014/7
TITL mo_phm_123_0m_a.res in P2(1)/n
REM Old TITL mo_phm_123_0m in P2(1)/n
REM SHELXT solution in P2(1)/n
REM R1 0.068, Rweak 0.003, Alpha 0.015, Orientation as input
REM Formula found by SHELXT: C7 Br N O2
REM #####
CELL 0.71073 4.4477 11.4469 13.8244 90 94.635 90
ZERR 4 0.0002 0.0004 0.0005 0 0.002 0
LATT 1
SYMM 0.5-X,0.5+Y,0.5-Z
SFAC C H Br N O
UNIT 24 20 4 8 8
DFIX 0.88 0.005 N1 H1a N1 H1b
L.S. 10
PLAN  20
SIZE 0.25 0.3 0.42
TEMP -143.15
BOND $H
LIST 4
htab
conf
fmap 2
acta
REM <olex2.extras>
REM <HklSrc "%.\\mo_phm_123_0m_a.hkl">
REM </olex2.extras>
WGHT    0.016400    0.573400
FVAR       0.68372
BR1   3    0.234737    0.478199    0.109989    11.00000    0.02501    0.02499 =
         0.01769   -0.00340    0.00048    0.00115
O1    5    0.238071    0.584956    0.497728    11.00000    0.02832    0.03441 =
         0.02060    0.00056    0.00924   -0.00527
O2    5    0.554329    0.726786    0.521557    11.00000    0.03885    0.03356 =
         0.02414   -0.01090    0.00415   -0.00556
N1    4    0.153317    0.483931    0.326397    11.00000    0.02127    0.02068 =
         0.01775    0.00074    0.00369   -0.00357
H1A   2    0.109083    0.480959    0.387110    11.00000    0.03370
H1B   2    0.070374    0.438091    0.280860    11.00000    0.02666
N2    4    0.425230    0.653710    0.468270    11.00000    0.01951    0.02086 =
         0.01847   -0.00104    0.00204    0.00433
C1    1    0.346682    0.567629    0.302621    11.00000    0.01256    0.01438 =
         0.01801    0.00125    0.00160    0.00350
C2    1    0.490770    0.649460    0.367409    11.00000    0.01491    0.01732 =
         0.01615    0.00099    0.00258    0.00362
C3    1    0.696186    0.732352    0.338314    11.00000    0.01597    0.01612 =
         0.02615    0.00025    0.00083    0.00200
AFIX  43
H3    2    0.792037    0.784120    0.384852    11.00000   -1.20000
AFIX   0
C4    1    0.760255    0.739458    0.243139    11.00000    0.01691    0.01858 =
         0.02748    0.00444    0.00502    0.00117
AFIX  43
H4    2    0.899785    0.795763    0.223384    11.00000   -1.20000
AFIX   0
C5    1    0.617158    0.662591    0.175564    11.00000    0.01827    0.02184 =
         0.01991    0.00575    0.00606    0.00505
AFIX  43
H5    2    0.655687    0.667834    0.109106    11.00000   -1.20000
AFIX   0
C6    1    0.422158    0.579991    0.204804    11.00000    0.01564    0.01807 =
         0.01545   -0.00092    0.00118    0.00404
HKLF 4
REM  mo_phm_123_0m_a.res in P2(1)/n
REM R1 =  0.0230 for    1813 Fo > 4sig(Fo)  and  0.0335 for all    2162 data
REM    108 parameters refined using      2 restraints
END
WGHT      0.0164      0.5734
REM Instructions for potential hydrogen bonds
HTAB N1 O1
EQIV $1 -x, -y+1, -z+1
HTAB N1 O1_$1
HTAB N1 Br1
EQIV $2 -x+3/2, y+1/2, -z+1/2
HTAB C3 Br1_$2
EQIV $3 x+1/2, -y+3/2, z-1/2
HTAB C5 O2_$3
REM Highest difference peak  0.535,  deepest hole -0.460,  1-sigma level  0.079
Q1    1   0.4166  0.6114  0.3352  11.00000  0.05    0.53
Q2    1   0.5069  0.6268  0.1818  11.00000  0.05    0.49
Q3    1   0.5370  0.6983  0.3511  11.00000  0.05    0.41
Q4    1   0.2965  0.5214  0.3170  11.00000  0.05    0.41
Q5    1   0.4561  0.6405  0.4033  11.00000  0.05    0.40
Q6    1   0.3564  0.5573  0.1748  11.00000  0.05    0.35
Q7    1   0.6773  0.6464  0.1635  11.00000  0.05    0.35
Q8    1   0.6687  0.6975  0.2149  11.00000  0.05    0.34
Q9    1   0.0816  0.4242  0.1426  11.00000  0.05    0.33
Q10   1   0.7130  0.7519  0.3000  11.00000  0.05    0.33
Q11   1   0.5769  0.6906  0.1599  11.00000  0.05    0.32
Q12   1   0.3829  0.5810  0.2495  11.00000  0.05    0.31
Q13   1   0.7651  0.7459  0.4411  11.00000  0.05    0.31
Q14   1   0.3389  0.3714  0.1079  11.00000  0.05    0.31
Q15   1   0.4663  0.5527  0.2974  11.00000  0.05    0.28
Q16   1   0.3583  0.5249  0.0818  11.00000  0.05    0.26
Q17   1   0.3080  0.6221  0.4787  11.00000  0.05    0.26
Q18   1   0.7058  0.7583  0.3579  11.00000  0.05    0.25
Q19   1   0.8382  0.7398  0.2368  11.00000  0.05    0.24
Q20   1   0.3240  0.6165  0.2219  11.00000  0.05    0.24
;
_shelx_res_checksum              68041
loop_
_space_group_symop_operation_xyz
'x, y, z'
'-x+1/2, y+1/2, -z+1/2'
'-x, -y, -z'
'x-1/2, -y-1/2, z-1/2'
loop_
_atom_site_type_symbol
_atom_site_label
_atom_site_fract_x
_atom_site_fract_y
_atom_site_fract_z
_atom_site_U_iso_or_equiv
_atom_site_adp_type
_atom_site_calc_flag
_atom_site_occupancy
Br Br1 0.23474(4) 0.47820(2) 0.10999(2) 0.02263(6) Uani d 1
O O1 0.2381(3) 0.58496(13) 0.49773(10) 0.0274(3) Uani d 1
O O2 0.5543(3) 0.72679(14) 0.52156(10) 0.0321(3) Uani d 1
N N1 0.1533(3) 0.48393(15) 0.32640(11) 0.0198(3) Uani d 1
H H1A 0.109(6) 0.481(2) 0.3871(7) 0.034(7) Uiso d 1
H H1B 0.070(5) 0.4381(16) 0.2809(12) 0.027(6) Uiso d 1
N N2 0.4252(3) 0.65371(14) 0.46827(11) 0.0196(3) Uani d 1
C C1 0.3467(4) 0.56763(15) 0.30262(12) 0.0150(3) Uani d 1
C C2 0.4908(4) 0.64946(15) 0.36741(12) 0.0161(3) Uani d 1
C C3 0.6962(4) 0.73235(16) 0.33831(14) 0.0195(4) Uani d 1
H H3 0.7920 0.7841 0.3849 0.023 Uiso calc 1
C C4 0.7603(4) 0.73946(16) 0.24314(14) 0.0208(4) Uani d 1
H H4 0.8998 0.7958 0.2234 0.025 Uiso calc 1
C C5 0.6172(4) 0.66259(16) 0.17556(13) 0.0198(4) Uani d 1
H H5 0.6557 0.6678 0.1091 0.024 Uiso calc 1
C C6 0.4222(4) 0.57999(15) 0.20480(12) 0.0164(3) Uani d 1
loop_
_atom_site_aniso_label
_atom_site_aniso_U_11
_atom_site_aniso_U_22
_atom_site_aniso_U_33
_atom_site_aniso_U_12
_atom_site_aniso_U_13
_atom_site_aniso_U_23
Br1 0.02501(10) 0.02499(10) 0.01769(9) 0.00115(8) 0.00048(6) -0.00340(7)
O1 0.0283(7) 0.0344(8) 0.0206(7) -0.0053(6) 0.0092(5) 0.0006(6)
O2 0.0388(8) 0.0336(8) 0.0241(7) -0.0056(7) 0.0041(6) -0.0109(6)
N1 0.0213(7) 0.0207(7) 0.0177(7) -0.0036(6) 0.0037(6) 0.0007(6)
N2 0.0195(7) 0.0209(8) 0.0185(7) 0.0043(6) 0.0020(6) -0.0010(6)
C1 0.0126(7) 0.0144(8) 0.0180(8) 0.0035(6) 0.0016(6) 0.0012(6)
C2 0.0149(7) 0.0173(8) 0.0162(8) 0.0036(6) 0.0026(6) 0.0010(6)
C3 0.0160(8) 0.0161(8) 0.0261(9) 0.0020(7) 0.0008(7) 0.0003(7)
C4 0.0169(8) 0.0186(9) 0.0275(9) 0.0012(7) 0.0050(7) 0.0044(7)
C5 0.0183(8) 0.0218(9) 0.0199(8) 0.0051(7) 0.0061(6) 0.0058(7)
C6 0.0156(8) 0.0181(8) 0.0154(8) 0.0040(6) 0.0012(6) -0.0009(6)
loop_
_atom_type_symbol
_atom_type_description
_atom_type_scat_dispersion_real
_atom_type_scat_dispersion_imag
_atom_type_scat_source
C C 0.0033 0.0016 'International Tables Vol C Tables 4.2.6.8 and 6.1.1.4'
H H 0.0000 0.0000 'International Tables Vol C Tables 4.2.6.8 and 6.1.1.4'
Br Br -0.2901 2.4595 'International Tables Vol C Tables 4.2.6.8 and 6.1.1.4'
N N 0.0061 0.0033 'International Tables Vol C Tables 4.2.6.8 and 6.1.1.4'
O O 0.0106 0.0060 'International Tables Vol C Tables 4.2.6.8 and 6.1.1.4'
loop_
_geom_angle_atom_site_label_1
_geom_angle_atom_site_label_2
_geom_angle_atom_site_label_3
_geom_angle
H1A N1 H1B 123(2)
C1 N1 H1A 117.3(16)
C1 N1 H1B 119.4(15)
O1 N2 C2 119.23(15)
O2 N2 O1 122.05(16)
O2 N2 C2 118.71(15)
N1 C1 C2 125.66(16)
N1 C1 C6 120.41(16)
C2 C1 C6 113.93(15)
C1 C2 N2 121.08(15)
C3 C2 N2 116.17(16)
C3 C2 C1 122.73(16)
C2 C3 H3 119.8
C4 C3 C2 120.50(17)
C4 C3 H3 119.8
C3 C4 H4 120.5
C3 C4 C5 119.02(17)
C5 C4 H4 120.5
C4 C5 H5 119.9
C6 C5 C4 120.22(17)
C6 C5 H5 119.9
C1 C6 Br1 118.06(13)
C5 C6 Br1 118.36(13)
C5 C6 C1 123.56(16)
loop_
_geom_bond_atom_site_label_1
_geom_bond_atom_site_label_2
_geom_bond_distance
Br1 C6 1.8958(17)
O1 N2 1.238(2)
O2 N2 1.226(2)
N1 H1A 0.878(5)
N1 H1B 0.878(5)
N1 C1 1.346(2)
N2 C2 1.448(2)
C1 C2 1.413(2)
C1 C6 1.426(2)
C2 C3 1.399(2)
C3 H3 0.9500
C3 C4 1.371(3)
C4 H4 0.9500
C4 C5 1.399(3)
C5 H5 0.9500
C5 C6 1.366(2)
loop_
_geom_hbond_atom_site_label_D
_geom_hbond_atom_site_label_H
_geom_hbond_atom_site_label_A
_geom_hbond_site_symmetry_A
_geom_hbond_distance_DH
_geom_hbond_distance_HA
_geom_hbond_distance_DA
_geom_hbond_angle_DHA
_geom_hbond_publ_flag
N1 H1A O1 . 0.878(12) 1.986(17) 2.635(2) 130(2) yes
N1 H1A O1 3_566 0.878(12) 2.43(2) 3.201(2) 148(2) yes
N1 H1B Br1 . 0.878(18) 2.571(17) 3.0432(15) 114.6(15) yes
C3 H3 O2 . 0.95 2.33 2.661(2) 100 yes
C5 H5 O2 4_675 0.95 2.53 3.253(2) 133 yes
loop_
_geom_torsion_atom_site_label_1
_geom_torsion_atom_site_label_2
_geom_torsion_atom_site_label_3
_geom_torsion_atom_site_label_4
_geom_torsion
O1 N2 C2 C1 -0.6(2)
O1 N2 C2 C3 177.77(16)
O2 N2 C2 C1 -179.49(16)
O2 N2 C2 C3 -1.2(2)
N1 C1 C2 N2 -3.6(3)
N1 C1 C2 C3 178.20(16)
N1 C1 C6 Br1 1.6(2)
N1 C1 C6 C5 -179.78(16)
N2 C2 C3 C4 -176.44(16)
C1 C2 C3 C4 1.9(3)
C2 C1 C6 Br1 -178.24(12)
C2 C1 C6 C5 0.4(2)
C2 C3 C4 C5 0.0(3)
C3 C4 C5 C6 -1.6(3)
C4 C5 C6 Br1 179.99(13)
C4 C5 C6 C1 1.4(3)
C6 C1 C2 N2 176.23(15)
C6 C1 C2 C3 -2.0(2)

_cod_database_fobs_code 2021317
