#------------------------------------------------------------------------------
#$Date: 2018-10-25 05:40:06 +0300 (Thu, 25 Oct 2018) $
#$Revision: 211615 $
#$URL: file:///home/coder/svn-repositories/cod/cif/2/02/12/2021285.cif $
#------------------------------------------------------------------------------
#
# This file is available in the Crystallography Open Database (COD),
# http://www.crystallography.net/. The original data for this entry
# were provided by IUCr Journals, http://journals.iucr.org/.
#
# The file may be used within the scientific community so long as
# proper attribution is given to the journal article from which the
# data were obtained.
#
data_2021285
loop_
_publ_author_name
'Owczarzak, Agata'
'Przyby\/l, Anna K.'
'Kubicki, Maciej'
_publ_section_title
;
 Different cationic forms of (--)-cytisine in the crystal structures of
 its simple inorganic salts
;
_journal_coeditor_code           YF3149
_journal_issue                   11
_journal_name_full               'Acta Crystallographica Section C'
_journal_page_first
;
;
_journal_paper_doi               10.1107/S2053229618012585
_journal_volume                  74
_journal_year                    2018
_chemical_absolute_configuration rmad
_chemical_formula_iupac          'C11 H15 N2 O +, I -, H2 O'
_chemical_formula_moiety         'C11 H15 N2 O +, I -, H2 O'
_chemical_formula_sum            'C11 H17 I N2 O2'
_chemical_formula_weight         336.16
_chemical_name_common
;
Cytisinium iodide monohydrate
;
_chemical_name_systematic
;
6-Oxo-7,11-diazatricyclo[7.3.1.0^2,7^]trideca-2,4-dien-11-ium iodide
monohydrate
;
_space_group_crystal_system      monoclinic
_space_group_IT_number           4
_space_group_name_Hall           'P 2yb'
_space_group_name_H-M_alt        'P 1 21 1'
_symmetry_space_group_name_Hall  'P 2yb'
_symmetry_space_group_name_H-M   'P 1 21 1'
_atom_sites_solution_hydrogens   mixed
_audit_creation_method           SHELXL-2013
_cell_angle_alpha                90
_cell_angle_beta                 108.341(5)
_cell_angle_gamma                90
_cell_formula_units_Z            2
_cell_length_a                   7.7268(4)
_cell_length_b                   10.4304(4)
_cell_length_c                   8.0655(4)
_cell_measurement_reflns_used    1275
_cell_measurement_temperature    100.0(10)
_cell_measurement_theta_max      27.7790
_cell_measurement_theta_min      3.2880
_cell_volume                     617.01(5)
_computing_cell_refinement
;
(CrysAlis PRO; Agilent, 2014)
;
_computing_data_collection
;
(CrysAlis PRO; Agilent, 2014)
;
_computing_data_reduction
;
(CrysAlis PRO; Agilent, 2014)
;
_computing_molecular_graphics
;
Mercury (Macrae <i>et al.</i>,  2008)
;
_computing_publication_material
;
SHELXL2013 (Sheldrick, 2015b)
;
_computing_structure_refinement
;
SHELXL2013 (Sheldrick, 2015b)
;
_computing_structure_solution
;
SHELXT (Sheldrick, 2015a)
;
_diffrn_ambient_temperature      100.0(10)
_diffrn_detector                 'CCD plate'
_diffrn_detector_area_resol_mean 16.1544
_diffrn_measured_fraction_theta_full 0.997
_diffrn_measured_fraction_theta_max 0.868
_diffrn_measurement_device       'four-circle diffractometer'
_diffrn_measurement_device_type  'Agilent Xcalibur Eos'
_diffrn_measurement_method       '\w scan'
_diffrn_radiation_monochromator  graphite
_diffrn_radiation_probe          x-ray
_diffrn_radiation_type           'Mo K\a'
_diffrn_radiation_wavelength     0.71073
_diffrn_reflns_av_R_equivalents  0.0209
_diffrn_reflns_av_unetI/netI     0.0388
_diffrn_reflns_limit_h_max       9
_diffrn_reflns_limit_h_min       -10
_diffrn_reflns_limit_k_max       13
_diffrn_reflns_limit_k_min       -12
_diffrn_reflns_limit_l_max       10
_diffrn_reflns_limit_l_min       -10
_diffrn_reflns_number            3889
_diffrn_reflns_theta_full        25.000
_diffrn_reflns_theta_max         28.189
_diffrn_reflns_theta_min         3.185
_diffrn_source                   'Enhance (Mo) X-ray Source'
_exptl_absorpt_coefficient_mu    2.584
_exptl_absorpt_correction_T_max  1.00000
_exptl_absorpt_correction_T_min  0.77902
_exptl_absorpt_correction_type   multi-scan
_exptl_absorpt_process_details
;
(CrysAlis PRO; Agilent, 2014)
;
_exptl_crystal_colour            colourless
_exptl_crystal_density_diffrn    1.809
_exptl_crystal_description       prism
_exptl_crystal_F_000             332
_exptl_crystal_size_max          0.25
_exptl_crystal_size_mid          0.1
_exptl_crystal_size_min          0.05
_refine_diff_density_max         3.391
_refine_diff_density_min         -1.232
_refine_ls_abs_structure_details
;
Flack <i>x</i> determined using 755 quotients [(I+)-(I-)]/[(I+)+(I-)]
(Parsons & Flack, 2004)
;
_refine_ls_abs_structure_Flack   0.04(2)
_refine_ls_extinction_method     none
_refine_ls_goodness_of_fit_ref   1.080
_refine_ls_hydrogen_treatment    constr
_refine_ls_matrix_type           full
_refine_ls_number_parameters     145
_refine_ls_number_reflns         2262
_refine_ls_number_restraints     79
_refine_ls_restrained_S_all      1.077
_refine_ls_R_factor_all          0.0428
_refine_ls_R_factor_gt           0.0366
_refine_ls_shift/su_max          0.000
_refine_ls_shift/su_mean         0.000
_refine_ls_structure_factor_coef Fsqd
_refine_ls_weighting_details
'w=1/[\s^2^(Fo^2^)+(0.0463P)^2^+1.1015P] where P=(Fo^2^+2Fc^2^)/3'
_refine_ls_weighting_scheme      calc
_refine_ls_wR_factor_gt          0.0849
_refine_ls_wR_factor_ref         0.0871
_reflns_number_gt                2028
_reflns_number_total             2262
_reflns_threshold_expression     'I > 2\s(I)'
_cod_data_source_file            yf3149sup1.cif
_cod_data_source_block           6
_cod_database_code               2021285
_shelx_space_group_comment
;
The symmetry employed for this shelxl refinement is uniquely defined
by the following loop, which should always be used as a source of
symmetry information in preference to the above space-group names.
They are only intended as comments.
;
_shelx_hkl_file
;
   0   0  -2 266131. 2874.04   1
   0   0   2 251184. 2761.59   1
   0   0  -2 261951. 2899.61   2
   0   0  -3 84321.5 2158.82   1
   0   0   3 80192.5 2024.21   1
   0   0  -3 79500.8 2144.71   2
   0   0   4 18715.6 486.961   3
   0   0  -4 22854.9 1568.00   1
   0   0   4 21844.4 1405.00   1
   0   0  -5 63674.4 2421.57   2
   0   0   6-230.265 1393.01   4
   0   0  -6 566.486 1306.81   2
   0   0   7 50687.1 2833.70   4
   0   0  -7 53414.2 2673.76   2
   0   0  -8 52874.3 2853.53   2
   0   0   8 45503.9 2986.66   4
   0   0  -9 9553.60 1890.49   2
   0   0   9 9569.88 2089.29   4
   0   0 -10 17663.8 2400.67   2
   0   1   1 42218.9 765.837   2
   0   1  -1 41885.9 759.543   4
   0   1  -1 41755.1 869.426   1
   0  -1   2 137492. 1943.16   1
   0  -1  -2 132631. 1926.34   2
   0  -1   2 135783. 2000.95   4
   0   1   2 135853. 1993.49   2
   0   1  -2 136226. 1945.56   1
   0  -1   3 77045.2 1980.31   4
   0  -1  -3 80309.1 1995.62   2
   0  -1   3 84474.7 1964.40   1
   0   1  -3 82598.0 1943.89   1
   0   1   3 83830.1 2250.84   1
   0   1  -4 348005. 4874.50   2
   0  -1   4 353126. 4399.63   1
   0   1  -4 358810. 4429.06   1
   0  -1   4 343002. 4560.84   4
   0  -1  -4 364754. 4522.16   2
   0  -1  -5 4744.54 1175.95   2
   0   1  -5 5811.88 1236.65   1
   0   1  -5 5739.99 1365.83   2
   0  -1   5 5208.78 1274.20   4
   0   1  -6 123267. 3475.75   1
   0   1  -6 122616. 3641.63   2
   0  -1   6 116525. 3483.82   4
   0  -1  -6 129570. 3463.21   2
   0   1  -7 2658.72 1475.80   2
   0  -1  -7 2030.62 1241.52   2
   0  -1   7 1728.87 1412.08   4
   0  -1   8 11746.2 2008.64   4
   0   1  -8 11497.2 1933.57   2
   0   1   8 13837.9 2117.49   4
   0  -1  -8 11794.9 1719.61   2
   0   1  -9 15815.9 2178.44   2
   0  -1   9 17719.9 2303.26   4
   0  -1  -9 15625.2 2043.99   2
   0   1   9 13006.1 2339.96   4
   0  -1  10 1983.78 2006.89   4
   0  -2   0 794609. 3974.98   0
   0   2   0 779204. 3984.39   0
   0   2  -1 49597.0 846.497   4
   0   2  -1 54970.8 1346.75   0
   0   2  -1 49837.3 1168.98   1
   0  -2   2 375048. 3272.12   1
   0  -2   2 369451. 2884.06   4
   0   2  -2 365867. 3184.70   1
   0  -2  -2 371487. 2716.57   2
   0   2   2 376235. 2899.58   2
   0   2  -2 380539. 2887.42   4
   0   2  -3 56090.9 1639.85   1
   0   2   3 58355.6 1635.64   2
   0  -2  -3 52549.9 1522.12   2
   0  -2   3 56301.6 1615.19   4
   0  -2   3 56095.1 1640.81   1
   0  -2  -4 21069.6 1302.21   2
   0  -2   4 20741.5 1275.57   1
   0  -2   4 21060.9 1407.41   4
   0   2  -4 17114.0 1263.02   1
   0  -2   5 135808. 3200.15   4
   0   2  -5 151507. 3277.75   1
   0  -2  -5 141358. 3103.53   2
   0   2  -5 150253. 3792.04   2
   0   2  -6 4323.26 1329.85   1
   0   2  -6 3504.17 1473.56   2
   0  -2   6 4215.32 1303.46   4
   0  -2  -6 4304.39 1182.57   2
   0   2  -7 45902.8 2520.33   1
   0   2  -7 50798.3 2819.00   2
   0  -2  -7 53075.2 2441.71   2
   0  -2   7 49412.1 2627.61   4
   0   2  -8 20188.8 2268.10   2
   0  -2  -8 22152.0 1969.45   2
   0  -2   8 21227.8 2149.36   4
   0  -2   9 23859.7 2466.27   4
   0   2   9 18935.2 2683.80   4
   0   2  -9 20709.2 2373.33   2
   0  -2  10 23340.2 2692.52   4
   0   3   0 84.3580 714.064   0
   0   3   0 418.307 545.429   4
   0  -3   0 226.959 816.673   0
   0   3  -1 434861. 3875.09   0
   0   3  -1 417921. 2589.81   4
   0  -3   1 416745. 2603.77   4
   0  -3   2 121711. 1682.35   4
   0   3  -2 123634. 2117.62   1
   0   3  -2 124965. 1684.76   4
   0   3   2 125808. 1638.41   2
   0  -3  -3 110632. 1904.65   2
   0  -3   3 109508. 1970.30   4
   0   3   3 125264. 2137.25   2
   0   3  -3 119596. 2309.26   1
   0  -3   3 115474. 2315.12   1
   0   3  -4 165763. 3010.02   1
   0  -3   4 166221. 2883.53   4
   0  -3  -4 165811. 2729.81   2
   0   3   4 175386. 2999.10   2
   0  -3  -5 12712.5 1171.60   2
   0   3  -5 13771.1 1349.11   1
   0  -3   5 13433.6 1306.82   4
   0   3  -6 77797.5 3239.51   2
   0  -3  -6 76887.8 2500.04   2
   0  -3   6 72273.6 2695.87   4
   0   3  -6 76757.3 2695.71   1
   0  -3   7 11982.3 1576.15   4
   0  -3  -7 13256.9 1491.40   2
   0   3  -7 13114.2 1698.15   1
   0   3  -7 12095.3 2027.07   2
   0  -3  -8 13572.3 1668.96   2
   0  -3   8 12395.5 1928.39   4
   0   3  -8 13500.3 2209.20   2
   0   3  -8 14558.5 1920.18   1
   0   3   9 15987.6 2538.52   4
   0  -3   9 16532.0 2152.25   4
   0   3  -9 16866.3 2459.97   2
   0  -4   0 163209. 2725.35   0
   0   4   0 182448. 2200.77   4
   0   4  -1 73747.9 1321.45   4
   0   4  -1 76826.1 1990.80   0
   0  -4   1 73992.3 1369.97   4
   0  -4   1 78035.8 2064.43   0
   0   4  -2 166781. 2005.61   4
   0   4  -2 167134. 2677.74   1
   0  -4   2 163650. 2017.76   4
   0   4   2 162637. 1908.95   2
   0   4  -3 72705.4 1978.88   1
   0   4  -3 75791.4 1644.85   4
   0   4   3 74789.0 1606.98   2
   0  -4   3 74225.6 1615.97   4
   0  -4   4 2953.54 800.959   4
   0   4   4 4627.56 812.078   2
   0   4  -4 3199.47 970.264   1
   0  -4  -5 119390. 2590.64   2
   0  -4   5 113334. 2732.22   4
   0   4  -5 112172. 2855.84   1
   0   4  -6 4258.69 1624.37   2
   0  -4  -6 5632.15 997.074   2
   0   4  -6 5297.59 1292.00   1
   0  -4   6 6518.23 1202.10   4
   0  -4  -7 66037.7 2459.48   2
   0  -4   7 59563.8 2617.05   4
   0   4  -7 61915.6 2751.77   1
   0   4  -7 64750.0 3396.85   2
   0   4  -8 7167.12 1640.49   1
   0  -4   8 6503.40 1480.59   4
   0   4  -8 8315.25 2150.59   2
   0   5   0 117.582 555.952   4
   0  -5   0 32.3975 962.633   0
   0  -5  -1 219052. 3500.52   0
   0   5  -1 213943. 2427.72   4
   0  -5   1 222211. 3633.88   0
   0   5  -2 28620.1 989.548   4
   0   5  -2 28001.2 1467.00   1
   0  -5   2 25586.8 970.950   4
   0  -5   3 92689.7 1822.19   4
   0   5  -3 93422.7 1820.77   4
   0   5   3 96201.8 1759.65   2
   0   5  -3 91864.4 2375.69   1
   0  -5   4 108022. 2218.55   4
   0   5   4 118596. 2329.82   2
   0   5  -4 116321. 2789.00   1
   0   5  -5 1787.26 1129.81   1
   0  -5   5 1338.31 807.549   4
   0   5  -6 90029.8 2895.93   1
   0  -5   6 86199.7 2608.35   4
   0   5  -6 85599.3 3642.50   2
   0  -5   7 7937.72 1318.35   4
   0   5  -7 7866.72 1975.81   2
   0   5  -7 7258.01 1557.73   1
   0   5  -8 10898.8 1848.17   1
   0   5  -8 13698.7 2342.02   2
   0   6   0 229190. 2985.18   4
   0  -6   0 230468. 3916.16   0
   0   6  -1 45681.3 1326.39   4
   0  -6  -1 50201.4 2017.37   0
   0  -6   1 47296.1 1991.99   0
   0  -6   2 73373.0 1629.05   4
   0   6  -2 76417.7 2252.80   1
   0   6  -2 79385.2 1640.08   4
   0   6  -3 99428.3 1920.11   4
   0   6  -3 102895. 2673.69   1
   0   6   3 103908. 1881.56   2
   0  -6   3 97510.6 1892.97   4
   0   6   4 23752.0 1176.68   2
   0  -6   4 22404.1 1161.55   4
   0   6  -4 23762.0 1640.45   1
   0   6  -5 56247.5 2342.88   1
   0  -6   5 56551.1 1869.37   4
   0  -6   6 2741.49 943.376   4
   0   6  -6 2823.20 1263.62   1
   0   6  -7 44171.7 2408.32   1
   0   6  -7 42833.0 3134.71   2
   0   6  -8 7660.22 2196.83   2
   0  -7   0 217.823 1119.55   0
   0   7   0-30.2922 622.156   4
   0   7  -1 124733. 2252.42   4
   0  -7   1 127573. 3327.30   0
   0  -7  -1 123122. 3213.81   0
   0  -7  -2 16882.7 1618.18   0
   0   7  -2 16654.6 939.843   4
   0   7  -2 17386.0 1459.72   1
   0  -7   3 40165.0 1371.75   4
   0   7  -3 38076.2 1323.11   4
   0   7  -3 39644.7 1978.58   1
   0   7   3 39958.6 1279.68   2
   0  -7   4 61591.2 1706.62   4
   0   7  -4 66959.0 2464.15   1
   0   7  -5 12802.4 1504.17   1
   0   7  -6 59757.8 2690.93   1
   0   7  -7 2700.42 1705.07   2
   0   7  -7 1830.53 1409.07   1
   0  -8   0 80271.0 2869.37   0
   0   8  -1 10603.8 928.146   4
   0  -8   1 9955.62 1462.50   0
   0  -8  -1 11383.6 1521.86   0
   0   8  -2 37894.1 1368.32   4
   0  -8  -2 36242.7 2163.30   0
   0   8  -2 38187.8 2027.26   1
   0   8  -3 58194.9 2406.03   1
   0   8  -4 8014.44 1429.03   1
   0   8  -5 52142.9 2476.30   1
   0   8  -6 2209.00 1349.77   1
   0   8  -7 29339.2 2868.63   2
   0  -9   0 147.942 1295.22   0
   0  -9   1 97991.4 3395.86   0
   0  -9  -1 95599.3 3310.23   0
   0  -9  -2 20739.8 1942.20   0
   0   9  -2 16937.9 1673.96   1
   0   9  -3 49652.1 2432.00   1
   0  -9  -3 49216.9 2699.00   0
   0   9  -4 53640.6 2519.91   1
   0   9  -5 4423.98 1423.77   1
   0   9  -6 26250.4 2138.16   1
   0 -10   0 31079.1 2332.80   0
   0 -10   1 9019.11 1601.84   0
   0 -10  -1 7137.41 1629.47   0
   0  10  -2 15116.4 1727.45   1
   0 -10  -2 15752.6 1821.37   0
   0  10  -3 20430.8 1950.64   1
   0 -10  -3 20563.0 2200.21   0
   0  10  -4 6074.16 1531.25   1
   0 -10  -4 6751.03 1761.31   0
   0  10  -5 37479.3 2481.60   1
   0 -11   0-62.9851 1495.93   0
   0 -11  -1 45080.7 2814.36   0
   0 -11  -2 8555.37 1896.15   0
   0  11  -2 11862.2 1691.29   1
   0  11  -3 21649.2 2056.54   1
   0 -11  -3 23358.5 2273.49   0
   0 -11  -4 16183.2 2194.81   0
   0  11  -4 14515.6 1868.72   1
   0  11  -5 450.162 1392.31   1
   0 -12   0 17121.8 2061.08   0
   0 -12  -1 1142.82 1399.87   0
   0 -12  -2 28605.5 2545.96   0
   0  12  -2 20138.1 2155.79   1
   0 -12  -3 24489.1 2541.04   0
   0  12  -3 21318.5 2219.09   1
   0  12  -4 17986.2 2104.17   1
   0  13  -2 5174.28 1800.58   1
   0  13  -3 9741.59 1880.83   1
   1   0 -10 18666.3 2345.07   2
  -1   0  10 18857.7 2637.59   4
   1   0  -9-124.176 1535.72   2
  -1   0   9 742.777 1872.28   4
   1   0  -8 62629.9 2962.09   2
  -1   0   8 57266.4 3215.29   4
  -1   0   7 2484.38 1593.66   4
   1   0  -7 1051.90 1227.52   2
  -1   0   6 97240.4 3283.10   4
   1   0  -6 104194. 3091.12   2
   1   0  -5 98010.9 2993.19   1
  -1   0   5 91847.6 2909.38   4
   1   0  -4 13648.3 1389.24   1
  -1   0   4 13942.0 1428.25   4
  -1   0   3 168865. 2889.18   1
  -1   0   3 173045. 1711.94   3
   1   0  -3 172780. 2975.60   1
  -1   0   3 171905. 2901.87   4
   1   0  -2 11663.8 1053.68   1
  -1   0   2 11224.7 1050.44   1
   1   0  -2 11768.1 630.525   3
  -1   0   2 11525.6 1060.21   4
   1   0  -2 9669.92 878.269   4
  -1   0   1 296072. 2262.41   4
   1   0  -1 298974. 2274.85   4
   1   0  -1 296850. 2102.01   3
   1   0  -1 293591. 2284.55   1
  -1   0   1 301444. 2331.16   1
  -1   0  -1 104029. 1836.45   2
   1   0   1 105237. 1810.75   2
  -1   0  -2 396241. 4164.66   2
   1   0   2 398720. 3313.48   1
   1   0   3 34919.6 1419.69   1
   1   0   3 34151.5 1720.98   2
  -1   0  -3 34486.3 1757.28   2
  -1   0  -4 94131.4 2779.12   2
   1   0   4 95759.6 2354.08   1
  -1   0  -5 76656.5 2817.65   2
  -1   0  -6 7189.90 1593.77   2
  -1   0  -7 89630.6 3499.77   2
  -1   0  -8 393.989 1559.48   2
   1   0   8 2048.13 1727.47   4
  -1   0  -9 30569.1 2671.20   2
   1   0   9 26684.3 2749.47   4
  -1  -1  10 4248.13 2002.38   4
   1   1 -10 1275.25 1751.23   2
   1  -1  -9 36499.1 2504.43   2
  -1   1   9 35635.7 3018.85   4
  -1  -1   9 35471.1 2818.36   4
   1   1  -9 40386.6 2795.74   2
   1   1  -8 14624.6 1937.39   2
  -1   1   8 14955.0 2227.84   4
   1  -1  -8 13909.6 1726.70   2
  -1  -1   8 13013.5 2038.09   4
   1   1  -7 82757.4 3276.35   1
  -1   1   7 71381.8 3290.71   4
   1   1  -7 77991.1 3108.24   2
  -1  -1   7 65964.3 3044.61   4
   1  -1  -7 76959.2 2848.69   2
  -1   1   6 43507.6 2575.80   4
  -1  -1   6 46552.3 1189.34   3
   1   1  -6 46163.7 2350.03   2
   1   1  -6 49464.2 2447.13   1
   1  -1  -6 50137.1 2249.63   2
  -1  -1   6 42978.0 2380.53   4
   1   1  -5 23789.4 1745.20   1
  -1  -1   5 22555.2 926.105   3
  -1  -1   5 21381.7 1714.28   4
   1  -1  -5 22712.1 1455.66   2
  -1   1   5 20732.2 1865.92   4
  -1  -1   4 250078. 2567.97   3
   1   1  -4 245237. 3814.89   1
  -1  -1   4 249420. 3850.08   4
   1  -1  -4 244554. 3383.02   2
  -1   1   3 5321.99 1128.57   1
   1  -1  -3 6890.56 443.856   3
  -1  -1   3 6462.38 640.296   3
  -1  -1   3 5994.84 1071.06   4
   1   1  -3 6185.79 901.163   4
  -1  -1   3 7202.88 995.029   1
   1   1  -3 7152.89 1115.85   1
   1   1  -2 733437. 4727.25   1
  -1  -1   2 742019. 4544.46   4
  -1   1   2 713554. 5097.16   1
  -1  -1   2 741759. 4763.31   1
  -1   1   2 743720. 4990.73   4
   1  -1  -2 736294. 5276.38   1
  -1  -1   2 744183. 3935.92   3
   1   1  -2 744761. 4498.89   4
   1   1  -1 72380.1 1339.62   1
  -1   1   1 71826.2 1442.00   1
   1   1  -1 75938.9 1280.19   4
   1  -1  -1 72861.2 1258.63   4
  -1  -1   1 71283.6 1273.97   4
  -1   1   1 76105.4 1264.55   4
   1   1  -1 74348.0 1290.83   3
  -1  -1   1 72732.7 1305.91   1
  -1  -1   1 69549.9 1241.29   3
  -1  -1   0 11933.5 621.389   3
  -1  -1   0 11615.5 445.506   0
   1   1   0 10057.8 648.443   4
   1   1   0 10701.9 426.293   0
   1  -1   0 11787.6 499.002   0
   1   1   0 11850.2 708.298   3
  -1  -1   0 11308.5 689.337   4
   1  -1   0 12379.8 678.418   2
  -1   1   0 11231.7 673.426   2
   1   1   1 759041. 3509.52   3
  -1  -1  -1 751223. 3471.24   3
   1   1   1 755497. 4337.56   2
   1  -1   1 736758. 4958.19   2
  -1  -1  -1 741370. 4329.97   2
   1  -1   2 65495.8 2030.00   2
  -1   1  -2 65444.9 1332.37   1
   1  -1   2 64018.3 1281.16   1
   1   1   2 64999.9 1770.97   2
  -1  -1  -2 62988.3 1807.81   2
   1   1   2 62931.1 1076.24   3
  -1   1  -2 61508.7 2107.43   2
   1   1   3 235565. 1876.20   3
  -1   1  -3 241528. 4023.83   2
   1  -1   3 244119. 2962.36   1
   1   1   3 245705. 3540.54   1
  -1  -1  -3 228976. 3559.16   2
  -1   1  -3 247592. 3087.02   1
   1   1   3 250090. 3749.20   2
   1   1   4 9960.00 406.489   3
   1  -1   4 12589.2 1056.60   1
  -1   1  -4 10370.4 1464.21   2
  -1  -1  -4 11410.4 1353.42   2
  -1   1  -5 59442.9 2640.83   2
  -1  -1  -5 58565.2 2442.84   2
  -1  -1  -6 52545.0 2546.42   2
  -1   1  -6 46805.9 2591.46   2
  -1  -1  -7 7863.23 1622.19   2
   1  -1   7 8850.94 1704.93   4
  -1   1  -7 7537.41 1717.17   2
   1  -1   8 24854.8 2340.33   4
  -1  -1  -8 30156.2 2396.40   2
  -1   1  -8 25667.6 2487.15   2
  -1   1  -9 999.585 1717.89   2
   1   1   9 716.123 1833.72   4
   1  -1   9 292.623 1744.34   4
  -1  -1  -9 78.1542 1487.86   2
  -1  -2  10 19083.5 2527.27   4
   1   2 -10 20133.9 2562.55   2
   1   2  -9 1470.55 1665.33   2
  -1  -2   9-187.771 1613.57   4
  -1   2   9 797.162 1876.88   4
  -1  -2   8 48910.8 2913.89   4
   1   2  -8 51062.7 2979.66   1
  -1   2   8 43198.9 3021.50   4
   1  -2  -8 55177.9 2540.81   2
   1   2  -8 45206.9 2859.94   2
   1   2  -7 4862.03 1523.34   2
  -1  -2   7 5641.51 1578.79   4
   1  -2  -7 4395.17 1161.73   2
  -1   2   7 3346.09 1671.21   4
   1   2  -7 5277.50 1564.17   1
  -1  -2   6 66232.4 2664.84   4
   1   2  -6 61505.7 2589.96   1
  -1  -2   6 64129.9 1735.00   3
   1  -2  -6 66437.7 2271.59   2
   1   2  -5 111827. 2954.84   1
  -1  -2   5 108071. 2130.53   3
  -1  -2   5 111867. 2963.87   4
   1  -2  -5 114877. 2590.07   2
   1   2  -4 6431.37 1104.10   1
  -1  -2   4 6779.65 1089.31   4
   1  -2  -4 6258.73 339.366   3
   1  -2  -4 6968.60 877.494   2
  -1  -2   3 446655. 4455.04   1
   1   2  -3 444920. 4464.10   1
  -1  -2   3 431958. 4146.28   4
   1  -2  -3 436579. 3213.34   2
   1   2  -3 449229. 4148.55   4
   1   2  -2 103112. 2045.90   1
  -1  -2   2 105828. 2065.08   1
   1   2  -2 111110. 1883.61   4
  -1  -2   2 104261. 1834.95   4
   1   2  -1 205168. 2437.18   1
  -1  -2   1 205707. 2247.53   4
   1   2  -1 208131. 2237.24   4
  -1  -2   0 131188. 1901.43   4
   1   2   0 134398. 1685.20   0
  -1   2   0 133660. 1752.56   0
  -1  -2   0 132859. 1700.52   0
  -1  -2   0 137580. 1881.35   3
   1   2   0 131962. 1845.42   4
   1  -2   0 131865. 1756.32   0
  -1   2   0 127304. 1770.74   2
   1   2   1 177409. 2217.45   2
  -1  -2  -1 168707. 1970.91   3
  -1   2  -1 174959. 2213.17   0
  -1   2  -1 175402. 1581.16   1
  -1   2  -1 166893. 2676.80   2
  -1  -2  -2 217895. 2887.64   2
   1   2   2 216213. 2849.97   2
   1  -2   2 219087. 2202.90   1
  -1   2  -2 220854. 3562.12   2
  -1  -2  -2 225457. 2117.36   3
  -1   2  -2 218130. 2193.31   1
  -1  -2  -3 1362.10 900.501   2
  -1   2  -3 714.684 667.672   1
   1  -2   3 1249.02 648.262   1
   1   2   3 1002.52 874.095   2
  -1   2  -3 1429.14 1285.58   2
  -1  -2  -4 96655.5 2618.32   2
  -1   2  -4 105988. 2342.45   1
   1  -2   4 98668.8 2193.35   1
  -1   2  -5 83813.4 3173.56   2
  -1   2  -5 85580.5 2524.54   1
   1  -2   5 78652.5 2560.52   4
  -1  -2  -5 75966.4 2649.18   2
   1  -2   6 6284.72 1352.94   4
  -1  -2  -6 5615.87 1363.71   2
  -1   2  -6 4925.25 1602.46   2
  -1  -2  -7 48225.1 2608.66   2
   1  -2   7 47649.4 2528.98   4
  -1   2  -7 46036.9 2865.49   2
   1  -2   8 46.2194 1414.21   4
  -1  -2  -8 441.259 1457.48   2
  -1   2  -8 646.534 1669.94   2
   1  -2   9 22663.3 2393.46   4
  -1  -2  -9 22103.2 2273.98   2
  -1   2  -9 24504.1 2770.30   2
  -1  -3  10 159.259 1701.21   4
  -1   3   9 51715.1 3497.91   4
   1   3  -9 53638.8 3316.43   2
   1   3  -9 48975.6 3124.84   1
  -1   3   8 2557.56 1822.00   4
   1   3  -8 2230.18 1464.07   1
  -1  -3   8 2319.79 1470.60   4
   1   3  -8 2409.43 1621.62   2
   1  -3  -7 74187.0 2483.51   2
   1   3  -7 71762.8 3003.33   1
  -1  -3   7 71199.3 2917.91   4
   1  -3  -6 34068.0 1635.85   2
   1   3  -6 35751.8 2052.30   1
  -1  -3   6 37002.6 2127.84   4
   1  -3  -5 45698.7 1570.65   2
  -1  -3   5 43782.9 1978.77   4
   1   3  -5 42152.7 2000.93   1
   1   3  -4 117572. 2527.36   4
   1   3  -4 116779. 2777.76   1
  -1  -3   4 124709. 2656.02   4
   1  -3  -4 118944. 1929.24   2
  -1  -3   3 13086.2 1023.98   4
  -1  -3   3 16774.4 1240.59   1
   1  -3  -3 15443.1 560.322   2
   1   3  -3 15352.9 1226.87   1
   1   3  -3 16581.9 1045.71   4
  -1  -3   2 128627. 2127.54   4
   1   3  -2 134274. 2472.16   1
   1   3  -2 134352. 2129.79   4
  -1  -3   1 67398.7 1555.82   4
   1   3  -1 65861.4 1632.94   0
   1   3  -1 67735.2 1495.71   4
   1  -3   0 236717. 2840.02   0
  -1  -3   0 236497. 2713.78   0
   1   3   0 235818. 2710.54   4
  -1   3  -1 383400. 3691.10   0
   1  -3   2 16422.7 615.140   4
  -1   3  -2 18654.9 1556.05   2
   1   3   2 17444.2 974.374   2
  -1  -3  -2 18473.0 865.161   3
  -1   3  -2 18133.5 874.479   1
  -1   3  -3 277253. 4578.78   2
  -1  -3  -3 292687. 3682.78   2
   1  -3   3 284480. 3241.33   1
   1   3   3 289942. 3770.89   2
  -1  -3  -3 293399. 2606.86   3
   1  -3   3 283873. 2963.34   4
  -1   3  -3 288315. 3194.49   1
   1  -3   4 24997.8 1292.72   1
  -1   3  -4 20430.5 1799.60   2
  -1  -3  -4 22680.4 1437.57   2
   1  -3   4 22772.9 1275.57   4
  -1   3  -4 24138.0 1304.61   1
  -1   3  -5 45728.2 1882.15   1
  -1   3  -5 40448.3 2437.82   2
  -1  -3  -5 41151.6 1982.71   2
   1  -3   5 41799.0 1886.85   4
  -1  -3  -6 49812.9 2288.07   2
   1  -3   6 46062.9 2229.07   4
  -1   3  -6 51245.7 2245.23   1
  -1   3  -6 46381.0 2745.33   2
  -1  -3  -7 11298.9 1550.03   2
   1  -3   7 10597.1 1606.29   4
  -1   3  -7 7496.95 1968.35   2
   1  -3   8 52608.7 2782.85   4
  -1   3  -8 44750.2 3138.93   2
  -1  -3  -8 50047.1 2675.69   2
  -1  -4   9 467.172 1468.32   4
   1   4  -9 388.844 1752.59   2
  -1   4   9 998.415 2052.28   4
   1   4  -9 926.693 1699.34   1
  -1  -4   8 48310.6 2737.78   4
   1   4  -8 50431.8 3189.38   2
   1   4  -8 57539.7 2960.78   1
   1  -4  -7 17243.7 1295.70   2
  -1  -4   7 16670.7 1672.59   4
   1   4  -7 16905.7 1838.83   1
  -1  -4   6 30296.1 1892.22   4
   1   4  -6 35226.8 2077.16   1
   1  -4  -6 32793.9 1431.31   2
  -1  -4   5 118338. 2860.56   4
   1  -4  -5 115995. 2079.60   2
   1   4  -5 125422. 3209.09   1
   1   4  -4 1756.10 1027.41   1
  -1  -4   4 1985.26 844.078   4
   1   4  -4 1326.37 777.903   4
   1   4  -3 310598. 4123.44   1
   1   4  -3 323174. 3682.54   4
  -1  -4   3 306666. 3595.44   4
   1   4  -2 11270.2 1143.60   0
  -1  -4   2 10649.9 891.370   4
   1   4  -2 10576.1 1130.24   1
   1   4  -2 11911.1 846.847   4
   1   4  -1 185218. 2913.06   0
  -1  -4   1 174560. 2875.31   0
  -1  -4   1 173408. 2540.49   4
   1   4  -1 174275. 2468.04   4
   1   4   0 202569. 2776.17   4
  -1  -4   0 195537. 2894.70   0
   1  -4   0 196076. 2958.73   0
  -1   4  -1 29955.8 1340.64   0
   1  -4   1 29304.1 1429.51   0
   1   4   2 143369. 2383.44   2
  -1   4  -2 144692. 2266.99   1
   1  -4   2 137030. 1308.91   4
   1   4   3 11540.1 982.703   2
   1  -4   3 10455.4 687.143   4
  -1   4  -3 10994.5 936.818   1
  -1  -4  -3 11583.1 817.839   3
  -1   4  -3 11796.3 1496.39   2
   1  -4   4 90762.1 2227.93   1
   1  -4   4 93150.3 2020.18   4
  -1  -4  -4 95861.6 1649.31   3
  -1   4  -4 91091.0 2209.71   1
  -1   4  -4 89723.2 3163.25   2
  -1   4  -5 40716.0 1761.28   1
   1  -4   5 36046.7 1644.17   4
  -1  -4  -5 39508.7 1855.77   2
  -1   4  -5 37611.6 2516.06   2
  -1   4  -6 11839.4 1909.43   2
  -1   4  -6 12393.4 1348.36   1
  -1  -4  -6 13347.6 1520.09   2
   1  -4   6 14404.8 1423.22   4
  -1  -4  -7 46074.7 2435.19   2
   1  -4   7 46574.7 2347.27   4
  -1   4  -7 50910.0 2433.54   1
  -1   4  -7 51565.8 3128.21   2
  -1   4  -8 2334.87 1957.92   2
   1   5  -9 40493.1 2888.93   1
  -1  -5   8-338.306 1317.35   4
   1   5  -8 251.373 1717.92   2
   1   5  -8 610.488 1474.52   1
   1   5  -7 23806.4 2029.75   1
  -1  -5   7 26919.5 1947.17   4
  -1  -5   6 33643.1 1837.61   4
   1   5  -6 29494.9 1996.08   1
  -1  -5   5 51716.6 2011.03   4
   1   5  -5 46527.1 2194.39   1
  -1  -5   4 116005. 2558.57   4
   1   5  -4 115600. 2961.46   1
   1   5  -3 1434.80 691.435   4
  -1  -5   3 1393.36 746.932   4
   1   5  -3 2116.44 995.450   1
   1   5  -2 175369. 3209.34   1
   1   5  -2 177247. 2683.60   4
   1  -5  -1 181055. 3233.12   0
  -1  -5   1 188053. 3312.19   0
  -1  -5   1 177374. 2796.89   4
   1   5   0 92766.9 2065.77   4
  -1   5   0 88455.2 1434.36   4
   1  -5   0 91326.4 2330.69   0
  -1  -5   0 87430.9 2264.30   0
  -1   5  -1 145889. 1388.09   4
   1  -5   1 157553. 3102.53   0
  -1  -5  -1 147038. 2868.75   0
   1  -5   2 10059.4 427.064   4
   1   5   2 12058.9 962.395   2
  -1   5  -2 10815.3 999.336   1
  -1  -5  -3 135051. 2424.31   3
   1   5   3 131726. 2579.61   2
  -1   5  -3 132434. 2569.54   1
   1  -5   3 123760. 1647.76   4
  -1   5  -4 19401.5 1296.03   1
  -1   5  -4 20985.1 1991.84   2
   1  -5   4 18047.7 966.679   4
  -1  -5  -4 22167.7 1066.23   3
  -1   5  -5 35689.9 1751.80   1
   1  -5   5 36710.2 1512.90   4
  -1   5  -5 36026.5 2544.71   2
  -1   5  -6 23975.8 1682.11   1
  -1   5  -6 23451.5 2365.96   2
   1  -5   6 26941.5 1573.86   4
  -1   5  -7 1880.73 1909.50   2
  -1   5  -8 35089.4 3067.83   2
   1   6  -8 45330.1 2799.71   1
   1   6  -8 45134.5 3296.32   2
  -1  -6   7 10262.9 1412.44   4
   1   6  -7 13112.8 1792.94   1
   1   6  -6 42081.6 2340.52   1
  -1  -6   6 46066.0 2043.79   4
   1   6  -5 61102.3 2509.89   1
  -1  -6   5 67406.4 2255.93   4
  -1  -6   4 8916.25 1082.81   4
   1   6  -4 9861.58 1364.46   1
   1   6  -3 132764. 2589.84   4
  -1  -6   3 129441. 2549.14   4
   1   6  -3 126271. 3109.12   1
   1   6  -2 19533.0 1513.88   1
  -1  -6   2 18555.2 1193.71   4
   1   6  -2 19852.1 1116.87   4
  -1  -6   1 63432.3 2241.14   0
   1   6  -1 58851.1 1738.39   4
   1  -6  -1 60436.7 2181.31   0
  -1   6   0 79537.3 1533.51   4
   1  -6   0 79699.9 2429.00   0
  -1  -6   0 73834.3 2325.64   0
  -1   6  -1 10659.0 558.500   4
  -1  -6  -1 12479.2 1261.96   0
  -1   6  -2 172929. 1571.15   4
  -1   6  -2 181582. 3125.73   1
   1   6   3 47456.5 1662.31   2
   1  -6   3 44238.5 985.934   4
  -1   6  -3 45225.4 1785.45   1
   1  -6   4 109863. 1860.78   4
  -1   6  -4 106768. 2652.63   1
  -1  -6  -4 116530. 2418.80   3
  -1   6  -4 106584. 3627.19   2
  -1   6  -5 38475.2 2684.02   2
  -1   6  -5 41734.2 1901.51   1
  -1   6  -6 18391.3 2340.36   2
  -1   6  -6 18052.0 1564.76   1
  -1   6  -7 51769.8 3368.15   2
   1   7  -8 1553.44 1621.66   1
   1   7  -7 29185.2 2333.65   1
  -1  -7   6 36100.4 1922.29   4
   1   7  -6 36290.4 2305.54   1
  -1  -7   5 9379.91 1163.84   4
   1   7  -5 6847.75 1324.95   1
  -1  -7   4 84566.3 2288.74   4
   1   7  -4 82858.2 2856.27   1
  -1   7   3 917.937 271.945   2
  -1  -7   3 608.658 795.934   4
   1   7  -3 1004.74 1071.95   1
   1   7  -2 145765. 3389.58   1
   1  -7  -2 143025. 3537.33   0
  -1  -7   2 146523. 2884.95   4
  -1  -7   1 65184.8 2453.07   0
   1  -7  -1 62146.4 2398.72   0
  -1   7   0 69634.2 1585.01   4
  -1  -7   0 71789.9 2514.31   0
   1  -7   0 70271.4 2521.48   0
  -1   7  -1 107814. 1657.10   4
   1  -7   1 108918. 3138.71   0
  -1  -7  -1 105019. 2964.53   0
  -1   7  -2 11185.5 1262.12   1
  -1   7  -2 11160.2 541.900   4
  -1  -7  -2 11933.9 1417.87   0
  -1   7  -3 35621.5 1762.87   1
   1   7   3 33604.8 1494.29   2
  -1   7  -4 15768.0 1435.00   1
  -1   7  -4 13797.9 1856.23   2
  -1   7  -5 27653.8 1737.89   1
  -1   7  -5 24739.6 2418.10   2
  -1   7  -6 18119.0 2315.28   2
  -1   7  -7 10813.1 2240.10   2
   1   8  -8 29277.6 2547.25   1
   1   8  -7 8666.36 1763.27   1
   1   8  -6 36843.9 2396.56   1
  -1  -8   5 41670.4 1834.54   4
   1   8  -5 37668.7 2320.07   1
   1   8  -4 7280.92 1394.60   1
  -1  -8   4 10182.6 1138.57   4
  -1  -8   3 74286.9 2229.25   4
   1   8  -3 70664.3 2741.28   1
   1   8  -2 30210.8 1969.67   1
   1  -8  -2 32035.4 2104.80   0
   1  -8  -1 47768.8 2340.77   0
  -1  -8   1 48445.0 2423.95   0
  -1  -8   0 47413.6 2309.76   0
  -1   8   0 45619.4 1439.24   4
   1  -8   0 43233.3 2233.32   0
   1  -8   1 19856.3 1741.36   0
  -1   8  -1 18219.7 896.999   4
  -1  -8  -1 18900.6 1621.83   0
  -1   8  -2 174909. 3613.05   1
  -1  -8  -2 165613. 4077.26   0
  -1   8  -3 29886.4 1747.77   1
  -1  -8  -3 29294.4 2066.18   0
  -1   8  -4 56347.7 2318.09   1
  -1   8  -5 23897.4 1799.46   1
  -1   8  -5 23476.0 2399.36   2
  -1   8  -6 9759.40 2240.42   2
   1   9  -7 22850.3 2286.22   1
   1   9  -6 17013.9 1981.47   1
   1   9  -5 5939.63 1561.79   1
   1   9  -4 59726.5 2804.79   1
   1  -9  -3 1209.38 1245.52   0
   1   9  -3 1182.01 1285.39   1
   1   9  -2 80941.4 2954.25   1
   1  -9  -2 72202.9 3005.13   0
   1  -9  -1 8467.95 1537.72   0
  -1  -9   1 9362.53 1636.00   0
  -1  -9   0 21881.3 1909.56   0
   1  -9   0 19933.6 1844.77   0
  -1  -9  -1 36170.0 2196.27   0
   1  -9   1 32413.2 2178.79   0
  -1   9  -2 2803.43 1130.21   1
  -1  -9  -2 2661.46 1213.76   0
  -1   9  -3 39927.4 2127.97   1
  -1  -9  -3 40336.5 2472.48   0
  -1   9  -4 10001.4 1407.73   1
  -1   9  -4 8185.30 1853.97   2
  -1   9  -5 23800.3 2574.96   2
  -1   9  -6 42583.9 3299.47   2
   1  10  -7 9300.68 1923.33   1
   1  10  -6 21172.8 2200.23   1
   1  10  -5 32787.1 2424.33   1
   1  10  -4 780.115 1270.07   1
   1 -10  -4-64.1827 1338.49   0
   1 -10  -3 36625.9 2476.72   0
   1  10  -3 39217.3 2479.36   1
   1 -10  -2 15018.6 1851.10   0
   1  10  -2 15186.8 1800.30   1
  -1 -10   1 47428.1 2710.51   0
   1 -10  -1 42792.3 2601.83   0
   1 -10   0 57851.6 2883.30   0
  -1 -10   0 54968.1 2866.44   0
   1 -10   1 16887.6 1953.97   0
  -1 -10  -1 14909.8 1840.97   0
  -1 -10  -2 57938.5 2941.75   0
  -1  10  -2 56970.7 2554.22   1
  -1 -10  -3 245.255 1394.92   0
  -1  10  -3-209.538 1229.52   1
  -1  10  -4 32108.0 2168.20   1
  -1  10  -4 29938.5 2608.63   2
  -1 -10  -4 32122.3 2518.01   0
  -1  10  -5 3686.85 1864.23   2
  -1 -10  -5 3231.14 1682.31   0
   1  11  -6 13045.1 2024.59   1
   1  11  -5 13320.0 2013.98   1
   1  11  -4 26120.4 2331.62   1
   1 -11  -4 25195.4 2315.74   0
   1  11  -3 2257.25 1508.96   1
   1 -11  -3 1414.33 1550.26   0
   1  11  -2 42277.0 2584.07   1
   1 -11  -2 41997.1 2727.09   0
   1 -11  -1 5563.29 1532.28   0
  -1 -11   0 22823.4 2317.69   0
   1 -11   0 20756.8 2181.35   0
  -1 -11  -1 27315.2 2350.55   0
  -1  11  -2 2499.97 1359.62   1
  -1 -11  -2 1982.00 1589.60   0
  -1  11  -3 32017.9 2262.62   1
  -1 -11  -3 35192.5 2728.41   0
  -1 -11  -4 7151.86 1767.68   0
  -1  11  -4 4457.10 1887.23   2
   1  12  -5 19572.8 2292.73   1
   1  12  -4 5643.03 1821.31   1
   1  12  -3 18589.5 2157.66   1
   1 -12  -2 1339.26 1549.82   0
   1  12  -2 2530.40 1602.64   1
   1 -12  -1 14152.6 2034.85   0
  -1 -12   0 24453.5 2398.81   0
   1 -12   0 25776.7 2426.03   0
  -1 -12  -1 8914.32 1721.29   0
  -1  12  -2 8781.53 1704.72   1
  -1 -12  -2 9174.97 1924.79   0
  -1  12  -3 4428.43 1794.14   2
  -1  12  -4 36678.8 3030.55   2
  -1  13  -2 2379.68 1523.65   1
  -2   0  10 5031.97 2113.93   4
   2   0  -9 7874.04 1744.34   2
  -2   0   9 5204.16 1919.17   4
   2   0  -8 51164.3 2672.65   2
  -2   0   8 48760.3 2995.00   4
  -2   0   7 7589.74 1734.49   4
   2   0  -7 5445.24 1755.84   1
   2   0  -7 3991.74 1333.52   2
   2   0  -6 197627. 4553.85   1
  -2   0   6 183238. 4374.45   4
   2   0  -5 18444.7 1749.19   1
  -2   0   5 22851.3 1794.07   4
  -2   0   4 140958. 3118.16   4
   2   0  -4 146501. 3218.60   1
   2   0  -4 146324. 2102.70   3
  -2   0   3 74587.4 2112.22   4
  -2   0   3 78062.1 2196.88   1
   2   0  -3 75699.6 2150.00   1
   2   0  -3 77055.1 1595.55   3
   2   0  -3 72281.4 1961.63   4
   2   0  -2 4423.05 992.492   1
   2   0  -2 4424.85 888.097   3
  -2   0   2 3822.43 938.057   4
   2   0  -2 3578.88 820.254   4
  -2   0   2 4815.54 900.390   1
  -2   0   1 579750. 3550.92   1
   2   0  -1 587091. 3897.32   4
  -2   0   1 594369. 3921.33   4
   2   0  -1 573258. 3645.35   1
   2   0   0 58185.4 958.365   1
   2   0   0 57544.3 1302.99   4
  -2   0   0 56733.7 1349.17   4
   2   0   0 62309.2 1547.75   2
   2   0   1 340292. 3129.74   4
   2   0   1 350453. 3834.68   2
  -2   0  -2 141375. 2977.46   2
   2   0   2 144856. 2973.17   2
  -2   0  -3 34012.1 1938.28   2
   2   0   3 36129.8 1337.52   1
  -2   0  -4 116261. 3330.68   2
   2   0   4 116692. 2510.71   1
  -2   0  -5 12831.3 1714.59   2
  -2   0  -6 24675.4 2165.45   2
  -2   0  -7 14880.2 2003.73   2
  -2   0  -8 11172.4 2047.57   2
   2   0   9 32104.3 2945.93   4
  -2  -1  10 24517.0 2845.56   4
   2   1 -10 25453.6 2556.46   2
   2  -1  -9 18194.8 1916.16   2
  -2   1   9 14190.8 2386.79   4
  -2  -1   9 16142.3 2361.95   4
   2   1  -9 16224.5 2137.57   2
   2   1  -8 57164.8 3174.60   1
  -2   1   8 51360.3 3176.36   4
  -2  -1   8 54228.4 3068.06   4
   2   1  -8 56947.2 2925.66   2
   2  -1  -8 59827.4 2659.99   2
  -2   1   7 53916.7 2902.99   4
  -2  -1   7 52270.0 2785.16   4
   2   1  -7 61140.1 2945.75   1
   2  -1  -7 53780.8 2305.78   2
  -2  -1   6 1951.51 1334.04   4
  -2   1   6 922.815 1392.55   4
   2   1  -6 2132.93 1444.01   1
   2  -1  -5 174911. 4078.75   1
  -2   1   5 162713. 3825.90   4
  -2  -1   5 166098. 2554.76   3
  -2  -1   5 160386. 3615.49   4
   2   1  -5 161106. 3638.80   1
   2  -1  -5 167545. 2007.21   3
  -2   1   4 120075. 3002.60   4
  -2  -1   4 114277. 2766.23   4
   2  -1  -4 118871. 3129.21   1
   2  -1  -4 113160. 1761.90   3
   2   1  -4 123361. 2905.70   1
  -2  -1   4 115952. 2105.51   3
  -2  -1   3 61227.7 1921.48   1
  -2   1   3 65756.3 2082.07   4
   2   1  -3 61259.4 1808.60   4
  -2  -1   3 60140.9 1897.31   4
   2  -1  -3 60513.6 2101.80   1
  -2  -1   3 61438.5 1560.34   3
   2   1  -3 60979.1 1568.77   3
   2   1  -3 63039.0 1983.02   1
  -2   1   3 61144.3 1989.85   1
  -2  -1   2 394851. 3822.69   4
   2   1  -2 402055. 3726.91   3
   2   1  -2 418282. 3844.62   4
   2  -1  -2 408370. 3747.64   4
  -2  -1   2 408644. 3668.45   3
  -2  -1   2 421827. 3896.71   1
   2  -1  -2 405094. 4061.42   1
  -2   1   2 412898. 3969.01   1
  -2   1   2 399223. 3802.84   4
   2   1  -2 403829. 3894.59   1
   2   1  -1 17678.3 962.286   4
   2  -1  -1 17146.8 1014.31   1
   2  -1  -1 18290.4 866.227   4
  -2  -1   1 18520.3 1121.53   4
   2   1  -1 18485.1 1038.60   1
  -2  -1   1 18199.0 956.052   1
  -2  -1   1 19007.9 1091.81   3
   2   1  -1 16854.4 1069.63   3
  -2   1   1 17998.1 927.186   1
   2  -1  -1 17755.4 826.265   2
  -2   1   1 18701.1 941.391   4
  -2   1   0 409177. 1805.31   1
   2  -1   0 388143. 2037.57   1
  -2   1   0 406992. 2699.01   4
   2   1   0 404452. 3627.90   3
   2   1   0 409598. 3431.58   4
  -2   1   0 410967. 3506.86   2
  -2  -1   0 405807. 3542.03   4
   2  -1   0 399568. 2205.80   0
   2  -1   0 403015. 2730.49   4
   2  -1   0 406383. 3591.07   2
   2  -1   1 8200.32 996.913   2
  -2   1  -1 10910.8 1291.43   2
  -2  -1  -1 8252.30 1167.95   2
   2  -1   1 8245.40 648.181   4
   2   1   1 13900.9 965.974   4
   2   1   1 12628.6 994.342   3
   2   1   1 13453.0 1054.61   2
   2   1   2 73825.4 2129.64   2
   2   1   2 69210.6 1590.22   3
  -2   1  -2 68982.0 2314.34   2
  -2  -1  -2 63832.0 2066.05   2
   2  -1   2 64050.5 1061.61   1
   2  -1   2 62768.4 2141.38   2
   2  -1   3 155836. 2191.98   1
  -2  -1  -3 146851. 3255.65   2
   2   1   3 157230. 2270.00   3
  -2   1  -3 153732. 3523.29   2
   2  -1   4 3271.26 799.396   1
   2   1   4 3256.61 977.836   1
  -2   1  -4 3698.08 1487.09   2
  -2  -1  -4 3187.73 1328.88   2
   2   1   4 3645.40 602.970   3
   2   1   5 119789. 1804.51   3
  -2   1  -5 113591. 3696.76   2
  -2  -1  -5 115086. 3527.69   2
  -2  -1  -6 12882.1 1793.90   2
  -2   1  -6 9643.90 1816.03   2
  -2  -1  -7 22379.2 2209.47   2
  -2   1  -7 26454.7 2337.18   2
  -2  -1  -8 10848.7 1919.15   2
   2  -1   8 13053.6 2047.79   4
  -2   1  -8 13964.5 2237.92   2
  -2  -1  -9 3291.13 1889.44   2
   2   2 -10 7589.98 2097.67   2
  -2  -2  10 6146.07 2006.78   4
  -2  -2   9 10873.6 1986.98   4
   2   2  -9 12476.5 2137.10   2
   2   2  -9 14570.1 2321.64   1
  -2   2   9 11258.3 2367.07   4
   2  -2  -8 52304.5 2378.25   2
   2   2  -8 50403.1 2945.80   1
  -2  -2   8 51144.7 2953.74   4
  -2   2   8 47112.5 3148.21   4
  -2  -2   7 5086.51 1533.77   4
   2  -2  -7 4478.05 1113.66   2
   2   2  -7 4159.31 1504.19   1
  -2   2   7 4123.86 1793.49   4
   2   2  -6 154308. 3912.01   1
  -2  -2   6 160378. 2830.06   3
  -2   2   6 158432. 4266.34   4
  -2  -2   6 160276. 3934.52   4
   2  -2  -6 168688. 3226.67   2
  -2  -2   5 8035.07 1264.86   4
  -2  -2   5 6023.82 853.662   3
  -2   2   5 3393.52 1409.75   4
   2  -2  -5 5361.53 563.091   3
   2   2  -5 4133.20 1206.73   1
   2  -2  -5 6122.18 889.388   2
  -2  -2   4 213780. 3594.56   4
  -2   2   4 216811. 3958.03   4
  -2  -2   4 219082. 3162.75   3
   2   2  -4 219643. 3767.97   1
   2   2  -3 100269. 2246.87   4
  -2   2   3 100028. 2435.54   4
   2   2  -3 102001. 2422.52   1
  -2  -2   3 101679. 2323.25   4
  -2   2   3 96646.1 2545.96   1
  -2  -2   3 110268. 2197.14   3
  -2  -2   3 107861. 2475.59   1
  -2   2   2 16797.6 1174.03   4
  -2  -2   2 16192.2 1165.95   1
  -2  -2   2 16655.5 1056.38   3
  -2   2   2 15975.8 1282.72   1
   2   2  -2 15832.2 1215.05   1
  -2  -2   2 16356.3 1203.97   4
   2   2  -2 15997.2 1033.19   4
  -2   2   1 439080. 3736.00   1
   2  -2  -1 451817. 3100.99   2
   2   2  -1 469219. 4041.71   4
   2   2  -1 465285. 3334.70   0
  -2  -2   1 460521. 4019.87   4
  -2   2   1 447961. 3206.06   4
   2   2  -1 454148. 3959.22   1
  -2   2   1 444999. 2969.93   2
   2   2  -1 447128. 4100.67   3
   2  -2  -1 457780. 3280.23   4
  -2  -2   1 452978. 4042.13   3
  -2  -2   0 122448. 1550.19   0
  -2   2   0 126124. 1350.11   4
   2   2   0 118174. 2121.77   4
  -2  -2   0 119687. 2285.79   4
   2  -2   0 123454. 2236.00   2
   2  -2   0 123787. 1752.01   0
   2  -2   0 119491. 1331.34   4
  -2  -2   0 125956. 2173.15   3
   2   2   0 113578. 2181.02   3
  -2   2   0 115766. 2084.90   2
  -2   2  -1 230455. 3469.94   2
   2  -2   1 254147. 1857.97   4
   2   2   1 234578. 3161.54   4
   2   2   1 225750. 2899.15   3
  -2  -2  -1 268242. 3012.42   3
  -2   2  -1 237904. 2536.47   0
   2   2   1 242258. 3225.63   2
   2  -2   1 254850. 3665.71   2
  -2   2  -2 179742. 3534.79   2
  -2  -2  -2 195694. 3260.54   2
  -2   2  -2 179349. 1714.06   1
   2  -2   2 189833. 1595.05   1
   2   2   2 188506. 3178.02   2
   2   2   2 190747. 2598.26   3
   2   2   3 31461.6 1137.81   3
  -2  -2  -3 32777.8 1716.48   2
  -2   2  -3 27832.3 1899.65   2
   2  -2   3 33181.0 1025.82   1
   2  -2   4 136870. 2373.25   1
   2   2   4 145698. 2079.67   3
  -2  -2  -4 138136. 3368.99   2
  -2   2  -4 143104. 3861.90   2
  -2  -2  -5 1250.03 1234.04   2
  -2   2  -5 1152.94 1414.05   2
   2  -2   5 998.339 783.963   1
  -2  -2  -6 55187.1 2704.05   2
  -2   2  -6 60891.2 3134.60   2
   2  -2   7 13188.4 1762.88   4
  -2   2  -7 13853.3 2145.95   2
  -2  -2  -7 14252.6 1908.83   2
  -2  -2  -8 12021.8 1927.27   2
  -2   2  -8 9873.19 2063.89   2
  -2  -2  -9 25198.0 2516.65   2
  -2  -3  10 19787.8 2540.92   4
   2   3 -10 26067.8 2777.05   1
   2   3 -10 26579.8 2851.79   2
  -2  -3   9 10457.5 1925.85   4
   2   3  -9 10619.0 1997.00   2
  -2   3   9 7161.68 2207.67   4
   2   3  -9 8052.40 2042.30   1
   2   3  -8 8748.91 1885.27   1
  -2   3   8 7147.30 2068.58   4
  -2  -3   8 8547.84 1672.58   4
  -2  -3   7 83556.2 3170.90   4
   2  -3  -7 88443.5 2477.06   2
  -2   3   7 82937.5 3656.63   4
   2   3  -7 88448.9 3344.59   1
   2  -3  -6 606.284 722.447   2
  -2   3   6-36.7068 1590.51   4
  -2  -3   6 51.1117 1145.70   4
   2   3  -6 1423.78 1222.98   1
   2  -3  -6 492.759 295.722   3
  -2  -3   5 77878.2 2521.56   4
  -2   3   5 77952.7 2980.95   4
   2   3  -5 81646.8 2720.09   1
   2  -3  -5 84274.3 1814.51   2
  -2   3   4 140616. 3364.80   4
  -2  -3   4 135685. 2930.16   4
   2   3  -4 144852. 3188.74   1
   2  -3  -4 132744. 1713.13   2
   2   3  -3 45708.9 1836.94   1
  -2  -3   3 44353.3 1676.69   4
   2   3  -3 44634.9 1617.23   4
  -2   3   3 42254.2 1811.74   4
  -2  -3   3 47396.1 1678.48   3
   2   3  -2 286343. 3485.93   4
  -2  -3   2 269121. 3494.58   4
   2   3  -2 275942. 3681.44   1
  -2  -3   2 277347. 3577.05   3
  -2   3   2 276470. 3348.14   4
  -2   3   1 9381.29 663.600   2
   2   3  -1 7609.83 890.002   4
  -2  -3   1 9936.71 1113.42   4
   2   3  -1 7999.56 1090.32   1
   2   3  -1 8270.19 836.945   0
  -2  -3   1 9573.62 1019.13   3
  -2   3   1 9446.17 769.196   4
   2  -3  -1 8992.93 742.870   2
  -2   3   0 309403. 3450.06   2
  -2   3   0 312344. 1813.61   4
   2  -3   0 306768. 3241.39   0
  -2  -3   0 302479. 3701.73   4
   2   3   0 314442. 3637.53   4
  -2  -3   0 312871. 3607.20   3
  -2  -3   0 306045. 3007.63   0
   2  -3   0 298749. 3498.24   2
  -2   3  -1 11439.3 1309.43   2
   2   3   1 14456.1 1073.55   2
   2   3   1 12558.5 1071.87   4
  -2   3  -1 12656.8 890.216   0
  -2   3  -2 144269. 3329.45   2
   2   3   2 143643. 2778.97   2
  -2   3  -2 139429. 2513.14   0
  -2  -3  -2 133247. 2280.60   3
  -2   3  -2 137593. 1616.10   1
  -2   3  -3 87101.0 2960.22   2
  -2   3  -3 87498.6 1626.63   1
  -2  -3  -4 4172.23 1264.36   2
  -2   3  -4 5388.40 1500.05   2
  -2   3  -4 5131.33 813.016   1
   2  -3   4 4911.29 731.703   1
  -2   3  -5 74397.5 3262.35   2
  -2  -3  -5 71653.2 2771.36   2
   2  -3   5 72893.8 2073.72   1
  -2  -3  -6 5670.46 1474.90   2
   2  -3   6 6172.05 1290.35   4
  -2   3  -6 7792.18 1896.87   2
  -2  -3  -7 16205.8 1931.38   2
  -2   3  -7 15682.5 2176.56   2
   2  -3   7 17381.4 1739.47   4
  -2  -3  -8 10481.8 1912.31   2
  -2   3  -8 12385.8 2331.29   2
  -2  -4  10 2271.96 1768.60   4
  -2   4   9 14068.0 2408.02   4
  -2  -4   9 12126.6 2012.53   4
   2   4  -9 9902.04 2324.19   2
   2   4  -9 11265.4 2155.95   1
   2   4  -8 40839.1 2713.22   1
  -2  -4   8 41716.2 2580.35   4
  -2   4   8 41458.6 3168.90   4
  -2   4   7 7209.83 1891.54   4
  -2  -4   7 8632.43 1479.91   4
   2   4  -7 5808.92 1504.30   1
  -2   4   6 116546. 3967.48   4
  -2  -4   6 116257. 3334.76   4
   2   4  -6 116809. 3468.26   1
   2  -4  -6 118537. 2125.38   2
   2  -4  -5 18714.5 720.355   2
  -2  -4   5 19147.3 1529.36   4
   2   4  -5 21067.6 1789.00   1
   2   4  -4 124566. 3066.22   1
  -2  -4   4 124048. 2811.35   4
  -2  -4   3 74889.1 2137.23   4
   2   4  -3 74495.9 2302.99   1
  -2  -4   2 45206.1 1638.88   4
   2   4  -2 48151.1 1855.38   1
   2   4  -2 48413.6 1689.54   0
   2   4  -2 48236.3 1627.50   4
  -2   4   1 222608. 2492.48   4
   2   4  -1 219440. 3109.42   0
   2   4  -1 217467. 3184.75   4
  -2  -4   1 211723. 3256.28   4
  -2   4   1 214672. 2363.25   2
  -2   4   0 40362.9 1529.94   2
   2   4   0 38253.3 1507.02   4
  -2   4   0 39522.8 706.387   4
  -2  -4   0 46207.4 1643.33   3
  -2  -4   0 42201.4 1451.25   0
   2  -4   0 43333.8 1545.00   0
  -2  -4  -1 167240. 2704.06   0
  -2   4  -1 174563. 2876.95   0
  -2   4  -1 165804. 3286.50   2
  -2   4  -2 199224. 2282.18   1
  -2  -4  -2 206678. 3043.72   3
  -2   4  -2 197099. 3965.61   2
  -2  -4  -3 16644.3 1049.47   3
   2  -4   3 15153.9 713.229   4
  -2   4  -3 13150.8 838.626   1
  -2   4  -3 12793.5 1692.90   2
   2  -4   4 80497.0 1860.78   4
  -2   4  -4 81986.5 1934.07   1
  -2   4  -4 77014.8 3165.64   2
   2  -4   5 1825.05 928.365   4
  -2   4  -5 3962.26 1667.51   2
  -2   4  -5 2214.22 938.997   1
  -2   4  -6 47553.3 2946.59   2
  -2  -4  -6 53550.5 2623.90   2
  -2   4  -7 3999.40 1951.64   2
  -2  -4  -7 6487.20 1598.96   2
   2   5  -9 20528.6 2430.44   1
  -2  -5   9 20753.6 2259.99   4
  -2   5   8 4950.70 2071.76   4
  -2  -5   8 3035.61 1443.74   4
   2   5  -8 5155.05 1681.60   1
  -2  -5   7 69589.2 2863.86   4
  -2   5   7 68584.3 3513.50   4
   2   5  -7 66952.2 3064.93   1
  -2  -5   6 5425.30 1197.92   4
   2   5  -6 4676.42 1394.67   1
  -2  -5   5 98964.1 2798.14   4
   2   5  -5 99288.9 3094.52   1
  -2  -5   4 25960.2 1550.58   4
   2   5  -4 22375.8 1747.13   1
   2   5  -3 46153.9 2032.16   1
  -2  -5   3 48829.8 1849.83   4
   2   5  -2 267860. 4186.63   1
  -2  -5   2 271928. 3875.36   4
  -2   5   1 5036.00 739.967   2
   2  -5  -1 4520.39 967.448   0
  -2  -5   1 4049.28 993.749   4
  -2   5   0 104467. 1244.26   4
  -2  -5   0 111398. 2482.78   0
   2  -5   0 115589. 2649.74   0
  -2   5   0 103808. 2373.58   2
   2  -5   1 45971.7 1852.48   0
  -2  -5  -1 43094.0 1674.90   0
  -2   5  -1 45285.2 1959.85   2
  -2   5  -2 71919.2 1676.34   1
  -2   5  -2 67535.9 2596.33   2
  -2  -5  -3 83855.2 2122.20   3
  -2   5  -3 82987.9 3089.11   2
  -2   5  -3 84643.5 1877.26   1
   2  -5   4 13016.5 747.019   4
  -2  -5  -4 14485.8 1026.45   3
  -2   5  -4 15133.9 1067.21   1
  -2   5  -4 13735.2 1934.61   2
  -2   5  -5 127440. 2764.78   1
  -2   5  -5 119175. 4165.79   2
  -2   5  -6 7639.66 1829.88   2
  -2   5  -7 11419.1 2263.16   2
   2   6  -9 8512.75 2004.48   1
  -2   6   8 34897.9 3149.63   4
  -2  -6   8 32204.6 2282.26   4
   2   6  -8 35391.0 2614.63   1
   2   6  -7 3052.33 1472.01   1
  -2  -6   7 3995.37 1323.95   4
  -2  -6   6 51817.3 2334.98   4
   2   6  -6 55447.3 2736.48   1
   2   6  -5 17410.1 1717.21   1
  -2  -6   5 22610.5 1600.17   4
   2   6  -4 50810.1 2319.48   1
  -2  -6   4 54986.6 2124.50   4
  -2  -6   3 101520. 2620.10   4
   2   6  -3 98092.2 2937.49   1
  -2   6   2 30030.7 741.092   2
  -2  -6   2 33400.2 1662.24   4
   2   6  -2 32689.8 1821.10   1
  -2  -6   1 158437. 3310.42   0
  -2  -6   1 156963. 3208.71   4
   2  -6  -1 152758. 3296.77   0
  -2   6   1 154221. 2484.50   2
   2  -6   0 4545.31 1026.73   0
  -2   6   0 5495.82 491.042   4
  -2   6   0 4892.10 951.269   2
  -2  -6   0 5125.27 1030.43   0
  -2   6   0 5054.62 431.700   4
   2  -6   1 137351. 3226.31   0
  -2  -6  -1 125935. 2940.52   0
  -2   6  -1 131196. 3196.19   2
  -2  -6  -2 31105.8 1723.77   0
  -2   6  -2 30897.8 1387.77   1
  -2   6  -2 25804.3 1977.11   2
  -2   6  -3 15284.7 1119.10   1
  -2   6  -3 13637.3 1784.32   2
  -2   6  -4 32636.9 1500.08   1
  -2   6  -4 32278.4 2368.70   2
  -2   6  -5 1877.65 1592.82   2
  -2   6  -6 29762.9 2732.17   2
  -2   6  -7 7669.84 2184.97   2
   2   7  -9 6426.57 1944.30   1
  -2   7   8 9683.04 2488.37   4
   2   7  -8 13580.4 2092.71   1
  -2  -7   7 47636.6 2460.86   4
   2   7  -7 45294.4 2744.67   1
  -2  -7   6 10901.0 1443.11   4
   2   7  -6 9353.15 1702.81   1
  -2  -7   5 106420. 3029.60   4
   2   7  -5 109281. 3480.58   1
  -2  -7   4 36231.6 1816.45   4
   2   7  -4 37283.4 2176.84   1
   2   7  -3 15378.7 1624.86   1
  -2  -7   3 15873.7 1370.54   4
   2   7  -2 78919.2 2750.41   1
  -2  -7   2 78492.9 2477.70   4
   2  -7  -2 77436.2 2690.87   0
  -2   7   2 82798.7 1422.32   2
  -2   7   1 2354.08 820.594   2
  -2  -7   1 2180.00 1085.43   0
   2  -7  -1 2536.16 1181.91   0
  -2   7   0 121211. 1628.42   4
  -2  -7   0 116279. 3067.85   0
  -2   7   0 123477. 2884.26   2
   2  -7   0 111891. 3099.06   0
  -2  -7  -1 47599.0 2119.77   0
   2  -7   1 47383.5 2207.01   0
  -2   7  -1 45034.1 2130.18   2
  -2   7  -2 34417.6 1609.86   1
  -2   7  -2 31154.5 2077.07   2
  -2   7  -3 146091. 2950.34   1
  -2   7  -3 152737. 4240.92   2
  -2   7  -4 6212.45 1657.46   2
  -2   7  -4 7607.75 1037.48   1
  -2   7  -5 56396.9 3210.50   2
  -2   7  -6 3462.07 1982.26   2
   2   8  -8 29865.1 2618.71   1
   2   8  -7 518.159 1473.14   1
  -2  -8   6 30222.8 1966.64   4
   2   8  -6 35960.6 2503.72   1
  -2  -8   5 322.049 1029.68   4
   2   8  -5 438.945 1375.86   1
  -2  -8   4 39286.6 1958.06   4
   2   8  -4 31987.5 2165.08   1
  -2  -8   3 58699.9 2271.56   4
   2   8  -3 53701.2 2581.89   1
   2  -8  -2 12889.8 1486.34   0
   2   8  -2 11592.4 1502.73   1
  -2   8   2 11494.2 762.271   2
  -2  -8   1 98477.2 3182.32   0
   2  -8  -1 96076.0 3153.30   0
  -2   8   1 92941.5 2289.98   2
   2  -8   0 11732.8 1537.27   0
  -2  -8   0 12677.8 1548.34   0
  -2   8   0 11778.0 1294.75   2
  -2   8  -1 61945.2 2499.37   2
   2  -8   1 59874.8 2652.38   0
  -2  -8  -1 55027.2 2413.42   0
  -2   8  -2 11690.1 1234.80   1
  -2  -8  -2 14301.2 1593.65   0
  -2   8  -2 10518.9 1609.41   2
  -2  -8  -3 19300.9 1773.89   0
  -2   8  -3 17840.6 1404.44   1
  -2   8  -3 16422.3 1918.97   2
  -2   8  -4 35982.1 2699.90   2
  -2   8  -5 461.901 1730.08   2
  -2   8  -6 24285.9 2685.99   2
   2   9  -7 29598.8 2595.23   1
   2   9  -6 6708.94 1730.73   1
   2   9  -5 51915.0 2849.12   1
  -2  -9   5 51241.5 2325.45   4
   2   9  -4 43743.9 2548.98   1
  -2  -9   4 44709.6 2158.43   4
   2  -9  -3 27625.5 2146.61   0
   2   9  -3 28059.9 2137.08   1
  -2  -9   3 29958.7 1856.49   4
   2  -9  -2 44931.8 2488.92   0
   2   9  -2 46817.5 2469.84   1
  -2   9   1 2963.24 888.039   2
   2  -9  -1 2660.77 1345.89   0
  -2  -9   0 74243.8 2934.55   0
   2  -9   0 74550.9 3042.95   0
  -2   9   0 70940.9 2507.77   2
  -2  -9  -1 6533.76 1389.07   0
  -2   9  -1 5558.75 1386.56   2
   2  -9   1 7542.55 1494.36   0
  -2  -9  -2 21958.0 1924.44   0
  -2   9  -2 19817.9 1561.85   1
  -2   9  -2 20076.4 1914.30   2
  -2   9  -3 48563.1 2164.28   1
  -2  -9  -3 49012.8 2675.48   0
  -2   9  -3 47387.8 2812.87   2
  -2  -9  -4 7323.72 1628.36   0
  -2   9  -4 4966.74 1799.39   2
  -2   9  -5 39552.9 3046.50   2
   2  10  -7 4963.76 1849.21   1
   2  10  -6 26552.8 2492.09   1
   2  10  -5 3408.32 1554.52   1
   2 -10  -4 15888.7 1935.47   0
   2  10  -4 21796.2 2103.08   1
   2  10  -3 21197.5 2098.67   1
   2 -10  -3 16596.9 2040.72   0
   2  10  -2 1447.61 1374.75   1
   2 -10  -2 1846.16 1396.08   0
   2 -10  -1 68014.0 3085.14   0
  -2  10   0 0.82298 1040.51   2
  -2 -10   0-190.052 1303.55   0
   2 -10   0 151.654 1395.15   0
  -2 -10  -1 40900.6 2528.23   0
  -2  10  -1 40564.1 2331.12   2
  -2 -10  -2 34832.4 2459.45   0
  -2  10  -2 31515.6 1986.97   1
  -2  10  -2 32383.0 2322.37   2
  -2 -10  -3 7602.25 1592.14   0
  -2  10  -3 5799.92 1691.72   2
  -2 -10  -4 38764.8 2764.79   0
  -2  10  -4 26890.4 2578.65   2
  -2 -10  -5 2153.67 1592.03   0
  -2  10  -5-145.971 1747.80   2
   2  11  -5 23633.3 2333.00   1
   2  11  -4 11244.4 1901.05   1
   2 -11  -4 11101.5 1925.74   0
   2 -11  -3 20129.4 2082.62   0
   2  11  -3 17666.4 2100.82   1
   2 -11  -2 28313.0 2457.91   0
   2  11  -2 27029.5 2304.95   1
   2 -11  -1 986.503 1412.67   0
  -2 -11   0 20939.9 2133.01   0
   2 -11   0 16535.1 2082.36   0
  -2 -11  -1 18618.5 2078.82   0
  -2  11  -2 37514.0 2255.20   1
  -2 -11  -2 39566.0 2746.80   0
  -2  11  -2 37392.9 2559.84   2
  -2 -11  -3 9632.51 1884.36   0
  -2  11  -3 10600.2 1996.14   2
  -2 -11  -4 1328.99 1629.94   0
  -2  11  -4 556.694 1680.46   2
   2  12  -3 35126.2 2710.15   1
   2 -12  -2 5079.49 1806.11   0
   2  12  -2 4566.38 1636.00   1
   2 -12  -1 41493.2 2932.28   0
   2 -12   0 1016.33 1694.65   0
  -2 -12   0 1178.02 1443.45   0
  -2 -12  -1 18344.1 2223.55   0
  -2 -12  -2 7689.39 1976.28   0
  -2  12  -3 4789.77 1797.17   2
  -3   0   9 41658.2 3134.12   4
   3   0  -9 43671.3 2674.46   2
  -3   0   8 18744.1 2320.13   4
   3   0  -8 18603.1 2334.61   1
  -3   0   7 207547. 5102.79   4
   3   0  -7 225289. 5409.03   1
  -3   0   6 76887.2 3009.93   4
   3   0  -6 80714.5 3206.74   1
  -3   0   5 24401.3 1792.30   4
   3   0  -5 23689.8 1844.50   1
   3   0  -5 23533.8 1206.30   3
  -3   0   4 178691. 3517.06   4
   3   0  -4 179369. 3655.45   1
   3   0  -4 183165. 2876.37   3
  -3   0   3 5128.80 1093.35   4
   3   0  -3 6160.66 1107.70   1
   3   0  -3 7200.14 1029.21   3
  -3   0   3 6994.96 1083.35   1
   3   0  -2 1040.64 737.494   4
   3   0  -2 1554.69 918.583   3
   3   0  -2 2315.12 924.758   1
  -3   0   2 1206.70 894.093   4
  -3   0   2 2354.32 815.231   1
   3   0  -1 146171. 2352.21   4
  -3   0   1 142153. 2456.93   4
  -3   0   1 139983. 2029.17   1
   3   0  -1 139539. 2122.22   1
   3   0   0 9131.66 655.658   1
   3   0   0 10147.4 851.728   4
  -3   0   0 9468.11 975.048   4
   3   0   0 8454.72 1008.64   2
  -3   0  -1 349229. 4566.60   2
   3   0   1 357761. 3755.00   4
  -3   0  -2 24797.6 1746.93   2
   3   0   2 26067.4 1323.10   4
  -3   0  -3 157554. 3803.94   2
   3   0   3 161738. 2469.51   1
   3   0   4 19374.5 1181.19   1
  -3   0  -4 17506.1 1872.66   2
  -3   0  -5 4731.52 1501.85   2
  -3   0  -6 22563.8 2276.15   2
  -3   0  -7-73.3865 1698.42   2
  -3   0  -8 18453.5 2478.28   2
  -3  -1  10 34777.5 3006.88   4
   3   1 -10 34618.7 2748.51   2
  -3   1   9 1580.33 1801.96   4
  -3  -1   9 1883.06 1765.82   4
   3   1  -9 284.458 1760.94   1
   3   1  -9 1210.51 1474.77   2
  -3  -1   8 36630.8 2722.74   4
   3   1  -8 37511.8 2810.58   1
  -3   1   8 33430.8 2725.43   4
   3  -1  -8 34138.7 2014.67   2
  -3   1   7 19216.9 2082.28   4
  -3  -1   7 19476.1 2034.25   4
   3   1  -7 20765.7 2082.94   1
  -3   1   6 5720.38 1631.83   4
  -3  -1   6 4532.59 1441.16   4
   3  -1  -6 4281.70 1699.42   1
   3   1  -6 6949.89 1527.11   1
   3  -1  -6 4917.00 750.180   3
  -3   1   5 155882. 3772.13   4
  -3  -1   5 154764. 3634.26   4
   3  -1  -5 158526. 3953.54   1
   3   1  -5 159306. 3745.73   1
   3  -1  -5 154440. 2564.45   3
   3  -1  -4 8779.86 936.411   3
  -3  -1   4 7870.30 1218.69   4
   3  -1  -4 7415.12 1363.74   1
  -3   1   4 10456.4 1335.23   4
   3   1  -4 10025.6 1348.29   1
   3   1  -4 10076.6 1000.86   3
  -3   1   3 636899. 5741.50   4
   3  -1  -3 634873. 6069.93   1
  -3  -1   3 620545. 5718.21   4
   3   1  -3 607020. 5376.57   3
  -3   1   3 638133. 5858.33   1
   3   1  -3 607988. 5741.95   1
  -3   1   2 59031.7 1745.99   4
   3   1  -2 57044.3 1741.63   4
   3  -1  -2 58877.6 1824.70   1
   3   1  -2 61930.1 1950.56   3
  -3  -1   2 61329.1 1746.36   1
   3  -1  -2 61967.5 1743.05   4
  -3   1   2 61807.7 1706.05   1
  -3  -1   2 61245.6 1923.84   4
   3   1  -2 58391.5 1771.88   1
   3   1  -1 209420. 2722.32   1
  -3   1   1 212172. 2703.22   4
  -3  -1   1 221800. 3161.90   4
  -3  -1   1 222647. 2724.10   1
   3  -1  -1 216371. 2560.98   1
   3   1  -1 205221. 3226.69   3
   3   1  -1 219272. 3093.89   4
   3  -1  -1 234615. 2981.05   2
   3  -1  -1 221869. 2754.27   4
  -3   1   1 214705. 2329.35   1
   3   1   0 207936. 2466.36   1
   3   1   0 208390. 2953.64   4
   3  -1   0 210229. 1604.39   0
   3   1   0 219572. 3364.24   2
  -3   1   0 200201. 3152.70   2
  -3   1   0 208795. 2578.49   4
  -3   1   0 205663. 1605.02   1
   3  -1   0 204844. 2526.25   4
   3  -1   0 200178. 1742.29   1
   3   1   0 202016. 3222.72   3
  -3  -1   0 203232. 3081.75   4
   3  -1   0 214250. 3196.60   2
   3  -1   1 24779.8 1035.08   4
   3   1   1 28668.8 1349.33   4
   3   1   1 28283.0 1441.04   3
  -3   1  -1 29320.3 1664.50   2
  -3   1  -1 27725.7 763.746   0
  -3   1  -2 147340. 3431.52   2
  -3  -1  -2 146471. 3316.93   2
   3  -1   2 143180. 2429.15   4
   3   1   2 142172. 2720.89   3
  -3  -1  -3 13376.5 1546.09   2
  -3   1  -3 15372.1 1672.19   2
   3   1   3 16510.4 1164.87   3
   3  -1   3 13305.0 703.825   1
  -3   1  -4 28468.1 2138.40   2
   3   1   4 26772.5 1488.64   1
  -3  -1  -4 25611.0 2004.36   2
   3   1   4 29170.3 1372.61   3
   3  -1   4 26100.6 1165.65   1
  -3   1  -5 89251.8 3535.53   2
  -3  -1  -5 88664.9 3386.99   2
   3   1   5 96092.2 2137.79   3
  -3  -1  -6 16433.8 1994.20   2
  -3   1  -6 18624.4 2278.45   2
  -3   1  -7 35499.6 2887.86   2
  -3  -1  -7 37162.7 2761.73   2
  -3   1  -8 729.658 1855.28   2
  -3  -1  -8 235.988 1739.98   2
   3   2 -10 1545.61 1679.76   2
  -3  -2  10-441.422 1820.22   4
  -3  -2   9 47257.1 3145.79   4
   3   2  -9 52484.5 3290.28   1
  -3   2   9 51738.6 3457.15   4
  -3   2   8 8835.67 2057.97   4
  -3  -2   8 10211.8 1898.66   4
   3   2  -8 10566.0 1948.12   1
   3  -2  -8 10335.6 1354.16   2
  -3   2   7 77756.6 3476.95   4
  -3  -2   7 78319.6 3200.88   4
   3   2  -7 83011.2 3350.28   1
   3  -2  -7 87244.0 2555.60   2
  -3  -2   6 94594.3 3205.97   4
   3   2  -6 114823. 3516.06   1
   3  -2  -6 99697.4 1986.14   3
  -3   2   6 108041. 3633.34   4
  -3   2   5 32677.7 2066.90   4
  -3  -2   5 35724.5 1972.20   4
   3  -2  -5 36057.1 1370.06   3
   3   2  -5 35085.8 2072.79   1
  -3  -2   4 149570. 3217.22   4
  -3   2   4 148503. 3310.66   4
   3   2  -4 142189. 3250.53   1
   3   2  -3 26432.8 1422.80   3
  -3   2   3 27079.6 1477.92   4
  -3  -2   3 23261.3 1448.96   4
   3   2  -3 27362.8 1600.36   1
   3   2  -2 232936. 3374.76   1
   3  -2  -2 220391. 2547.91   2
  -3  -2   2 229105. 3317.35   1
  -3  -2   2 220298. 3416.93   4
   3   2  -2 241712. 3485.89   4
  -3   2   2 237021. 3108.99   4
  -3  -2   2 222581. 3404.28   3
  -3   2   2 228551. 3215.19   1
   3  -2  -2 226562. 3090.49   4
   3   2  -2 235796. 3572.08   3
   3  -2  -1 143241. 2179.04   4
   3  -2  -1 148284. 2372.25   2
   3   2  -1 148655. 2695.01   4
  -3  -2   1 140048. 2693.33   4
  -3   2   1 140261. 2113.70   4
   3   2  -1 139416. 1810.10   0
  -3  -2   1 144768. 2718.61   3
   3   2  -1 142605. 2517.18   1
   3   2  -1 139501. 2834.75   3
  -3   2   1 141298. 2056.27   1
   3  -2   0 7248.43 977.097   2
   3  -2   0 7898.69 643.893   4
  -3   2   0 6212.80 1027.24   2
   3   2   0 6728.35 912.810   4
  -3   2   0 6587.62 652.002   4
  -3  -2   0 6946.08 1141.48   4
   3  -2   0 7466.16 628.011   0
   3   2   0 6373.03 1097.61   3
  -3   2   0 7025.86 413.014   1
  -3   2  -1 256546. 2598.82   0
   3  -2   1 265700. 2613.20   4
  -3   2  -1 244859. 3954.96   2
   3   2   1 254052. 3618.21   3
  -3   2  -2 3953.64 1312.00   2
   3  -2   2 4323.91 642.903   4
  -3   2  -2 4182.00 623.093   0
   3   2   2 4788.29 929.453   3
  -3   2  -3 100705. 3276.02   2
   3  -2   3 101424. 1272.32   1
   3   2   3 105665. 2353.90   3
  -3  -2  -3 105260. 3106.73   2
  -3   2  -4 20268.6 2081.12   2
   3  -2   4 20461.2 910.227   1
  -3  -2  -4 21014.0 1882.83   2
   3   2   4 19590.1 1181.61   3
  -3   2  -5 12565.4 1879.78   2
  -3  -2  -5 9156.77 1669.88   2
   3   2   5 10851.3 924.636   3
  -3   2  -6 44156.0 2912.18   2
  -3  -2  -6 41933.5 2640.75   2
  -3   2  -7 1040.72 1814.01   2
  -3  -2  -7-608.258 1566.14   2
  -3  -2  -8 18132.4 2359.41   2
  -3  -3  10 32627.2 2946.88   4
   3   3 -10 35881.8 3082.89   2
  -3   3   9 1741.23 2036.18   4
  -3  -3   9 1665.77 1648.74   4
   3   3  -9 828.374 1744.86   1
  -3  -3   8 74223.8 3409.00   4
  -3   3   8 74144.6 3748.08   4
   3   3  -8 73209.7 3439.96   1
  -3   3   7 20521.3 2247.51   4
  -3  -3   7 21301.6 1969.78   4
   3   3  -7 20249.8 2097.74   1
   3  -3  -7 24546.3 1401.15   2
  -3  -3   6 26914.0 1964.40   4
  -3   3   6 26690.6 2214.37   4
   3  -3  -6 27668.7 1168.13   3
   3   3  -6 25257.1 2023.41   1
   3  -3  -6 28223.3 1267.26   2
  -3   3   5 155903. 3929.07   4
  -3  -3   5 163318. 3693.61   4
   3   3  -5 169983. 3906.90   1
  -3   3   4 7183.08 1264.99   4
  -3  -3   4 6393.05 1157.49   4
   3   3  -4 6986.96 1289.98   1
  -3   3   3 160915. 3075.52   4
  -3  -3   3 157154. 3170.80   4
   3  -3  -3 153545. 1744.81   2
   3   3  -3 154097. 3205.95   1
   3   3  -2 50003.3 1875.47   1
  -3  -3   2 49633.3 1871.65   4
  -3   3   2 49492.1 1795.77   1
  -3   3   2 50907.7 1606.05   4
   3  -3  -2 49186.8 1233.72   2
   3  -3  -1 57445.9 1619.16   2
   3   3  -1 52029.3 1792.45   1
  -3   3   1 51475.0 1323.42   4
  -3   3   1 53172.0 1485.30   2
  -3  -3   1 55367.6 1972.24   4
  -3   3   1 56686.2 1588.51   1
   3   3  -1 50983.8 1901.51   3
   3  -3  -1 56235.5 1407.81   4
   3   3  -1 54670.0 1408.12   0
   3  -3   0 272743. 2407.21   4
  -3   3   0 277035. 2285.47   4
  -3   3   0 278330. 2495.88   1
  -3  -3   0 280486. 2810.44   0
  -3  -3   0 278797. 4055.94   4
   3  -3   0 280534. 3112.06   0
   3   3   0 272952. 3953.09   3
  -3   3   0 268003. 3697.70   2
   3  -3   0 273183. 3904.32   2
   3  -3   1 10641.7 538.388   4
  -3   3  -1 14145.5 1453.04   2
  -3   3  -1 11962.0 862.347   0
  -3  -3  -1 11066.1 751.649   0
   3   3   1 12195.4 1193.86   3
  -3   3  -2 119841. 3317.92   2
   3  -3   2 126682. 1719.67   4
  -3   3  -2 123310. 2362.08   0
   3   3   2 121094. 2618.59   3
   3  -3   3 69413.6 1617.53   4
  -3   3  -3 71277.0 2904.39   2
   3   3   3 69107.5 2013.25   3
  -3   3  -4 57624.4 2871.19   2
  -3  -3  -5 22433.2 2027.22   2
  -3   3  -5 21111.2 2219.96   2
  -3   3  -6 7063.00 1868.60   2
  -3  -3  -6 6502.97 1697.03   2
  -3   3  -7 41207.5 3091.65   2
  -3  -3  -7 39688.2 2784.55   2
  -3  -3  -8 937.613 1761.69   2
  -3  -4  10 338.816 1659.32   4
  -3   4   9 39995.6 3331.95   4
   3   4  -9 40195.5 2942.19   1
  -3  -4   9 44996.7 2995.52   4
  -3   4   8 507.507 1939.06   4
  -3  -4   8 1142.56 1442.89   4
   3   4  -8 1633.88 1622.29   1
  -3  -4   7 23673.1 2060.60   4
  -3   4   7 25156.6 2428.67   4
   3   4  -7 28118.0 2214.27   1
  -3  -4   6 75274.6 2862.01   4
  -3   4   6 71633.3 3165.85   4
   3   4  -6 76619.3 3035.56   1
   3  -4  -5 11940.0 465.790   2
  -3  -4   5 15510.9 1556.25   4
  -3   4   5 15352.3 1697.53   4
   3   4  -5 14441.7 1657.44   1
  -3   4   4 188571. 3842.76   4
   3   4  -4 177802. 3813.22   1
  -3  -4   4 182396. 3687.45   4
   3   4  -3 29193.5 1735.53   1
  -3  -4   3 29945.5 1684.07   4
  -3   4   3 30763.5 1582.74   4
   3   4  -2 160156. 3248.32   1
  -3  -4   2 167464. 3228.99   4
  -3   4   2 170797. 3348.62   1
   3   4  -2 157574. 2801.13   0
  -3   4   2 160532. 2675.12   4
   3  -4  -2 169310. 2158.93   2
   3  -4  -1 85670.4 2131.14   0
  -3   4   1 85361.4 1622.14   4
   3   4  -1 88231.2 1998.12   0
  -3  -4   1 83380.3 2443.38   4
  -3   4   1 82298.3 1826.22   2
   3   4  -1 80003.6 2272.12   1
   3  -4  -1 87917.5 2038.44   2
  -3   4   0 55357.2 942.288   4
  -3  -4   0 58392.5 1612.70   0
  -3   4   0 56987.5 1911.86   2
   3  -4   0 57288.3 1741.68   0
   3  -4   0 56133.2 1960.10   2
  -3   4  -1 142593. 3319.50   2
  -3  -4  -1 147068. 2458.15   0
  -3   4  -1 155944. 2754.19   0
  -3   4  -2 11803.9 1566.40   2
   3  -4   2 10121.4 357.477   4
  -3   4  -2 12631.9 500.858   1
  -3   4  -3 132921. 3844.31   2
   3  -4   3 115374. 1647.11   4
  -3   4  -3 123019. 1609.67   1
  -3   4  -4 43850.4 2638.18   2
   3  -4   4 40898.3 1454.37   4
  -3   4  -5 10262.1 1859.39   2
  -3   4  -6 47044.0 3152.74   2
  -3   4  -7 706.060 1923.42   2
  -3  -5  10 28576.4 2744.43   4
   3   5  -9 744.295 1708.53   1
  -3  -5   9 1176.41 1552.52   4
  -3   5   8 46984.8 3265.08   4
   3   5  -8 42104.3 2885.02   1
  -3  -5   8 41429.2 2703.72   4
  -3   5   7 37662.3 2735.60   4
  -3  -5   7 37134.4 2330.37   4
   3   5  -7 40316.4 2584.74   1
  -3  -5   6 26223.1 1896.44   4
  -3   5   6 25089.8 2218.09   4
   3   5  -6 27159.7 2126.44   1
  -3   5   5 82375.8 3067.56   4
  -3  -5   5 83607.3 2822.55   4
   3   5  -5 83298.0 3036.21   1
  -3   5   4 15780.8 1568.43   4
  -3  -5   4 14703.1 1477.58   4
   3   5  -4 14611.9 1564.37   1
  -3   5   3 131144. 2926.25   4
   3   5  -3 127684. 3253.60   1
  -3   5   2 42564.1 1552.44   4
  -3  -5   2 41707.1 1929.95   4
   3   5  -2 41404.9 2011.35   1
  -3   5   1 115058. 2209.57   2
  -3   5   1 114417. 1872.93   4
  -3  -5   1 110067. 2879.22   4
   3  -5  -1 108798. 2638.92   0
  -3   5   0 149060. 3053.70   2
  -3   5   0 140010. 1256.04   4
  -3  -5   0 145764. 2776.47   0
  -3   5  -1 10786.7 1368.97   2
  -3  -5  -1 8592.54 971.156   0
  -3   5  -2 91842.0 3137.25   2
  -3   5  -2 95547.9 1572.22   1
  -3  -5  -2 95878.9 2462.17   0
  -3   5  -3 19587.2 1957.19   2
  -3   5  -3 22167.9 867.068   1
  -3   5  -4 67331.7 3175.99   2
  -3   5  -5 15219.8 2101.56   2
  -3   5  -6 5645.86 1957.93   2
  -3  -6   9 30434.0 2564.89   4
   3   6  -9 29763.2 2797.98   1
  -3   6   8 7781.37 2214.30   4
  -3  -6   8 11367.4 1840.77   4
   3   6  -8 10265.4 1997.26   1
  -3   6   7 39052.4 2866.32   4
  -3  -6   7 37092.0 2371.85   4
   3   6  -7 39298.2 2644.26   1
  -3   6   6 37273.5 2608.90   4
  -3  -6   6 40964.8 2297.13   4
   3   6  -6 38104.3 2507.27   1
  -3  -6   5 226.661 1114.60   4
  -3   6   5-109.105 1346.93   4
   3   6  -5 67.2924 1224.22   1
  -3   6   4 166269. 3853.24   4
   3   6  -4 166020. 4042.68   1
  -3  -6   4 157906. 3627.84   4
  -3   6   3 16268.2 1365.09   4
   3   6  -3 17825.1 1641.54   1
  -3  -6   3 21429.9 1576.70   4
  -3   6   2 47521.9 1661.65   4
  -3   6   2 43686.3 1075.87   2
  -3  -6   2 50800.0 2183.86   4
   3   6  -2 40496.4 2104.69   1
  -3   6   1 106464. 2265.01   2
   3  -6  -1 106493. 2843.58   0
  -3  -6   1 101670. 2980.59   4
  -3   6   1 105523. 1869.62   4
  -3   6   0 32907.5 1711.48   2
  -3  -6   0 34455.2 1680.51   0
   3  -6   0 35786.2 1799.63   0
  -3   6  -1 120010. 3254.71   2
  -3  -6  -1 112046. 2766.18   0
  -3   6  -2 5636.16 703.407   1
  -3   6  -2 4902.09 1413.65   2
  -3  -6  -2 6560.09 1114.07   0
  -3   6  -3 89672.0 3434.36   2
  -3   6  -3 89958.6 1831.97   1
  -3   6  -4 33547.5 2519.77   2
  -3   6  -5 18952.1 2276.35   2
  -3   6  -6 34578.1 2921.60   2
  -3   7   8 24185.4 2741.33   4
  -3  -7   8 24250.5 2181.61   4
   3   7  -8 23630.2 2458.63   1
  -3  -7   7 25690.1 2182.41   4
  -3   7   7 19832.9 2401.54   4
   3   7  -7 20571.5 2230.61   1
  -3  -7   6 31398.6 2139.45   4
  -3   7   6 32400.4 2527.75   4
   3   7  -6 33899.6 2439.19   1
  -3   7   5 53709.6 2732.64   4
   3   7  -5 53333.3 2700.26   1
  -3  -7   5 58955.8 2571.92   4
   3   7  -4 6197.24 1476.51   1
  -3   7   4 5657.99 1399.43   4
  -3  -7   4 5755.49 1176.51   4
  -3   7   3 89492.1 2649.44   4
  -3  -7   3 87429.3 2880.89   4
   3   7  -3 88624.2 3090.20   1
  -3   7   2 20004.9 1242.27   4
  -3   7   2 19479.7 817.310   2
  -3  -7   2 20944.4 1684.03   4
   3   7  -2 21061.1 1828.30   1
   3  -7  -2 21255.5 1696.97   0
  -3   7   1 65381.7 1913.88   2
   3  -7  -1 60716.4 2458.93   0
  -3   7   1 65009.2 1553.32   4
  -3   7   0 46046.2 1977.43   2
  -3  -7   0 44296.3 2049.07   0
   3  -7   0 40904.9 2068.32   0
  -3   7  -1 7689.25 1373.71   2
  -3  -7  -1 7725.74 1236.93   0
  -3   7  -2 92999.8 3357.29   2
  -3  -7  -2 100615. 2977.88   0
  -3   7  -2 101399. 2256.98   1
  -3   7  -3 3110.01 1487.20   2
  -3  -7  -3 4029.94 1196.52   0
  -3   7  -4 22603.2 2277.71   2
  -3   7  -5 25490.3 2541.89   2
  -3   7  -6 1568.47 1745.21   2
   3   8  -8 8046.60 2018.54   1
  -3  -8   7 18732.5 1997.95   4
  -3   8   7 15762.8 2258.98   4
   3   8  -7 19305.7 2343.29   1
   3   8  -6 45693.2 2834.35   1
  -3   8   6 49793.6 3035.69   4
  -3  -8   6 45922.5 2419.53   4
  -3   8   5 845.510 1359.72   4
  -3  -8   5 1692.62 1159.64   4
   3   8  -5 511.694 1311.88   1
  -3   8   4 84277.2 3075.28   4
  -3  -8   4 80123.8 2922.99   4
   3   8  -4 82567.6 3257.87   1
   3   8  -3 6834.69 1602.10   1
   3  -8  -3 5012.19 1406.99   0
  -3   8   3 6742.25 1208.85   4
  -3  -8   3 6379.18 1332.26   4
  -3   8   2 65126.3 2047.78   4
  -3  -8   2 69185.3 2697.28   4
   3   8  -2 65003.0 2772.58   1
   3  -8  -2 63916.7 2718.44   0
   3  -8  -1 58213.0 2588.79   0
  -3   8   1 57624.4 1927.39   2
  -3   8   1 57751.6 1530.79   4
  -3   8   0 9905.82 1275.23   2
  -3  -8   0 10776.5 1435.92   0
   3  -8   0 10807.5 1481.86   0
  -3   8  -1 99422.5 3218.60   2
  -3  -8  -1 91748.2 3019.09   0
  -3   8  -2 9073.71 1640.60   2
  -3   8  -2 8895.52 1059.74   1
  -3  -8  -2 8129.13 1351.47   0
  -3   8  -3 36229.2 2557.03   2
  -3  -8  -3 35056.4 2202.35   0
  -3   8  -4 13425.0 2073.20   2
  -3  -8  -4 14893.2 1773.16   0
  -3   8  -5 10667.9 2172.59   2
  -3   9   7 10659.4 2221.26   4
   3   9  -7 7173.61 2015.93   1
   3   9  -6 15693.9 2133.54   1
  -3  -9   6 14070.7 1714.30   4
  -3   9   6 14403.0 2178.54   4
  -3   9   5 29300.7 2366.00   4
  -3  -9   5 29829.3 2104.31   4
   3   9  -5 25695.2 2350.23   1
   3   9  -4 610.874 1386.10   1
  -3   9   4-8.98304 1296.60   4
  -3  -9   4 488.457 1290.02   4
  -3   9   3 54215.8 2296.33   4
   3   9  -3 52929.3 2768.86   1
  -3  -9   3 54837.6 2555.25   4
   3  -9  -3 53058.3 2809.73   0
  -3   9   2 13280.1 1164.74   4
   3  -9  -2 11973.0 1684.48   0
   3   9  -2 15828.8 1883.76   1
   3  -9  -1 12768.3 1611.42   0
  -3   9   0 55891.8 2318.52   2
  -3  -9   0 53964.5 2587.91   0
   3  -9   0 53739.4 2690.09   0
  -3   9  -1 1809.65 1307.16   2
  -3  -9  -1 205.027 1137.07   0
  -3   9  -2 39531.1 2511.21   2
  -3  -9  -2 39653.3 2366.49   0
  -3   9  -3 3620.02 1648.04   2
  -3  -9  -3 5360.37 1478.88   0
  -3   9  -4 21454.7 2466.59   2
  -3  -9  -4 25810.3 2195.76   0
  -3   9  -5 19552.2 2501.16   2
  -3  -9  -5 18725.8 2133.49   0
   3  10  -6 27252.4 2585.02   1
  -3  10   6 31200.0 2710.08   4
   3  10  -5 2826.91 1715.51   1
  -3  10   5 3590.30 1578.56   4
  -3  10   4 39663.1 2434.28   4
   3  10  -4 36283.4 2668.13   1
   3 -10  -4 35981.2 2604.19   0
  -3 -10   4 40368.8 2407.67   4
   3  10  -3 11303.5 1961.10   1
   3 -10  -3 12518.9 1887.55   0
   3  10  -2 48742.5 2772.40   1
   3 -10  -2 48553.1 2787.87   0
   3 -10  -1 12035.3 1809.26   0
  -3 -10   0 17799.4 1854.48   0
   3 -10   0 15911.8 1926.35   0
  -3  10  -1 45845.8 2526.73   2
  -3 -10  -1 42815.5 2557.31   0
  -3 -10  -2-84.8626 1366.89   0
  -3  10  -2 586.023 1376.63   2
  -3  10  -3 40520.0 2877.62   2
  -3 -10  -3 44603.6 2718.87   0
  -3  10  -4 11142.9 2164.44   2
  -3 -10  -4 12066.3 1840.73   0
  -3 -10  -5 6357.53 1671.64   0
  -3  11   6 4741.02 1845.85   4
   3  11  -4 41.7470 1499.32   1
   3 -11  -4-337.403 1511.84   0
   3 -11  -3 22362.6 2247.13   0
   3  11  -3 20608.5 2275.31   1
   3 -11  -2 11315.9 1928.64   0
   3  11  -2 12720.7 2059.37   1
   3 -11  -1 11984.7 1823.64   0
  -3 -11   0 41893.2 2763.14   0
   3 -11   0 39587.7 2721.04   0
  -3 -11  -1 2667.79 1515.52   0
  -3  11  -2 22129.8 2191.73   2
  -3 -11  -2 23224.0 2278.09   0
  -3 -11  -3 1416.20 1505.18   0
  -3  11  -3 174.311 1659.76   2
  -3  11  -4 9296.16 2069.72   2
  -3 -11  -4 9241.89 1920.69   0
   3 -12  -2 17972.3 2296.43   0
   3 -12  -1 17113.5 2277.75   0
   3 -12   0 7389.20 1820.07   0
  -3 -12  -1 8105.64 1790.37   0
  -3 -12  -2 4628.88 1642.09   0
  -4   0   9 15556.2 2411.78   4
  -4   0   8 529.688 1678.63   4
   4   0  -8 14.7693 1769.25   1
  -4   0   7 86952.0 3509.25   4
   4   0  -7 90454.3 3652.54   1
  -4   0   6 9547.64 1562.25   4
   4   0  -6 8189.48 1664.52   1
   4   0  -6 8896.37 1074.32   3
   4   0  -5 232750. 4694.32   1
   4   0  -5 226976. 3727.99   3
  -4   0   5 221788. 4445.04   4
  -4   0   4 136472. 3235.90   4
   4   0  -4 139694. 2949.13   3
   4   0  -4 135865. 3339.04   1
  -4   0   3 6581.25 1111.44   4
   4   0  -3 5455.10 1123.84   1
   4   0  -3 5615.48 1085.63   3
  -4   0   2 351395. 3897.24   1
  -4   0   2 345237. 4323.68   4
   4   0  -2 343343. 4620.61   3
   4   0  -2 337247. 4007.12   1
   4   0  -1 3718.97 848.071   4
  -4   0   1 4918.60 946.489   4
  -4   0   1 4813.13 694.353   1
   4   0  -1 4706.29 781.573   1
   4   0   0 125684. 1830.17   1
  -4   0   0 118377. 2545.83   4
   4   0   0 124458. 2552.62   4
   4   0   1 79458.2 1308.06   1
  -4   0  -1 79755.5 2661.33   2
  -4   0  -2 12551.8 1584.21   2
  -4   0  -3 201349. 4649.00   2
   4   0   3 209129. 2620.96   1
  -4   0  -4 2470.92 1561.67   2
  -4   0  -5 18129.1 2174.76   2
   4   0   5 17667.6 1377.69   3
  -4   0  -6 8496.28 1977.81   2
  -4   0  -7 7501.19 1949.39   2
  -4   1   9 32714.5 2996.26   4
  -4  -1   9 27256.9 2656.60   4
   4   1  -9 26649.7 2734.14   1
  -4   1   8 69468.4 3520.10   4
  -4  -1   8 69166.3 3440.38   4
   4   1  -8 68914.1 3473.23   1
  -4   1   7 448.668 1586.32   4
  -4  -1   7 742.852 1477.28   4
   4  -1  -7 708.729 1577.19   1
   4   1  -7 616.139 1587.59   1
   4  -1  -7 1229.84 743.205   3
  -4   1   6 129190. 3849.47   4
   4   1  -6 125989. 3811.39   1
   4  -1  -6 143190. 4228.65   1
   4  -1  -6 137705. 2852.33   3
  -4  -1   6 136066. 3843.97   4
  -4   1   5 46317.4 2315.09   4
  -4  -1   5 40009.5 2195.82   4
   4  -1  -5 42943.0 2397.86   1
   4  -1  -5 40321.9 1725.84   3
   4   1  -5 43954.4 2320.61   1
   4   1  -5 47963.0 1905.74   3
  -4   1   4 50841.5 2157.39   4
  -4  -1   4 45827.1 2074.14   4
   4  -1  -4 50320.1 2266.40   1
   4  -1  -4 50619.8 1911.70   3
   4   1  -4 51824.3 2022.22   3
   4   1  -4 48933.6 2149.16   1
  -4   1   3 109553. 2651.47   4
   4  -1  -3 112002. 2798.59   1
   4   1  -3 112984. 2764.58   3
  -4  -1   3 111783. 2764.69   4
   4   1  -3 114492. 2805.42   1
  -4  -1   2 309.357 775.710   1
   4  -1  -2 922.055 729.141   2
  -4   1   2 851.852 872.704   4
  -4  -1   2 321.101 955.450   4
   4  -1  -2 1959.81 878.481   1
   4   1  -2 643.194 947.209   3
   4   1  -2 967.406 864.838   1
  -4   1   2 718.229 724.827   1
   4   1  -1 243832. 3176.86   1
   4  -1  -1 242266. 3335.43   4
  -4   1   1 251714. 2678.58   1
  -4   1   1 251846. 3396.63   4
   4   1  -1 233333. 1726.65   0
  -4  -1   1 239526. 3649.52   4
   4   1  -1 235719. 3958.53   3
   4  -1  -1 245853. 2914.10   1
   4  -1  -1 259484. 3712.47   2
   4   1   0 28581.1 1155.04   1
  -4   1   0 29113.0 1324.24   4
  -4  -1   0 32268.8 1609.51   4
   4   1   0 29071.5 1657.77   3
   4  -1   0 34103.4 904.706   1
  -4   1  -1 76908.9 2617.47   2
   4  -1   1 77495.9 1962.38   4
   4   1   1 72158.9 2355.89   3
  -4   1  -2 39465.9 2212.96   2
  -4  -1  -2 41640.7 2233.21   2
   4  -1   2 40614.7 1587.30   4
  -4   1  -2 41379.3 1101.13   0
   4   1   2 38911.7 1857.06   3
  -4  -1  -3 115.950 1438.01   2
  -4   1  -3 866.873 1410.16   2
   4   1   3 322.365 991.078   3
   4  -1   3 423.452 242.121   1
  -4   1  -4 75212.7 3281.90   2
  -4  -1  -4 68083.1 3089.71   2
   4   1   4 75277.7 2328.76   3
  -4   1  -5 2557.00 1744.96   2
  -4  -1  -5 1746.80 1523.92   2
  -4   1  -6 24857.5 2500.89   2
  -4  -1  -6 22437.6 2441.50   2
  -4  -1  -7 18138.1 2462.27   2
  -4   1  -7 18141.7 2517.46   2
  -4   2   9 28438.2 2935.26   4
  -4  -2   9 24455.5 2536.96   4
   4   2  -9 29541.3 2849.72   1
  -4   2   8 2745.30 1791.76   4
  -4  -2   8 1443.81 1606.84   4
   4   2  -8 735.526 1807.90   1
  -4   2   7 81649.9 3531.79   4
  -4  -2   7 76696.2 3268.09   4
   4  -2  -7 85682.1 2175.96   3
  -4  -2   6 26569.2 2022.14   4
  -4   2   6 22317.8 2034.88   4
   4  -2  -6 27331.7 1396.98   3
   4   2  -6 19350.8 1882.55   1
  -4   2   5 81406.4 2918.85   4
  -4  -2   5 78279.9 2773.96   4
   4  -2  -5 87361.1 3250.29   1
   4  -2  -5 79244.5 2236.32   3
   4   2  -5 79595.3 2855.34   1
  -4   2   4 63773.1 2349.91   4
   4  -2  -4 66184.7 2621.73   1
  -4  -2   4 61628.4 2336.93   4
   4   2  -4 60487.0 2225.63   3
   4   2  -4 61930.1 2458.37   1
  -4  -2   3 24665.3 1607.22   4
  -4   2   3 25104.1 1475.33   4
   4  -2  -3 25680.9 1691.33   1
   4   2  -3 25862.1 1664.49   3
   4   2  -3 25426.6 1587.88   1
   4   2  -2 271834. 3901.63   1
   4  -2  -2 277128. 3741.14   4
  -4  -2   2 259793. 4094.73   4
   4  -2  -2 263836. 3790.93   1
  -4   2   2 267571. 3594.27   4
   4  -2  -2 280964. 3509.65   2
   4   2  -2 266038. 4304.82   3
  -4   2   2 282949. 3585.82   1
   4  -2  -1 13232.2 1138.67   2
   4   2  -1 13753.6 1102.50   1
  -4   2   1 15095.7 1065.42   4
  -4  -2   1 10416.1 1226.40   4
   4  -2  -1 12536.4 961.328   4
   4   2  -1 14524.2 1517.25   3
   4   2  -1 14541.4 649.354   0
  -4   2   1 13420.5 779.472   1
  -4   2   0 98382.7 2646.71   2
  -4   2   0 96137.6 1961.75   4
  -4   2   0 93188.8 1094.26   1
  -4  -2   0 98324.1 2644.88   4
   4   2   0 96117.5 2147.87   1
   4   2   0 91407.9 2670.01   3
   4  -2   0 98699.6 1965.28   4
   4  -2   1 156134. 2483.16   4
  -4   2  -1 156321. 3558.33   2
   4   2   1 160216. 3347.10   3
  -4  -2  -1 147416. 1488.66   0
  -4   2  -2 17793.6 1790.44   2
   4  -2   2 16962.5 1016.09   4
   4   2   2 20758.2 1488.06   3
  -4   2  -2 20438.5 939.847   0
  -4   2  -3 87647.8 2068.45   0
   4  -2   3 85345.6 2192.45   4
  -4   2  -3 89194.7 3398.16   2
   4   2   3 95350.7 2644.60   3
  -4   2  -4 3678.37 1658.26   2
  -4  -2  -4 3039.56 1540.06   2
   4   2   4 3471.60 975.716   3
  -4  -2  -5 55928.6 3047.87   2
  -4   2  -5 57843.1 3218.60   2
  -4   2  -6 2970.30 1937.74   2
  -4  -2  -6 1529.34 1613.81   2
  -4  -2  -7 11369.4 2150.41   2
  -4   3   9 4748.40 2050.09   4
  -4  -3   9 5084.38 1805.01   4
   4   3  -9 3416.34 1902.27   1
  -4   3   8 66276.6 3598.52   4
  -4  -3   8 63308.9 3238.66   4
   4   3  -8 69827.8 3430.28   1
  -4   3   7 6701.44 1705.57   4
  -4  -3   7 4400.92 1484.13   4
   4   3  -7 6070.57 1745.55   1
  -4   3   6 169506. 4462.93   4
   4  -3  -6 165369. 3073.92   3
  -4  -3   6 166563. 4249.92   4
   4   3  -6 166068. 4341.88   1
  -4   3   5 65078.7 2695.64   4
  -4  -3   5 58301.7 2500.35   4
   4   3  -5 61767.9 2703.80   1
  -4   3   4 84686.6 2676.04   4
  -4  -3   4 89127.4 2829.41   4
   4   3  -4 89129.5 2866.08   1
   4   3  -3 191205. 3733.84   1
  -4   3   3 195900. 3433.25   4
  -4  -3   3 202480. 3885.71   4
   4   3  -3 192382. 3822.40   3
   4   3  -2 7622.64 1184.41   1
   4  -3  -2 7454.98 962.884   4
  -4   3   2 8075.49 945.606   4
   4   3  -2 7435.60 761.391   0
  -4  -3   2 7115.77 1227.25   4
  -4   3   2 8060.90 966.662   1
   4  -3  -2 7714.96 870.007   2
   4   3  -2 6714.21 1180.11   3
   4  -3  -1 164928. 3088.85   2
   4  -3  -1 166486. 2580.81   4
   4   3  -1 157251. 3092.28   1
  -4   3   1 163254. 2526.90   4
   4   3  -1 164813. 2230.98   0
  -4   3   1 165232. 2374.30   1
   4   3  -1 165016. 3548.49   3
  -4  -3   1 160142. 3409.31   4
   4  -3  -1 167600. 2567.22   0
  -4   3   0 4111.07 1093.62   2
   4  -3   0 2340.14 589.988   4
   4  -3   0 3096.75 661.109   0
  -4   3   0 3771.78 625.852   4
  -4  -3   0 2570.65 1152.38   4
   4   3   0 3093.70 1195.02   3
  -4   3   0 3681.23 355.571   1
   4  -3   1 87303.9 1653.88   4
  -4   3  -1 77835.0 2683.60   2
   4   3   1 80004.9 2557.38   3
  -4  -3  -1 83906.8 1529.21   0
  -4   3  -2 91162.5 3175.07   2
  -4   3  -2 91156.9 2026.17   0
   4  -3   2 95256.8 1846.91   4
   4   3   2 91445.8 2679.98   3
  -4   3  -3 3846.74 1478.83   2
   4   3   3 5403.79 1120.10   3
  -4   3  -4 56021.7 2986.78   2
   4   3   4 60863.9 2126.04   3
  -4   3  -5 15037.5 2058.79   2
  -4   3  -6 19465.7 2401.80   2
  -4  -4   9 30780.6 2703.81   4
   4   4  -9 30229.8 2737.97   1
  -4   4   9 26589.4 2911.90   4
  -4   4   8 5457.21 1878.18   4
   4   4  -8 5287.37 1888.97   1
  -4  -4   8 7637.60 1789.02   4
  -4   4   7 74834.3 3505.13   4
  -4  -4   7 64166.2 2993.54   4
   4   4  -7 72487.1 3294.86   1
  -4   4   6 6658.14 1606.15   4
  -4  -4   6 8864.64 1543.56   4
   4   4  -6 6875.69 1574.13   1
  -4   4   5 42482.5 2353.71   4
   4   4  -5 39033.7 2315.95   1
   4   4  -4 90354.9 2929.79   1
   4  -4  -4 91663.9 1469.33   2
  -4  -4   4 94945.2 2989.97   4
  -4   4   4 90548.0 2817.88   4
   4  -4  -3 33547.4 1142.37   2
  -4   4   3 33314.0 1617.89   4
  -4  -4   3 30891.8 1855.65   4
   4   4  -3 30811.3 1852.91   1
   4  -4  -2 148016. 2613.44   2
   4   4  -2 141343. 3260.54   1
  -4  -4   2 140848. 3365.21   4
  -4   4   2 140201. 2581.57   4
  -4   4   2 147657. 3025.75   1
   4   4  -2 139863. 2621.73   0
   4  -4  -1 12410.3 930.815   4
  -4   4   1 14019.8 887.007   4
  -4  -4   1 12063.5 1401.51   4
   4   4  -1 11417.0 1303.21   1
   4  -4  -1 12779.0 1048.50   0
  -4   4   1 13052.1 978.898   1
  -4   4   1 11869.5 1093.84   2
   4   4  -1 13632.2 1529.08   3
   4   4  -1 11286.4 891.499   0
   4  -4  -1 13259.3 1164.33   2
   4  -4   0 98605.9 1675.52   4
  -4   4   0 97800.2 2673.82   2
  -4   4   0 102980. 1612.58   4
   4  -4   0 102522. 2281.15   0
  -4   4   0 102233. 1615.56   1
   4   4   0 101011. 2949.44   3
  -4   4  -1 64306.7 2560.56   2
   4  -4   1 66065.8 1211.53   4
   4   4   1 66940.0 2408.20   3
  -4  -4  -1 68145.8 1685.31   0
  -4   4  -2 20042.2 1900.04   2
   4   4   2 19638.8 1528.15   3
   4  -4   2 15536.1 660.355   4
  -4  -4  -2 14500.8 1023.51   0
  -4   4  -3 43395.2 2608.95   2
  -4   4  -4 4855.43 1728.50   2
  -4   4  -5 57748.4 3314.97   2
  -4   4  -6 2150.93 1883.75   2
  -4  -5   9 5598.94 1828.80   4
   4   5  -9 7779.39 2093.56   1
  -4   5   8 61069.0 3534.05   4
  -4  -5   8 61087.8 3169.56   4
   4   5  -8 55912.1 3229.73   1
  -4   5   7 366.264 1666.40   4
  -4  -5   7-126.618 1317.42   4
   4   5  -7 602.088 1622.36   1
  -4   5   6 99383.9 3643.68   4
  -4  -5   6 89281.1 3295.41   4
   4   5  -6 91912.6 3538.53   1
  -4   5   5 16053.4 1757.36   4
  -4  -5   5 14294.3 1673.71   4
   4   5  -5 15323.6 1757.99   1
   4   5  -4 20830.3 1844.98   1
  -4   5   4 19775.7 1615.45   4
  -4  -5   4 24019.0 1793.55   4
  -4   5   3 118662. 2805.96   4
   4   5  -3 114987. 3256.10   1
   4   5  -2 85.9614 1156.64   1
  -4   5   2 124.949 714.103   4
  -4  -5   2 524.874 1195.09   4
   4  -5  -2 963.818 682.008   2
  -4   5   1 112507. 2512.23   2
  -4   5   1 114261. 1949.33   4
   4  -5  -1 114711. 2714.66   0
  -4  -5   1 109916. 3183.43   4
   4   5  -1 107671. 2973.88   1
  -4   5   1 113668. 2601.22   1
  -4   5   0 46748.7 2051.95   2
  -4  -5   0 48554.0 1680.65   0
  -4   5   0 44212.3 890.592   4
  -4   5   0 43070.4 1432.40   1
   4  -5   0 48183.4 1867.11   0
  -4   5  -1 54832.0 2445.80   2
  -4   5  -1 55064.4 1016.08   1
  -4   5  -1 54736.1 1136.95   1
  -4  -5  -1 59489.6 1838.20   0
  -4   5  -2 93403.2 3325.16   2
  -4  -5  -2 94408.3 2384.11   0
  -4   5  -3 11742.5 1865.94   2
  -4   5  -4 78696.6 3578.87   2
  -4   5  -5 3195.96 1859.27   2
  -4   5  -6 18281.4 2499.88   2
  -4  -6   9 24952.9 2584.21   4
  -4   6   8 5642.52 2073.41   4
  -4  -6   8 4412.56 1624.46   4
   4   6  -8 3321.97 1681.87   1
  -4   6   7 56413.7 3234.75   4
  -4  -6   7 49448.1 2783.95   4
   4   6  -7 56044.2 3189.63   1
  -4   6   6 13882.9 1928.19   4
  -4  -6   6 12458.2 1737.18   4
   4   6  -6 16218.4 1993.99   1
   4   6  -5 75759.1 3070.63   1
  -4   6   5 74877.8 2997.48   4
  -4  -6   5 78546.5 3020.14   4
  -4   6   4 110613. 3133.19   4
  -4  -6   4 110618. 3325.90   4
  -4   6   3 41261.7 1799.83   4
   4   6  -3 45587.8 2360.69   1
  -4  -6   3 45997.9 2314.01   4
   4  -6  -2 133520. 3274.85   0
  -4   6   2 127782. 2527.06   4
   4   6  -2 122361. 3453.48   1
  -4  -6   2 127217. 3531.67   4
   4   6  -1 248.631 1123.10   1
  -4   6   1 177.623 783.663   2
  -4   6   1 974.264 527.554   4
   4  -6  -1 709.983 925.102   0
  -4  -6   1 897.005 1291.15   4
  -4   6   0 101323. 2891.77   2
  -4  -6   0 111328. 2724.97   0
   4  -6   0 110259. 2945.54   0
  -4   6  -1 19799.1 1753.92   2
  -4  -6  -1 17246.4 1294.95   0
  -4   6  -2 5671.20 1493.38   2
  -4  -6  -2 7606.19 1083.61   0
  -4   6  -3 39083.1 2589.23   2
  -4  -6  -3 42851.6 1954.76   0
  -4   6  -4 17393.0 2196.83   2
  -4   6  -5 20617.2 2403.36   2
  -4  -7   9 7279.94 1999.93   4
  -4   7   8 35247.6 3069.46   4
  -4  -7   8 35033.0 2668.60   4
   4   7  -8 30969.1 2706.28   1
  -4   7   7-366.963 1649.98   4
  -4  -7   7-381.491 1435.19   4
   4   7  -7-74.7981 1623.36   1
  -4   7   6 43619.9 2733.45   4
  -4  -7   6 42361.9 2518.75   4
   4   7  -6 47022.5 2813.19   1
   4   7  -5 19214.4 2028.30   1
  -4   7   5 17994.4 1798.95   4
  -4  -7   5 18606.1 1772.40   4
   4   7  -4 3628.56 1361.33   1
  -4   7   4 4616.61 1229.88   4
  -4  -7   4 5611.67 1415.78   4
  -4   7   3 82248.9 2454.80   4
   4   7  -3 80008.1 3099.50   1
  -4  -7   3 73021.0 2896.09   4
   4   7  -2 863.399 1286.10   1
  -4   7   2 969.090 618.266   2
  -4   7   2 1447.31 716.036   4
  -4  -7   2 561.574 1270.30   4
   4  -7  -2 1207.53 1124.23   0
  -4   7   1 74507.7 2217.11   2
  -4   7   1 73104.2 1493.36   4
   4  -7  -1 70364.3 2619.17   0
  -4   7   0 52702.2 2221.98   2
  -4  -7   0 57903.3 2245.14   0
   4  -7   0 55587.7 2363.12   0
  -4   7  -1 39954.0 2236.00   2
  -4  -7  -1 45149.5 2010.00   0
  -4   7  -2 51441.2 2718.86   2
  -4  -7  -2 52727.4 2236.79   0
  -4   7  -3 6362.24 1732.93   2
  -4  -7  -3 8758.50 1319.97   0
  -4   7  -4 57378.3 3295.09   2
  -4  -7  -4 60026.3 2629.32   0
  -4   7  -5-3.31008 1777.28   2
  -4  -8   8 1108.35 1632.39   4
  -4   8   7 34422.7 2825.95   4
  -4  -8   7 35061.6 2544.42   4
   4   8  -7 37122.0 2938.66   1
  -4   8   6 9090.25 1765.68   4
  -4  -8   6 7635.10 1550.42   4
   4   8  -6 8063.23 1801.33   1
  -4   8   5 74682.3 3072.80   4
   4   8  -5 76983.3 3415.00   1
  -4  -8   5 77640.6 3177.94   4
  -4   8   4 20531.1 1736.01   4
   4   8  -4 18117.9 1998.69   1
   4   8  -3 10671.4 1715.84   1
  -4   8   3 10704.9 1189.37   4
  -4  -8   3 11266.3 1576.97   4
   4  -8  -3 8841.33 1556.71   0
  -4  -8   2 80070.6 3157.35   4
   4  -8  -2 74696.1 2925.10   0
  -4   8   2 74595.5 1985.66   4
   4  -8  -1 2605.90 1165.65   0
  -4   8   1 3976.78 949.986   2
  -4   8   0 45266.3 2155.15   2
  -4  -8   0 43883.2 2213.41   0
   4  -8   0 43735.8 2361.43   0
  -4   8  -1 29039.6 2081.54   2
  -4  -8  -1 30478.9 1915.82   0
  -4   8  -2 14330.8 1822.94   2
  -4  -8  -2 13966.9 1551.01   0
  -4   8  -3 48605.9 2898.58   2
  -4  -8  -3 43232.8 2287.90   0
  -4   8  -4 1344.80 1576.78   2
  -4   8  -5 25732.4 2612.69   2
  -4   9   7 1770.48 1813.54   4
  -4  -9   7 950.585 1439.76   4
   4   9  -6 18958.2 2286.67   1
  -4   9   6 17332.1 2095.81   4
  -4  -9   6 19592.1 2056.88   4
  -4   9   5 29093.2 2215.65   4
  -4  -9   5 29028.5 2268.74   4
   4   9  -5 29152.9 2473.25   1
  -4   9   4 18726.5 1710.17   4
   4   9  -4 21300.2 2151.41   1
   4  -9  -4 24811.2 2210.43   0
  -4  -9   4 22666.6 2078.50   4
   4   9  -3 47424.1 2815.91   1
  -4  -9   3 47493.0 2646.71   4
   4  -9  -3 46582.8 2706.63   0
   4   9  -2 2862.86 1480.81   1
   4  -9  -2 3733.87 1425.96   0
   4  -9  -1 95558.5 3452.22   0
  -4   9   0 13718.3 1477.04   2
  -4  -9   0 15819.2 1705.54   0
   4  -9   0 14851.6 1755.58   0
  -4   9  -1 23581.6 1984.19   2
  -4  -9  -1 24323.1 1932.23   0
  -4   9  -2 22120.5 2156.23   2
  -4  -9  -2 25365.6 2004.66   0
  -4   9  -3 5076.00 1702.22   2
  -4  -9  -3 4246.34 1448.74   0
  -4   9  -4 27269.5 2656.74   2
  -4  10   7 24821.9 2708.76   4
  -4  10   6 1098.18 1563.72   4
   4  10  -5 18403.2 2219.56   1
  -4 -10   5 19762.7 2078.00   4
   4  10  -4 19328.2 2277.75   1
  -4 -10   4 18822.0 2022.22   4
   4 -10  -4 16114.3 2164.43   0
   4 -10  -3 4716.83 1509.02   0
   4  10  -3 6806.82 1734.50   1
   4 -10  -2 24407.2 2201.22   0
   4  10  -2 23820.1 2282.96   1
   4  10  -1 1142.02 1554.21   1
   4 -10  -1 809.341 1270.06   0
   4 -10   0 29954.2 2372.53   0
  -4 -10  -1 11355.2 1735.49   0
  -4  10  -2 11678.3 1850.45   2
  -4 -10  -2 13027.6 1763.44   0
  -4  10  -3 29347.2 2636.20   2
  -4  10  -4-57.7557 1838.27   2
   4 -11  -4 14740.1 2242.43   0
   4 -11  -3 31707.1 2659.46   0
   4  11  -3 26876.9 2478.51   1
   4 -11  -2 967.914 1540.39   0
   4  11  -2 993.178 1643.50   1
   4  11  -1 29283.4 2466.64   1
   4 -11  -1 28595.3 2439.41   0
   4 -11   0 5654.91 1783.47   0
  -4 -11  -1 21720.3 2219.93   0
  -4 -11  -2 21290.2 2204.45   0
  -4  11  -3 2697.39 1635.50   2
  -4 -12  -1 7895.93 1876.85   0
  -5   0   9 2682.03 1803.04   4
   5   0  -9 1508.50 1817.82   1
  -5   0   8 41676.3 2882.03   4
   5   0  -8 42793.0 3117.06   1
  -5   0   7 51493.5 2895.01   4
   5   0  -7 53715.5 3063.45   1
   5   0  -7 53229.6 2140.65   3
  -5   0   6 19100.2 1886.15   4
   5   0  -6 20294.7 2059.56   1
   5   0  -6 22212.5 1596.84   3
  -5   0   5 141115. 3768.71   4
   5   0  -5 152528. 4017.39   1
   5   0  -5 146838. 3413.92   3
  -5   0   4 4616.32 1255.79   4
   5   0  -4 5569.86 1322.96   1
   5   0  -4 5731.00 1323.29   3
  -5   0   3 188127. 3767.63   4
   5   0  -3 179445. 3863.16   3
   5   0  -3 185759. 3609.29   1
  -5   0   2 28033.4 1661.78   4
  -5   0   2 30923.3 1432.14   1
   5   0  -2 29599.9 1886.53   3
   5   0  -2 27057.4 1472.98   1
  -5   0   1 459.806 932.705   4
   5   0  -1 1396.88 764.625   1
  -5   0   0 125363. 2922.97   4
   5   0   0 126062. 2054.43   1
   5   0   1 665.492 429.114   1
   5   0   2 145197. 1690.46   1
  -5   0  -2 145975. 4125.05   2
  -5   0  -3 11806.3 1864.77   2
  -5   0  -4 31130.1 2570.41   2
   5   0   4 30101.0 1901.94   3
  -5   0  -5 31424.9 2717.11   2
  -5   0  -6 1335.41 1798.17   2
  -5   1   9 63053.0 3713.10   4
  -5  -1   9 73013.8 3902.00   4
   5   1  -9 68384.9 3880.80   1
   5  -1  -8 12236.9 2338.18   1
  -5   1   8 11207.0 2167.49   4
  -5  -1   8 12299.4 2060.64   4
   5   1  -8 13109.0 2215.21   1
  -5  -1   7 29408.5 2352.87   4
  -5   1   7 27498.0 2322.76   4
   5  -1  -7 32287.8 2687.16   1
   5   1  -7 30297.9 2516.75   1
   5  -1  -7 32769.5 1740.09   3
  -5   1   6 80320.7 3196.07   4
  -5  -1   6 78840.9 3139.79   4
   5  -1  -6 79480.2 3385.58   1
   5   1  -6 82465.3 3267.93   1
   5  -1  -6 82281.6 2547.13   3
   5   1  -6 78052.1 2649.03   3
  -5   1   5 743.917 1248.31   4
  -5  -1   5 2011.05 1285.71   4
   5  -1  -5 1133.45 1456.21   1
   5   1  -5 1714.48 1305.92   1
   5  -1  -5 1339.11 1025.04   3
   5   1  -5 1640.72 1115.16   3
  -5   1   4 155110. 3607.42   4
  -5  -1   4 153865. 3659.46   4
   5  -1  -4 159943. 3799.24   1
   5  -1  -4 149598. 3487.59   3
   5   1  -4 159285. 3668.08   3
   5   1  -4 157705. 3696.60   1
  -5   1   3 65855.5 2291.83   4
  -5  -1   3 63707.2 2404.53   4
   5  -1  -3 61342.1 2272.07   1
   5   1  -3 64737.5 2507.41   3
   5   1  -3 62000.8 2291.68   1
  -5   1   2 77243.2 1977.02   1
  -5   1   2 81515.0 2399.66   4
  -5  -1   2 80057.5 2538.02   4
   5  -1  -2 80623.3 2216.02   1
   5   1  -2 74783.5 2611.98   3
   5   1  -2 72687.8 2215.09   1
   5   1  -1 188073. 3004.32   1
   5  -1  -1 179926. 1638.02   0
  -5   1   1 186631. 3297.95   4
  -5  -1   1 185630. 3669.96   4
  -5   1   1 187404. 2540.17   1
   5  -1  -1 188263. 2803.86   1
   5   1  -1 182638. 3998.40   3
   5   1   0 7068.99 835.787   1
  -5   1   0 6862.82 1038.85   4
  -5  -1   0 8137.79 1269.86   4
   5  -1   0 6045.24 583.900   1
   5   1   0 6916.70 1329.81   3
  -5   1  -1 100941. 3289.71   2
   5   1   1 101568. 1969.54   1
   5   1   1 99353.6 3086.04   3
  -5   1  -2 9913.63 1671.07   2
   5   1   2 9429.97 1399.07   3
  -5   1  -3 9893.64 1757.81   2
   5   1   3 9269.28 1413.24   3
  -5   1  -4 33287.8 2709.76   2
  -5  -1  -4 36366.3 2706.38   2
   5   1   4 36786.5 2031.59   3
  -5   1  -5 4466.18 1940.17   2
  -5  -1  -5 5608.54 1883.61   2
  -5   1  -6 46679.3 3368.72   2
  -5  -1  -6 43847.2 3325.60   2
  -5   2   9 919.435 2046.64   4
  -5  -2   9 1569.18 1693.21   4
   5   2  -9 1245.79 1867.25   1
  -5  -2   8 47079.1 3005.44   4
  -5   2   8 46717.0 3139.97   4
   5   2  -8 47121.4 3034.60   1
  -5   2   7 86029.4 3619.04   4
  -5  -2   7 80512.9 3437.14   4
   5   2  -7 84187.9 3559.60   1
   5  -2  -7 89655.3 2612.83   3
  -5   2   6 6953.01 1580.53   4
  -5  -2   6 10399.6 1685.32   4
   5  -2  -6 10837.6 1247.24   3
   5   2  -6 8872.39 1662.70   1
  -5   2   5 169902. 4109.63   4
   5  -2  -5 185301. 4608.76   1
   5  -2  -5 178740. 3729.16   3
  -5  -2   5 174222. 4177.13   4
   5   2  -5 171526. 3855.61   3
   5   2  -5 175220. 4232.30   1
  -5   2   4 3352.14 1172.77   4
  -5  -2   4 4521.93 1224.64   4
   5  -2  -4 4953.83 1456.82   1
   5   2  -4 4162.24 1312.60   1
   5   2  -4 4665.64 1228.60   3
  -5  -2   3 127810. 3334.80   4
  -5   2   3 121613. 2952.39   4
   5  -2  -3 128535. 3279.23   1
   5   2  -3 133951. 3511.00   3
   5   2  -3 128858. 3199.38   1
  -5   2   2 33130.2 1377.92   1
   5   2  -2 35445.7 1716.08   1
  -5   2   2 34084.3 1601.30   4
  -5  -2   2 29840.4 1792.99   4
   5  -2  -2 30646.0 1588.32   1
   5   2  -2 35081.8 2067.84   3
   5   2  -1 58324.1 1969.15   1
  -5   2   1 59647.0 1401.56   1
   5  -2  -1 55700.9 1271.50   0
  -5   2   1 55220.5 1843.81   4
  -5  -2   1 54109.2 2257.56   4
   5   2  -1 55762.9 2392.13   3
   5  -2   0 113135. 2460.32   4
   5   2   0 113084. 2480.15   1
  -5   2   0 109985. 2423.91   4
  -5  -2   0 113600. 3141.67   4
   5   2   0 113499. 3277.80   3
   5   2   1 3563.64 846.648   1
  -5   2  -1 4973.17 1390.74   2
   5  -2   1 4871.06 850.411   4
   5   2   1 5092.30 1303.90   3
  -5  -2  -2 69689.3 1044.79   0
   5   2   2 74733.5 2707.50   3
  -5   2  -3 11549.4 1880.22   2
   5   2   3 13347.7 1500.51   3
  -5   2  -4 8901.67 1861.20   2
   5   2   4 11134.2 1382.22   3
  -5   2  -5 21955.9 2565.91   2
  -5   2  -6 3882.26 1969.30   2
  -5   3   9 42427.1 3315.53   4
  -5  -3   9 36071.3 2909.72   4
   5   3  -9 38559.0 3082.11   1
  -5   3   8 17432.6 2263.42   4
  -5  -3   8 18957.3 2257.77   4
   5   3  -8 19659.2 2347.44   1
  -5   3   7 28853.2 2425.87   4
  -5  -3   7 30590.4 2358.03   4
   5  -3  -7 28073.1 1632.34   3
   5   3  -7 27783.1 2435.04   1
  -5   3   6 39462.2 2479.89   4
  -5  -3   6 37694.1 2344.97   4
   5  -3  -6 33172.4 1761.79   3
   5   3  -6 42188.7 2544.36   1
  -5   3   5 7411.23 1418.37   4
  -5  -3   5 6405.66 1478.06   4
   5   3  -5 6072.17 1508.22   1
  -5   3   4 123504. 3216.04   4
   5  -3  -4 127069. 2498.05   2
  -5  -3   4 127480. 3553.37   4
   5   3  -4 116665. 3329.45   3
   5   3  -4 122104. 3463.52   1
   5   3  -3 53662.4 2266.11   1
   5  -3  -3 56018.9 1863.26   2
  -5   3   3 55999.3 2075.72   4
  -5  -3   3 57935.8 2441.04   4
   5   3  -3 53831.2 2454.95   3
   5   3  -2 51476.7 2119.94   1
  -5   3   2 50095.0 1824.56   4
  -5  -3   2 52491.8 2301.82   4
   5   3  -2 51347.6 1446.19   0
   5   3  -2 51050.4 2421.94   3
  -5   3   2 50397.8 1716.12   1
  -5   3   1 169387. 2285.65   1
   5  -3  -1 176745. 2606.41   0
   5  -3  -1 167799. 2961.57   4
   5   3  -1 165523. 3336.07   1
  -5   3   1 168579. 2883.62   4
  -5  -3   1 165706. 3840.58   4
   5   3  -1 166412. 3954.47   3
   5   3   0 982.292 921.681   1
  -5   3   0 317.672 1164.25   2
   5  -3   0 708.767 691.154   4
  -5   3   0 972.377 689.874   4
   5   3   0 1186.38 1171.14   3
   5  -3   1 106281. 2169.57   4
   5   3   1 106912. 3240.55   3
  -5   3  -1 106449. 3368.74   2
  -5  -3  -2 5707.38 535.666   0
  -5   3  -2 8762.06 1699.10   2
   5   3   2 6708.48 1397.42   3
  -5   3  -3 47451.2 2796.44   2
   5   3   3 48882.9 2282.80   3
  -5   3  -4 31437.6 2569.59   2
   5   3   4 35913.6 1989.43   3
  -5   3  -5 13311.8 2186.82   2
  -5  -4   9 2814.78 1746.40   4
  -5   4   8 32211.1 2815.07   4
   5   4  -8 34467.4 2744.98   1
  -5  -4   8 36340.3 2676.70   4
  -5   4   7 51713.0 3027.31   4
  -5  -4   7 45979.5 2811.63   4
   5   4  -7 48122.3 2931.51   1
  -5   4   6 4633.31 1567.52   4
  -5  -4   6 6996.70 1498.84   4
   5   4  -6 6022.36 1575.81   1
  -5   4   5 192920. 4383.51   4
  -5  -4   5 193770. 4603.93   4
   5   4  -5 193083. 4665.45   1
   5   4  -4 16922.9 1705.10   1
  -5   4   4 18631.1 1550.13   4
  -5  -4   4 13886.1 1705.40   4
   5  -4  -3 58753.9 1827.58   2
   5   4  -3 53998.9 2394.32   1
  -5   4   3 56744.5 2096.91   4
  -5  -4   3 55469.5 2430.93   4
   5   4  -2 75613.5 2650.80   1
  -5   4   2 77475.1 2112.51   4
  -5  -4   2 71251.5 2747.87   4
   5   4  -2 73751.6 2886.60   3
   5   4  -2 75914.9 1922.54   0
   5  -4  -1 23175.6 1260.67   0
   5  -4  -1 24440.5 1265.32   4
  -5   4   1 22217.5 1165.15   4
   5   4  -1 21766.1 1625.07   1
  -5  -4   1 23153.3 1842.69   4
   5   4  -1 19733.1 1819.37   3
  -5   4   1 23728.5 1077.80   1
   5  -4   0 76338.3 1788.25   4
  -5   4   0 69342.7 961.967   1
  -5   4   0 76391.2 2735.15   2
  -5   4   0 74821.3 1700.28   4
   5   4   0 76997.3 2476.96   1
   5   4   0 76330.2 2851.09   3
  -5  -4  -1 2901.10 580.330   0
  -5   4  -1 3171.46 1314.49   2
   5   4   1 2057.39 1189.21   3
  -5   4  -2 58083.8 2880.38   2
   5   4   2 58937.8 2538.94   3
  -5  -4  -2 61020.5 1588.20   0
  -5   4  -3 25658.4 2354.36   2
   5   4   3 29474.4 1894.56   3
  -5   4  -4 8028.30 1879.93   2
  -5   4  -5 17024.3 2474.21   2
  -5  -5   9 37181.0 2988.02   4
  -5   5   8 26676.3 2638.69   4
  -5  -5   8 24239.6 2507.36   4
   5   5  -8 23178.4 2476.83   1
  -5   5   7 12547.1 2037.91   4
  -5  -5   7 12194.0 1931.92   4
   5   5  -7 13610.3 2003.06   1
  -5   5   6 77047.3 3260.50   4
  -5  -5   6 72553.6 3148.22   4
   5   5  -6 72607.6 3306.71   1
  -5   5   5 8337.13 1469.97   4
  -5  -5   5 10249.2 1678.20   4
   5   5  -5 8097.27 1588.50   1
   5   5  -4 80908.2 3063.91   1
  -5   5   4 80582.6 2690.85   4
  -5  -5   4 79952.0 3054.69   4
   5   5  -3 33958.4 2091.36   1
  -5   5   3 31384.7 1651.82   4
  -5  -5   3 37679.0 2251.85   4
  -5   5   2 100780. 2344.99   4
   5   5  -2 96966.7 3081.15   1
  -5  -5   2 97681.2 3263.62   4
   5  -5  -2 101747. 2705.35   0
  -5   5   1 80258.2 2508.25   2
  -5   5   1 81527.2 1871.49   4
   5   5  -1 73848.6 2723.57   1
  -5  -5   1 75307.9 2976.80   4
  -5   5   1 77417.4 1925.19   1
   5  -5  -1 80840.5 2334.19   0
   5   5   0 2360.41 1131.22   1
   5  -5   0 2830.26 905.143   0
  -5   5   0 2515.06 1207.69   2
  -5   5   0 2516.26 482.483   4
  -5   5  -1 70663.4 2905.45   2
  -5  -5  -1 75400.6 1961.76   0
  -5   5  -2 9327.94 1676.47   2
  -5   5  -3 18804.6 2113.43   2
  -5   5  -4 13928.7 2281.79   2
  -5   5  -5 6701.32 2206.96   2
  -5   6   8 22053.2 2643.95   4
  -5  -6   8 22461.3 2388.25   4
   5   6  -8 21641.1 2435.10   1
  -5   6   7 25216.1 2406.17   4
  -5  -6   7 22090.6 2267.03   4
   5   6  -7 26721.1 2441.40   1
  -5   6   6 4606.94 1601.42   4
  -5  -6   6 6880.69 1624.47   4
   5   6  -6 6880.10 1692.82   1
   5   6  -5 58243.2 2946.40   1
  -5  -6   5 63447.3 2957.05   4
  -5   6   4 10162.2 1312.56   4
  -5  -6   4 8033.57 1510.90   4
   5   6  -4 9082.47 1591.61   1
  -5   6   3 38092.8 1742.56   4
   5   6  -3 37860.9 2286.60   1
  -5  -6   3 40014.2 2387.33   4
   5   6  -2 51922.8 2521.11   1
  -5  -6   2 53079.0 2649.66   4
   5  -6  -2 55384.7 2287.27   0
  -5   6   2 57410.5 1781.13   4
   5   6  -1 6561.15 1469.66   1
  -5   6   1 7986.11 725.058   4
  -5   6   1 7717.77 1194.59   2
  -5  -6   1 7891.33 1581.71   4
   5  -6  -1 8510.37 1167.91   0
  -5   6   0 105759. 3181.78   2
   5  -6   0 107399. 2915.40   0
  -5   6  -1 589.560 1233.62   2
  -5  -6  -1 305.439 724.681   0
  -5   6  -2 67565.8 3151.72   2
  -5   6  -3 27407.9 2456.92   2
  -5   6  -4 22911.8 2464.56   2
  -5   7   8 14837.0 2474.32   4
  -5  -7   8 13224.1 2197.98   4
  -5   7   7 17499.3 2213.74   4
  -5  -7   7 17551.2 2149.66   4
   5   7  -7 16266.8 2320.75   1
  -5   7   6 58918.5 3004.98   4
  -5  -7   6 58778.5 3029.57   4
   5   7  -6 56644.5 3201.61   1
  -5   7   5 127.522 1224.37   4
  -5  -7   5-202.307 1372.32   4
   5   7  -5-33.7464 1330.16   1
  -5   7   4 95306.2 2957.82   4
   5   7  -4 92414.5 3520.75   1
  -5  -7   4 89187.6 3444.52   4
  -5   7   3 22063.1 1425.47   4
   5  -7  -3 24238.2 1876.02   0
   5   7  -3 21986.5 2002.54   1
  -5  -7   3 23365.7 2086.45   4
   5   7  -2 36508.9 2382.08   1
   5  -7  -2 40252.6 2142.49   0
  -5  -7   2 36634.5 2352.23   4
  -5   7   1 42339.1 1915.24   2
   5   7  -1 43531.0 2427.03   1
   5  -7  -1 42277.9 2135.96   0
  -5   7   0 3655.56 1228.25   2
   5  -7   0 5084.42 1202.51   0
  -5   7  -1 39819.6 2382.47   2
  -5  -7  -1 41364.0 1973.82   0
  -5   7  -2 4046.30 1471.28   2
  -5   7  -3 14672.0 2075.94   2
  -5   7  -4 10113.7 2140.15   2
  -5  -8   8 11800.9 2139.60   4
  -5   8   7 34871.2 2753.68   4
  -5  -8   7 36523.6 2682.42   4
  -5   8   6 2972.00 1549.64   4
  -5  -8   6 2956.67 1511.87   4
   5   8  -6 3707.36 1754.75   1
   5   8  -5 39365.3 2713.47   1
  -5   8   5 41497.9 2438.27   4
  -5  -8   5 35287.5 2543.71   4
   5   8  -4 6212.93 1673.44   1
  -5   8   4 4181.20 1159.55   4
  -5  -8   4 5825.52 1618.41   4
   5   8  -3 48742.0 2782.61   1
  -5  -8   3 51063.2 2859.43   4
   5  -8  -3 45066.0 2539.30   0
   5  -8  -2 26232.2 1987.35   0
  -5  -8   2 26342.6 2245.14   4
   5   8  -1 9412.22 1759.56   1
   5  -8  -1 6979.11 1392.56   0
  -5   8   0 63991.2 2648.97   2
   5  -8   0 69866.4 2870.06   0
  -5   8  -1 8688.53 1510.57   2
  -5   8  -2 37219.8 2639.68   2
  -5   8  -3 12716.0 2083.62   2
  -5   8  -4 14102.8 2296.72   2
  -5   9   7 14856.5 2215.48   4
  -5  -9   7 10897.1 2006.13   4
  -5  -9   6 14881.4 2051.43   4
  -5   9   6 14141.4 1954.17   4
  -5  -9   5 310.955 1475.89   4
   5   9  -5 1249.33 1603.59   1
   5  -9  -4 42394.1 2697.63   0
   5   9  -4 37241.1 2717.05   1
  -5  -9   4 41800.2 2766.36   4
   5   9  -3 6096.14 1750.23   1
   5  -9  -3 5555.42 1544.46   0
  -5  -9   3 4369.20 1610.02   4
   5  -9  -2 18202.2 1905.67   0
   5   9  -2 17659.4 2094.42   1
   5   9  -1 40586.7 2701.99   1
   5  -9  -1 40499.9 2426.53   0
   5  -9   0 9815.25 1586.81   0
  -5   9  -1 59033.1 2905.50   2
  -5   9  -2 1867.68 1439.44   2
  -5   9  -3 16162.3 2212.58   2
  -5 -10   6 2985.92 1637.14   4
   5 -10  -5 32613.2 2714.93   0
  -5 -10   5 33317.2 2697.29   4
   5  10  -4 8733.50 1840.64   1
   5 -10  -4 8233.72 1841.92   0
  -5 -10   4 9681.93 1936.36   4
   5  10  -3 27225.1 2487.22   1
   5 -10  -3 27690.1 2365.33   0
   5  10  -2 20405.3 2308.49   1
   5 -10  -2 18990.2 2112.38   0
   5  10  -1 7027.53 1874.98   1
   5 -10  -1 7589.66 1703.63   0
  -5  10  -2 21009.2 2193.89   2
  -5  10  -3 6950.03 1935.89   2
  -5 -11   5 3325.86 1739.02   4
   5 -11  -3 2773.90 1604.42   0
   5 -11  -2 21452.6 2302.02   0
   5 -11  -1 16459.2 2104.26   0
  -6   0   9 738.945 1845.40   4
   6   0  -9 1162.73 1977.03   1
  -6   0   8 66231.3 3542.69   4
   6   0  -8 72769.4 3884.27   1
  -6   0   7 6861.24 1766.90   4
   6   0  -7 6991.29 1883.88   1
   6   0  -7 5090.49 1314.67   3
  -6   0   6 64465.3 3024.83   4
   6   0  -6 58543.5 3025.32   1
   6   0  -6 61825.7 2612.60   3
  -6   0   5 82971.5 3084.47   4
   6   0  -5 85221.5 3231.91   1
   6   0  -5 81283.1 2939.40   3
  -6   0   4 37654.7 2169.53   4
   6   0  -4 39435.6 2235.27   3
   6   0  -4 39138.2 2187.94   1
  -6   0   3 136590. 3528.08   4
   6   0  -3 130435. 3725.65   3
   6   0  -3 134511. 3286.33   1
  -6   0   2 2288.01 1114.69   4
   6   0  -2 949.238 968.364   1
   6   0  -2 24.7802 1496.95   3
  -6   0   1 64242.7 2459.67   4
   6   0  -1 61842.2 2819.82   3
   6   0  -1 62382.4 1865.43   1
  -6   0   0 19206.8 1620.58   4
   6   0   0 16046.7 1888.48   3
   6   0   0 17293.3 971.278   1
   6   0   1 1514.84 1357.30   3
   6   0   2 50040.2 2559.89   3
   6   0   3 287.716 1272.68   3
  -6   0  -4 37059.3 2988.61   2
   6   0   4 38507.6 2326.92   3
  -6   0  -5 5044.55 2191.96   2
  -6   1   9 45817.5 3356.43   4
   6   1  -9 49817.7 3593.17   1
  -6   1   8 2195.41 1758.93   4
  -6  -1   8 3268.27 1728.20   4
   6  -1  -8 3023.81 2123.07   1
   6   1  -8 2256.65 1774.55   1
  -6   1   7 99143.8 3850.27   4
  -6  -1   7 100620. 3917.93   4
   6  -1  -7 105555. 4342.65   1
   6   1  -7 100458. 3996.74   1
   6  -1  -7 107111. 3224.60   3
   6   1  -7 100136. 3219.51   3
  -6   1   6 23164.5 2071.28   4
  -6  -1   6 23200.3 2064.06   4
   6  -1  -6 26602.6 2327.62   1
   6   1  -6 21476.8 2083.56   1
   6  -1  -6 20912.1 1755.70   3
   6   1  -6 19652.4 1744.44   3
  -6   1   5 51155.7 2527.72   4
  -6  -1   5 50814.9 2589.23   4
   6  -1  -5 50604.5 2684.50   1
   6  -1  -5 54658.7 2510.24   3
   6   1  -5 52815.6 2657.10   1
   6   1  -5 55009.0 2607.76   3
  -6   1   4 70411.2 2675.25   4
  -6  -1   4 67270.4 2758.72   4
   6  -1  -4 71363.7 2786.35   1
   6  -1  -4 62434.0 2712.93   3
   6   1  -4 68832.3 2806.06   3
   6   1  -4 73435.7 2777.69   1
  -6   1   3 5506.06 1236.56   4
  -6  -1   3 5069.08 1322.36   4
   6  -1  -3 6371.18 1265.59   1
   6   1  -3 6417.42 1209.63   1
   6   1  -3 6624.88 1522.94   3
   6   1  -2 154570. 1733.47   0
  -6   1   2 163624. 3589.78   4
  -6  -1   2 157042. 3695.73   4
   6  -1  -2 157698. 3174.94   1
   6   1  -2 157791. 4115.87   3
   6   1  -2 157251. 3316.37   1
  -6   1   1 23377.7 1579.74   4
  -6  -1   1 18949.5 1688.57   4
   6  -1  -1 21039.4 1184.77   1
   6   1  -1 20056.3 1975.40   3
   6   1  -1 22245.1 1354.65   1
   6   1   0 56400.9 1716.98   1
  -6   1   0 53418.5 2128.07   4
  -6  -1   0 55192.9 2402.95   4
   6  -1   0 59329.0 1305.29   1
   6   1   0 54727.6 2662.16   3
   6   1   1 61332.9 1621.53   1
   6   1   1 57362.8 2739.79   3
   6   1   2 15274.6 1756.88   3
  -6   1  -3 60213.8 3309.88   2
   6   1   3 55585.5 2641.81   3
  -6   1  -4-146.373 1726.74   2
   6   1   4-146.239 1190.05   3
  -6   1  -5 6649.80 2156.94   2
  -6   2   8 51495.2 3283.38   4
  -6  -2   8 56093.5 3233.92   4
   6   2  -8 49169.3 3312.54   1
  -6   2   7 6469.21 1715.51   4
  -6  -2   7 5912.80 1698.82   4
   6   2  -7 5400.95 1666.77   1
   6  -2  -7 6311.88 1308.39   3
  -6   2   6 68497.6 3038.25   4
  -6  -2   6 63630.9 3036.73   4
   6  -2  -6 74251.2 3483.08   1
   6  -2  -6 66761.5 2648.49   3
   6   2  -6 63653.8 3061.67   1
   6   2  -6 66201.6 2787.62   3
  -6   2   5 47115.4 2472.15   4
  -6  -2   5 51100.5 2666.54   4
   6  -2  -5 46030.3 2659.05   1
   6  -2  -5 50482.8 2404.18   3
   6   2  -5 53405.8 2554.76   3
   6   2  -5 50398.6 2603.81   1
  -6   2   4 11846.9 1494.12   4
  -6  -2   4 13532.5 1710.41   4
   6  -2  -4 14165.3 1724.11   1
   6   2  -4 8551.17 1523.16   1
   6   2  -4 10571.0 1630.00   3
  -6   2   3 153166. 3558.77   4
  -6  -2   3 143324. 3757.75   4
   6  -2  -3 147435. 3584.37   1
   6   2  -3 146171. 3986.78   3
   6   2  -3 151047. 3640.50   1
  -6   2   2 12949.7 1031.18   1
  -6   2   2 12515.9 1325.55   4
  -6  -2   2 14657.6 1646.45   4
   6  -2  -2 15723.3 1353.13   1
   6   2  -2 12674.3 1790.83   3
   6   2  -2 13457.6 678.665   0
   6   2  -2 14582.3 1404.73   1
   6   2  -1 86018.4 2461.45   1
   6  -2  -1 88109.3 1348.43   0
  -6   2   1 85564.6 2526.82   4
  -6  -2   1 89570.1 3049.47   4
  -6   2   1 82921.9 1666.22   1
   6   2  -1 80740.0 3129.32   3
   6   2   0 52711.6 1884.06   1
  -6   2   0 53547.0 1997.59   4
   6   2   0 49543.8 2502.89   3
   6   2   1 11859.1 1072.51   1
   6   2   1 13577.3 1619.01   3
  -6   2  -2 62614.2 3145.14   2
   6   2   2 62150.4 2766.66   3
  -6   2  -3 1435.33 1707.26   2
   6   2   3 901.405 1252.54   3
  -6   2  -4 28792.9 2709.61   2
  -6   3   8 1320.02 1744.11   4
  -6  -3   8-1012.52 1645.93   4
   6   3  -8 1077.33 1915.01   1
  -6   3   7 95596.3 3875.29   4
  -6  -3   7 92110.3 3775.57   4
   6  -3  -7 91092.0 2963.99   3
   6   3  -7 95928.6 3972.43   1
  -6   3   6 22729.6 2077.50   4
  -6  -3   6 26215.4 2257.77   4
   6  -3  -6 24977.1 1860.05   3
   6   3  -6 22942.6 2206.46   1
  -6   3   5 35158.4 2196.65   4
  -6  -3   5 36030.1 2382.24   4
   6   3  -5 33788.1 2194.40   3
   6   3  -5 36132.0 2388.82   1
  -6   3   4 101344. 3096.38   4
  -6  -3   4 104551. 3488.64   4
   6   3  -4 107076. 3522.71   3
   6   3  -4 108570. 3446.85   1
  -6   3   3 9893.16 1241.05   4
   6   3  -3 8303.82 869.956   0
  -6  -3   3 8839.17 1527.33   4
   6   3  -3 7511.43 1557.05   3
   6   3  -3 8240.84 1425.13   1
  -6   3   2 56816.2 1763.90   1
   6   3  -2 55802.7 2296.94   1
  -6   3   2 58752.8 2130.55   4
  -6  -3   2 55236.8 2602.65   4
   6   3  -2 56946.5 2784.43   3
   6  -3  -2 58167.0 1725.13   0
   6   3  -1 9583.22 1283.14   1
  -6   3   1 9983.35 1097.60   4
   6  -3  -1 10498.4 780.385   0
  -6  -3   1 8667.20 1523.27   4
   6   3  -1 10680.3 1691.71   3
   6   3   0 49151.5 2023.26   1
  -6   3   0 48441.7 1780.85   4
   6   3   0 45745.3 2476.03   3
  -6   3  -1 26133.7 2164.28   2
   6   3   1 26519.3 1556.25   1
   6   3   1 23695.5 1959.46   3
   6   3   2 2183.86 931.276   1
  -6   3  -2 1518.43 1517.54   2
   6   3   2 1788.03 1339.13   3
  -6   3  -3 55282.4 3246.08   2
   6   3   3 52970.1 2647.33   3
  -6   3  -4-122.671 1732.58   2
  -6   4   8 43267.5 3072.43   4
  -6  -4   8 40612.7 3000.08   4
   6   4  -8 44806.9 3170.81   1
  -6   4   7 844.079 1524.48   4
  -6  -4   7 2875.37 1673.05   4
   6   4  -7 1622.26 1639.12   1
   6  -4  -7 1262.13 1041.80   3
  -6   4   6 52867.8 2769.19   4
  -6  -4   6 53548.7 2922.70   4
   6   4  -6 55115.9 3014.08   1
  -6   4   5 26502.1 1970.86   4
  -6  -4   5 22168.2 2134.60   4
   6   4  -5 28691.4 2200.66   1
  -6   4   4 31804.7 1919.19   4
  -6  -4   4 28166.9 2139.69   4
   6   4  -4 33571.8 2178.74   1
   6   4  -3 154032. 3936.10   1
  -6  -4   3 146612. 4060.79   4
   6   4  -3 158811. 4316.68   3
   6   4  -2 20335.1 1720.59   1
  -6   4   2 21764.4 1422.43   4
  -6  -4   2 19684.7 1954.05   4
   6  -4  -2 20343.4 1314.53   0
   6   4  -2 18877.9 1867.36   3
   6   4  -1 73976.2 2640.31   1
  -6   4   1 83049.3 2201.42   4
  -6  -4   1 78814.3 3115.82   4
   6  -4  -1 87515.6 2115.90   0
   6   4  -1 77091.3 3203.06   3
  -6   4   0 49726.1 2510.61   2
   6   4   0 49697.4 2202.50   1
   6   4   0 49850.7 2602.36   3
  -6   4  -1 21589.3 2066.10   2
   6   4   1 18748.0 1517.00   1
   6   4   1 15963.9 1801.20   3
  -6   4  -2 40077.7 2677.35   2
   6   4   2 33911.8 2300.98   3
  -6   4  -3 999.528 1585.62   2
   6   4   3 1897.11 1330.05   3
  -6   4  -4 30846.7 2719.65   2
  -6   5   8 1911.32 1750.37   4
  -6  -5   8 211.558 1595.61   4
   6   5  -8 154.757 1788.62   1
  -6   5   7 69854.2 3442.89   4
  -6  -5   7 71421.5 3535.77   4
   6   5  -7 70484.4 3583.81   1
  -6   5   6 32381.0 2339.87   4
  -6  -5   6 34958.1 2608.89   4
   6   5  -6 29758.6 2510.66   1
  -6   5   5 17764.3 1745.65   4
  -6  -5   5 20361.9 2012.43   4
   6   5  -5 18203.5 1979.68   1
   6   5  -4 85182.8 3277.14   1
  -6   5   4 89624.7 2910.27   4
  -6  -5   4 92271.9 3461.64   4
   6   5  -3 18739.0 1804.47   1
  -6   5   3 21214.5 1469.54   4
  -6  -5   3 21500.0 2007.76   4
   6   5  -2 57411.8 2568.34   1
  -6   5   2 60455.5 2018.04   4
  -6  -5   2 53217.6 2764.47   4
   6  -5  -2 58357.2 2143.03   0
   6   5  -1 3706.31 1272.43   1
  -6   5   1 4396.48 777.201   4
  -6  -5   1 4943.18 1532.72   4
   6  -5  -1 3984.99 924.408   0
  -6   5   0 41177.5 2342.10   2
   6   5   0 38933.6 2144.22   1
   6   5   0 38645.9 2460.33   3
  -6   5  -1 69865.7 3172.51   2
   6   5   1 66493.1 2611.58   1
  -6   5  -2 11972.4 1939.23   2
  -6   5  -3 33032.8 2709.90   2
  -6   5  -4 2799.93 1785.76   2
  -6   6   8 52752.3 3384.21   4
  -6  -6   8 53152.6 3381.90   4
  -6   6   7 3701.84 1703.07   4
  -6  -6   7 3882.67 1678.89   4
   6   6  -7 4630.91 1876.70   1
  -6   6   6 34182.0 2390.90   4
  -6  -6   6 33293.1 2545.56   4
   6   6  -6 40493.0 2843.31   1
   6   6  -5 30522.9 2376.39   1
  -6   6   5 32167.6 2108.31   4
  -6  -6   5 27756.2 2261.98   4
   6   6  -4 37586.6 2523.20   1
  -6   6   4 33296.0 1939.06   4
  -6  -6   4 36252.9 2535.11   4
   6  -6  -3 54628.4 2366.17   0
   6   6  -3 53671.1 2737.74   1
  -6   6   3 58215.9 2155.18   4
  -6  -6   3 54662.0 2929.61   4
   6   6  -2 12060.9 1696.36   1
   6  -6  -2 13724.4 1421.75   0
  -6  -6   2 11061.9 1881.79   4
   6   6  -1 64342.5 2852.52   1
   6  -6  -1 64819.5 2344.82   0
  -6   6   0 15288.2 1722.16   2
   6   6   0 13413.9 1634.77   1
  -6   6  -1 12372.7 1730.52   2
  -6   6  -2 23810.5 2285.99   2
  -6   6  -3-300.695 1776.17   2
  -6   7   7 34302.0 2664.72   4
  -6  -7   7 27881.5 2619.90   4
  -6   7   6 11789.6 1737.99   4
  -6  -7   6 12321.0 1931.24   4
   6   7  -6 14480.0 2184.18   1
   6   7  -5 19899.1 2235.65   1
  -6   7   5 23002.1 1909.48   4
  -6  -7   5 22833.0 2312.19   4
   6   7  -4 58636.7 3022.95   1
  -6   7   4 57859.5 2393.67   4
  -6  -7   4 58659.4 3081.75   4
   6   7  -3 1082.21 1387.60   1
  -6  -7   3 324.398 1548.14   4
   6  -7  -3 1685.73 1150.24   0
   6  -7  -2 90379.0 3028.35   0
   6   7  -2 82167.8 3374.16   1
  -6  -7   2 83873.4 3611.65   4
   6   7  -1 8991.80 1693.55   1
   6  -7  -1 10224.0 1361.50   0
  -6   7   0 26190.4 2053.21   2
   6   7   0 26112.2 2169.68   1
  -6   7  -1 37930.4 2511.15   2
  -6   7  -2 9032.69 1843.48   2
  -6   7  -3 33309.2 2772.24   2
  -6   8   7 10341.4 1975.20   4
  -6   8   6 32348.5 2453.39   4
  -6  -8   6 35236.6 2780.50   4
   6   8  -5 18180.5 2310.56   1
  -6  -8   5 20531.5 2317.12   4
   6   8  -4 8161.49 1822.31   1
  -6  -8   4 6561.63 1809.52   4
   6  -8  -4 7935.82 1583.54   0
   6   8  -3 30464.9 2481.19   1
  -6  -8   3 31017.4 2480.09   4
   6  -8  -3 32911.0 2265.14   0
   6   8  -2 1025.67 1501.14   1
   6  -8  -2 1192.85 1125.62   0
   6   8  -1 45052.5 2733.34   1
   6  -8  -1 49652.9 2525.01   0
   6   8   0 13456.4 1906.40   1
  -6   8   0 11335.8 1586.57   2
  -6   8  -1 8012.11 1588.19   2
  -6   8  -2 28750.5 2495.83   2
  -6   8  -3 1884.72 1656.83   2
  -6  -9   6 13742.7 2169.48   4
  -6  -9   5 11295.8 2122.51   4
   6  -9  -5 10765.1 2025.95   0
   6   9  -4 26005.1 2529.05   1
  -6  -9   4 23980.0 2399.39   4
   6  -9  -4 25811.4 2315.52   0
   6   9  -3-79.4983 1664.26   1
  -6  -9   3 808.673 1547.65   4
   6  -9  -3 1372.53 1323.80   0
   6   9  -2 38057.3 2802.34   1
   6  -9  -2 38621.7 2487.58   0
   6   9  -1 5677.07 1838.82   1
   6  -9  -1 4253.30 1470.43   0
   6   9   0 24572.4 2399.32   1
  -6   9  -2 1866.21 1524.93   2
   6 -10  -4 8522.98 1861.97   0
  -6 -10   4 7047.72 2009.34   4
   6 -10  -3 40721.1 2762.50   0
   6 -10  -2 129.701 1429.67   0
   6 -10  -1 22522.0 2261.48   0
   6  10  -1 19481.2 2506.55   1
   6 -11  -2 19206.7 2273.63   0
  -7   0   8 26611.5 2635.82   4
   7   0  -8 27632.3 2891.07   1
   7   0  -8 25515.6 2060.67   3
  -7   0   7 3718.73 1686.71   4
   7   0  -7 3335.70 1854.53   1
   7   0  -7 3301.60 1395.62   3
  -7   0   6 77255.8 3390.23   4
   7   0  -6 80681.1 3588.67   1
   7   0  -6 79118.0 3226.25   3
  -7   0   5 19868.5 1947.14   4
   7   0  -5 20680.8 2057.77   1
   7   0  -5 21786.7 2048.22   3
  -7   0   4 141641. 4019.07   4
   7   0  -4 149348. 3956.52   1
   7   0  -4 145614. 4188.16   3
  -7   0   3 34087.8 2146.96   4
   7   0  -3 35345.1 2371.59   3
   7   0  -3 36906.1 2037.61   1
  -7   0   2 12563.8 1565.23   4
   7   0  -2 10966.8 1276.43   1
   7   0  -2 12740.5 1937.33   3
   7   0  -1 44378.1 2657.16   3
   7   0  -1 44658.1 1733.78   1
   7   0   0-516.557 1476.39   3
   7   0   1 25692.4 2190.53   3
   7   0   2 11867.6 1795.42   3
   7   0   3 14057.5 1854.78   3
  -7   1   8 25629.4 2700.74   4
  -7  -1   8 25526.7 2606.75   4
   7  -1  -8 25362.5 2796.80   1
   7   1  -8 27690.5 2848.79   1
  -7   1   7 55222.5 3095.14   4
  -7  -1   7 60443.8 3267.38   4
   7  -1  -7 63999.9 3631.73   1
   7   1  -7 56685.1 3306.75   1
   7  -1  -7 58223.4 2758.59   3
   7   1  -7 53842.8 2716.74   3
  -7   1   6 4548.43 1572.15   4
  -7  -1   6 4844.20 1721.92   4
   7  -1  -6 3054.15 1729.11   1
   7   1  -6 6379.08 1806.15   1
   7  -1  -6 5358.59 1450.53   3
   7   1  -6 5800.49 1537.13   3
  -7   1   5 65759.2 2985.19   4
  -7  -1   5 60652.0 2935.36   4
   7  -1  -5 66973.0 3071.04   1
   7  -1  -5 64943.6 2918.09   3
   7   1  -5 64523.3 3015.28   1
   7   1  -5 65966.9 3072.09   3
  -7   1   4 13366.2 1663.96   4
  -7  -1   4 12416.6 1697.19   4
   7  -1  -4 12023.2 1674.49   1
   7   1  -4 10054.1 1587.35   1
   7  -1  -4 10241.0 1709.44   3
   7   1  -4 8691.24 1738.94   3
  -7   1   3 23178.4 1837.55   4
  -7  -1   3 22059.7 1935.55   4
   7  -1  -3 20738.6 1677.52   1
   7  -1  -3 21442.8 1993.22   3
   7   1  -3 21026.3 2071.06   3
   7   1  -3 24426.7 1779.73   1
  -7   1   2 91668.4 2988.78   4
  -7  -1   2 84833.5 3128.72   4
   7  -1  -2 82091.9 2495.84   1
   7   1  -2 89516.6 3504.88   3
   7   1  -2 87649.7 2661.57   1
  -7   1   1 5920.40 1264.20   4
  -7  -1   1 4600.63 1314.47   4
   7   1  -1 4821.04 1581.20   3
   7   1  -1 4839.40 1012.30   1
   7   1   0 116979. 3947.33   3
   7   1   1 1251.81 1398.01   3
   7   1   2 18281.7 1978.67   3
   7  -1   3 9134.12 1728.49   3
   7   1   3 8050.73 1682.77   3
  -7   2   8 27298.7 2674.91   4
  -7  -2   8 23401.9 2644.57   4
   7   2  -8 26482.6 2824.28   1
  -7   2   7 10634.9 2004.99   4
  -7  -2   7 8163.78 1845.65   4
   7   2  -7 7699.12 1978.39   1
   7  -2  -7 7104.48 1524.07   3
   7   2  -7 9051.95 1674.12   3
  -7   2   6 112049. 3915.58   4
  -7  -2   6 111001. 4054.61   4
   7  -2  -6 109582. 4158.36   1
   7  -2  -6 106708. 3601.50   3
   7   2  -6 107620. 4034.80   1
   7   2  -6 113069. 3873.10   3
   7  -2  -5 11062.3 1907.12   1
  -7   2   5 10932.9 1663.35   4
  -7  -2   5 9423.81 1779.44   4
   7   2  -5 10249.1 1751.01   1
   7  -2  -5 9134.37 1660.50   3
   7   2  -5 9392.47 1644.31   3
  -7   2   4 90055.9 3149.67   4
  -7  -2   4 82859.3 3305.01   4
   7  -2  -4 82477.2 3153.96   1
   7   2  -4 79750.0 3409.84   3
   7   2  -4 89483.6 3237.98   1
  -7   2   3 23370.4 1810.58   4
  -7  -2   3 18548.8 1860.91   4
   7  -2  -3 23334.2 1782.91   1
   7   2  -3 21390.8 2168.97   3
   7   2  -3 21509.0 1786.53   1
  -7   2   2 32295.9 1887.56   4
  -7  -2   2 31899.9 2227.85   4
   7   2  -2 30434.4 2401.32   3
   7   2  -2 31663.1 1875.23   1
  -7   2   1 35668.7 1923.86   4
   7   2  -1 30970.3 2457.38   3
   7   2  -1 33802.8 1766.31   1
   7   2   0 1336.53 1305.66   3
   7   2   1 47397.7 2736.48   3
   7   2   2 14966.0 1970.51   3
   7   2   3 6788.78 1714.01   3
  -7   3   8 10594.4 2050.70   4
  -7  -3   8 10593.2 2076.16   4
   7   3  -8 11975.1 2241.37   1
  -7   3   7 42581.5 2876.02   4
  -7  -3   7 43154.3 2979.98   4
   7  -3  -7 36528.6 2300.03   3
   7   3  -7 43192.0 3052.89   1
  -7   3   6 1255.87 1367.98   4
  -7  -3   6 27.3059 1516.70   4
   7   3  -6 470.267 1495.21   1
   7  -3  -6 915.144 1301.28   3
   7   3  -6 623.260 1398.17   3
  -7   3   5 76767.8 3111.41   4
  -7  -3   5 72511.8 3317.01   4
   7   3  -5 76778.2 3358.99   3
   7   3  -5 78853.9 3313.43   1
  -7   3   4 13504.7 1575.51   4
  -7  -3   4 16424.8 1912.37   4
   7   3  -4 15408.1 1869.45   1
   7   3  -4 13142.1 1948.54   3
  -7   3   3 20309.4 1701.79   4
  -7  -3   3 19055.2 2009.06   4
   7   3  -3 18961.5 2142.18   3
   7   3  -3 19344.0 1794.08   1
   7   3  -2 113568. 3247.88   1
  -7   3   2 114095. 3071.53   4
  -7  -3   2 115855. 3885.22   4
   7   3  -2 118792. 4082.33   3
   7   3  -1 14515.2 1415.91   1
  -7   3   1 15989.1 1407.47   4
  -7  -3   1 13789.0 1841.87   4
   7   3  -1 14534.5 2039.19   3
   7   3   0 54630.9 2189.29   1
   7   3   0 59310.2 3018.63   3
   7   3   1 3578.09 1568.80   3
  -7   3  -2 26025.1 2608.17   2
   7   3   2 30246.8 2392.54   3
  -7   3  -3 5846.48 2047.89   2
   7   3   3 4650.54 1596.11   3
  -7   4   8 27483.4 2665.28   4
  -7   4   7 4031.14 1636.54   4
  -7  -4   7 6960.77 1898.75   4
   7   4  -7 4174.48 1875.98   1
   7  -4  -7 6348.46 1481.72   3
  -7   4   6 70523.7 3211.41   4
  -7  -4   6 70147.4 3456.41   4
   7   4  -6 72126.6 3420.91   1
  -7   4   5 2349.88 1305.88   4
  -7  -4   5 2034.06 1520.69   4
   7   4  -5 1699.20 1526.47   1
  -7   4   4 42625.8 2231.91   4
  -7  -4   4 37853.8 2489.61   4
   7   4  -4 39893.1 2591.85   3
   7   4  -4 42763.0 2525.93   1
   7   4  -3 25956.9 1979.91   1
  -7   4   3 28563.2 1810.92   4
  -7  -4   3 27501.8 2247.76   4
   7   4  -3 24336.5 2372.24   3
   7   4  -2 25469.8 1917.54   1
  -7   4   2 26196.7 1607.25   4
  -7  -4   2 26973.3 2285.57   4
   7   4  -2 25748.1 2342.89   3
   7   4  -1 57853.3 2469.52   1
  -7  -4   1 66045.4 3171.94   4
   7   4  -1 63624.9 3191.28   3
   7   4   0 29.0823 1114.98   1
   7   4   0 996.690 1584.15   3
   7   4   1 35617.0 2505.02   3
  -7   4  -2 11888.3 2108.10   2
   7   4   2 11755.3 1842.28   3
  -7   4  -3 12433.9 2281.29   2
   7   4   3 14180.8 1938.62   3
  -7   5   7 49503.8 3004.20   4
  -7  -5   7 49660.2 3164.96   4
   7   5  -7 51534.3 3281.43   1
  -7   5   6 2624.29 1459.07   4
  -7  -5   6 3500.53 1693.66   4
   7   5  -6 2565.80 1667.97   1
  -7   5   5 88661.2 3242.62   4
  -7  -5   5 84525.6 3630.89   4
   7   5  -5 88342.2 3671.85   1
  -7   5   4 9014.15 1405.60   4
  -7  -5   4 7678.93 1738.56   4
   7   5  -4 9954.23 1746.29   1
   7   5  -3 36240.7 2366.81   1
  -7   5   3 40430.9 2004.03   4
  -7  -5   3 32962.7 2549.15   4
   7   5  -2 31716.0 2164.88   1
  -7  -5   2 30198.6 2439.47   4
   7   5  -2 30589.5 2471.85   3
   7   5  -1 2560.91 1227.16   1
   7   5  -1 1627.42 1593.28   3
   7   5   0 37633.6 2193.29   1
   7   5   0 31533.9 2525.05   3
  -7   5  -1 11234.6 1942.44   2
   7   5   1 9076.29 1738.30   3
  -7   5  -2 25246.7 2595.86   2
  -7   5  -3 8125.44 2285.61   2
  -7   6   7 1822.48 1706.35   4
  -7   6   6 45327.9 2696.87   4
  -7  -6   6 38485.2 2894.45   4
   7   6  -6 44895.7 3108.43   1
  -7   6   5 7539.47 1458.02   4
  -7  -6   5 5278.98 1641.84   4
   7   6  -5 7356.87 1799.28   1
   7   6  -4 24662.6 2225.23   1
  -7   6   4 21530.7 1699.86   4
  -7  -6   4 23022.1 2340.59   4
   7   6  -3 43811.2 2644.02   1
  -7  -6   3 49152.9 3042.10   4
   7   6  -2 7474.87 1605.36   1
  -7  -6   2 5575.59 1677.70   4
   7   6  -1 68856.9 3020.57   1
   7   6   0 657.588 1318.71   1
  -7   6  -1 36717.9 2679.54   2
   7   6   1 31499.3 2202.84   1
  -7   6  -2 11593.8 2010.41   2
  -7   7   7 34971.1 2729.60   4
  -7   7   6 2063.90 1428.37   4
  -7  -7   6 2655.99 1762.40   4
   7   7  -5 44814.5 3007.25   1
  -7  -7   5 46773.1 3101.33   4
   7  -7  -4 1431.09 1248.60   0
  -7  -7   4 1412.75 1677.13   4
   7   7  -4 1669.59 1657.23   1
   7   7  -3 54846.3 3057.76   1
  -7  -7   3 52531.2 3185.25   4
   7   7  -2 17406.7 2108.65   1
  -7  -7   2 17650.4 2265.40   4
   7   7  -1 540.599 1397.86   1
   7   7   0 48672.2 2837.56   1
   7   7   1 6532.01 1743.96   1
  -7   7  -1 5446.93 1741.78   2
  -7   7  -2 10574.8 2129.38   2
   7  -8  -5 2328.40 1460.32   0
   7   8  -4 21988.8 2346.86   1
  -7  -8   4 19431.5 2425.29   4
   7  -8  -4 17038.2 1913.85   0
   7   8  -3 26273.0 2476.04   1
  -7  -8   3 31401.5 2680.98   4
   7   8  -2 7967.64 1909.35   1
   7   8  -1 22444.6 2361.30   1
   7   8   0 753.369 1525.91   1
  -7   8  -1 31635.3 2597.63   2
   7   8   1 26198.4 2459.93   1
  -7   8  -2 3919.19 1849.01   2
   7  -9  -5 24651.0 2493.65   0
   7   9  -2 19620.8 2399.93   1
   7   9  -1 1054.19 1666.75   1
   7   9   0 32664.1 2789.51   1
   8   0  -8 3413.51 2051.41   1
   8   0  -8 3771.11 1571.81   3
  -8   0   7 43900.3 3015.89   4
   8   0  -7 41465.6 3104.47   1
   8   0  -7 44660.1 2768.25   3
  -8   0   6 18420.1 2085.59   4
   8   0  -6 21426.2 2313.40   1
   8   0  -6 18097.7 2140.57   3
  -8   0   5 9856.72 1865.37   4
   8   0  -5 11161.7 1895.92   1
   8   0  -5 10892.8 1927.15   3
  -8   0   4 80151.7 3337.83   4
   8   0  -4 75305.6 3059.00   1
   8   0  -4 76037.8 3450.67   3
  -8   0   3 1168.58 1369.21   4
   8   0  -3 1194.17 1281.25   1
   8   0  -3 1386.54 1643.83   3
  -8   0   2 50679.9 2692.57   4
   8   0  -2 43986.5 2831.08   3
  -8   0   1 31074.2 2251.20   4
   8   0  -1 29521.4 2490.86   3
   8   0   0-207.750 1615.20   3
   8   0   1 31281.0 2562.00   3
   8   0   2 940.997 1566.64   3
   8   0   3 20454.7 2344.75   3
   8  -1  -8 57316.0 3762.48   1
   8   1  -8 46142.1 2772.86   3
  -8   1   7 20280.9 2424.83   4
  -8  -1   7 17616.4 2301.50   4
   8  -1  -7 16060.0 2564.40   1
   8   1  -7 16322.6 2402.52   1
   8  -1  -7 15710.2 1976.18   3
   8   1  -7 16994.5 1999.16   3
  -8   1   6 39972.2 2751.85   4
  -8  -1   6 41029.3 2826.45   4
   8  -1  -6 37759.8 2838.31   1
   8   1  -6 44671.9 2901.02   1
   8  -1  -6 38093.5 2667.42   3
   8   1  -6 38168.2 2672.29   3
  -8   1   5 47013.5 2754.38   4
  -8  -1   5 42595.9 2750.94   4
   8  -1  -5 45827.7 2811.05   1
   8  -1  -5 45162.3 2845.49   3
   8   1  -5 48094.3 2743.37   1
   8   1  -5 45947.5 2947.57   3
  -8   1   4 1868.05 1397.87   4
  -8  -1   4 1610.56 1490.31   4
   8  -1  -4 1886.37 1354.35   1
   8   1  -4 3363.22 1406.82   1
   8  -1  -4 1390.69 1509.57   3
   8   1  -4 1821.57 1584.93   3
  -8   1   3 60890.7 2786.23   4
  -8  -1   3 63013.9 3034.86   4
   8  -1  -3 63085.2 3326.49   3
   8   1  -3 63878.0 3265.35   3
   8   1  -3 64349.1 2660.84   1
  -8   1   2 5952.79 1470.29   4
  -8  -1   2 7774.07 1665.05   4
   8  -1  -2 3977.12 1636.39   3
   8   1  -2 7177.89 1888.77   3
  -8   1   1 43260.9 2409.21   4
  -8  -1   1 48796.5 2740.55   4
   8  -1  -1 42167.7 2871.06   3
   8   1  -1 39900.4 2869.69   3
   8  -1   0 12845.7 2194.28   3
   8   1   0 8156.37 1699.83   3
   8  -1   1 9628.82 1820.98   3
   8   1   1 9009.05 1870.37   3
   8  -1   2 36153.1 2745.00   3
   8   1   2 38081.0 2762.86   3
   8  -1   3 767.505 1551.73   3
   8   1   3 678.008 1572.53   3
  -8   2   7 28052.7 2550.61   4
  -8  -2   7 31089.1 2751.56   4
   8   2  -7 31932.5 2827.51   1
   8  -2  -7 29570.9 2367.16   3
   8   2  -7 27276.2 2415.82   3
  -8   2   6 21414.2 2216.82   4
  -8  -2   6 25889.8 2582.59   4
   8  -2  -6 27440.8 2287.19   3
   8   2  -6 26639.6 2439.46   1
   8   2  -6 26987.7 2359.38   3
  -8   2   5 7551.37 1658.79   4
  -8  -2   5 6685.92 1700.55   4
   8   2  -5 9041.51 1726.99   1
   8  -2  -5 7734.03 1793.32   3
   8   2  -5 9208.35 2034.04   3
  -8   2   4 70528.0 3076.92   4
  -8  -2   4 66482.1 3179.12   4
   8  -2  -4 71431.8 3493.85   3
   8   2  -4 65345.8 3442.10   3
   8   2  -4 65536.6 2989.42   1
  -8   2   3 3653.64 1284.95   4
  -8  -2   3 2435.77 1594.43   4
   8   2  -3 2502.87 1263.26   1
   8   2  -3 3186.17 1778.47   3
  -8   2   2 41697.9 2365.79   4
  -8  -2   2 39561.4 2614.61   4
   8   2  -2 36189.3 2791.43   3
  -8   2   1 23295.0 1832.68   4
  -8  -2   1 19055.8 2072.42   4
   8   2  -1 24621.0 2434.18   3
   8   2   0 8497.05 1919.74   3
   8   2   1 33240.5 2588.79   3
   8   2   2 1341.62 1664.75   3
   8  -2   3 22684.1 2430.08   3
   8   2   3 21172.1 2296.13   3
  -8   3   7 10389.2 2018.68   4
   8   3  -7 12695.3 2304.92   1
   8  -3  -7 8752.73 1700.80   3
  -8   3   6 20065.8 2071.46   4
  -8  -3   6 20582.9 2406.28   4
   8  -3  -6 18834.1 2117.44   3
   8   3  -6 19440.8 2294.65   1
   8   3  -6 21833.8 2276.62   3
  -8   3   5 48908.8 2727.01   4
  -8  -3   5 47376.6 2949.62   4
   8  -3  -5 46136.6 2855.41   3
   8   3  -5 51594.0 3128.99   3
   8   3  -5 52597.7 2945.60   1
  -8   3   4 5556.79 1466.12   4
  -8  -3   4 3836.23 1642.87   4
   8   3  -4 4701.77 1547.30   1
   8   3  -4 5631.05 1816.37   3
  -8   3   3 63581.9 2690.15   4
  -8  -3   3 64115.9 3242.41   4
   8   3  -3 59893.9 3387.97   3
   8   3  -3 66493.4 2928.71   1
  -8   3   2 5833.25 1309.21   4
  -8  -3   2 4270.04 1682.05   4
   8   3  -2 3810.88 1580.73   3
   8   3  -2 4657.09 1314.27   1
   8   3  -1 24421.9 2497.53   3
   8   3   0 25889.4 2397.91   3
   8   3   1 1177.78 1540.16   3
   8   3   2 20014.7 2256.50   3
  -8   4   7 29472.3 2606.33   4
   8  -4  -7 21996.9 2163.18   3
  -8   4   6 24924.5 2240.74   4
  -8  -4   6 23881.9 2490.14   4
   8  -4  -6 26831.8 2332.00   3
   8   4  -6 27846.0 2583.34   1
  -8   4   5 9635.79 1696.99   4
  -8  -4   5 8966.19 1912.27   4
   8   4  -5 9304.83 1870.60   1
   8   4  -5 9550.62 1953.73   3
  -8   4   4 54804.7 2684.09   4
  -8  -4   4 56003.2 3204.12   4
   8   4  -4 51012.0 3086.87   3
   8   4  -4 51414.0 2890.22   1
  -8   4   3 6704.66 1320.37   4
  -8  -4   3 7376.20 1920.11   4
   8   4  -3 8097.08 1850.29   3
   8   4  -3 6662.50 1614.04   1
   8   4  -2 33298.6 2215.45   1
  -8  -4   2 41010.7 2805.30   4
   8   4  -2 34330.6 2883.73   3
   8   4  -1 15515.8 2204.50   3
   8   4   0 12563.9 2037.32   3
   8   4   1 19888.8 2360.65   3
   8   4   2 1444.93 1533.05   3
  -8   5   7 7613.09 1854.95   4
   8  -5  -7 7902.54 1850.04   3
  -8   5   6 12011.4 1851.22   4
   8   5  -6 11789.2 2190.19   1
  -8   5   5 43395.4 2533.65   4
  -8  -5   5 44949.8 3072.35   4
   8   5  -5 44439.6 2940.58   1
  -8  -5   4 704.372 1641.34   4
   8   5  -4 1017.32 1550.86   1
   8   5  -3 41297.2 2641.60   1
  -8  -5   3 44111.5 2993.99   4
  -8  -5   2 1291.68 1690.08   4
   8   5  -2 2735.85 1646.93   3
   8   5  -2 1796.75 1325.46   1
   8   5  -1 17209.3 2295.01   3
   8   5   0 30254.1 2718.08   3
   8   5   1 7264.59 1732.49   3
  -8   6   7 40074.9 2876.25   4
   8   6  -5 12438.9 2039.55   1
   8   6  -4 55893.9 3249.37   1
  -8  -6   4 51980.9 3325.66   4
  -8  -6   3 183.062 1662.75   4
   8   6  -3-653.490 1556.95   1
   8   6  -2 42543.9 2637.74   1
  -8  -6   2 38984.2 2989.94   4
   8   6  -1 13304.5 1827.96   1
   8   7  -4 3326.72 1683.77   1
   8   7  -3 18717.9 2329.30   1
   8   7  -2 8025.81 1804.55   1
   8   7  -1 14707.3 2055.83   1
   8   8  -2 67057.0 3552.56   1
   8   8  -1 3246.03 1805.55   1
   9   0  -7 21145.2 2697.97   1
   9   0  -7 22339.3 2418.93   3
  -9   0   6 18153.6 2408.56   4
   9   0  -6 20301.0 2453.71   1
   9   0  -6 15809.9 2231.88   3
  -9   0   5 41860.4 2884.54   4
   9   0  -5 38585.5 3011.72   3
  -9   0   4 22869.5 2208.64   4
   9   0  -4 22685.4 2422.86   3
  -9   0   3 13594.7 1912.45   4
   9   0  -3 13203.9 2120.22   3
  -9   0   2 55925.1 3044.39   4
   9   0  -2 64088.1 3638.03   3
   9   0  -1 6246.76 1852.93   3
   9   0   0 63782.1 3550.34   3
   9  -1  -7 807.193 1965.65   1
   9   1  -7-693.394 1904.46   1
   9  -1  -7-353.513 1757.00   3
  -9   1   6 65383.8 3551.11   4
   9  -1  -6 69341.0 3756.47   1
   9   1  -6 68520.4 3634.43   1
   9  -1  -6 73263.6 3709.81   3
   9   1  -6 72113.7 3758.56   3
  -9   1   5 2935.59 1595.57   4
  -9  -1   5-674.988 1681.90   4
   9   1  -5 300.789 1592.81   1
   9  -1  -5 639.518 1694.59   3
   9   1  -5 1032.75 1651.47   3
  -9   1   4 26487.7 2321.86   4
  -9  -1   4 20031.5 2279.78   4
   9  -1  -4 23754.1 2680.91   3
   9   1  -4 28451.8 2759.07   3
  -9   1   3 23783.4 2129.15   4
  -9  -1   3 22326.8 2344.35   4
   9  -1  -3 20130.5 2561.43   3
   9   1  -3 25283.5 2779.78   3
  -9   1   2 970.603 1384.45   4
  -9  -1   2-649.303 1424.69   4
   9  -1  -2 1039.88 1624.22   3
   9   1  -2-407.994 1827.88   3
   9  -1  -1 12838.8 2372.93   3
   9   1  -1 12063.3 2335.48   3
   9  -1   0 11767.3 2343.43   3
   9   1   0 11728.7 2206.41   3
   9  -2  -7 40380.9 3003.78   3
  -9   2   6 4638.42 1679.66   4
   9   2  -6 5254.10 1786.76   1
   9  -2  -6 4004.55 1853.50   3
  -9   2   5 26437.4 2360.95   4
  -9  -2   5 30734.6 2595.70   4
   9  -2  -5 29390.2 2636.13   3
   9   2  -5 29120.8 2487.93   1
   9   2  -5 30413.3 2884.16   3
  -9   2   4 27812.9 2306.85   4
  -9  -2   4 24534.9 2479.36   4
   9  -2  -4 26785.8 2665.39   3
   9   2  -4 24290.8 2596.95   3
  -9   2   3 4847.23 1467.53   4
  -9  -2   3 6553.35 1820.03   4
   9  -2  -3 4278.20 1907.82   3
   9   2  -3 6874.74 2090.78   3
  -9  -2   2 37111.8 2816.30   4
   9  -2  -2 36880.3 2991.75   3
   9   2  -2 39841.5 3048.93   3
   9  -2  -1 1138.03 1754.42   3
   9   2  -1 1332.15 1941.55   3
   9   2   0 28528.2 2792.87   3
  -9   3   6 42885.3 2886.66   4
   9  -3  -6 40975.1 3036.48   3
   9   3  -6 39672.4 2972.62   1
  -9   3   5 11278.8 1803.73   4
   9   3  -5 11084.1 1986.53   1
   9  -3  -5 12423.0 2091.29   3
  -9   3   4 33134.2 2385.68   4
  -9  -3   4 38002.5 2985.11   4
   9  -3  -4 38417.8 3118.79   3
   9   3  -4 36283.4 2885.61   3
   9   3  -4 34304.7 2545.20   1
  -9  -3   3 19259.2 2396.51   4
   9   3  -3 17019.7 2430.09   3
  -9  -3   2 1398.56 1715.82   4
   9   3  -2 5898.06 1862.06   3
   9   3  -1 45288.5 3332.75   3
  -9   4   6 3014.69 1624.41   4
   9   4  -6 2304.67 1897.17   1
  -9   4   5 12835.1 1957.12   4
   9   4  -5 14088.2 2175.64   1
   9   4  -4 13803.0 2019.53   1
   9   5  -5 15670.5 2248.10   1
   9   5  -4 20331.5 2333.89   1
   9   6  -4 11386.5 2038.81   1
 -10   0   3 28034.5 2709.43   4
 -10   0   2 8077.87 1925.12   4
 -10   1   4 32618.5 2703.33   4
 -10   1   3 939.859 1675.16   4
;
_shelx_hkl_checksum              18966
_shelx_res_file
;
TITL    ap85a in P2(1)
CELL 0.71073   7.7268  10.4304   8.0655  90.000 108.341  90.000
ZERR    2.00   0.0004   0.0004   0.0004   0.000   0.005   0.000
LATT -1
SYMM -X, 0.50000+Y,-Z
SFAC    C   H   N   O   I
UNIT    22  34   4   4   2
L.S.  4
FMAP    2
PLAN   -5
bond $h
temp -173
acta 50
conf
EQIV $1 -x+2, y+1/2, -z
HTAB C3 I1_$1
EQIV $2 x, y+1, z
HTAB C5 I1_$2
EQIV $3 -x+2, y+1/2, -z+1
HTAB C10 I1_$3
HTAB C11 I1
EQIV $4 -x+1, y+1/2, -z+1
HTAB C11 I1_$4
HTAB N12 O1W
EQIV $5 x-1, y, z
HTAB N12 O2_$5
EQIV $6 -x+1, y+1/2, -z
HTAB O1W I1_$6
HTAB O1W I1
isor .003 .003 c8 c6
isor .005 .005 $c $n
WGHT    0.046300    1.101500
FVAR       6.70968
I1    5    0.605566   -0.058096    0.203918    11.00000    0.02408    0.02690 =
         0.02511    0.00784    0.01582    0.00955
N1    3    0.955648    0.400671    0.331711    11.00000    0.01360    0.01022 =
         0.00943   -0.00187    0.00402   -0.00288
C2    1    1.074151    0.375692    0.237415    11.00000    0.00674    0.01229 =
         0.01429   -0.00515    0.00142   -0.00427
O2    4    1.180391    0.281244    0.277414    11.00000    0.01143    0.01073 =
         0.02200   -0.00059    0.00828    0.00241
C3    1    1.066409    0.457800    0.099153    11.00000    0.01829    0.03041 =
         0.01718    0.01029    0.00763    0.00494
AFIX  43
H3    2    1.140076    0.440535    0.027087    11.00000   -1.20000
AFIX   0
C4    1    0.951828    0.565610    0.064203    11.00000    0.01366    0.01384 =
         0.01477   -0.00117    0.00372   -0.00633
AFIX  43
H4    2    0.948355    0.621644   -0.029647    11.00000   -1.20000
AFIX   0
C5    1    0.842331    0.588879    0.171057    11.00000    0.00919    0.00979 =
         0.01763   -0.00081    0.00055    0.00082
AFIX  43
H5    2    0.766136    0.662484    0.151584    11.00000   -1.20000
AFIX   0
C6    1    0.845354    0.506036    0.302448    11.00000    0.00436    0.00726 =
         0.01028   -0.00305    0.00058   -0.00237
C7    1    0.727259    0.529418    0.417723    11.00000    0.01331    0.00741 =
         0.00825   -0.00017    0.00360   -0.00462
AFIX  13
H7    2    0.718168    0.624058    0.433002    11.00000   -1.20000
AFIX   0
C8    1    0.817532    0.468599    0.600465    11.00000    0.01414    0.02427 =
         0.01559   -0.01360    0.00703   -0.00808
AFIX  23
H8A   2    0.940813    0.504711    0.655459    11.00000   -1.20000
H8B   2    0.742862    0.485090    0.677961    11.00000   -1.20000
AFIX   0
C9    1    0.828766    0.324478    0.568679    11.00000    0.01744    0.01499 =
         0.01963    0.00581    0.01024    0.00751
AFIX  13
H9    2    0.881152    0.282628    0.685337    11.00000   -1.20000
AFIX   0
C10   1    0.962699    0.303013    0.467374    11.00000    0.01234    0.00835 =
         0.01442    0.00511    0.00345    0.00369
AFIX  23
H10A  2    1.087749    0.301270    0.551230    11.00000   -1.20000
H10B  2    0.938454    0.217812    0.410669    11.00000   -1.20000
AFIX   0
C11   1    0.640013    0.268428    0.484914    11.00000    0.01763    0.01462 =
         0.01771    0.00373    0.01205   -0.00025
AFIX  23
H11A  2    0.651781    0.176155    0.461768    11.00000   -1.20000
H11B  2    0.569414    0.275795    0.567814    11.00000   -1.20000
AFIX   0
N12   3    0.537384    0.333690    0.317471    11.00000    0.01156    0.01083 =
         0.01368   -0.00211    0.00673   -0.00037
AFIX  23
H12A  2    0.410288    0.301732    0.278091    11.00000   -1.20000
H12B  2    0.593813    0.311155    0.226853    11.00000   -1.20000
AFIX   0
C13   1    0.535374    0.476618    0.335138    11.00000    0.00701    0.00708 =
         0.01427   -0.00084    0.00297    0.00047
AFIX  23
H13A  2    0.458666    0.500363    0.408231    11.00000   -1.20000
H13B  2    0.480868    0.515547    0.218331    11.00000   -1.20000
AFIX   0
O1W   4    0.700451    0.238692    0.073051    11.00000    0.03039    0.02803 =
         0.02985   -0.00025    0.01060    0.00002
AFIX   3
H1W1  2    0.632376    0.269564   -0.022854    11.00000   -1.20000
H1W2  2    0.668494    0.160450    0.072131    11.00000   -1.20000
AFIX   0
HKLF 4
REM     ap85a in P2(1)
REM R1 =  0.0366 for    2028 Fo > 4sig(Fo)  and  0.0428 for all    2262 data
REM    145 parameters refined using     79 restraints
END
WGHT      0.0465      1.0326
REM Highest difference peak  3.391,  deepest hole -1.232,  1-sigma level  0.158
Q1    1   0.5268 -0.1063  0.1220  11.00000  0.05    3.39
Q2    1   0.5428 -0.0005  0.1340  11.00000  0.05    2.69
Q3    1   0.7602  0.5002  0.5397  11.00000  0.05    1.30
Q4    1   0.7922  0.3958  0.5729  11.00000  0.05    0.92
Q5    1   0.6969  0.0194  0.2942  11.00000  0.05    0.79
;
_shelx_res_checksum              37393
_shelxl_version_number           .2013
loop_
_space_group_symop_operation_xyz
'x, y, z'
'-x, y+1/2, -z'
loop_
_atom_site_type_symbol
_atom_site_label
_atom_site_fract_x
_atom_site_fract_y
_atom_site_fract_z
_atom_site_U_iso_or_equiv
_atom_site_adp_type
_atom_site_calc_flag
_atom_site_occupancy
I I1 0.60557(7) -0.05810(8) 0.20392(7) 0.02348(18) Uani d 1
N N1 0.9556(10) 0.4007(6) 0.3317(9) 0.0110(14) Uani d 1
C C2 1.0742(10) 0.3757(8) 0.2374(11) 0.0115(17) Uani d 1
O O2 1.1804(8) 0.2812(5) 0.2774(8) 0.0140(12) Uani d 1
C C3 1.0664(10) 0.4578(12) 0.0992(10) 0.021(2) Uani d 1
H H3 1.1401 0.4405 0.0271 0.026 Uiso calc 1
C C4 0.9518(11) 0.5656(8) 0.0642(11) 0.0143(17) Uani d 1
H H4 0.9484 0.6216 -0.0296 0.017 Uiso calc 1
C C5 0.8423(11) 0.5889(8) 0.1711(11) 0.0131(17) Uani d 1
H H5 0.7661 0.6625 0.1516 0.016 Uiso calc 1
C C6 0.8454(11) 0.5060(8) 0.3024(10) 0.0077(15) Uani d 1
C C7 0.7273(10) 0.5294(8) 0.4177(10) 0.0096(16) Uani d 1
H H7 0.7182 0.6241 0.4330 0.012 Uiso calc 1
C C8 0.8175(11) 0.4686(8) 0.6005(11) 0.017(2) Uani d 1
H H8A 0.9408 0.5047 0.6555 0.021 Uiso calc 1
H H8B 0.7429 0.4851 0.6780 0.021 Uiso calc 1
C C9 0.8288(12) 0.3245(8) 0.5687(12) 0.0163(18) Uani d 1
H H9 0.8812 0.2826 0.6853 0.020 Uiso calc 1
C C10 0.9627(11) 0.3030(8) 0.4674(11) 0.0119(16) Uani d 1
H H10A 1.0877 0.3013 0.5512 0.014 Uiso calc 1
H H10B 0.9385 0.2178 0.4107 0.014 Uiso calc 1
C C11 0.6400(11) 0.2684(8) 0.4849(11) 0.0151(17) Uani d 1
H H11A 0.6518 0.1762 0.4618 0.018 Uiso calc 1
H H11B 0.5694 0.2758 0.5678 0.018 Uiso calc 1
N N12 0.5374(9) 0.3337(7) 0.3175(9) 0.0114(15) Uani d 1
H H12A 0.4103 0.3017 0.2781 0.014 Uiso calc 1
H H12B 0.5938 0.3112 0.2269 0.014 Uiso calc 1
C C13 0.5354(10) 0.4766(7) 0.3351(11) 0.0095(17) Uani d 1
H H13A 0.4587 0.5004 0.4082 0.011 Uiso calc 1
H H13B 0.4809 0.5155 0.2183 0.011 Uiso calc 1
O O1W 0.7005(9) 0.2387(7) 0.0731(9) 0.0292(16) Uani d 1
H H1W1 0.6324 0.2696 -0.0229 0.035 Uiso d 1
H H1W2 0.6685 0.1605 0.0721 0.035 Uiso d 1
loop_
_atom_site_aniso_label
_atom_site_aniso_U_11
_atom_site_aniso_U_22
_atom_site_aniso_U_33
_atom_site_aniso_U_12
_atom_site_aniso_U_13
_atom_site_aniso_U_23
I1 0.0241(3) 0.0269(3) 0.0251(3) 0.0095(4) 0.0158(2) 0.0078(4)
N1 0.014(3) 0.010(3) 0.009(3) -0.003(2) 0.004(2) -0.002(2)
C2 0.007(3) 0.012(4) 0.014(4) -0.004(3) 0.001(3) -0.005(3)
O2 0.011(3) 0.011(3) 0.022(3) 0.002(2) 0.008(3) -0.001(2)
C3 0.018(3) 0.030(5) 0.017(3) 0.005(4) 0.008(3) 0.010(4)
C4 0.014(4) 0.014(4) 0.015(4) -0.006(3) 0.004(3) -0.001(3)
C5 0.009(3) 0.010(3) 0.018(4) 0.001(3) 0.001(3) -0.001(3)
C6 0.004(3) 0.007(3) 0.010(3) -0.002(2) 0.001(2) -0.003(2)
C7 0.013(4) 0.007(3) 0.008(3) -0.005(3) 0.004(3) 0.000(3)
C8 0.014(3) 0.024(4) 0.016(3) -0.008(3) 0.007(2) -0.014(3)
C9 0.017(4) 0.015(4) 0.020(4) 0.008(3) 0.010(3) 0.006(3)
C10 0.012(3) 0.008(3) 0.014(4) 0.004(3) 0.003(3) 0.005(3)
C11 0.018(4) 0.015(4) 0.018(4) 0.000(3) 0.012(3) 0.004(3)
N12 0.012(3) 0.011(3) 0.014(3) 0.000(3) 0.007(3) -0.002(3)
C13 0.007(3) 0.007(4) 0.014(3) 0.000(2) 0.003(3) -0.001(3)
O1W 0.030(4) 0.028(4) 0.030(4) 0.000(3) 0.011(3) 0.000(3)
loop_
_atom_type_symbol
_atom_type_description
_atom_type_scat_dispersion_real
_atom_type_scat_dispersion_imag
_atom_type_scat_source
C C 0.0033 0.0016 'International Tables Vol C Tables 4.2.6.8 and 6.1.1.4'
H H 0.0000 0.0000 'International Tables Vol C Tables 4.2.6.8 and 6.1.1.4'
N N 0.0061 0.0033 'International Tables Vol C Tables 4.2.6.8 and 6.1.1.4'
O O 0.0106 0.0060 'International Tables Vol C Tables 4.2.6.8 and 6.1.1.4'
I I -0.4742 1.8119 'International Tables Vol C Tables 4.2.6.8 and 6.1.1.4'
loop_
_geom_angle_atom_site_label_1
_geom_angle_atom_site_label_2
_geom_angle_atom_site_label_3
_geom_angle
C6 N1 C2 122.7(6)
C6 N1 C10 123.8(6)
C2 N1 C10 113.5(6)
O2 C2 N1 119.8(7)
O2 C2 C3 123.2(7)
N1 C2 C3 117.0(7)
C2 C3 C4 121.3(7)
C2 C3 H3 119.4
C4 C3 H3 119.4
C3 C4 C5 118.6(8)
C3 C4 H4 120.7
C5 C4 H4 120.7
C6 C5 C4 120.1(8)
C6 C5 H5 120.0
C4 C5 H5 120.0
C5 C6 N1 120.2(7)
C5 C6 C7 120.6(7)
N1 C6 C7 119.2(7)
C6 C7 C13 111.4(7)
C6 C7 C8 109.8(7)
C13 C7 C8 110.6(6)
C6 C7 H7 108.3
C13 C7 H7 108.3
C8 C7 H7 108.3
C9 C8 C7 105.9(6)
C9 C8 H8A 110.6
C7 C8 H8A 110.6
C9 C8 H8B 110.6
C7 C8 H8B 110.6
H8A C8 H8B 108.7
C11 C9 C10 115.1(7)
C11 C9 C8 110.8(7)
C10 C9 C8 108.5(7)
C11 C9 H9 107.4
C10 C9 H9 107.4
C8 C9 H9 107.4
N1 C10 C9 114.9(6)
N1 C10 H10A 108.5
C9 C10 H10A 108.5
N1 C10 H10B 108.5
C9 C10 H10B 108.5
H10A C10 H10B 107.5
N12 C11 C9 112.8(7)
N12 C11 H11A 109.0
C9 C11 H11A 109.0
N12 C11 H11B 109.0
C9 C11 H11B 109.0
H11A C11 H11B 107.8
C11 N12 C13 112.6(7)
C11 N12 H12A 109.1
C13 N12 H12A 109.1
C11 N12 H12B 109.1
C13 N12 H12B 109.1
H12A N12 H12B 107.8
N12 C13 C7 111.3(6)
N12 C13 H13A 109.4
C7 C13 H13A 109.4
N12 C13 H13B 109.4
C7 C13 H13B 109.4
H13A C13 H13B 108.0
H1W1 O1W H1W2 105.1
loop_
_geom_bond_atom_site_label_1
_geom_bond_atom_site_label_2
_geom_bond_distance
N1 C6 1.365(10)
N1 C2 1.387(10)
N1 C10 1.483(10)
C2 O2 1.258(10)
C2 C3 1.392(12)
C3 C4 1.404(14)
C3 H3 0.9500
C4 C5 1.406(11)
C4 H4 0.9500
C5 C6 1.362(11)
C5 H5 0.9500
C6 C7 1.513(10)
C7 C13 1.524(11)
C7 C8 1.554(12)
C7 H7 1.0000
C8 C9 1.532(13)
C8 H8A 0.9900
C8 H8B 0.9900
C9 C11 1.518(13)
C9 C10 1.523(10)
C9 H9 1.0000
C10 H10A 0.9900
C10 H10B 0.9900
C11 N12 1.497(11)
C11 H11A 0.9900
C11 H11B 0.9900
N12 C13 1.498(11)
N12 H12A 0.9900
N12 H12B 0.9900
C13 H13A 0.9900
C13 H13B 0.9900
O1W H1W1 0.8501
O1W H1W2 0.8520
loop_
_geom_hbond_atom_site_label_D
_geom_hbond_atom_site_label_H
_geom_hbond_atom_site_label_A
_geom_hbond_site_symmetry_A
_geom_hbond_distance_DH
_geom_hbond_distance_HA
_geom_hbond_distance_DA
_geom_hbond_angle_DHA
C10 H10A I1 2_756 0.99 2.95 3.833(9) 148.5
N12 H12B O1W . 0.99 1.85 2.832(9) 169.5
N12 H12A O2 1_455 0.99 1.79 2.730(9) 157.8
O1W H1W1 I1 2_655 0.85 2.66 3.428(7) 151.6
O1W H1W2 I1 . 0.85 2.62 3.424(7) 156.7
loop_
_geom_torsion_atom_site_label_1
_geom_torsion_atom_site_label_2
_geom_torsion_atom_site_label_3
_geom_torsion_atom_site_label_4
_geom_torsion
C6 N1 C2 O2 175.7(7)
C10 N1 C2 O2 -3.7(11)
C6 N1 C2 C3 -5.2(12)
C10 N1 C2 C3 175.5(8)
O2 C2 C3 C4 -177.0(8)
N1 C2 C3 C4 3.9(13)
C2 C3 C4 C5 -0.7(13)
C3 C4 C5 C6 -1.6(12)
C4 C5 C6 N1 0.5(12)
C4 C5 C6 C7 -179.6(7)
C2 N1 C6 C5 3.1(11)
C10 N1 C6 C5 -177.7(8)
C2 N1 C6 C7 -176.9(7)
C10 N1 C6 C7 2.4(11)
C5 C6 C7 C13 84.8(9)
N1 C6 C7 C13 -95.3(8)
C5 C6 C7 C8 -152.3(7)
N1 C6 C7 C8 27.6(9)
C6 C7 C8 C9 -61.6(8)
C13 C7 C8 C9 61.8(8)
C7 C8 C9 C11 -60.4(8)
C7 C8 C9 C10 66.9(8)
C6 N1 C10 C9 3.0(11)
C2 N1 C10 C9 -177.6(7)
C11 C9 C10 N1 86.5(9)
C8 C9 C10 N1 -38.3(10)
C10 C9 C11 N12 -67.1(9)
C8 C9 C11 N12 56.5(9)
C9 C11 N12 C13 -50.8(9)
C11 N12 C13 C7 51.4(8)
C6 C7 C13 N12 64.2(8)
C8 C7 C13 N12 -58.3(8)

_cod_database_fobs_code 2021285
