#------------------------------------------------------------------------------
#$Date: 2019-12-26 21:49:16 +0200 (Thu, 26 Dec 2019) $
#$Revision: 246120 $
#$URL: file:///home/coder/svn-repositories/cod/cif/2/02/19/2021920.cif $
#------------------------------------------------------------------------------
#
# This file is available in the Crystallography Open Database (COD),
# http://www.crystallography.net/. The original data for this entry
# were provided by IUCr Journals, http://journals.iucr.org/.
#
# The file may be used within the scientific community so long as
# proper attribution is given to the journal article from which the
# data were obtained.
#
data_2021920
loop_
_publ_author_name
'Shukla, Rahul'
'Ruzi\'e, Christian'
'Schweicher, Guillaume'
'Kennedy, Alan R.'
'Geerts, Yves H.'
'Chopra, Deepak'
'Chattopadhyay, Basab'
_publ_section_title
;
 Insight from electron density and energy framework analysis on the
 structural features of F&#x000D; x&#x000D; -TCNQ (x = 0, 2, 4) family of
 molecules
;
_journal_coeditor_code           AW5018SUP1
_journal_issue                   1
_journal_name_full
'Acta Crystallographica Section B Structural Science, Crystal Engineering and Materials'
_journal_page_first              71
_journal_paper_doi               10.1107/S2052520618017109
_journal_volume                  75
_journal_year                    2019
_chemical_formula_moiety         'C12 H2 F2 N4'
_chemical_formula_sum            'C12 H2 F2 N4'
_chemical_formula_weight         240.18
_space_group_crystal_system      monoclinic
_space_group_IT_number           14
_space_group_name_Hall           '-P 2ybc'
_space_group_name_H-M_alt        'P 1 21/c 1'
_atom_sites_solution_hydrogens   difmap
_audit_creation_method           SHELXL-2014/7
_cell_angle_alpha                90
_cell_angle_beta                 102.417(5)
_cell_angle_gamma                90
_cell_formula_units_Z            4
_cell_length_a                   9.8303(9)
_cell_length_b                   5.4679(5)
_cell_length_c                   19.2479(17)
_cell_measurement_reflns_used    7666
_cell_measurement_temperature    100(2)
_cell_measurement_theta_max      30.51
_cell_measurement_theta_min      3.34
_cell_volume                     1010.40(16)
_computing_cell_refinement       'Bruker SAINT'
_computing_data_collection       'Bruker APEX2'
_computing_data_reduction        'Bruker SAINT'
_computing_molecular_graphics    'Bruker SHELXTL'
_computing_publication_material  'Bruker SHELXTL'
_computing_structure_refinement  'SHELXL-2014 (Sheldrick 2014)'
_computing_structure_solution    'SHELXS-97 (Sheldrick 2008)'
_diffrn_ambient_temperature      100(2)
_diffrn_measured_fraction_theta_full 0.999
_diffrn_measured_fraction_theta_max 0.996
_diffrn_measurement_device_type  'Bruker APEX-II CCD'
_diffrn_measurement_method       '\f and \w scans'
_diffrn_radiation_type           MoK\a
_diffrn_radiation_wavelength     0.71073
_diffrn_reflns_av_R_equivalents  0.0841
_diffrn_reflns_av_unetI/netI     0.0488
_diffrn_reflns_Laue_measured_fraction_full 0.999
_diffrn_reflns_Laue_measured_fraction_max 0.996
_diffrn_reflns_limit_h_max       14
_diffrn_reflns_limit_h_min       -14
_diffrn_reflns_limit_k_max       7
_diffrn_reflns_limit_k_min       -7
_diffrn_reflns_limit_l_max       27
_diffrn_reflns_limit_l_min       -27
_diffrn_reflns_number            23312
_diffrn_reflns_point_group_measured_fraction_full 0.999
_diffrn_reflns_point_group_measured_fraction_max 0.996
_diffrn_reflns_theta_full        25.242
_diffrn_reflns_theta_max         30.647
_diffrn_reflns_theta_min         2.687
_exptl_absorpt_coefficient_mu    0.127
_exptl_absorpt_correction_type   none
_exptl_crystal_colour            yellow
_exptl_crystal_density_diffrn    1.579
_exptl_crystal_description       block
_exptl_crystal_F_000             480
_exptl_crystal_size_max          0.31
_exptl_crystal_size_mid          0.20
_exptl_crystal_size_min          0.14
_exptl_transmission_factor_max   0.8121
_exptl_transmission_factor_min   0.6283
_refine_diff_density_max         0.399
_refine_diff_density_min         -0.368
_refine_diff_density_rms         0.088
_refine_ls_extinction_method     none
_refine_ls_goodness_of_fit_ref   1.045
_refine_ls_hydrogen_treatment    refall
_refine_ls_matrix_type           full
_refine_ls_number_parameters     171
_refine_ls_number_reflns         3100
_refine_ls_number_restraints     2
_refine_ls_restrained_S_all      1.045
_refine_ls_R_factor_all          0.0798
_refine_ls_R_factor_gt           0.0509
_refine_ls_shift/su_max          0.000
_refine_ls_shift/su_mean         0.000
_refine_ls_structure_factor_coef Fsqd
_refine_ls_weighting_details
'w=1/[\s^2^(Fo^2^)+(0.0539P)^2^+0.4801P] where P=(Fo^2^+2Fc^2^)/3'
_refine_ls_weighting_scheme      calc
_refine_ls_wR_factor_gt          0.1110
_refine_ls_wR_factor_ref         0.1240
_reflns_Friedel_coverage         0.000
_reflns_number_gt                2273
_reflns_number_total             3100
_reflns_threshold_expression     'I > 2\s(I)'
_cod_data_source_file            aw5018sup1.cif
_cod_data_source_block           F2'-TCNQ
_cod_original_cell_volume        1010.39(16)
_cod_original_sg_symbol_H-M      'P 21/c'
_cod_database_code               2021920
_shelx_shelxl_version_number     2014/7
_shelx_space_group_comment
;
The symmetry employed for this shelxl refinement is uniquely defined
by the following loop, which should always be used as a source of
symmetry information in preference to the above space-group names.
They are only intended as comments.
;
_shelx_res_file
;

    shelx.res created by SHELXL-2014/7


TITL TRY1 in P2(1)/c
CELL 0.71073 9.8303 5.4679 19.2479 90.000 102.417 90.000
ZERR 4.00 0.0009 0.0005 0.0017 0.000 0.005 0.000
LATT 1
SYMM -x, y+1/2, -z+1/2
SFAC C H N F
UNIT 48 8 16 8
TEMP -173.210
ACTA
L.S. 10
FMAP 2
DFIX 1.083 0.001 C7 H7  C8 H8
PLAN 10
BOND $H
CONF
WGHT    0.053900    0.480100
FVAR       0.21622
F2    4    0.920484   -0.269581    0.203580    11.00000    0.02172    0.02122 =
         0.02579    0.01216    0.00852    0.00695
F1    4    0.942696    0.367362    0.040118    11.00000    0.01873    0.02304 =
         0.02800    0.01349    0.01188    0.00354
N3    3    0.444241    0.683597    0.073716    11.00000    0.02391    0.02275 =
         0.02897    0.00243    0.00717    0.00507
N2    3    1.219288    0.156535    0.032033    11.00000    0.01852    0.02154 =
         0.02115    0.00141    0.00568    0.00160
N4    3    0.397812    0.076265    0.218221    11.00000    0.01841    0.02242 =
         0.02181    0.00169    0.00693    0.00323
N1    3    1.189009   -0.439942    0.166964    11.00000    0.02717    0.02520 =
         0.02424    0.00546    0.00778    0.00894
C11   1    0.483901    0.503912    0.101930    11.00000    0.01411    0.02006 =
         0.01879   -0.00200    0.00661    0.00066
C10   1    0.541164    0.285247    0.137527    11.00000    0.01575    0.01617 =
         0.01400   -0.00160    0.00305   -0.00018
C9    1    0.670551    0.203102    0.131523    11.00000    0.01495    0.01442 =
         0.01276   -0.00224    0.00290   -0.00032
C8    1    0.747311    0.331420    0.087312    11.00000    0.01625    0.01390 =
         0.01441    0.00189    0.00362    0.00129
C6    1    0.874150    0.251433    0.083349    11.00000    0.01634    0.01476 =
         0.01465    0.00288    0.00561   -0.00130
C4    1    0.943255    0.041380    0.120867    11.00000    0.01483    0.01354 =
         0.01243   -0.00021    0.00346   -0.00037
C3    1    1.071406   -0.040036    0.112965    11.00000    0.01543    0.01410 =
         0.01364    0.00107    0.00255    0.00033
C2    1    1.151584    0.076148    0.067895    11.00000    0.01386    0.01805 =
         0.01508    0.00027    0.00177    0.00358
C12   1    0.461575    0.166877    0.181909    11.00000    0.01436    0.01700 =
         0.01681   -0.00158    0.00278    0.00318
C1    1    1.135043   -0.261206    0.144952    11.00000    0.01660    0.02071 =
         0.01542   -0.00015    0.00580    0.00152
C5    1    0.861316   -0.077735    0.165257    11.00000    0.01766    0.01281 =
         0.01360    0.00398    0.00262    0.00076
C7    1    0.732978   -0.008404    0.170310    11.00000    0.01773    0.01563 =
         0.01412    0.00143    0.00467    0.00043
H7    2    0.679510   -0.111901    0.204293    11.00000    0.02520
H8    2    0.706002    0.493668    0.057972    11.00000    0.02183
HKLF 4

REM  TRY1 in P2(1)/c
REM R1 =  0.0509 for    2273 Fo > 4sig(Fo)  and  0.0798 for all    3100 data
REM    171 parameters refined using      2 restraints

END

WGHT      0.0540      0.4785

REM Highest difference peak  0.399,  deepest hole -0.368,  1-sigma level  0.088
Q1    1   0.9025  0.0047  0.1435  11.00000  0.05    0.40
Q2    1   0.7857 -0.0853  0.1511  11.00000  0.05    0.35
Q3    1   1.0171  0.0124  0.1291  11.00000  0.05    0.34
Q4    1   1.0022 -0.0117  0.1130  11.00000  0.05    0.32
Q5    1   0.5772  0.2210  0.1169  11.00000  0.05    0.32
Q6    1   0.7851  0.2564  0.0659  11.00000  0.05    0.28
Q7    1   0.8169  0.2594 -0.0332  11.00000  0.05    0.27
Q8    1   0.3180 -0.1725  0.2605  11.00000  0.05    0.24
Q9    1   0.6472  0.1463  0.2536  11.00000  0.05    0.23
Q10   1   0.7974 -0.3190  0.1414  11.00000  0.05    0.23
;
_shelx_res_checksum              70523
_shelx_hkl_file
;
  -2   0   0   71.53    3.86
   2   0   0   60.61    3.88
   2   0   0   71.78    3.87
  -3   0   0  246.41   13.44
  -3   0   0  243.88   13.47
   3   0   0  235.07   13.45
   3   0   0  226.69   13.48
   4   0   0    2.97    0.30
   4   0   0    3.54    0.41
  -4   0   0    3.53    0.29
  -4   0   0    2.48    0.32
  -5   0   0   65.47    3.87
  -5   0   0   66.44    3.83
   5   0   0   66.86    3.85
  -6   0   0   47.88    2.65
  -6   0   0   48.04    2.71
   6   0   0   39.21    2.74
   6   0   0   43.80    2.67
  -7   0   0    9.34    0.78
   7   0   0    8.31    0.74
   7   0   0    8.96    0.89
  -8   0   0   11.03    0.99
   8   0   0   10.80    1.15
  -8   0   0   14.05    0.92
   8   0   0   11.94    0.96
   9   0   0    4.32    0.54
   9   0   0    4.02    0.79
   9   0   0    4.72    0.68
  -9   0   0    4.63    0.77
  -9   0   0    4.97    0.62
  10   0   0   34.39    2.16
 -10   0   0   38.49    2.32
  10   0   0   31.94    2.61
 -10   0   0   32.05    2.17
  10   0   0   31.95    2.26
  11   0   0    2.59    0.61
  11   0   0    4.41    0.78
  11   0   0    4.03    1.11
 -11   0   0    2.87    0.59
 -11   0   0    2.89    0.80
  12   0   0    1.38    0.59
  12   0   0    3.99    1.21
  12   0   0    1.42    0.78
  13   0   0    7.44    1.21
  13   0   0    7.41    1.21
  13   0   0    8.30    1.89
   0  -1   0   -0.11    0.06
   0   1   0   -0.03    0.03
   0   1   0   -0.04    0.04
  -1  -1   0   48.81    3.00
  -1  -1   0   53.87    3.00
   1  -1   0   50.64    3.00
  -1  -1   0   59.58    3.01
   1  -1   0   51.83    3.04
   1   1   0   50.64    3.00
  -1   1   0   53.83    3.03
  -1   1   0   54.40    3.03
   1   1   0   52.49    2.99
  -1   1   0   51.61    3.00
  -2  -1   0    1.68    0.20
   2  -1   0    1.20    0.20
  -2  -1   0    1.46    0.18
  -2   1   0    1.33    0.20
  -2   1   0    1.02    0.17
   2   1   0    1.58    0.21
   3  -1   0   14.11    0.87
  -3  -1   0   14.05    0.84
   3  -1   0   15.95    0.95
  -3  -1   0   14.01    0.86
   3  -1   0   12.77    0.87
  -3  -1   0   13.07    0.84
  -3   1   0   13.83    0.85
  -3   1   0   13.33    0.87
   3   1   0   13.28    0.87
   3   1   0   13.77    0.84
   4  -1   0    2.12    0.26
   4  -1   0    2.29    0.29
   4  -1   0    2.77    0.42
  -4  -1   0    2.09    0.23
  -4  -1   0    2.33    0.27
  -4   1   0    1.93    0.33
   4   1   0    1.92    0.30
  -4   1   0    2.26    0.27
   4   1   0    1.86    0.23
   5  -1   0    1.82    0.28
  -5  -1   0    1.97    0.26
   5  -1   0    2.08    0.41
   5  -1   0    1.44    0.27
  -5  -1   0    1.94    0.29
   5   1   0    1.70    0.31
  -5   1   0    1.85    0.28
  -5   1   0    1.44    0.30
   5   1   0    1.86    0.27
   6  -1   0   14.96    1.01
   6  -1   0   14.79    1.18
   6  -1   0   14.45    1.06
  -6  -1   0   15.63    0.99
  -6  -1   0   14.52    1.04
  -6   1   0   17.17    1.12
   6   1   0   15.49    1.02
   6   1   0   14.71    1.13
  -6   1   0   15.50    1.02
  -7  -1   0   12.99    0.92
   7  -1   0   11.31    0.92
  -7  -1   0   11.57    0.84
   7  -1   0   11.79    0.86
   7  -1   0   11.40    1.13
   7   1   0   12.73    1.06
   7   1   0   11.58    0.88
  -7   1   0   11.69    0.86
  -7   1   0   11.83    0.97
   8  -1   0    1.11    0.31
  -8  -1   0    0.99    0.35
  -8  -1   0    1.20    0.31
   8  -1   0    0.84    0.34
   8  -1   0    0.99    0.53
   8   1   0    0.88    0.32
   8   1   0    0.97    0.45
  -8   1   0    0.77    0.30
  -8   1   0    0.80    0.38
   9  -1   0    7.91    1.19
  -9  -1   0    8.98    0.89
   9  -1   0    9.48    0.92
  -9  -1   0    8.95    0.80
   9  -1   0    8.04    0.79
   9   1   0    7.01    1.05
  -9   1   0    8.99    0.95
   9   1   0    9.57    0.85
 -10  -1   0    3.94    0.80
  10  -1   0    4.21    0.61
  10  -1   0    5.20    0.78
  10  -1   0    5.27    1.00
  10   1   0    3.74    0.62
  10   1   0    3.08    0.81
 -10   1   0    4.68    0.74
 -10   1   0    4.22    0.71
  11  -1   0    2.85    1.02
  11  -1   0    2.25    0.54
  11  -1   0    2.21    0.66
 -11  -1   0    2.23    0.57
  11   1   0    0.79    0.90
  11   1   0    2.11    0.70
 -11   1   0    3.44    0.82
  12  -1   0   -0.08    1.19
  12  -1   0    0.74    0.59
  12  -1   0    1.91    0.76
  12   1   0    1.28    1.03
  12   1   0    1.31    0.72
  13  -1   0    1.27    0.89
  13  -1   0    4.04    1.72
  13  -1   0   -0.37    0.72
  13   1   0    1.64    0.69
  13   1   0    0.85    0.93
  13   1   0    2.53    1.54
   0  -2   0   16.98    1.01
   0   2   0   16.90    0.96
   0   2   0   15.27    0.99
  -1  -2   0    1.93    0.22
  -1  -2   0    1.88    0.23
   1  -2   0    2.41    0.24
   1   2   0    1.63    0.21
  -1   2   0    2.14    0.28
  -1   2   0    2.18    0.29
   1   2   0    1.54    0.20
  -1   2   0    1.93    0.20
   2  -2   0    7.94    0.66
   2  -2   0    8.35    0.68
  -2  -2   0    9.62    0.58
  -2  -2   0    9.47    0.60
   2  -2   0    9.29    0.57
  -2  -2   0    8.33    0.56
   2   2   0    8.99    0.57
  -2   2   0    8.41    0.63
   2   2   0    9.50    0.58
  -2   2   0    7.70    0.63
  -2   2   0    8.65    0.59
   3  -2   0    2.85    0.39
  -3  -2   0    2.89    0.28
   3  -2   0    3.96    0.48
   3  -2   0    2.94    0.31
  -3  -2   0    2.73    0.28
  -3  -2   0    3.14    0.30
   3   2   0    3.07    0.28
  -3   2   0    3.71    0.40
  -3   2   0    2.93    0.32
  -3   2   0    3.00    0.32
   3   2   0    3.08    0.30
   4  -2   0    9.70    0.70
   4  -2   0    9.52    0.75
  -4  -2   0    8.28    0.64
  -4  -2   0    9.88    0.68
  -4  -2   0    9.77    0.66
  -4   2   0   10.22    0.69
  -4   2   0   11.03    0.77
   4   2   0    9.78    0.65
  -4   2   0    9.24    0.70
   4   2   0    9.61    0.69
   5  -2   0   14.74    1.05
  -5  -2   0   17.89    1.03
  -5  -2   0   16.89    1.00
  -5  -2   0   14.77    0.98
   5  -2   0   13.32    1.18
   5  -2   0   15.19    1.09
   5   2   0   15.35    1.07
   5   2   0   15.38    1.00
  -5   2   0   15.24    1.01
  -5   2   0   15.71    1.05
  -5   2   0   15.04    1.11
   6  -2   0    4.40    0.52
  -6  -2   0    3.60    0.41
   6  -2   0    4.56    0.71
   6  -2   0    3.72    0.50
   6   2   0    3.93    0.42
  -6   2   0    3.29    0.56
   6   2   0    3.44    0.54
  -6   2   0    4.67    0.50
  -7  -2   0    0.99    0.30
   7  -2   0    0.84    0.30
   7  -2   0    1.05    0.51
   7  -2   0    0.96    0.37
  -7  -2   0    0.78    0.23
   7   2   0    0.55    0.25
  -7   2   0    0.39    0.26
   7   2   0    0.24    0.38
  -7   2   0    1.36    0.41
   8  -2   0    0.83    0.58
   8  -2   0    0.05    0.36
   8  -2   0    0.26    0.33
  -8  -2   0    0.75    0.27
   8   2   0    0.25    0.28
  -8   2   0    0.06    0.31
   8   2   0    0.35    0.41
   9  -2   0   53.33    3.77
  -9  -2   0   54.72    3.35
   9  -2   0   55.34    3.48
   9  -2   0   58.69    3.48
  -9   2   0   55.67    3.41
  -9   2   0   59.97    3.52
   9   2   0   55.37    3.42
  10  -2   0    3.22    0.70
 -10  -2   0    2.64    0.67
  10  -2   0    4.18    1.04
 -10   2   0    2.65    0.68
  10   2   0    3.54    0.63
  10   2   0    2.64    0.79
 -10   2   0    2.21    0.61
  11  -2   0    2.71    1.17
  11  -2   0    0.01    0.59
  11  -2   0    0.44    0.53
 -11  -2   0    1.12    0.57
  11   2   0    1.21    0.57
 -11   2   0    2.77    0.80
  11   2   0    0.23    0.91
  12  -2   0    2.64    0.90
  12  -2   0    1.84    0.82
  12  -2   0    3.22    1.60
  12   2   0    0.85    1.21
  12   2   0    2.30    0.85
  13  -2   0    3.42    1.09
  13  -2   0    4.57    1.89
  13   2   0    0.63    0.98
  13   2   0    3.12    1.73
   0  -3   0    0.05    0.15
   0   3   0    0.02    0.20
   0   3   0   -0.01    0.15
   0   3   0   -0.28    0.20
   0   3   0    0.09    0.11
   0   3   0   -0.19    0.16
  -1  -3   0   23.85    1.62
   1  -3   0   25.41    1.59
   1   3   0   25.19    1.56
   1   3   0   27.94    1.56
  -1   3   0   24.92    1.60
  -1   3   0   26.98    1.60
  -1   3   0   27.04    1.56
   1   3   0   26.62    1.53
  -2  -3   0   22.83    1.47
  -2  -3   0   25.08    1.46
  -2   3   0   24.23    1.55
   2   3   0   22.57    1.43
  -2   3   0   24.43    1.52
   2   3   0   23.98    1.43
  -2   3   0   24.44    1.46
  -2   3   0   22.74    1.50
   3  -3   0    0.19    0.30
  -3  -3   0    0.13    0.16
   3  -3   0   -0.01    0.14
   3  -3   0    0.22    0.27
  -3  -3   0    0.04    0.19
  -3   3   0    0.30    0.19
   3   3   0    0.31    0.17
  -3   3   0   -0.32    0.24
   3   3   0    0.06    0.16
  -3   3   0    0.11    0.17
  -4  -3   0   80.86    4.91
  -4  -3   0   85.20    4.90
   4  -3   0   83.40    5.06
   4  -3   0   82.80    4.91
   4  -3   0   77.61    5.03
  -4  -3   0   85.31    4.94
  -4   3   0   85.61    4.96
   4   3   0   84.09    4.94
  -4   3   0   99.17    5.03
  -4   3   0   88.71    4.99
   4   3   0   87.37    4.90
   5  -3   0   66.93    4.37
   5  -3   0   75.99    4.42
  -5  -3   0   65.16    4.22
   5  -3   0   72.05    4.26
  -5  -3   0   72.72    4.22
   5   3   0   71.80    4.28
  -5   3   0   77.45    4.35
   5   3   0   76.78    4.23
  -5   3   0   78.25    4.30
   6  -3   0   64.87    4.23
   6  -3   0   69.00    4.07
  -6  -3   0   69.42    4.02
   6  -3   0   71.16    4.20
  -6  -3   0   64.40    4.02
  -6  -3   0   70.08    4.07
   6   3   0   70.58    4.03
   6   3   0   67.85    4.11
  -6   3   0   61.37    4.13
  -6   3   0   76.28    4.11
  -6   3   0   74.57    4.08
  -7  -3   0    4.31    0.54
  -7  -3   0    5.59    0.65
   7  -3   0    3.59    0.60
   7  -3   0    5.15    0.73
   7  -3   0    5.89    1.01
   7   3   0    3.61    0.53
  -7   3   0    5.27    0.74
   7   3   0    5.35    0.72
  -7   3   0    3.92    0.54
   8  -3   0    5.73    1.01
  -8  -3   0    7.16    0.72
   8  -3   0    6.01    0.82
   8  -3   0    7.40    0.96
   8   3   0    7.63    0.76
   8   3   0    8.00    0.99
  -8   3   0    7.57    0.84
  -8   3   0    6.45    1.03
   9  -3   0   29.62    2.23
  -9  -3   0   34.94    2.14
  -9  -3   0   33.45    2.25
   9   3   0   32.37    2.23
   9   3   0   32.75    2.38
  -9   3   0   32.66    2.21
  -9   3   0   37.95    2.40
  10  -3   0   21.98    1.80
  10  -3   0   27.59    2.36
 -10  -3   0   22.53    1.68
  10  -3   0   21.85    1.89
  10   3   0   26.85    2.05
  10   3   0   21.39    1.70
 -10   3   0   21.51    1.89
  11  -3   0    2.84    0.90
  11  -3   0    3.79    0.98
 -11  -3   0    3.03    0.80
  11  -3   0    7.22    1.94
  11   3   0    4.08    1.03
 -11   3   0    5.32    1.07
  11   3   0    4.83    0.87
  12  -3   0   -1.44    0.95
  12  -3   0    4.72    1.93
  12  -3   0    2.73    1.11
  12   3   0    0.17    0.79
  12   3   0    0.51    1.23
   0  -4   0   22.78    1.35
   0   4   0   20.53    1.32
   0   4   0   19.59    1.28
   0   4   0   22.15    1.67
   0   4   0   20.45    1.39
   0   4   0   19.92    1.33
  -1  -4   0    1.06    0.29
   1  -4   0    1.07    0.28
   1   4   0    0.88    0.23
  -1   4   0    1.41    0.26
   1   4   0    0.98    0.20
  -1   4   0    0.98    0.39
  -1   4   0    1.34    0.33
  -1   4   0    0.80    0.30
  -1   4   0    0.86    0.35
   1   4   0    0.85    0.24
  -2  -4   0    3.39    0.41
   2  -4   0    3.43    0.41
  -2  -4   0    2.88    0.48
  -2   4   0    3.81    0.57
   2   4   0    3.23    0.38
  -2   4   0    3.36    0.48
   2   4   0    3.21    0.35
  -2   4   0    3.15    0.50
  -2   4   0    3.51    0.59
  -2   4   0    3.75    0.43
   2   4   0    3.71    0.43
  -3  -4   0    2.49    0.47
   3  -4   0    2.64    0.41
  -3  -4   0    2.52    0.38
  -3   4   0    2.39    0.47
   3   4   0    2.25    0.39
   3   4   0    2.29    0.36
   3   4   0    3.15    0.34
  -3   4   0    2.44    0.48
  -3   4   0    2.48    0.38
  -3   4   0    3.19    0.52
  -4  -4   0    1.78    0.35
  -4  -4   0    2.28    0.41
   4  -4   0    2.72    0.60
   4  -4   0    3.31    0.50
  -4   4   0    3.69    0.54
   4   4   0    2.72    0.35
   4   4   0    3.09    0.44
  -4   4   0    2.39    0.51
  -4   4   0    2.66    0.42
  -4   4   0    2.88    0.46
  -5  -4   0   33.22    2.14
  -5  -4   0   34.81    2.08
   5  -4   0   30.72    2.31
   5   4   0   34.59    2.07
   5   4   0   32.69    2.12
  -5   4   0   34.23    2.17
  -5   4   0   38.64    2.24
  -5   4   0   33.12    2.17
   6  -4   0    0.12    0.64
   6  -4   0    0.09    0.28
  -6  -4   0    0.19    0.37
   6  -4   0   -0.41    0.49
  -6  -4   0   -0.19    0.26
   6   4   0    0.59    0.26
  -6   4   0    0.25    0.39
  -6   4   0   -0.06    0.30
  -6   4   0    0.36    0.44
   6   4   0   -0.09    0.35
  -7  -4   0    0.13    0.33
  -7  -4   0   -0.19    0.29
   7  -4   0    0.72    0.68
   7  -4   0    0.38    0.58
   7  -4   0   -0.08    0.37
   7   4   0   -0.20    0.46
  -7   4   0    0.06    0.44
   7   4   0   -0.09    0.27
  -7   4   0    1.00    0.47
   8  -4   0    2.20    0.56
  -8  -4   0    1.85    0.63
   8  -4   0    2.19    0.74
   8  -4   0    1.00    0.98
  -8  -4   0    2.08    0.47
  -8   4   0    1.44    0.62
   8   4   0    1.89    0.45
   8   4   0    2.15    0.63
  -8   4   0    1.58    0.69
  -9  -4   0   -0.45    0.47
   9  -4   0    1.18    0.76
   9  -4   0    0.06    0.53
   9  -4   0   -0.31    1.10
   9   4   0   -0.37    0.47
  -9   4   0    0.12    0.71
   9   4   0    1.14    0.70
  -9   4   0    0.12    0.76
  10  -4   0   -0.75    1.41
  10  -4   0    0.98    0.92
  10  -4   0   -1.11    0.81
 -10  -4   0    0.67    0.65
 -10   4   0    0.64    1.17
 -10   4   0    1.21    0.92
  10   4   0   -0.03    0.59
  10   4   0   -0.27    0.81
  11  -4   0    0.69    0.92
  11  -4   0    2.73    1.12
 -11   4   0    3.25    1.41
  11   4   0    0.74    1.02
 -11   4   0    5.14    1.56
  11   4   0    0.73    0.80
   0  -5   0   -0.01    0.25
   0   5   0    0.05    0.26
   0   5   0   -0.11    0.26
   0   5   0    0.02    0.40
   0   5   0   -0.19    0.32
   1  -5   0    0.18    0.29
  -1  -5   0    0.81    0.33
  -1   5   0    0.37    0.36
   1   5   0    0.52    0.46
   1   5   0    0.47    0.31
  -1   5   0    0.80    0.30
  -1   5   0    0.35    0.42
   1   5   0    0.42    0.25
  -1   5   0    0.82    0.33
   2  -5   0    2.32    0.40
  -2  -5   0    2.34    0.38
   2   5   0    2.40    0.34
  -2   5   0    2.09    0.48
   2   5   0    2.10    0.33
  -2   5   0    2.52    0.39
  -2   5   0    2.42    0.48
   2   5   0    1.80    0.37
  -2   5   0    1.75    0.47
  -3  -5   0    0.35    0.24
   3  -5   0    0.03    0.29
  -3   5   0    1.08    0.46
  -3   5   0   -0.27    0.41
  -3   5   0   -0.16    0.36
  -3   5   0    0.42    0.42
   3   5   0    0.08    0.25
   3   5   0   -0.13    0.23
   3   5   0   -0.28    0.27
  -4  -5   0    4.76    0.66
   4  -5   0    5.25    0.61
  -4  -5   0    4.49    0.59
   4   5   0    5.29    0.60
  -4   5   0    5.62    0.80
   4   5   0    4.19    0.55
  -4   5   0    6.16    0.80
  -4   5   0    5.11    0.79
   4   5   0    4.91    0.62
  -4   5   0    5.55    0.91
  -5  -5   0    0.47    0.30
   5  -5   0   -0.52    0.68
  -5  -5   0    0.41    0.47
   5  -5   0   -0.24    0.30
  -5   5   0    0.22    0.49
   5   5   0    0.65    0.33
  -5   5   0    0.66    0.58
   5   5   0    0.40    0.38
  -5   5   0   -0.48    0.49
   5   5   0    0.55    0.33
  -5   5   0    1.25    0.48
  -6  -5   0   -0.30    0.57
   6  -5   0    0.36    0.75
   6  -5   0    0.16    0.41
  -6  -5   0    0.04    0.34
  -6   5   0   -0.07    0.54
   6   5   0    0.28    0.37
  -6   5   0   -1.05    0.50
   6   5   0    0.24    0.45
  -6   5   0   -0.11    0.55
  -6   5   0    0.07    0.66
   7  -5   0    4.82    0.79
  -7  -5   0    5.53    0.88
   7  -5   0    6.12    1.19
  -7  -5   0    4.52    0.67
   7   5   0    6.35    0.98
   7   5   0    4.76    0.77
  -7   5   0    7.01    1.10
  -7   5   0    5.83    0.81
   8  -5   0    6.48    1.24
   8  -5   0    8.21    1.43
   8  -5   0    5.96    0.91
  -8   5   0    5.34    1.13
  -8   5   0    6.31    1.00
  -8   5   0    7.29    1.30
   8   5   0    7.19    1.25
   8   5   0    7.08    0.93
   9  -5   0   -1.41    1.35
   9  -5   0    0.72    1.04
   9   5   0    0.27    0.85
  -9   5   0   -1.39    1.10
   9   5   0   -0.21    0.57
  10  -5   0    0.76    1.25
  10   5   0   -0.11    1.06
 -10   5   0    0.55    1.53
  10   5   0    2.69    0.83
   0  -6   0   -0.28    0.35
   0   6   0    0.46    0.48
   0   6   0    1.05    0.51
   0   6   0   -0.55    0.68
   1  -6   0   18.02    1.35
  -1  -6   0   22.38    1.36
  -1   6   0   20.64    1.84
  -1   6   0   18.36    1.53
  -1   6   0   18.58    1.38
   1   6   0   18.33    1.41
   1   6   0   18.72    1.37
   1   6   0   16.20    1.76
  -2  -6   0    0.38    0.35
   2  -6   0    0.13    0.35
   2   6   0   -0.26    0.36
  -2   6   0    0.82    0.71
  -2   6   0    0.54    0.61
  -2   6   0    0.43    0.51
   2   6   0   -0.23    0.38
  -3  -6   0    1.65    0.40
   3  -6   0    2.42    0.51
  -3   6   0    3.16    0.75
   3   6   0    2.62    0.50
   3   6   0    2.77    0.82
  -3   6   0    3.26    0.64
   3   6   0    3.16    0.50
  -3   6   0    1.78    0.81
   4  -6   0   48.97    3.17
  -4  -6   0   46.41    3.08
   4   6   0   51.97    3.09
  -4   6   0   56.71    3.28
  -4   6   0   54.01    3.24
  -4   6   0   46.92    3.25
   4   6   0   50.69    3.11
  -4   6   0   53.28    3.36
  -5  -6   0   -0.04    0.38
   5  -6   0    0.35    0.43
   5   6   0    0.70    0.45
  -5   6   0    0.44    0.73
  -5   6   0    0.85    0.78
   5   6   0   -0.43    0.49
  -5   6   0   -0.44    0.80
   5   6   0   -0.83    0.45
  -6  -6   0    2.20    0.92
   6  -6   0    2.90    0.59
  -6  -6   0    2.56    0.50
   6   6   0    3.63    0.63
  -6   6   0    4.49    1.18
  -6   6   0    2.12    0.90
   6   6   0    3.91    0.74
  -6   6   0    3.07    0.79
   6   6   0    1.90    0.60
  -7  -6   0    4.95    0.78
   7  -6   0    4.09    0.77
   7   6   0    4.72    0.73
   7   6   0    5.12    0.91
   7   6   0    2.85    0.91
  -7   6   0    4.00    1.32
   8  -6   0    0.58    0.53
   8   6   0    3.31    1.02
  -8   6   0    0.33    1.34
   8   6   0    0.50    0.67
   0  -7   0   -0.14    0.37
   0   7   0    0.44    0.66
   0   7   0   -1.35    0.69
  -1  -7   0    0.49    0.45
   1   7   0    1.63    0.61
  -1   7   0    1.73    0.74
  -1   7   0    3.28    0.75
   1   7   0    0.70    0.69
  -2  -7   0   -0.42    0.37
   2  -7   0    0.08    0.42
  -2   7   0   -0.86    0.84
   2   7   0   -0.37    0.54
  -2   7   0    0.05    0.87
   2   7   0    1.67    0.70
   3  -7   0    0.69    0.54
  -3  -7   0    0.18    0.42
   3   7   0    1.64    0.73
  -3   7   0   -0.13    0.95
   3   7   0    0.58    0.60
  -4  -7   0    2.70    0.54
   4  -7   0    2.46    0.57
   4   7   0    2.97    0.69
  -4   7   0    3.07    1.10
   4   7   0    3.09    0.85
   5  -7   0    3.57    0.73
  -5   7   0    4.72    1.24
   5   7   0    5.04    1.37
   5   7   0    3.73    0.76
   6  -7   0    2.29    0.66
  -6  -7   0    1.64    0.63
  -6   7   0    1.19    1.43
  -6   7   0    2.61    1.26
   6   7   0    3.30    0.75
  13   0  -1   -0.60    0.60
  13   0  -1    2.61    1.54
  13   0  -1    0.10    0.82
  12   0  -1    0.29    0.65
  12   0  -1   -0.89    0.46
  12   0  -1    0.05    1.12
  11   0  -1    0.02    0.35
 -11   0   1   -0.09    0.51
  11   0  -1    0.23    0.86
  11   0  -1   -0.91    0.49
  10   0  -1   -0.28    0.29
  10   0  -1    0.87    0.71
 -10   0   1   -0.99    0.52
  10   0  -1   -0.20    0.39
 -10   0   1   -0.58    0.39
   9   0  -1   -0.17    0.29
   9   0  -1    0.39    0.24
  -9   0   1    0.65    0.40
   9   0  -1   -0.48    0.56
  -9   0   1    0.67    0.32
   8   0  -1    0.08    0.25
  -8   0   1   -0.36    0.23
  -8   0   1    0.25    0.35
   8   0  -1   -0.30    0.43
   7   0  -1   -0.48    0.34
  -7   0   1   -0.11    0.24
   7   0  -1   -0.02    0.22
  -7   0   1   -0.04    0.17
  -6   0   1    0.12    0.15
  -6   0   1   -0.20    0.21
   6   0  -1   -0.17    0.17
   6   0  -1   -0.05    0.28
   5   0  -1   -0.14    0.14
  -5   0   1   -0.02    0.11
  -5   0   1    0.01    0.18
   5   0  -1    0.04    0.19
  -4   0   1   -0.14    0.08
   4   0  -1    0.02    0.10
   4   0  -1    0.01    0.17
  -4   0   1   -0.04    0.15
  -3   0   1    0.04    0.11
   3   0  -1    0.02    0.13
  -3   0   1    0.00    0.08
   3   0  -1   -0.05    0.08
   2   0  -1   -0.20    0.05
  -2   0   1   -0.21    0.05
  -2   0   1   -0.17    0.08
   2   0  -1   -0.27    0.09
   1   0   1    0.01    0.03
  -1   0  -1    0.03    0.04
   1   0   1    0.00    0.04
   2   0   1   -0.81    0.06
  -2   0  -1   -0.80    0.05
   2   0   1   -0.83    0.09
  -2   0  -1   -0.78    0.07
  -3   0  -1    0.02    0.07
   3   0   1    0.11    0.12
   3   0   1    0.10    0.09
  -3   0  -1    0.03    0.11
   4   0   1   -0.05    0.11
  -4   0  -1    0.18    0.14
   4   0   1    0.00    0.18
  -4   0  -1    0.01    0.10
   5   0   1    0.22    0.15
  -5   0  -1   -0.02    0.13
  -5   0  -1    0.22    0.18
   5   0   1    0.02    0.23
   6   0   1    0.25    0.18
  -6   0  -1   -0.02    0.15
   6   0   1   -0.23    0.24
  -6   0  -1    0.04    0.20
  -7   0  -1   -0.14    0.23
  -7   0  -1   -0.08    0.26
   7   0   1   -0.07    0.36
   7   0   1   -0.15    0.20
  -8   0  -1    0.40    0.36
   8   0   1   -0.05    0.30
   8   0   1   -0.43    0.41
   9   0   1   -0.20    0.54
  -9   0  -1   -0.75    0.51
   9   0   1   -0.37    0.31
  -9   0  -1    0.35    0.41
  10   0   1    0.02    0.43
 -10   0  -1   -0.68    0.40
  10   0   1    0.47    0.33
  10   0   1    0.26    0.71
 -10   0  -1    0.03    0.52
  11   0   1   -0.07    0.39
  11   0   1    0.53    0.90
  11   0   1    0.08    0.53
 -11   0  -1    0.51    0.58
 -11   0  -1    1.10    0.72
  12   0   1   -0.31    0.68
  12   0   1   -0.34    1.21
  12   0   1   -0.17    0.47
  13   0   1   -0.22    0.63
  13   0   1    0.62    1.52
  13   0   1    1.58    1.02
  13  -1  -1    8.35    1.91
  13  -1  -1    5.36    0.92
  13  -1  -1    4.45    1.08
  13   1  -1    5.43    0.87
  13   1  -1    5.54    1.90
  13   1  -1    6.03    1.12
  12  -1  -1    1.70    0.74
  12  -1  -1    2.41    0.71
  12  -1  -1    3.06    1.32
  12   1  -1    3.83    1.28
  12   1  -1    2.49    0.78
 -11  -1   1    2.12    0.77
  11  -1  -1    1.54    0.96
  11  -1  -1    1.39    0.63
 -11  -1   1   -0.08    0.51
 -11   1   1    0.35    0.63
  11   1  -1    1.59    0.95
  11   1  -1    1.14    0.56
 -11   1   1    1.53    0.77
  10  -1  -1    1.23    0.56
  10  -1  -1    1.81    0.43
  10  -1  -1    2.46    0.90
 -10  -1   1    1.86    0.59
 -10   1   1    0.63    0.47
  10   1  -1    1.79    0.51
 -10   1   1    1.95    0.60
  10   1  -1    1.63    0.79
   9  -1  -1    0.75    0.42
   9  -1  -1    0.86    0.31
  -9  -1   1    1.12    0.34
   9  -1  -1    1.30    0.65
  -9  -1   1    1.13    0.41
   9   1  -1    0.40    0.32
  -9   1   1    0.81    0.48
   9   1  -1    1.20    0.59
   8  -1  -1   -0.42    0.48
  -8  -1   1   -0.23    0.22
  -8  -1   1    0.05    0.32
   8  -1  -1    0.11    0.22
   8  -1  -1   -0.09    0.28
  -8   1   1    0.12    0.25
  -8   1   1    0.02    0.36
   8   1  -1   -0.16    0.43
   8   1  -1    0.05    0.27
   7  -1  -1    1.54    0.51
  -7  -1   1    1.17    0.30
   7  -1  -1    0.97    0.25
  -7  -1   1    1.25    0.25
   7  -1  -1    0.90    0.32
  -7   1   1    0.70    0.26
  -7   1   1    0.98    0.37
   7   1  -1    1.47    0.41
   7   1  -1    1.36    0.29
   6  -1  -1    1.45    0.31
  -6  -1   1    1.74    0.31
  -6  -1   1    1.45    0.23
   6  -1  -1    1.39    0.26
   6  -1  -1    1.80    0.47
   6   1  -1    1.48    0.39
  -6   1   1    1.59    0.26
  -6   1   1    1.24    0.32
   6   1  -1    1.33    0.24
   5  -1  -1    4.86    0.47
  -5  -1   1    4.63    0.45
   5  -1  -1    4.14    0.58
  -5  -1   1    5.19    0.39
   5  -1  -1    4.86    0.41
  -5   1   1    4.28    0.51
  -5   1   1    5.04    0.42
   5   1  -1    4.54    0.41
   5   1  -1    4.10    0.51
  -4  -1   1   24.39    1.35
  -4  -1   1   21.57    1.30
   4  -1  -1   21.01    1.42
   4  -1  -1   21.23    1.35
   4  -1  -1   21.46    1.33
   4   1  -1   23.35    1.38
  -4   1   1   20.01    1.33
   4   1  -1   21.43    1.32
   3  -1  -1   63.18    3.51
  -3  -1   1   60.95    3.47
   3  -1  -1   56.98    3.51
   3  -1  -1   65.54    3.58
  -3  -1   1   64.38    3.50
  -3   1   1   58.09    3.51
   3   1  -1   61.43    3.48
  -3   1   1   64.50    3.49
  -3   1   1   52.67    3.54
   3   1  -1   61.30    3.51
   2  -1  -1  112.30    6.50
  -2  -1   1  124.74    6.47
   2  -1  -1  109.61    6.50
  -2  -1   1  107.67    6.47
  -2  -1   1  113.55    6.46
   2  -1  -1  130.79    6.55
  -2   1   1  119.97    6.53
  -2   1   1  115.07    6.50
  -2   1   1  115.37    6.49
   2   1  -1  100.49    6.46
   2   1  -1  108.96    6.48
  -1  -1   1    8.52    0.48
   1  -1  -1    7.50    0.54
  -1  -1   1    7.03    0.49
   1  -1  -1    8.32    0.54
   1  -1  -1    6.99    0.51
  -1   1   1    8.12    0.56
  -1   1   1    8.78    0.51
   1   1  -1    8.16    0.48
   1   1  -1    8.42    0.49
  -1   1   1    8.67    0.54
   0  -1  -1   14.60    0.80
   0  -1   1   13.28    0.78
   0  -1  -1   12.50    0.79
   0  -1  -1   13.80    0.77
   0  -1  -1   13.07    0.80
   0   1   1   13.29    0.80
   0   1   1   12.46    0.79
   0   1  -1   13.27    0.82
  -1  -1  -1  142.65    7.65
   1  -1   1  137.37    7.68
   1  -1   1  133.96    7.66
  -1  -1  -1  135.33    7.64
   1  -1   1  136.32    7.63
  -1  -1  -1  135.08    7.64
   1   1   1  129.30    7.64
  -1   1  -1  139.56    7.64
  -1   1  -1  139.33    7.65
  -1   1  -1  128.75    7.66
   1   1   1  129.86    7.65
   2  -1   1    0.06    0.11
   2  -1   1    0.05    0.13
  -2  -1  -1    0.38    0.12
   2   1   1    0.46    0.11
  -2   1  -1    0.23    0.13
  -2   1  -1    0.26    0.11
  -2   1  -1    0.17    0.10
  -3  -1  -1   36.30    2.06
  -3  -1  -1   35.47    2.08
   3  -1   1   33.50    2.08
   3  -1   1   36.00    2.13
  -3  -1  -1   35.57    2.06
   3  -1   1   34.24    2.08
  -3   1  -1   33.83    2.10
   3   1   1   37.86    2.09
  -3   1  -1   38.12    2.08
   3   1   1   34.25    2.06
   4  -1   1   25.62    1.43
  -4  -1  -1   22.46    1.42
   4  -1   1   24.23    1.44
   4  -1   1   21.73    1.49
  -4  -1  -1   23.18    1.39
  -4   1  -1   24.11    1.41
   4   1   1   21.94    1.44
   4   1   1   23.11    1.40
   5  -1   1    1.52    0.37
  -5  -1  -1    0.97    0.18
  -5  -1  -1    1.56    0.28
   5  -1   1    1.21    0.25
   5  -1   1    1.13    0.23
  -5   1  -1    2.14    0.34
  -5   1  -1    1.45    0.22
   5   1   1    1.19    0.23
   5   1   1    1.66    0.31
   6  -1   1    5.95    0.51
   6  -1   1    5.79    0.74
   6  -1   1    5.35    0.56
  -6  -1  -1    5.53    0.49
  -6  -1  -1    6.22    0.56
  -6   1  -1    5.94    0.51
   6   1   1    5.78    0.64
  -6   1  -1    5.43    0.58
   6   1   1    6.42    0.52
   7  -1   1   14.14    0.98
   7  -1   1   14.34    1.23
  -7  -1  -1   13.45    0.99
  -7  -1  -1   15.55    1.04
   7  -1   1   12.80    1.03
   7   1   1   13.79    1.14
   7   1   1   13.69    0.99
  -7   1  -1   14.76    1.06
  -7   1  -1   13.09    0.98
   8  -1   1    1.17    0.57
  -8  -1  -1    1.13    0.29
   8  -1   1    0.79    0.27
  -8  -1  -1    1.20    0.38
   8  -1   1    0.64    0.34
   8   1   1    1.49    0.47
   8   1   1    1.05    0.34
  -8   1  -1    1.43    0.43
  -9  -1  -1    1.55    0.38
   9  -1   1    1.65    0.37
   9  -1   1    1.27    0.44
  -9  -1  -1    1.01    0.48
   9  -1   1    1.81    0.77
   9   1   1    1.75    0.43
   9   1   1    1.40    0.61
  -9   1  -1    0.75    0.48
  10  -1   1    0.35    0.35
 -10  -1  -1   -0.13    0.39
  10  -1   1    0.89    0.80
  10  -1   1    1.83    0.60
 -10  -1  -1    1.11    0.55
 -10   1  -1    1.23    0.54
  10   1   1    0.55    0.64
  10   1   1    0.67    0.44
 -10   1  -1    1.44    0.52
  11  -1   1    0.58    0.94
  11  -1   1    0.88    0.62
  11  -1   1    0.95    0.52
 -11  -1  -1    0.60    0.56
 -11   1  -1    2.55    0.72
  11   1   1    0.36    0.83
  11   1   1    0.87    0.57
  12  -1   1    1.72    0.62
  12  -1   1    2.62    1.30
  12  -1   1    1.66    0.84
  12   1   1    0.90    1.23
  12   1   1    1.25    0.73
  13  -1   1    0.63    1.72
  13  -1   1    0.58    0.88
  13  -1   1   -0.76    0.77
  13   1   1    0.78    1.53
  13   1   1    1.47    0.96
  13   1   1    0.52    0.70
  13  -2  -1    3.29    1.05
  13  -2  -1    2.72    1.82
  13  -2  -1    2.46    1.01
  13   2  -1    1.36    0.93
  13   2  -1    4.19    1.61
 -13   2   1    1.56    1.49
 -12  -2   1    2.54    0.83
  12  -2  -1    2.25    0.79
  12  -2  -1    3.14    1.42
  12  -2  -1    0.97    0.69
  12   2  -1    0.94    0.70
  12   2  -1    0.02    1.15
 -11  -2   1    1.25    0.53
  11  -2  -1    1.31    1.18
  11  -2  -1    0.44    0.59
  11  -2  -1    0.31    0.66
  11   2  -1    1.22    0.55
 -11   2   1    2.87    0.86
  11   2  -1    0.61    0.88
 -10  -2   1    1.76    0.65
  10  -2  -1    1.81    0.54
  10  -2  -1    3.46    1.00
 -10  -2   1    0.70    0.39
  10  -2  -1    1.81    0.61
  10   2  -1    1.70    0.52
  10   2  -1    0.79    0.72
 -10   2   1    1.96    0.69
 -10   2   1    1.76    0.52
  -9  -2   1    3.86    0.58
   9  -2  -1    2.98    0.60
   9  -2  -1    3.16    0.56
   9  -2  -1    2.72    0.84
  -9   2   1    3.58    0.70
   9   2  -1    2.74    0.77
   9   2  -1    3.19    0.51
   8  -2  -1    7.46    1.11
   8  -2  -1    5.83    0.68
   8  -2  -1    4.71    0.69
  -8   2   1    5.27    0.62
  -8   2   1    4.73    0.83
   8   2  -1    5.41    0.60
   8   2  -1    4.23    0.81
  -7  -2   1    4.22    0.54
  -7  -2   1    4.64    0.47
   7  -2  -1    3.54    0.55
   7  -2  -1    4.06    0.57
   7  -2  -1    4.36    0.71
   7   2  -1    4.37    0.49
   7   2  -1    4.79    0.68
  -7   2   1    4.54    0.53
  -7   2   1    3.60    0.64
   6  -2  -1    0.87    0.49
   6  -2  -1   -0.08    0.21
  -6  -2   1   -0.17    0.22
  -6  -2   1    0.29    0.17
   6  -2  -1    0.15    0.25
  -6   2   1   -0.04    0.22
   6   2  -1    0.26    0.19
   6   2  -1    0.02    0.28
  -6   2   1    0.05    0.31
   5  -2  -1    4.52    0.50
   5  -2  -1    4.50    0.50
  -5  -2   1    4.57    0.39
  -5  -2   1    4.21    0.43
   5  -2  -1    3.17    0.55
   5   2  -1    4.81    0.50
   5   2  -1    4.82    0.41
  -5   2   1    3.48    0.54
  -5   2   1    5.50    0.44
  -5   2   1    4.76    0.48
  -4  -2   1   14.04    0.86
  -4  -2   1   13.76    0.89
  -4  -2   1   12.84    0.87
   4  -2  -1   14.27    0.98
   4  -2  -1   14.54    0.94
   4  -2  -1   12.52    1.05
  -4   2   1   15.47    0.92
   4   2  -1   14.14    0.87
  -4   2   1   14.55    0.94
   4   2  -1   13.50    0.92
  -4   2   1   11.84    0.99
  -3  -2   1   11.34    0.76
  -3  -2   1   12.52    0.78
   3  -2  -1   12.28    0.81
  -3  -2   1   12.11    0.77
   3  -2  -1   12.30    0.92
   3  -2  -1   14.45    0.90
  -3   2   1   12.13    0.82
  -3   2   1   12.49    0.82
  -3   2   1   11.42    0.87
   3   2  -1   12.42    0.76
   3   2  -1   12.64    0.79
  -2  -2   1    8.65    0.52
  -2  -2   1    7.26    0.52
   2  -2  -1    8.13    0.63
   2  -2  -1    7.23    0.64
   2  -2  -1    8.09    0.54
  -2   2   1    7.22    0.58
   2   2  -1    7.89    0.51
  -2   2   1    8.65    0.55
   2   2  -1    6.96    0.50
  -1  -2   1  297.32   16.66
   1  -2  -1  328.54   16.70
   1  -2  -1  284.28   16.64
   1  -2  -1  329.15   16.72
  -1   2   1  281.70   16.73
  -1   2   1  291.51   16.67
   1   2  -1  270.00   16.64
  -1   2   1  281.13   16.69
   0  -2   1   62.07    3.30
   0  -2  -1   60.05    3.31
   0   2   1   54.64    3.29
   0   2   1   50.66    3.30
   0   2   1   60.83    3.28
   0   2  -1   55.32    3.35
  -1  -2  -1   42.06    2.67
  -1  -2  -1   42.22    2.64
   1  -2   1   47.93    2.67
  -1  -2  -1   44.15    2.66
   1  -2   1   49.92    2.75
   1   2   1   45.66    2.66
  -1   2  -1   47.01    2.64
   1   2   1   45.28    2.64
  -1   2  -1   47.40    2.67
  -1   2  -1   49.93    2.73
   1   2   1   45.26    2.66
  -2  -2  -1   39.87    2.33
   2  -2   1   42.00    2.42
  -2  -2  -1   38.45    2.34
   2  -2   1   40.87    2.30
  -2  -2  -1   40.69    2.33
   2  -2   1   46.75    2.39
   2   2   1   40.43    2.32
  -2   2  -1   37.62    2.33
   2   2   1   39.78    2.33
  -2   2  -1   38.90    2.38
  -2   2  -1   35.96    2.35
  -3  -2  -1    0.03    0.26
  -3  -2  -1   -0.09    0.13
   3  -2   1    0.24    0.20
   3  -2   1    0.12    0.24
  -3  -2  -1    0.31    0.14
   3  -2   1   -0.04    0.11
  -3   2  -1   -0.06    0.17
   3   2   1   -0.04    0.10
  -3   2  -1   -0.01    0.10
  -3   2  -1   -0.11    0.12
   3   2   1    0.14    0.12
  -4  -2  -1   50.96    3.04
  -4  -2  -1   55.60    3.05
   4  -2   1   47.67    3.15
   4  -2   1   53.73    3.13
   4  -2   1   54.06    3.08
  -4  -2  -1   53.60    3.07
  -4   2  -1   53.08    3.08
   4   2   1   52.92    3.08
  -4   2  -1   53.04    3.12
  -4   2  -1   51.81    3.07
   4   2   1   50.60    3.04
  -5  -2  -1   65.09    3.61
  -5  -2  -1   56.48    3.56
   5  -2   1   64.04    3.67
   5  -2   1   67.39    3.74
   5  -2   1   61.89    3.62
  -5  -2  -1   57.38    3.57
  -5   2  -1   62.77    3.61
   5   2   1   57.55    3.62
   5   2   1   62.19    3.58
   6  -2   1    0.58    0.44
  -6  -2  -1    0.67    0.23
   6  -2   1    0.70    0.28
   6  -2   1    0.26    0.27
  -6  -2  -1    0.48    0.29
  -6   2  -1    0.40    0.23
   6   2   1    0.31    0.18
   6   2   1    0.57    0.30
  -6   2  -1    0.70    0.29
   7  -2   1    0.94    0.47
   7  -2   1    0.31    0.26
  -7  -2  -1    0.54    0.25
  -7  -2  -1    0.93    0.32
   7  -2   1    0.66    0.33
   7   2   1    0.59    0.38
  -7   2  -1    0.33    0.33
   7   2   1    0.63    0.26
  -7   2  -1    0.09    0.28
  -8  -2  -1    2.45    0.39
   8  -2   1    1.58    0.68
   8  -2   1    2.14    0.43
   8  -2   1    2.13    0.46
   8   2   1    2.08    0.39
  -8   2  -1    1.42    0.38
   8   2   1    2.24    0.58
   9  -2   1    7.89    1.32
   9  -2   1    5.76    0.86
   9  -2   1    7.79    0.85
  -9  -2  -1    8.24    0.80
   9   2   1    7.05    0.89
   9   2   1    8.31    1.38
  -9   2  -1    7.44    0.93
  -9   2  -1    7.64    0.86
  10  -2   1    2.37    0.64
  10  -2   1    3.30    0.65
 -10  -2  -1    2.83    0.68
  10  -2   1    2.49    1.04
 -10   2  -1    3.24    0.62
  10   2   1    3.57    0.64
  10   2   1    3.38    0.82
 -10   2  -1    3.34    0.72
 -11  -2  -1    0.11    0.59
  11  -2   1   -0.53    0.61
  11  -2   1    1.73    1.19
  11  -2   1    1.00    0.60
  11   2   1    0.64    0.58
  11   2   1   -0.47    0.83
 -11   2  -1    1.37    0.85
  12  -2   1    0.30    0.69
  12  -2   1    1.00    0.85
  12  -2   1    4.08    1.53
  12   2   1    0.38    1.21
  12   2   1    1.51    0.79
  13  -2   1    2.00    1.03
  13  -2   1    1.10    1.03
  13  -2   1    1.07    1.84
  13   2   1    0.63    0.98
  13   2   1   -1.58    1.56
  12  -3  -1    0.01    0.95
 -12  -3   1    2.57    1.13
  12  -3  -1    0.68    1.00
  12  -3  -1   -0.67    1.53
 -12   3   1    3.41    1.46
  12   3  -1   -1.48    1.13
  12   3  -1    0.47    0.75
  11  -3  -1    1.20    1.46
  11  -3  -1    0.37    0.77
  11  -3  -1   -1.38    0.71
  11   3  -1    0.75    0.64
  11   3  -1   -0.17    0.88
 -11   3   1   -0.60    0.86
  10  -3  -1    1.43    1.04
  10  -3  -1   -0.37    0.51
 -10  -3   1    1.07    0.54
  10  -3  -1    0.53    0.68
 -10   3   1   -0.47    0.74
  10   3  -1    1.09    0.76
  10   3  -1    0.31    0.49
  -9  -3   1   20.95    1.50
  -9  -3   1   22.39    1.62
   9  -3  -1   20.07    1.64
   9  -3  -1   25.45    2.11
   9  -3  -1   20.30    1.71
  -9   3   1   24.29    1.79
  -9   3   1   20.64    1.59
   9   3  -1   21.91    1.78
   8  -3  -1    2.11    0.76
  -8  -3   1    1.43    0.35
   8  -3  -1    1.02    0.49
   8  -3  -1    0.99    0.47
   8   3  -1    1.13    0.37
   8   3  -1    1.51    0.51
  -8   3   1   -0.05    0.45
   7  -3  -1    0.64    0.35
  -7  -3   1    0.44    0.33
   7  -3  -1    0.94    0.58
   7  -3  -1    0.78    0.39
  -7  -3   1    0.17    0.26
  -7   3   1    0.36    0.34
   7   3  -1    0.30    0.41
  -7   3   1    0.56    0.46
   7   3  -1    0.09    0.26
  -6  -3   1   19.94    1.28
   6  -3  -1   21.29    1.50
   6  -3  -1   24.58    1.67
  -6  -3   1   19.10    1.29
   6  -3  -1   19.60    1.36
  -6  -3   1   19.70    1.34
  -6   3   1   19.69    1.34
   6   3  -1   18.20    1.38
   6   3  -1   19.97    1.29
  -6   3   1   20.51    1.40
  -6   3   1   21.41    1.48
   5  -3  -1   49.64    3.03
  -5  -3   1   51.64    2.97
  -5  -3   1   50.64    3.02
   5  -3  -1   49.86    3.15
   5  -3  -1   48.59    3.18
  -5  -3   1   49.50    2.99
  -5   3   1   55.10    3.08
  -5   3   1   54.10    3.07
   5   3  -1   47.49    3.04
   5   3  -1   50.72    2.98
  -5   3   1   54.31    3.14
   4  -3  -1    0.35    0.22
   4  -3  -1    0.23    0.36
   4  -3  -1    0.24    0.40
  -4  -3   1    0.65    0.22
  -4  -3   1    0.50    0.21
  -4   3   1    0.48    0.23
  -4   3   1    0.82    0.27
  -4   3   1    0.95    0.34
   4   3  -1    0.43    0.17
   4   3  -1    0.77    0.23
   3  -3  -1   10.02    0.74
  -3  -3   1    9.59    0.70
  -3  -3   1    9.68    0.67
   3  -3  -1    9.19    0.66
   3  -3  -1    8.77    0.84
  -3   3   1    9.61    0.79
  -3   3   1   10.32    0.77
  -3   3   1   10.02    0.80
   3   3  -1    9.38    0.67
  -3   3   1    9.99    0.72
   3   3  -1    9.58    0.65
   2  -3  -1    4.75    0.35
  -2  -3   1    5.32    0.44
   2  -3  -1    4.62    0.45
  -2  -3   1    4.87    0.40
  -2   3   1    4.69    0.51
  -2   3   1    4.32    0.53
  -2   3   1    4.05    0.41
   2   3  -1    4.92    0.39
   2   3  -1    5.06    0.38
   1  -3  -1    1.93    0.36
  -1  -3   1    1.39    0.23
  -1   3   1    1.49    0.23
  -1   3   1    1.44    0.28
   1   3  -1    1.50    0.26
  -1   3   1    1.92    0.34
  -1   3   1    1.07    0.28
  -1   3   1    1.60    0.30
   0  -3  -1   31.78    2.01
   0  -3   1   33.26    1.95
   0   3   1   31.73    1.95
   0   3  -1   33.26    1.93
   0   3   1   31.91    2.00
   0   3   1   32.10    1.95
   0   3  -1   32.12    2.04
   0   3   1   33.39    1.92
   0   3  -1   33.85    1.89
  -1  -3  -1   83.88    5.07
  -1  -3  -1   84.11    5.09
   1  -3   1   83.07    5.06
   1   3   1   85.60    5.06
   1   3   1   92.57    5.06
  -1   3  -1   86.37    5.15
   1   3   1   86.22    5.03
  -1   3  -1   89.94    5.06
  -1   3  -1   95.33    5.04
  -1   3  -1   94.76    5.08
   2  -3   1   46.35    2.64
   2  -3   1   45.50    2.63
  -2  -3  -1   46.92    2.64
   2  -3   1   40.55    2.72
  -2  -3  -1   37.71    2.59
  -2   3  -1   48.12    2.70
  -2   3  -1   44.90    2.60
   2   3   1   44.39    2.60
   2   3   1   47.25    2.59
  -2   3  -1   41.00    2.63
   2   3   1   45.09    2.60
   3  -3   1    5.87    0.95
  -3  -3  -1    5.74    0.47
  -3  -3  -1    5.54    0.52
   3  -3   1    5.49    0.68
  -3  -3  -1    5.57    0.47
  -3   3  -1    5.31    0.52
  -3   3  -1    4.79    0.54
  -3   3  -1    5.97    0.52
   3   3   1    5.71    0.48
   3   3   1    6.37    0.49
  -4  -3  -1    2.33    0.34
   4  -3   1    2.44    0.31
  -4  -3  -1    2.16    0.35
   4  -3   1    2.49    0.49
  -4  -3  -1    2.84    0.44
   4  -3   1    2.42    0.49
  -4   3  -1    2.84    0.42
   4   3   1    2.41    0.38
  -4   3  -1    2.36    0.37
   4   3   1    2.48    0.36
  -4   3  -1    2.31    0.40
   5  -3   1   13.22    0.90
  -5  -3  -1   13.08    0.94
   5  -3   1   13.13    1.08
  -5  -3  -1   10.47    0.84
  -5  -3  -1   12.92    0.89
   5  -3   1   11.34    1.14
   5   3   1   12.32    0.94
  -5   3  -1   12.84    0.93
  -5   3  -1   11.02    0.96
  -5   3  -1   13.99    0.94
   5   3   1   13.16    0.87
   6  -3   1   49.07    2.89
   6  -3   1   45.49    2.74
  -6  -3  -1   45.49    2.70
  -6  -3  -1   44.26    2.69
  -6  -3  -1   46.63    2.76
   6  -3   1   40.86    2.89
   6   3   1   44.63    2.70
   6   3   1   45.55    2.78
  -6   3  -1   46.37    2.75
  -6   3  -1   43.88    2.79
  -6   3  -1   44.68    2.74
   7  -3   1    2.36    0.49
   7  -3   1    3.36    0.72
  -7  -3  -1    3.23    0.52
  -7  -3  -1    3.03    0.43
   7  -3   1    2.39    0.56
   7   3   1    3.85    0.69
   7   3   1    3.74    0.53
  -7   3  -1    3.30    0.55
  -7   3  -1    3.14    0.52
   8  -3   1    6.36    0.90
   8  -3   1    9.10    1.26
   8  -3   1    5.41    0.81
  -8  -3  -1    6.28    0.87
  -8  -3  -1    6.88    0.73
  -8   3  -1    7.92    0.96
   8   3   1    6.19    0.73
  -8   3  -1    6.33    0.79
   9  -3   1   -0.59    0.78
  -9  -3  -1    0.77    0.43
  -9  -3  -1    0.37    0.54
   9  -3   1   -0.48    0.43
   9  -3   1   -0.27    0.50
   9   3   1    0.93    0.64
   9   3   1    0.29    0.41
  -9   3  -1   -0.18    0.56
  -9   3  -1   -0.31    0.48
  10  -3   1   36.83    2.82
  10  -3   1   40.68    2.84
  10  -3   1   41.32    3.17
 -10   3  -1   41.57    2.80
  10   3   1   39.57    2.92
  10   3   1   42.57    2.68
  11  -3   1    3.77    0.97
  11  -3   1    3.43    0.86
 -11  -3  -1    3.03    0.82
 -11   3  -1    2.86    1.04
  11   3   1    3.15    1.13
  11   3   1    3.53    0.80
  12  -3   1   -0.21    1.05
  12  -3   1    3.88    1.76
  12  -3   1   -0.18    0.90
  12   3   1    0.55    0.83
  12   3   1   -1.67    1.22
 -11  -4   1    1.10    0.97
  11  -4  -1    2.49    0.88
  11  -4  -1    1.04    1.09
  11   4  -1   -0.99    1.06
 -11   4   1    1.35    1.39
 -11   4   1    2.69    1.24
  11   4  -1    0.66    0.74
  10  -4  -1    1.53    0.92
  10  -4  -1   -1.15    1.26
 -10  -4   1    0.12    0.75
  10   4  -1    0.16    0.60
  10   4  -1    0.60    0.86
 -10   4   1    1.40    0.98
 -10   4   1    1.07    1.07
   9  -4  -1    5.37    0.74
   9  -4  -1    5.17    1.28
  -9  -4   1    4.57    0.80
  -9  -4   1    5.66    1.25
   9  -4  -1    5.11    0.98
  -9  -4   1    6.00    1.01
   9   4  -1    3.96    0.91
  -9   4   1    5.60    0.96
   9   4  -1    5.37    0.88
  -9   4   1    4.88    1.01
  -9   4   1    3.28    0.81
  -8  -4   1    3.97    0.68
   8  -4  -1    4.97    1.05
  -8  -4   1    5.24    0.82
   8  -4  -1    4.36    0.65
   8  -4  -1    4.06    0.84
  -8  -4   1    3.62    0.62
   8   4  -1    3.59    0.56
   8   4  -1    3.64    0.74
  -8   4   1    3.09    0.64
  -8   4   1    5.18    1.32
   7  -4  -1   -0.17    0.36
   7  -4  -1    0.61    0.72
   7  -4  -1    0.02    0.57
   7   4  -1    0.08    0.44
  -7   4   1    0.43    0.62
  -7   4   1    0.95    0.45
  -7   4   1   -0.02    0.52
   7   4  -1    0.42    0.33
   6  -4  -1   -0.10    0.28
   6  -4  -1   -0.03    0.48
  -6  -4   1   -0.30    0.36
   6  -4  -1    0.50    0.62
  -6  -4   1    0.22    0.30
   6   4  -1    0.10    0.26
  -6   4   1    0.20    0.50
  -6   4   1   -0.28    0.44
  -6   4   1    0.34    0.46
   6   4  -1    0.40    0.35
  -6   4   1   -0.13    0.29
   5  -4  -1  129.03    7.51
  -5  -4   1  130.51    7.57
  -5  -4   1  133.57    7.54
   5  -4  -1  121.72    7.72
   5   4  -1  120.38    7.56
  -5   4   1  126.83    7.68
   5   4  -1  134.63    7.52
  -5   4   1  145.94    7.69
  -5   4   1  138.80    7.63
  -5   4   1  133.46    7.63
  -4  -4   1    0.47    0.30
   4  -4  -1    0.81    0.49
   4  -4  -1    0.68    0.31
  -4  -4   1    0.63    0.25
  -4   4   1    0.96    0.36
  -4   4   1    0.87    0.34
   4   4  -1    0.65    0.22
  -4   4   1    0.34    0.41
  -4   4   1    0.88    0.42
   4   4  -1    0.31    0.24
   3  -4  -1    1.61    0.34
   3  -4  -1    2.08    0.51
  -3  -4   1    1.49    0.29
   3   4  -1    1.55    0.28
   3   4  -1    1.85    0.28
  -3   4   1    2.36    0.47
  -3   4   1    2.58    0.47
  -3   4   1    1.88    0.37
  -3   4   1    1.16    0.43
  -2  -4   1    4.20    0.43
   2  -4  -1    4.02    0.45
  -2   4   1    4.07    0.47
  -2   4   1    3.31    0.54
   2   4  -1    4.83    0.38
  -2   4   1    4.06    0.62
  -2   4   1    3.80    0.61
   2   4  -1    4.07    0.45
  -2   4   1    4.30    0.59
   1  -4  -1    0.36    0.24
  -1  -4   1   -0.03    0.22
  -1   4   1    0.17    0.27
  -1   4   1   -0.57    0.32
   1   4  -1    0.24    0.23
   1   4  -1   -0.01    0.13
  -1   4   1    0.14    0.19
  -1   4   1   -0.01    0.29
  -1   4   1    0.07    0.31
   0  -4   1    0.75    0.26
   0  -4  -1    1.31    0.28
   0   4   1    0.37    0.41
   0   4  -1    0.57    0.38
   0   4   1    0.62    0.26
   0   4   1    0.66    0.30
   0   4   1    0.51    0.31
   0   4   1    1.03    0.23
   0   4  -1    0.80    0.27
   0   4  -1    0.99    0.21
   1  -4   1    1.89    0.33
  -1  -4  -1    2.06    0.34
  -1   4  -1    1.69    0.27
   1   4   1    1.98    0.33
  -1   4  -1    1.29    0.39
   1   4   1    2.06    0.31
  -1   4  -1    1.82    0.35
  -1   4  -1    2.15    0.32
   1   4   1    1.54    0.28
   1   4   1    2.21    0.47
  -2  -4  -1    0.32    0.21
  -2  -4  -1   -0.03    0.28
   2  -4   1    0.27    0.19
  -2   4  -1    0.25    0.29
   2   4   1   -0.05    0.16
   2   4   1    0.37    0.23
   2   4   1    0.28    0.21
  -2   4  -1    0.22    0.21
  -2   4  -1    0.15    0.29
  -2   4  -1    0.13    0.32
  -3  -4  -1    1.25    0.28
   3  -4   1    2.11    0.45
   3  -4   1    1.80    0.35
  -3  -4  -1    2.22    0.39
   3   4   1    1.81    0.31
  -3   4  -1    2.26    0.44
  -3   4  -1    2.15    0.41
  -3   4  -1    2.58    0.44
   3   4   1    1.63    0.31
  -3   4  -1    2.69    0.45
   3   4   1    2.88    0.34
   4  -4   1    1.13    0.47
   4  -4   1    1.66    0.34
   4  -4   1    1.73    0.53
  -4  -4  -1    0.68    0.27
  -4   4  -1    1.54    0.37
  -4   4  -1    1.67    0.36
   4   4   1    1.16    0.29
  -4   4  -1    1.48    0.38
  -5  -4  -1    7.99    0.83
   5  -4   1    7.36    1.05
  -5  -4  -1    8.45    0.69
   5  -4   1    9.56    1.07
   5   4   1    9.50    0.72
  -5   4  -1    9.49    0.85
  -5   4  -1    8.15    0.86
  -5   4  -1    8.50    0.80
   5   4   1    7.77    0.77
   6  -4   1    0.64    0.51
  -6  -4  -1    0.65    0.27
  -6  -4  -1    1.24    0.45
   6  -4   1    0.59    0.28
  -6  -4  -1    0.24    0.29
   6  -4   1    0.89    0.66
   6   4   1    0.87    0.29
  -6   4  -1    0.65    0.44
   6   4   1    0.48    0.37
  -6   4  -1    1.81    0.47
  -7  -4  -1    0.58    0.36
  -7  -4  -1   -0.21    0.32
  -7  -4  -1   -0.14    0.49
   7  -4   1   -0.22    0.38
   7  -4   1    0.18    0.73
  -7   4  -1    0.50    0.37
   7   4   1   -0.05    0.31
  -7   4  -1   -0.32    0.46
  -7   4  -1    0.19    0.43
  -8  -4  -1    6.40    0.81
   8  -4   1    6.49    0.81
   8  -4   1    8.85    1.22
  -8  -4  -1    4.90    0.81
   8  -4   1    5.96    0.99
  -8   4  -1    5.04    0.72
   8   4   1    5.58    0.84
  -8   4  -1    6.20    1.07
   9  -4   1    8.88    1.09
   9  -4   1    9.32    1.40
   9  -4   1   11.93    1.50
  -9  -4  -1    8.82    1.18
  -9   4  -1    7.14    1.27
   9   4   1   11.27    1.39
   9   4   1    7.79    1.06
  10  -4   1    4.51    1.47
  10  -4   1    3.47    1.00
 -10  -4  -1    4.95    0.81
  10   4   1    3.79    0.75
  10   4   1    3.00    0.99
 -10   4  -1    3.10    0.98
  11  -4   1   -0.50    2.01
  11  -4   1    1.45    0.93
  11  -4   1    1.24    1.15
  11   4   1   -0.32    0.72
  11   4   1    1.17    1.10
  10  -5  -1   -0.09    0.89
  10  -5  -1   -1.18    1.15
  10   5  -1    0.13    0.72
  10   5  -1    0.19    1.09
 -10   5   1    0.87    1.35
   9  -5  -1    0.09    1.41
   9  -5  -1    0.53    0.59
   9   5  -1    0.68    0.86
  -9   5   1    1.06    0.99
  -9   5   1    0.08    1.19
   9   5  -1   -0.28    0.58
   8  -5  -1   15.45    2.04
   8  -5  -1   10.78    1.09
  -8  -5   1   12.08    1.93
  -8   5   1    9.91    1.62
  -8   5   1    9.65    1.68
   8   5  -1    8.43    1.06
   7  -5  -1    4.52    0.76
  -7  -5   1    2.89    0.72
   7  -5  -1    2.40    0.98
  -7  -5   1    3.65    0.60
  -7   5   1    4.28    0.86
  -7   5   1    5.26    0.76
   7   5  -1    4.05    0.68
   7   5  -1    2.73    0.70
  -6  -5   1    1.25    0.39
   6  -5  -1    1.32    0.54
   6  -5  -1    3.63    0.93
  -6   5   1    1.32    0.64
   6   5  -1    1.58    0.38
  -6   5   1    2.89    0.59
  -6   5   1    0.85    0.51
  -6   5   1    1.92    0.79
  -5  -5   1    0.46    0.34
  -5  -5   1    0.64    0.46
   5  -5  -1    1.02    0.39
   5  -5  -1    0.37    0.68
  -5   5   1    1.81    0.60
  -5   5   1    1.39    0.51
  -5   5   1    1.15    0.50
   5   5  -1    0.43    0.40
   5   5  -1    1.00    0.33
  -5   5   1    1.37    0.63
   4  -5  -1   -0.03    0.30
  -4  -5   1    0.05    0.27
  -4   5   1   -0.08    0.44
  -4   5   1    0.23    0.54
  -4   5   1    0.64    0.51
   4   5  -1    0.06    0.28
   4   5  -1   -0.24    0.27
   4   5  -1   -0.38    0.25
  -3  -5   1   18.13    1.41
   3  -5  -1   19.77    1.48
   3   5  -1   24.33    1.43
  -3   5   1   23.64    1.63
  -3   5   1   22.66    1.63
   3   5  -1   21.20    1.39
  -3   5   1   26.42    1.63
   3   5  -1   21.76    1.40
   2  -5  -1    1.75    0.38
  -2  -5   1    1.58    0.35
  -2   5   1    1.58    0.52
  -2   5   1    2.00    0.47
  -2   5   1    2.33    0.40
  -2   5   1    1.66    0.48
   2   5  -1    1.15    0.51
   2   5  -1    1.78    0.29
  -1  -5   1    1.83    0.36
   1  -5  -1    1.84    0.39
  -1   5   1    1.78    0.53
   1   5  -1    1.54    0.53
   1   5  -1    2.05    0.38
  -1   5   1    1.93    0.44
  -1   5   1    1.96    0.37
  -1   5   1    2.50    0.43
   1   5  -1    1.88    0.31
   0  -5  -1    2.76    0.46
   0  -5   1    2.43    0.41
   0   5   1    3.10    0.49
   0   5  -1    3.02    0.47
   0   5  -1    3.79    0.72
   0   5  -1    2.75    0.38
   0   5   1    4.01    0.60
   0   5   1    3.02    0.50
   0   5   1    3.59    0.51
  -1  -5  -1    7.26    0.70
   1  -5   1    8.42    0.71
   1   5   1    7.75    0.74
   1   5   1    8.48    0.69
   1   5   1    7.37    0.93
  -1   5  -1    8.46    0.81
   1   5   1    8.20    0.69
  -1   5  -1    7.46    0.68
   2  -5   1   14.96    1.11
  -2  -5  -1   15.27    1.11
   2   5   1   16.07    1.06
   2   5   1   17.48    1.37
   2   5   1   15.30    1.11
  -2   5  -1   14.71    1.22
  -2   5  -1   15.78    1.11
   2   5   1   15.37    1.07
   3  -5   1    9.94    0.83
  -3  -5  -1    9.41    0.82
  -3  -5  -1   10.08    0.99
  -3   5  -1   10.19    1.06
  -3   5  -1   11.47    0.94
   3   5   1   10.01    0.83
   3   5   1    9.77    0.81
  -3   5  -1   11.53    1.03
  -3   5  -1   12.23    0.93
   4  -5   1    0.92    0.35
  -4  -5  -1    0.91    0.35
  -4  -5  -1    0.60    0.47
   4   5   1    1.24    0.33
  -4   5  -1    1.68    0.59
  -4   5  -1    0.68    0.42
   4   5   1    1.22    0.35
  -4   5  -1    1.21    0.45
  -4   5  -1    1.51    0.45
   4   5   1    0.58    0.31
  -5  -5  -1    0.07    0.31
   5  -5   1    0.55    0.36
   5  -5   1   -0.63    0.66
  -5   5  -1    0.30    0.48
  -5   5  -1   -0.43    0.56
  -5   5  -1   -0.65    0.45
  -5   5  -1   -0.33    0.41
   5   5   1    0.30    0.33
   5   5   1   -0.02    0.31
   5   5   1   -0.07    0.38
   6  -5   1   -0.01    0.41
  -6  -5  -1   -0.01    0.32
  -6  -5  -1    0.06    0.58
   6  -5   1   -0.40    0.75
  -6   5  -1    0.67    0.51
  -6   5  -1   -0.50    0.48
  -6   5  -1   -0.16    0.51
   6   5   1    0.12    0.46
   6   5   1   -0.29    0.39
  -6   5  -1   -0.27    0.67
   6   5   1   -0.26    0.36
   7  -5   1    4.44    1.02
  -7  -5  -1    4.34    0.66
  -7  -5  -1    3.53    0.81
   7  -5   1    5.65    1.17
   7  -5   1    4.71    0.76
   7   5   1    4.75    0.77
  -7   5  -1    4.37    0.77
  -7   5  -1    4.29    0.77
  -7   5  -1    5.80    1.54
   7   5   1    4.85    0.97
   8  -5   1    1.11    1.12
   8  -5   1    0.16    0.89
   8  -5   1   -0.91    0.46
   8   5   1    0.22    0.67
   8   5   1    0.84    0.67
   8   5   1    0.14    0.50
  -8   5  -1   -0.71    0.99
  -8   5  -1    0.36    0.75
   9  -5   1    0.29    1.51
   9  -5   1   -1.64    0.96
   9   5   1   -0.05    0.89
   9   5   1   -0.05    0.57
  -9   5  -1    0.87    1.25
  10  -5   1    1.33    1.29
  10   5   1   -0.25    1.12
 -10   5  -1    1.14    1.44
  10   5   1    0.27    0.82
   8  -6  -1    1.91    0.64
   8   6  -1    3.67    1.03
  -8   6   1    4.28    1.38
   8   6  -1    1.45    0.68
   7  -6  -1    0.52    0.48
  -7  -6   1   -0.10    0.43
   7   6  -1    1.32    0.79
   7   6  -1    0.03    0.65
   7   6  -1   -0.08    0.55
  -7   6   1   -0.90    1.05
  -6  -6   1   11.94    0.97
   6  -6  -1   10.88    1.10
   6   6  -1    9.96    1.17
  -6   6   1   10.71    1.44
   6   6  -1   13.79    1.09
  -6   6   1    9.92    1.25
  -6   6   1   12.02    1.59
   6   6  -1   10.98    1.30
   5  -6  -1    1.05    0.44
  -5  -6   1    1.65    0.42
  -5   6   1    1.44    0.74
   5   6  -1    1.68    0.57
   5   6  -1    2.21    0.50
   5   6  -1    0.60    0.48
  -5   6   1    2.19    0.88
  -5   6   1    2.19    0.85
  -5   6   1    3.89    0.83
  -4  -6   1    8.56    0.82
   4  -6  -1    8.29    0.87
  -4   6   1   10.28    1.28
  -4   6   1   10.98    1.26
   4   6  -1    8.92    0.87
   4   6  -1    9.04    0.87
  -4   6   1    8.92    1.22
  -4   6   1    8.30    1.34
   4   6  -1    7.95    1.29
  -3  -6   1    4.37    0.57
   3  -6  -1    3.11    0.56
  -3   6   1    3.23    0.81
   3   6  -1    3.69    1.00
  -3   6   1    5.19    0.74
  -3   6   1    4.45    0.75
   3   6  -1    4.38    0.65
  -3   6   1    5.11    0.80
  -3   6   1    3.24    0.75
   3   6  -1    4.51    0.66
  -2  -6   1    2.33    0.45
   2  -6  -1    2.21    0.49
  -2   6   1    2.98    0.56
   2   6  -1    2.87    0.50
  -2   6   1    2.16    0.70
   2   6  -1    0.92    0.83
  -2   6   1    4.34    0.79
  -2   6   1    2.71    0.75
  -2   6   1    2.93    0.70
   1  -6  -1    4.17    0.61
  -1  -6   1    3.53    0.55
   1   6  -1    5.81    0.95
   1   6  -1    3.66    0.56
  -1   6   1    4.23    0.81
  -1   6   1    2.56    0.56
   1   6  -1    3.41    0.53
  -1   6   1    4.59    0.71
   0  -6   1    4.04    0.61
   0  -6  -1    5.10    0.66
   0   6   1    5.71    0.99
   0   6  -1    4.92    0.89
   0   6  -1    6.06    0.74
   0   6   1    5.59    0.80
   0   6  -1    5.43    0.81
   0   6   1    4.62    0.64
  -1  -6  -1    0.31    0.35
   1  -6   1    0.14    0.33
   1   6   1   -0.68    0.40
   1   6   1    0.23    0.43
   1   6   1   -1.41    0.73
  -1   6  -1   -0.06    0.51
  -1   6  -1    0.66    0.68
  -2  -6  -1    1.43    0.43
   2  -6   1    1.86    0.48
   2   6   1    1.75    0.43
   2   6   1    1.79    0.48
  -2   6  -1    2.06    0.61
   2   6   1    2.24    0.71
  -2   6  -1    3.36    0.57
  -2   6  -1    2.77    0.79
   2   6   1    2.31    0.87
   3  -6   1    0.39    0.37
  -3  -6  -1    0.62    0.34
   3   6   1    0.53    0.41
  -3   6  -1   -0.02    0.70
  -3   6  -1    0.80    0.59
  -3   6  -1    0.54    0.66
   3   6   1    0.15    0.35
   3   6   1   -0.40    0.79
   3   6   1    1.12    0.44
  -4  -6  -1   30.33    1.89
   4  -6   1   29.67    1.93
   4   6   1   30.89    1.94
   4   6   1   28.46    1.89
  -4   6  -1   28.65    2.20
   4   6   1   27.77    1.89
  -4   6  -1   31.08    2.09
  -4   6  -1   23.58    1.96
  -5  -6  -1    3.78    0.85
   5  -6   1    1.51    0.49
  -5  -6  -1    1.64    0.47
  -5   6  -1    3.33    0.82
   5   6   1    1.88    0.55
  -5   6  -1    2.09    0.87
  -5   6  -1    2.94    0.62
  -5   6  -1    3.37    0.90
   5   6   1    2.61    0.54
   5   6   1    2.04    0.54
  -6  -6  -1    3.78    0.98
   6  -6   1    6.44    0.79
  -6  -6  -1    3.49    0.59
   6   6   1    4.50    0.78
   6   6   1    4.84    0.86
  -6   6  -1    8.46    1.33
  -6   6  -1    6.02    0.85
   6   6   1    5.87    0.99
   7  -6   1    2.88    0.64
  -7  -6  -1    1.78    0.50
   7   6   1    2.41    0.65
   7   6   1    1.21    0.77
  -7   6  -1    4.18    1.22
   8  -6   1    0.06    0.51
   8   6   1   -0.50    0.69
  -8   6  -1    1.09    1.41
   8   6   1    0.46    0.96
   6  -7  -1    1.32    0.59
  -6  -7   1    0.44    0.55
  -6   7   1   -0.91    1.26
   6   7  -1   -0.43    0.68
  -6   7   1   -0.59    1.20
   5  -7  -1   -0.04    0.47
  -5  -7   1    0.68    0.46
  -5   7   1    1.04    0.99
  -5   7   1    0.32    1.12
   4  -7  -1    0.29    0.47
  -4  -7   1    1.40    0.49
  -4   7   1    1.94    1.13
  -4   7   1    1.52    1.03
   4   7  -1    0.45    0.58
  -4   7   1    2.40    0.84
   4   7  -1    0.42    0.71
  -3  -7   1    1.97    0.51
   3  -7  -1    2.87    0.60
  -3   7   1    3.09    1.00
   3   7  -1    3.23    0.75
   3   7  -1    2.79    0.65
  -2  -7   1   -0.17    0.40
   2  -7  -1   -0.02    0.49
  -2   7   1   -0.67    0.84
   2   7  -1    1.09    0.70
   2   7  -1   -0.44    0.50
  -2   7   1    3.95    0.96
  -1  -7   1    0.17    0.40
   1  -7  -1    0.05    0.46
  -1   7   1    1.05    0.73
   1   7  -1    1.87    0.60
  -1   7   1   -0.21    0.69
   1   7  -1    2.00    0.71
   0  -7   1    1.22    0.44
   0  -7  -1    0.28    0.42
   0   7  -1    0.22    0.62
   0   7  -1   -0.60    0.67
   0   7   1    1.26    0.70
   0   7   1   -0.44    0.72
  -1  -7  -1    0.70    0.44
   1  -7   1    1.33    0.44
  -1   7  -1    2.68    0.75
  -1   7  -1    2.90    0.75
   1   7   1    0.07    0.70
   1   7   1    2.18    0.65
  -2  -7  -1    2.05    0.54
   2  -7   1    2.08    0.56
   2   7   1    3.85    0.82
  -2   7  -1    3.22    0.91
  -2   7  -1    2.45    0.86
   2   7   1    2.24    0.64
   3  -7   1    0.43    0.49
  -3  -7  -1    0.56    0.41
  -3   7  -1    1.71    0.96
  -3   7  -1   -0.63    0.92
   3   7   1   -0.49    0.73
   3   7   1   -0.70    0.56
   4  -7   1    1.40    0.55
  -4  -7  -1    0.59    0.51
   4   7   1    2.62    0.85
  -4   7  -1    2.06    1.18
  -4   7  -1    3.62    1.09
   4   7   1    2.19    1.12
   5  -7   1    4.92    0.76
  -5  -7  -1    5.35    0.88
   5   7   1    7.92    1.18
  -5   7  -1    3.23    1.32
   6  -7   1    1.03    0.63
  13   0  -2   -0.03    0.61
  13   0  -2    0.01    1.61
  13   0  -2   -0.64    0.89
  12   0  -2    1.76    0.56
  12   0  -2    1.91    0.72
  12   0  -2    1.77    1.25
  11   0  -2   -0.48    0.88
 -11   0   2   -0.53    0.63
  11   0  -2   -0.38    0.54
  11   0  -2    0.19    0.34
  10   0  -2   15.57    1.11
  10   0  -2   13.49    1.26
 -10   0   2   15.25    1.34
  10   0  -2   14.42    1.62
  -9   0   2    0.23    0.30
  -9   0   2    0.93    0.43
   9   0  -2   -0.07    0.31
   9   0  -2    0.38    0.25
   9   0  -2    0.21    0.54
   8   0  -2    1.70    0.42
  -8   0   2    2.03    0.34
   8   0  -2    3.26    0.65
  -8   0   2    2.14    0.43
   7   0  -2    1.33    0.31
   7   0  -2    1.37    0.47
  -7   0   2    1.96    0.39
  -7   0   2    1.49    0.27
  -6   0   2    0.85    0.26
   6   0  -2    0.89    0.36
  -6   0   2    0.93    0.21
   6   0  -2    0.57    0.23
   5   0  -2    8.50    0.62
   5   0  -2    8.28    0.73
  -5   0   2    7.83    0.64
  -5   0   2    8.50    0.58
  -4   0   2  127.56    8.02
   4   0  -2  145.20    8.00
  -4   0   2  148.53    7.98
  -3   0   2    0.03    0.08
  -3   0   2   -0.13    0.11
   3   0  -2   -0.01    0.17
   3   0  -2   -0.09    0.09
   2   0  -2    6.02    0.43
  -2   0   2    6.65    0.46
  -2   0   2    7.29    0.47
   1   0  -2    0.20    0.06
  -1   0   2    0.30    0.07
  -1   0   2    0.36    0.08
   1   0  -2    0.26    0.08
  -1   0   2    0.27    0.10
   1   0  -2    0.13    0.09
   1   0   2  121.42    7.36
   1   0   2  128.34    7.37
  -1   0  -2  130.22    7.36
  -1   0  -2  140.46    7.35
  -1   0  -2  131.53    7.37
   2   0   2    0.10    0.09
   2   0   2   -0.01    0.06
  -2   0  -2    0.00    0.06
  -2   0  -2    0.08    0.08
   3   0   2   10.33    0.73
   3   0   2   10.75    0.69
  -3   0  -2   11.48    0.69
  -3   0  -2   11.29    0.71
   4   0   2  572.43   29.32
  -4   0  -2  478.61   29.27
  -4   0  -2  521.20   29.25
   4   0   2  503.82   29.26
   5   0   2   23.73    1.40
  -5   0  -2   20.40    1.28
  -5   0  -2   18.64    1.31
   6   0   2    0.32    0.31
   6   0   2    0.13    0.20
  -6   0  -2    0.06    0.16
  -6   0  -2    0.25    0.22
   7   0   2   15.50    1.06
  -7   0  -2   15.08    1.08
  -7   0  -2   15.56    1.00
   7   0   2   12.04    1.16
   8   0   2    0.26    0.30
  -8   0  -2    0.41    0.35
  -8   0  -2    0.01    0.24
   8   0   2   -0.33    0.37
  -9   0  -2    3.32    0.56
   9   0   2    4.18    0.77
   9   0   2    3.71    0.58
 -10   0  -2    3.14    0.67
 -10   0  -2    2.83    0.53
  10   0   2    2.63    0.65
  10   0   2    2.96    0.50
  11   0   2   20.73    1.73
 -11   0  -2   22.57    1.88
  11   0   2   19.76    2.15
  11   0   2   22.59    1.60
  12   0   2    1.29    1.16
  12   0   2    0.93    0.78
  12   0   2    0.23    0.53
  13   0   2    0.41    0.99
  13  -1  -2    2.12    1.55
  13  -1  -2    0.19    0.67
  13  -1  -2   -0.01    0.98
 -13  -1   2    1.66    1.32
  13   1  -2   -2.45    1.23
 -13   1   2    2.15    1.44
  13   1  -2   -0.11    0.56
  12  -1  -2    0.69    0.67
  12  -1  -2    0.69    0.53
  12  -1  -2    2.47    1.22
  12   1  -2    2.04    0.68
  12   1  -2    1.25    0.52
  12   1  -2    0.63    1.08
  11  -1  -2    3.92    0.78
  11  -1  -2    5.10    1.21
 -11  -1   2    4.73    0.86
 -11  -1   2    4.87    0.67
  11  -1  -2    5.48    0.73
  11   1  -2    5.50    0.85
 -11   1   2    5.52    0.78
  11   1  -2    4.34    1.08
 -11   1   2    4.72    0.87
  10  -1  -2   17.65    1.90
  10  -1  -2   18.15    1.48
 -10  -1   2   18.05    1.45
  10  -1  -2   18.22    1.33
  10   1  -2   17.30    1.39
 -10   1   2   19.20    1.37
  10   1  -2   17.23    1.75
 -10   1   2   17.85    1.48
   9  -1  -2    0.74    0.40
  -9  -1   2    0.06    0.38
  -9  -1   2    0.18    0.28
   9  -1  -2   -0.23    0.58
   9  -1  -2    0.33    0.28
   9   1  -2   -0.01    0.52
   9   1  -2    0.26    0.34
  -9   1   2   -0.16    0.47
  -8  -1   2   -0.05    0.23
   8  -1  -2    0.27    0.23
   8  -1  -2   -0.07    0.29
  -8  -1   2    0.18    0.32
   8  -1  -2   -0.47    0.50
   8   1  -2    0.42    0.27
   8   1  -2    0.21    0.44
  -8   1   2    0.10    0.34
  -8   1   2   -0.05    0.26
   7  -1  -2    1.90    0.51
   7  -1  -2    2.13    0.37
  -7  -1   2    2.09    0.42
  -7  -1   2    2.15    0.31
   7  -1  -2    2.36    0.44
  -7   1   2    1.90    0.36
   7   1  -2    2.06    0.47
   7   1  -2    1.99    0.34
  -7   1   2    2.33    0.46
  -6  -1   2   -0.21    0.14
   6  -1  -2    0.13    0.14
  -6  -1   2    0.16    0.23
   6  -1  -2   -0.15    0.21
   6  -1  -2   -0.06    0.32
  -6   1   2    0.05    0.19
   6   1  -2   -0.02    0.28
   6   1  -2    0.18    0.18
  -6   1   2    0.08    0.31
   5  -1  -2   40.17    2.52
   5  -1  -2   41.00    2.38
  -5  -1   2   41.73    2.40
   5  -1  -2   40.41    2.42
  -5  -1   2   40.30    2.35
   5   1  -2   43.00    2.46
   5   1  -2   39.82    2.38
  -5   1   2   36.35    2.45
  -5   1   2   39.71    2.40
  -4  -1   2  140.14    7.54
   4  -1  -2  136.26    7.53
   4  -1  -2  133.45    7.56
   4  -1  -2  132.51    7.63
  -4  -1   2  127.21    7.49
  -4   1   2  141.09    7.55
   4   1  -2  117.59    7.56
   4   1  -2  129.86    7.51
  -3  -1   2  302.79   16.66
   3  -1  -2  272.93   16.70
   3  -1  -2  276.39   16.75
   3  -1  -2  304.84   16.70
  -3  -1   2  306.48   16.69
   3   1  -2  292.92   16.67
  -3   1   2  299.11   16.68
  -3   1   2  309.09   16.71
   2  -1  -2   -0.06    0.11
  -2  -1   2   -0.07    0.07
  -2  -1   2   -0.02    0.10
   2  -1  -2    0.24    0.21
  -2  -1   2   -0.20    0.10
   2  -1  -2   -0.08    0.11
  -2   1   2    0.14    0.16
  -2   1   2    0.02    0.09
  -2   1   2    0.06    0.19
  -2   1   2   -0.08    0.11
   2   1  -2   -0.06    0.08
   2   1  -2    0.07    0.13
   1  -1  -2    6.57    0.44
  -1  -1   2    7.32    0.41
   1  -1  -2    6.51    0.46
  -1   1   2    6.44    0.45
  -1   1   2    6.50    0.47
  -1   1   2    6.36    0.44
   0  -1  -2   75.68    4.34
   0  -1   2   73.31    4.34
   0  -1   2   85.59    4.30
   0  -1  -2   75.28    4.33
   0  -1  -2   69.24    4.31
   0   1  -2   77.09    4.34
   0   1   2   80.72    4.32
   0   1   2   73.59    4.34
   0   1   2   73.57    4.33
   1  -1   2  106.46    6.66
  -1  -1  -2  121.44    6.68
  -1  -1  -2  132.68    6.67
   1  -1   2  110.84    6.69
  -1  -1  -2  125.51    6.68
   1   1   2  111.85    6.67
  -1   1  -2  117.21    6.68
   1   1   2  116.62    6.66
  -1   1  -2  112.94    6.65
   1   1   2  118.53    6.67
  -1   1  -2  120.61    6.65
   2  -1   2   12.62    0.76
   2  -1   2   13.14    0.79
  -2  -1  -2   12.34    0.75
  -2  -1  -2   11.33    0.77
  -2  -1  -2   12.64    0.76
   2  -1   2   10.33    0.81
  -2   1  -2   12.56    0.77
  -2   1  -2   13.81    0.78
   2   1   2   12.54    0.77
  -2   1  -2   12.72    0.76
   2   1   2   12.03    0.76
  -3  -1  -2  105.28    6.72
   3  -1   2  113.57    6.75
  -3  -1  -2  118.56    6.73
   3  -1   2  131.36    6.80
   3  -1   2  118.23    6.75
  -3  -1  -2  118.54    6.75
   3   1   2  117.60    6.73
   3   1   2  109.27    6.75
  -3   1  -2  122.15    6.74
  -3   1  -2  130.23    6.77
   4  -1   2    1.84    0.26
  -4  -1  -2    2.45    0.27
   4  -1   2    1.73    0.24
  -4  -1  -2    1.74    0.27
   4  -1   2    1.18    0.28
  -4  -1  -2    1.59    0.22
   4   1   2    1.65    0.22
  -4   1  -2    1.53    0.22
  -4   1  -2    1.72    0.28
   4   1   2    1.52    0.29
   5  -1   2   49.70    2.93
  -5  -1  -2   53.96    2.94
  -5  -1  -2   50.36    2.89
   5  -1   2   48.10    2.92
   5   1   2   43.82    2.95
  -5   1  -2   51.33    2.95
   5   1   2   49.27    2.90
  -5   1  -2   50.01    2.90
   6  -1   2    6.50    0.58
   6  -1   2    5.44    0.53
  -6  -1  -2    5.74    0.51
  -6  -1  -2    5.40    0.56
   6  -1   2    7.26    0.73
  -6   1  -2    5.94    0.53
   6   1   2    7.32    0.67
   6   1   2    5.55    0.52
  -6   1  -2    6.08    0.58
  -7  -1  -2    0.17    0.24
   7  -1   2    0.39    0.22
   7  -1   2   -0.13    0.42
   7  -1   2   -0.22    0.26
  -7  -1  -2    0.30    0.29
   7   1   2    0.27    0.24
  -7   1  -2    0.57    0.31
   7   1   2    0.12    0.35
  -7   1  -2    0.77    0.25
  -8  -1  -2    0.53    0.36
   8  -1   2    0.26    0.26
   8  -1   2    0.49    0.34
  -8  -1  -2    0.27    0.29
   8  -1   2   -0.05    0.49
   8   1   2    0.33    0.43
  -8   1  -2    0.15    0.36
   8   1   2    0.46    0.32
   9  -1   2    1.99    0.49
   9  -1   2    3.69    0.57
  -9  -1  -2    2.97    0.53
  -9  -1  -2    1.13    0.47
   9  -1   2    2.55    0.79
   9   1   2    1.92    0.64
  -9   1  -2    2.38    0.50
   9   1   2    2.90    0.48
  10  -1   2    0.35    0.75
 -10  -1  -2    0.22    0.45
  10  -1   2    0.56    0.50
 -10  -1  -2    0.95    0.56
  10   1   2    0.09    0.65
 -10   1  -2    1.59    0.63
  10   1   2    0.61    0.42
 -10   1  -2    0.62    0.47
  11  -1   2   -0.58    0.59
 -11  -1  -2    0.34    0.59
  11  -1   2   -0.81    0.91
  11  -1   2   -0.30    0.45
  11   1   2    0.64    0.83
 -11   1  -2    0.41    0.76
  11   1   2   -0.62    0.53
  12  -1   2    1.33    0.63
  12  -1   2   -1.25    1.20
  12  -1   2    0.47    0.75
  12   1   2    0.28    1.06
  12   1   2   -0.27    0.66
  13  -1   2   -1.65    1.62
  13  -1   2    1.60    0.85
  13  -1   2    0.96    0.93
  13   1   2   -0.53    0.70
  13   1   2   -0.58    0.89
  13   1   2   -0.66    1.65
  13  -2  -2   19.33    2.15
  13  -2  -2   25.60    3.21
  13  -2  -2   17.96    2.11
 -13  -2   2   22.15    2.43
  13   2  -2   24.18    2.88
 -13   2   2   24.82    3.01
  13   2  -2   19.43    2.07
  12  -2  -2   -0.88    0.67
 -12  -2   2    1.19    1.01
 -12  -2   2    0.17    0.65
  12  -2  -2   -1.19    0.77
  12  -2  -2   -0.42    1.24
  12   2  -2    0.23    1.17
  12   2  -2   -0.25    0.68
 -12   2   2    0.54    1.25
 -11  -2   2    1.36    0.53
  11  -2  -2    0.04    0.99
  11  -2  -2    0.71    0.67
  11  -2  -2    0.73    0.57
 -11   2   2   -0.45    0.76
  11   2  -2    0.56    0.56
  11   2  -2   -0.18    0.81
  10  -2  -2    3.48    0.64
 -10  -2   2    2.31    0.64
  10  -2  -2    5.48    1.11
 -10  -2   2    4.01    0.67
  10  -2  -2    3.72    0.71
 -10   2   2    4.85    0.82
 -10   2   2    2.45    0.59
  10   2  -2    2.80    0.81
  10   2  -2    3.84    0.62
  -9  -2   2    4.30    0.61
   9  -2  -2    6.91    1.26
   9  -2  -2    4.67    0.68
   9  -2  -2    3.51    0.64
   9   2  -2    5.35    0.97
   9   2  -2    4.60    0.68
  -9   2   2    4.36    0.74
   8  -2  -2   31.69    2.09
   8  -2  -2   34.00    2.09
  -8  -2   2   31.58    1.96
  -8   2   2   32.34    2.04
   8   2  -2   32.58    2.03
  -8   2   2   29.20    2.14
   7  -2  -2    0.76    0.33
   7  -2  -2    0.80    0.34
   7  -2  -2    1.56    0.55
  -7  -2   2    1.54    0.34
  -7  -2   2    0.83    0.22
  -7   2   2    0.57    0.42
   7   2  -2    1.15    0.41
   7   2  -2    0.79    0.28
  -7   2   2    0.64    0.32
  -6  -2   2    1.08    0.22
   6  -2  -2    1.75    0.50
  -6  -2   2    1.42    0.30
   6  -2  -2    1.81    0.36
   6  -2  -2    1.99    0.34
   6   2  -2    1.78    0.39
  -6   2   2    2.01    0.43
  -6   2   2    1.58    0.30
   6   2  -2    1.75    0.29
   5  -2  -2   27.14    1.77
   5  -2  -2   29.04    1.80
  -5  -2   2   29.66    1.73
   5  -2  -2   23.23    1.87
  -5  -2   2   28.49    1.68
  -5   2   2   30.75    1.85
   5   2  -2   27.92    1.70
   5   2  -2   28.36    1.79
  -5   2   2   29.77    1.73
  -5   2   2   28.40    1.77
   4  -2  -2    0.01    0.16
  -4  -2   2    0.23    0.15
  -4  -2   2    0.03    0.15
  -4  -2   2    0.16    0.11
   4  -2  -2    0.22    0.19
   4  -2  -2   -0.17    0.27
  -4   2   2   -0.01    0.24
   4   2  -2    0.06    0.18
  -4   2   2    0.07    0.17
  -4   2   2   -0.03    0.13
   4   2  -2   -0.04    0.11
   3  -2  -2   21.24    1.26
  -3  -2   2   20.13    1.21
   3  -2  -2   19.02    1.30
  -3  -2   2   22.33    1.21
   3  -2  -2   19.82    1.34
   3   2  -2   18.70    1.22
  -3   2   2   19.61    1.31
  -3   2   2   17.62    1.31
  -3   2   2   21.36    1.27
  -3   2   2   19.61    1.26
   3   2  -2   21.88    1.20
   2  -2  -2   53.08    3.46
  -2  -2   2   64.70    3.38
   2  -2  -2   61.71    3.41
  -2   2   2   60.53    3.46
   2   2  -2   56.48    3.37
  -2   2   2   57.56    3.47
  -2   2   2   58.72    3.42
  -2   2   2   57.70    3.45
   2   2  -2   60.63    3.37
   1  -2  -2   59.49    3.61
   1  -2  -2   62.64    3.57
  -1  -2   2   63.67    3.57
  -1   2   2   66.31    3.64
  -1   2   2   58.94    3.59
  -1   2   2   64.52    3.62
  -1   2   2   65.42    3.65
  -1   2   2   58.86    3.63
   0  -2  -2    3.99    0.34
   0  -2  -2    3.57    0.33
   0  -2  -2    4.14    0.30
   0  -2   2    4.04    0.32
   0   2  -2    4.40    0.39
   0   2   2    3.82    0.37
   0   2   2    4.18    0.32
   0   2   2    4.00    0.36
   1  -2   2    0.55    0.20
  -1  -2  -2    0.79    0.16
  -1  -2  -2    0.57    0.16
   1  -2   2    0.71    0.14
  -1  -2  -2    0.46    0.14
   1   2   2    0.60    0.12
  -1   2  -2    0.51    0.17
  -1   2  -2    0.53    0.09
   1   2   2    0.39    0.14
  -1   2  -2    0.60    0.13
   1   2   2    0.79    0.17
  -2  -2  -2   26.92    1.49
   2  -2   2   27.71    1.52
  -2  -2  -2   24.20    1.50
   2  -2   2   22.97    1.55
  -2  -2  -2   22.72    1.48
   2   2   2   22.56    1.48
  -2   2  -2   25.24    1.47
  -2   2  -2   24.45    1.52
   2   2   2   24.16    1.47
  -2   2  -2   26.23    1.49
   3  -2   2   13.27    0.99
  -3  -2  -2   15.01    0.93
   3  -2   2   14.09    0.91
  -3  -2  -2   15.39    0.95
  -3  -2  -2   14.60    0.92
   3  -2   2   14.88    1.02
  -3   2  -2   14.16    0.93
   3   2   2   14.14    0.94
  -3   2  -2   14.24    0.95
  -3   2  -2   15.83    0.95
   3   2   2   14.11    0.91
  -4  -2  -2    3.82    0.41
   4  -2   2    3.45    0.39
  -4  -2  -2    3.58    0.38
  -4  -2  -2    3.85    0.35
   4  -2   2    3.87    0.53
   4  -2   2    3.60    0.44
   4   2   2    3.16    0.34
  -4   2  -2    3.35    0.37
  -4   2  -2    4.27    0.38
   4   2   2    3.82    0.40
  -4   2  -2    3.68    0.41
  -5  -2  -2   16.45    1.06
  -5  -2  -2   14.47    1.00
   5  -2   2   16.55    1.19
   5  -2   2   15.98    1.09
  -5  -2  -2   16.03    1.02
   5  -2   2   15.17    1.05
   5   2   2   15.23    1.08
  -5   2  -2   15.07    1.03
   5   2   2   16.17    1.01
  -5   2  -2   13.55    1.06
  -6  -2  -2   -0.22    0.20
   6  -2   2   -0.16    0.21
  -6  -2  -2   -0.04    0.23
   6  -2   2    0.18    0.39
   6  -2   2   -0.09    0.23
   6   2   2   -0.12    0.27
   6   2   2    0.19    0.20
  -6   2  -2    0.26    0.28
  -6   2  -2    0.02    0.23
   7  -2   2   16.36    1.34
   7  -2   2   14.70    1.09
   7  -2   2   14.68    1.11
  -7  -2  -2   15.06    1.09
  -7   2  -2   13.12    1.03
   7   2   2   13.49    1.03
  -7   2  -2   15.53    1.12
   7   2   2   14.49    1.16
  -8  -2  -2    4.43    0.60
   8  -2   2    4.69    0.68
   8  -2   2    4.01    0.77
   8  -2   2    4.35    0.67
   8   2   2    4.39    0.71
  -8   2  -2    3.56    0.61
   8   2   2    5.17    0.61
   9  -2   2    1.46    0.47
  -9  -2  -2    1.26    0.41
   9  -2   2    2.56    0.80
   9  -2   2    1.57    0.56
  -9   2  -2    1.88    0.54
   9   2   2    1.88    0.66
   9   2   2    1.74    0.57
  -9   2  -2    1.53    0.49
  10  -2   2    1.63    0.56
  10  -2   2    2.31    0.58
 -10  -2  -2    1.85    0.65
 -10  -2  -2    2.60    0.56
  10  -2   2    0.67    0.95
  10   2   2    1.97    0.75
  10   2   2    1.40    0.55
 -10   2  -2    1.69    0.66
 -10   2  -2    2.00    0.61
  11  -2   2    0.10    0.67
  11  -2   2    0.50    0.57
 -11  -2  -2    1.56    0.66
  11  -2   2    0.05    1.18
  11   2   2   -0.34    0.81
  11   2   2   -0.04    0.55
 -11   2  -2    0.97    0.82
  12  -2   2    5.21    1.69
  12  -2   2    5.36    0.97
  12  -2   2    2.87    0.88
  12   2   2    2.67    0.82
  12   2   2    3.04    1.33
  13  -2   2    1.77    1.03
  13  -2   2    3.66    1.96
  13  -2   2   -1.18    1.11
  13   2   2    2.86    2.55
 -12  -3   2    2.74    1.05
  12  -3  -2   -0.07    0.87
  12  -3  -2   -0.10    0.93
  12  -3  -2   -1.40    1.56
 -12   3   2    2.13    1.36
  12   3  -2    0.82    0.75
  12   3  -2   -0.72    1.24
 -11  -3   2    0.62    0.91
  11  -3  -2   -0.79    1.20
  11  -3  -2    0.53    0.69
  11  -3  -2    0.77    0.77
  11   3  -2   -0.34    0.89
 -11   3   2   -0.77    0.97
 -11   3   2    1.37    1.08
  11   3  -2   -0.01    0.59
 -10  -3   2    0.18    0.48
  10  -3  -2   -0.62    0.57
  10  -3  -2    0.13    0.60
  10  -3  -2   -0.69    1.00
 -10  -3   2    0.24    0.68
  10   3  -2    0.66    0.48
  10   3  -2    0.20    0.68
 -10   3   2    1.39    0.78
 -10   3   2    0.48    0.84
   9  -3  -2    2.45    0.58
   9  -3  -2    3.41    0.68
  -9  -3   2    3.32    0.60
   9  -3  -2    2.52    1.02
   9   3  -2    3.46    0.75
  -9   3   2    2.50    0.59
  -9   3   2    3.87    0.80
   9   3  -2    2.90    0.51
   8  -3  -2    4.04    0.69
  -8  -3   2    3.22    0.43
   8  -3  -2    4.90    0.95
   8  -3  -2    2.58    0.64
   8   3  -2    3.88    0.60
   8   3  -2    4.87    0.85
  -8   3   2    3.35    0.84
  -8   3   2    2.90    0.54
   7  -3  -2    0.58    0.61
  -7  -3   2    0.89    0.35
  -7  -3   2    0.62    0.25
   7  -3  -2    0.63    0.37
   7  -3  -2    1.19    0.45
  -7   3   2    0.73    0.47
  -7   3   2    1.65    0.32
  -7   3   2    1.65    0.39
   7   3  -2    1.05    0.30
   7   3  -2    0.97    0.41
   6  -3  -2    1.85    0.63
  -6  -3   2    2.65    0.46
   6  -3  -2    2.47    0.44
  -6  -3   2    2.31    0.36
   6  -3  -2    1.69    0.45
   6   3  -2    2.70    0.46
  -6   3   2    2.72    0.55
   6   3  -2    2.04    0.32
  -6   3   2    2.59    0.40
  -6   3   2    2.97    0.47
  -5  -3   2    1.43    0.31
  -5  -3   2    1.22    0.26
   5  -3  -2    1.36    0.43
   5  -3  -2    1.75    0.34
   5  -3  -2    1.26    0.50
  -5   3   2    1.37    0.36
  -5   3   2    1.19    0.28
  -5   3   2    2.09    0.45
  -5   3   2    1.98    0.48
   5   3  -2    1.57    0.25
   5   3  -2    1.30    0.32
  -4  -3   2   -0.05    0.18
   4  -3  -2    0.23    0.39
   4  -3  -2    0.12    0.19
   4  -3  -2    0.48    0.33
  -4  -3   2    0.21    0.18
   4   3  -2    0.01    0.19
   4   3  -2    0.16    0.15
  -4   3   2   -0.01    0.22
  -4   3   2    0.24    0.19
  -4   3   2   -0.02    0.30
  -4   3   2    0.25    0.30
   3  -3  -2   11.15    0.74
   3  -3  -2   11.40    0.92
  -3  -3   2   10.83    0.72
   3  -3  -2   10.32    0.79
   3   3  -2   10.66    0.71
  -3   3   2   10.32    0.79
   3   3  -2   10.81    0.69
  -3   3   2   10.56    0.85
  -3   3   2    8.92    0.85
  -3   3   2   11.05    0.83
   2  -3  -2    3.28    0.41
   2  -3  -2    3.74    0.34
   2  -3  -2    4.05    0.59
  -2   3   2    3.17    0.37
  -2   3   2    4.26    0.49
  -2   3   2    3.93    0.48
  -2   3   2    4.09    0.54
   2   3  -2    3.91    0.33
   1  -3  -2    4.74    0.42
   1  -3  -2    4.58    0.33
  -1  -3   2    4.88    0.38
   1   3  -2    3.68    0.50
  -1   3   2    4.24    0.46
  -1   3   2    3.85    0.48
  -1   3   2    4.50    0.53
  -1   3   2    3.45    0.49
  -1   3   2    4.32    0.40
   0  -3  -2    0.54    0.18
   0  -3   2    0.97    0.19
   0   3   2    0.44    0.16
   0   3   2    0.68    0.22
   0   3  -2    0.67    0.26
   0   3   2    0.78    0.22
   0   3   2    0.87    0.31
   1  -3   2   18.97    1.16
  -1  -3  -2   18.06    1.14
  -1  -3  -2   21.84    1.19
  -1  -3  -2   16.34    1.20
   1   3   2   17.05    1.17
   1   3   2   17.45    1.17
   1   3   2   18.71    1.14
  -1   3  -2   19.59    1.26
  -1   3  -2   18.81    1.11
  -2  -3  -2   68.46    3.95
  -2  -3  -2   65.48    3.93
   2  -3   2   67.88    3.95
  -2  -3  -2   71.63    4.00
   2  -3   2   71.99    3.99
   2  -3   2   68.76    4.08
  -2   3  -2   69.57    3.93
   2   3   2   65.94    3.94
   2   3   2   69.03    3.95
  -2   3  -2   70.57    4.03
   2   3   2   61.43    3.92
  -2   3  -2   68.09    3.95
  -3  -3  -2    0.72    0.24
  -3  -3  -2    1.01    0.22
   3  -3   2    1.24    0.32
   3  -3   2    1.19    0.33
  -3  -3  -2    1.25    0.29
  -3   3  -2    0.89    0.24
  -3   3  -2    1.70    0.32
   3   3   2    1.26    0.25
  -3   3  -2    1.30    0.26
   3   3   2    1.02    0.22
  -4  -3  -2    1.22    0.25
   4  -3   2    1.15    0.23
  -4  -3  -2    1.09    0.34
   4  -3   2    1.46    0.45
   4  -3   2    1.25    0.40
  -4  -3  -2    1.25    0.26
  -4   3  -2    1.41    0.31
   4   3   2    1.41    0.29
  -4   3  -2    2.34    0.37
  -4   3  -2    1.49    0.29
   4   3   2    1.25    0.26
  -5  -3  -2    0.22    0.29
   5  -3   2    0.26    0.43
  -5  -3  -2   -0.31    0.22
  -5  -3  -2    0.09    0.23
   5  -3   2    0.00    0.33
   5  -3   2    0.02    0.21
  -5   3  -2    0.29    0.23
   5   3   2    0.03    0.20
  -5   3  -2    0.10    0.27
  -5   3  -2    0.12    0.26
   5   3   2    0.03    0.24
  -6  -3  -2   12.05    0.93
   6  -3   2   13.62    0.96
  -6  -3  -2   11.29    0.89
  -6  -3  -2   12.61    0.98
   6  -3   2   12.51    1.10
   6  -3   2   12.01    1.19
   6   3   2   12.59    0.91
  -6   3  -2   12.57    0.97
   6   3   2   12.48    1.00
  -6   3  -2   13.04    1.02
  -6   3  -2   13.21    0.96
  -7  -3  -2   -0.41    0.28
  -7  -3  -2    0.12    0.37
   7  -3   2   -0.37    0.31
   7  -3   2   -0.14    0.41
   7  -3   2    0.98    0.60
  -7   3  -2    0.06    0.36
  -7   3  -2    0.36    0.32
   7   3   2   -0.30    0.36
   7   3   2    0.25    0.26
  -8  -3  -2    5.62    0.73
   8  -3   2    8.80    1.28
   8  -3   2    5.23    0.76
   8  -3   2    6.10    0.93
  -8  -3  -2    5.31    1.05
   8   3   2    5.90    0.91
  -8   3  -2    6.38    0.83
   8   3   2    5.71    0.70
  -8   3  -2    5.49    0.77
  -9  -3  -2   10.18    1.03
   9  -3   2   12.71    1.68
  -9  -3  -2   10.04    1.14
   9  -3   2   11.04    1.08
   9  -3   2   11.52    1.27
  -9   3  -2    8.31    1.05
   9   3   2   11.41    1.32
   9   3   2    9.91    1.03
  -9   3  -2   11.05    1.16
  10  -3   2    3.49    1.22
  10  -3   2    1.57    0.74
  10  -3   2    1.85    0.74
  10   3   2    1.83    0.85
 -10   3  -2    1.72    0.80
  10   3   2    1.72    0.55
  11  -3   2    1.29    0.87
  11  -3   2    1.72    0.75
 -11  -3  -2    1.95    0.80
  11   3   2    2.00    0.71
  11   3   2    2.34    1.02
 -11   3  -2    3.89    0.98
  12  -3   2    2.27    1.01
  12  -3   2    1.89    1.12
  12  -3   2    4.27    1.80
  12   3   2    2.88    0.90
  12  -4  -2    6.12    1.47
  12   4  -2    4.32    1.12
  11  -4  -2    3.19    1.85
  11  -4  -2    1.89    0.89
 -11  -4   2    2.22    0.95
  11  -4  -2    0.29    1.07
  11   4  -2   -0.99    1.06
 -11   4   2   -1.96    1.21
  11   4  -2   -0.70    0.72
 -11   4   2   -0.21    1.30
  10  -4  -2    2.13    0.73
 -10  -4   2    0.66    0.73
  10  -4  -2    1.93    0.92
  10  -4  -2    2.44    1.31
 -10  -4   2    0.81    0.55
 -10   4   2    2.91    1.19
 -10   4   2   -1.21    0.94
  10   4  -2    0.92    0.80
  10   4  -2    1.03    0.59
  -9  -4   2    3.83    0.78
  -9  -4   2    4.83    0.72
   9  -4  -2    5.10    0.81
   9  -4  -2    3.23    0.95
   9  -4  -2    7.06    1.27
   9   4  -2    6.58    0.90
  -9   4   2    4.82    0.93
   9   4  -2    6.93    1.19
  -9   4   2    5.12    1.13
   8  -4  -2    5.29    1.25
   8  -4  -2    9.41    1.52
   8  -4  -2    7.72    0.92
  -8  -4   2    9.01    0.96
   8   4  -2    7.39    0.83
  -8   4   2    6.31    1.08
   8   4  -2    6.58    1.07
  -8   4   2    6.93    1.17
  -8   4   2    7.06    1.46
  -8   4   2    7.27    0.86
   7  -4  -2    8.05    0.85
   7  -4  -2    8.17    1.33
   7  -4  -2    8.16    1.11
  -7   4   2    8.07    1.15
   7   4  -2    8.03    0.73
  -7   4   2    6.34    0.97
   7   4  -2    8.16    0.95
  -7   4   2    7.46    1.09
   6  -4  -2   16.41    1.43
  -6  -4   2   11.70    0.97
   6  -4  -2   12.92    1.30
  -6  -4   2   15.08    1.08
   6  -4  -2   14.42    1.04
  -6   4   2   16.34    1.19
  -6   4   2   13.73    1.10
  -6   4   2   12.97    1.26
  -6   4   2   11.34    1.25
   6   4  -2   14.10    1.11
   6   4  -2   13.36    0.98
   5  -4  -2    0.54    0.32
   5  -4  -2    0.27    0.28
  -5  -4   2    0.28    0.26
   5  -4  -2    0.16    0.55
  -5  -4   2    0.53    0.32
   5   4  -2    0.45    0.23
  -5   4   2    0.16    0.48
   5   4  -2    0.06    0.29
  -5   4   2    1.00    0.36
  -5   4   2    0.44    0.44
  -5   4   2    0.05    0.36
   4  -4  -2    1.69    0.43
   4  -4  -2    1.35    0.53
  -4  -4   2    1.72    0.33
  -4  -4   2    1.71    0.31
   4  -4  -2    1.42    0.27
   4   4  -2    1.44    0.32
   4   4  -2    1.46    0.27
  -4   4   2    2.05    0.39
  -4   4   2    0.89    0.36
  -4   4   2    1.71    0.48
  -4   4   2    1.75    0.47
   3  -4  -2    2.37    0.54
  -3  -4   2    1.67    0.29
   3  -4  -2    1.47    0.36
  -3   4   2    2.28    0.47
  -3   4   2    2.21    0.45
  -3   4   2    1.32    0.44
   3   4  -2    2.23    0.32
  -3   4   2    1.86    0.38
  -2  -4   2    2.14    0.35
   2  -4  -2    2.66    0.39
  -2   4   2    2.34    0.45
   2   4  -2    2.10    0.36
  -2   4   2    3.11    0.46
  -2   4   2    3.16    0.53
  -2   4   2    1.96    0.32
  -2   4   2    2.05    0.51
   1  -4  -2   49.82    2.90
  -1  -4   2   53.13    2.85
  -1   4   2   46.31    2.90
  -1   4   2   46.49    3.01
  -1   4   2   45.59    2.90
  -1   4   2   51.95    2.87
   1   4  -2   46.55    2.78
   1   4  -2   48.16    2.81
  -1   4   2   45.53    2.94
   0  -4   2   28.18    1.56
   0  -4  -2   23.57    1.58
   0   4  -2   25.23    1.49
   0   4  -2   21.77    1.78
   0   4   2   25.34    1.76
   0   4   2   24.26    1.59
   0   4   2   25.02    1.54
   0   4   2   24.41    1.58
  -1  -4  -2    7.88    0.66
   1  -4   2    8.95    0.65
  -1   4  -2    7.95    0.60
   1   4   2    7.72    0.69
   1   4   2    9.81    0.91
  -1   4  -2    7.63    0.81
  -1   4  -2    7.67    0.67
   1   4   2    8.16    0.62
   1   4   2    7.61    0.65
   2  -4   2    1.62    0.31
  -2  -4  -2    1.62    0.39
  -2  -4  -2    1.66    0.32
  -2   4  -2    2.20    0.34
  -2   4  -2    1.82    0.29
  -2   4  -2    2.45    0.46
   2   4   2    1.55    0.25
   2   4   2    1.39    0.29
   2   4   2    1.98    0.33
  -3  -4  -2    1.57    0.32
   3  -4   2    1.45    0.32
  -3  -4  -2    1.51    0.44
   3  -4   2    1.94    0.42
  -3   4  -2    1.65    0.31
   3   4   2    1.81    0.30
   3   4   2    1.19    0.28
  -3   4  -2    2.05    0.35
  -3   4  -2    1.96    0.37
   3   4   2    1.20    0.28
   4  -4   2    2.43    0.39
   4  -4   2    2.48    0.57
  -4  -4  -2    1.90    0.36
   4  -4   2    2.28    0.65
  -4  -4  -2    1.44    0.41
  -4  -4  -2    2.17    0.32
  -4   4  -2    2.17    0.38
  -4   4  -2    1.70    0.38
   4   4   2    2.38    0.36
   4   4   2    2.01    0.34
   4   4   2    2.10    0.36
  -4   4  -2    1.32    0.36
   5  -4   2    2.01    0.61
  -5  -4  -2    2.05    0.36
   5  -4   2    1.87    0.64
  -5  -4  -2    2.84    0.51
  -5  -4  -2    2.99    0.51
  -5   4  -2    2.63    0.44
   5   4   2    2.98    0.54
  -5   4  -2    3.42    0.57
   5   4   2    2.30    0.38
  -5   4  -2    3.64    0.57
   6  -4   2    3.84    0.83
  -6  -4  -2    3.30    0.56
   6  -4   2    3.65    0.73
   6   4   2    3.18    0.54
  -6   4  -2    3.81    0.56
  -6   4  -2    3.99    0.57
   6   4   2    4.30    0.65
  -7  -4  -2    3.64    0.53
   7  -4   2    5.11    0.91
   7  -4   2    3.42    0.75
   7  -4   2    4.20    0.52
  -7  -4  -2    3.16    0.54
  -7  -4  -2    4.24    0.68
   7   4   2    3.76    0.62
  -7   4  -2    3.99    0.62
  -7   4  -2    4.31    0.68
  -7   4  -2    3.19    0.56
   7   4   2    3.91    0.61
   8  -4   2    1.35    0.72
  -8  -4  -2    0.94    0.50
   8  -4   2    1.58    0.48
  -8  -4  -2    1.76    0.68
   8  -4   2   -0.41    0.86
   8   4   2    1.35    0.45
  -8   4  -2    0.63    0.57
   8   4   2    0.82    0.57
  -8   4  -2    1.25    0.51
   9  -4   2    0.30    0.81
   9  -4   2    0.32    0.54
  -9  -4  -2   -0.84    0.59
   9  -4   2   -1.11    1.03
   9   4   2    0.21    0.75
  -9   4  -2    0.56    0.69
   9   4   2    0.72    0.53
  10  -4   2    2.64    1.40
  10  -4   2    2.95    1.05
  10  -4   2    2.77    0.82
 -10  -4  -2    3.91    0.82
 -10   4  -2    3.26    1.00
  10   4   2    3.66    0.77
  10   4   2    3.99    1.06
  11  -4   2    0.23    1.85
  11  -4   2   -0.01    1.23
  11  -4   2    1.91    0.94
  11   4   2    2.16    1.16
  11   4   2    0.46    0.80
  10  -5  -2    1.26    0.85
  10   5  -2    0.17    0.67
 -10   5   2    1.11    1.39
  10   5  -2   -0.32    1.09
   9  -5  -2    0.65    1.34
   9  -5  -2    0.62    0.66
   9   5  -2   -0.68    0.76
   9   5  -2    0.43    0.60
  -9   5   2    0.09    1.03
  -9   5   2    1.51    1.23
  -8  -5   2    0.27    0.73
   8  -5  -2    0.10    1.18
   8  -5  -2   -0.69    0.42
   8  -5  -2   -0.66    0.47
   8   5  -2   -0.15    0.65
  -8   5   2    0.53    0.87
  -8   5   2   -0.22    0.98
   8   5  -2   -0.31    0.71
   7  -5  -2    0.46    0.90
  -7  -5   2    0.13    0.39
   7  -5  -2    1.04    0.37
   7  -5  -2    1.55    0.52
  -7  -5   2    0.06    0.56
   7   5  -2    0.87    0.41
  -7   5   2    1.39    0.59
   7   5  -2    1.70    0.57
  -7   5   2    2.12    1.17
  -7   5   2    1.26    0.69
  -7   5   2    1.14    0.76
   6  -5  -2    5.44    1.04
  -6  -5   2    3.38    0.56
   6  -5  -2    4.33    0.70
  -6   5   2    3.62    0.88
  -6   5   2    2.99    0.74
  -6   5   2    4.80    0.87
   6   5  -2    3.77    0.64
  -6   5   2    4.14    0.67
   6   5  -2    3.90    0.50
  -5  -5   2    0.28    0.30
   5  -5  -2    0.07    0.35
   5  -5  -2    0.45    0.74
  -5   5   2    0.00    0.62
   5   5  -2   -0.06    0.35
  -5   5   2    0.27    0.55
  -5   5   2   -0.29    0.60
   5   5  -2    0.41    0.28
  -5   5   2    0.09    0.45
   4  -5  -2   -0.14    0.31
  -4  -5   2    0.26    0.28
  -4   5   2    0.36    0.58
   4   5  -2    0.40    0.28
  -4   5   2    0.54    0.44
  -4   5   2   -0.01    0.50
  -4   5   2   -0.06    0.56
  -3  -5   2    1.67    0.33
   3  -5  -2    1.21    0.36
  -3   5   2    2.17    0.47
   3   5  -2    0.95    0.52
   3   5  -2    1.27    0.26
  -3   5   2    1.74    0.54
  -3   5   2    1.54    0.51
   3   5  -2    1.91    0.32
  -3   5   2    1.24    0.52
   2  -5  -2    3.66    0.54
  -2  -5   2    3.03    0.45
  -2   5   2    4.46    0.61
  -2   5   2    3.61    0.64
   2   5  -2    3.40    0.39
  -2   5   2    3.34    0.55
   2   5  -2    5.53    0.91
   2   5  -2    4.12    0.52
  -2   5   2    3.05    0.58
  -2   5   2    2.56    0.64
  -1  -5   2    2.20    0.35
   1  -5  -2    1.60    0.38
   1   5  -2    1.60    0.52
  -1   5   2    1.96    0.41
  -1   5   2    1.95    0.51
   1   5  -2    2.11    0.29
  -1   5   2    2.00    0.40
   1   5  -2    2.32    0.39
  -1   5   2    1.66    0.54
   0  -5  -2   11.99    0.95
   0  -5   2   12.38    0.91
   0   5  -2   14.19    1.18
   0   5  -2   12.01    0.87
   0   5   2   11.62    1.03
   0   5   2   12.22    1.17
   0   5   2   13.81    0.97
   0   5   2   13.07    0.96
   0   5  -2   12.25    0.98
   1  -5   2   10.68    0.77
  -1  -5  -2    8.55    0.78
  -1   5  -2    9.33    0.74
   1   5   2   12.02    1.10
   1   5   2    8.81    0.77
  -1   5  -2    8.96    0.85
   1   5   2    8.86    0.77
   1   5   2    8.30    0.85
  -2  -5  -2    1.38    0.32
   2  -5   2    1.67    0.36
  -2   5  -2    2.17    0.36
   2   5   2    1.20    0.60
   2   5   2    1.50    0.38
  -2   5  -2    1.01    0.46
   2   5   2    1.31    0.33
   2   5   2    1.31    0.35
  -3  -5  -2    1.78    0.55
  -3  -5  -2    3.05    0.48
   3  -5   2    1.81    0.37
  -3   5  -2    0.98    0.50
  -3   5  -2    2.15    0.44
  -3   5  -2    1.51    0.40
   3   5   2    1.62    0.36
   3   5   2    0.99    0.36
   3   5   2    1.79    0.34
   4  -5   2    3.39    0.52
  -4  -5  -2    3.75    0.53
  -4  -5  -2    4.56    0.67
   4   5   2    3.29    0.53
   4   5   2    3.36    0.57
  -4   5  -2    3.41    0.52
   4   5   2    3.13    0.56
  -4   5  -2    4.68    0.73
  -4   5  -2    3.36    0.57
   5  -5   2    2.59    0.87
  -5  -5  -2    1.36    0.38
   5  -5   2    1.38    0.38
   5   5   2    1.19    0.39
  -5   5  -2    2.38    0.50
   5   5   2    2.00    0.40
  -5   5  -2    1.46    0.66
  -5   5  -2    0.66    0.49
  -5   5  -2    2.16    0.49
  -6  -5  -2   -0.45    0.60
  -6  -5  -2   -0.02    0.33
   6  -5   2    0.16    0.40
   6  -5   2    0.27    0.69
   6  -5   2   -0.29    0.79
  -6   5  -2   -0.60    0.48
   6   5   2   -0.14    0.38
  -6   5  -2    0.61    0.73
   6   5   2   -0.31    0.40
   6   5   2   -0.09    0.35
  -6   5  -2   -0.25    0.51
  -6   5  -2    0.63    0.50
  -7  -5  -2   12.03    1.11
  -7  -5  -2   15.88    1.51
   7  -5   2   16.69    1.77
   7  -5   2   15.62    1.23
  -7   5  -2   16.12    1.35
   7   5   2   16.69    1.21
   7   5   2   13.42    1.38
   7   5   2   12.40    1.26
  -7   5  -2   13.22    1.39
  -7   5  -2   14.90    1.98
   8  -5   2   -0.32    1.14
   8  -5   2    1.92    0.97
   8  -5   2   -0.35    0.44
   8   5   2    0.87    0.52
   8   5   2    0.34    0.69
  -8   5  -2    1.05    0.73
  -8   5  -2    0.06    1.00
   9  -5   2    1.23    1.15
   9  -5   2    5.27    1.75
  -9   5  -2    3.10    1.24
   9   5   2    1.24    0.70
   9   5   2    2.43    1.04
  10  -5   2   -1.13    1.27
 -10   5  -2    0.76    1.52
  10   5   2    0.58    0.81
  10   5   2   -0.27    1.13
   8  -6  -2    9.48    1.10
   8   6  -2    8.71    1.62
  -8   6   2    5.69    1.51
   8   6  -2    8.13    1.22
   7  -6  -2   -0.16    0.48
   7  -6  -2    0.65    2.07
  -7  -6   2    0.39    0.42
   7   6  -2   -0.29    0.64
   7   6  -2    0.59    0.68
   7   6  -2   -0.17    0.60
  -7   6   2    0.64    1.11
  -6  -6   2   11.03    1.00
   6  -6  -2   12.42    1.11
  -6   6   2   13.33    1.74
   6   6  -2   13.46    1.29
  -6   6   2   10.45    1.56
  -6   6   2   11.95    1.65
   6   6  -2   10.96    1.07
   6   6  -2   11.02    1.13
   5  -6  -2    4.22    0.70
  -5  -6   2    4.26    0.61
   5   6  -2    3.91    0.57
  -5   6   2    5.37    0.91
  -5   6   2    2.68    0.83
   5   6  -2    3.37    0.58
  -5   6   2    4.32    0.98
  -5   6   2    5.14    1.02
  -4  -6   2    1.52    0.41
   4  -6  -2    1.26    0.45
  -4   6   2    2.37    0.70
   4   6  -2    1.58    0.43
   4   6  -2   -0.54    0.85
  -4   6   2    0.55    0.64
  -4   6   2    1.70    0.78
   4   6  -2    0.84    0.39
  -4   6   2    1.41    0.81
  -3  -6   2    9.85    0.90
   3  -6  -2   12.78    1.05
  -3   6   2   13.71    1.48
  -3   6   2   12.82    1.30
  -3   6   2   12.83    1.34
   3   6  -2   10.73    0.95
   3   6  -2   12.13    1.59
   3   6  -2   12.53    1.10
  -3   6   2    9.49    1.42
  -3   6   2   12.77    1.42
  -2  -6   2   -0.15    0.29
   2  -6  -2   -0.31    0.33
   2   6  -2   -0.95    0.70
  -2   6   2    0.38    0.49
  -2   6   2   -0.40    0.61
   2   6  -2    0.17    0.34
  -2   6   2    1.13    0.50
  -2   6   2    0.00    0.65
   2   6  -2    0.24    0.36
  -2   6   2    0.05    0.65
  -1  -6   2    0.68    0.32
   1  -6  -2    0.84    0.40
   1   6  -2    0.31    0.67
  -1   6   2    0.89    0.59
  -1   6   2    1.32    0.47
  -1   6   2   -0.23    0.67
  -1   6   2    1.38    0.71
   1   6  -2    1.08    0.42
   1   6  -2    0.88    0.39
   0  -6  -2    8.33    0.85
   0  -6   2    8.50    0.76
   0   6   2    6.61    1.04
   0   6  -2    8.57    0.83
   0   6   2    7.62    1.01
   0   6   2    9.58    0.93
   0   6  -2    5.62    1.04
   0   6   2    7.23    0.80
   0   6  -2    8.86    0.90
   0   6   2    6.92    1.16
   1  -6   2    2.25    0.45
  -1  -6  -2    2.26    0.47
   1   6   2    2.36    0.58
   1   6   2    1.87    0.73
  -1   6  -2    2.48    0.70
   1   6   2    2.09    0.45
   1   6   2    2.11    0.50
  -1   6  -2    1.98    0.42
   1   6   2    2.07    0.86
  -1   6  -2    3.00    0.61
   2  -6   2    0.31    0.33
  -2  -6  -2    0.00    0.30
   2   6   2   -0.15    0.41
   2   6   2    1.24    0.71
   2   6   2    0.43    0.43
  -2   6  -2    0.55    0.57
   2   6   2    0.15    0.34
  -2   6  -2   -0.60    0.75
  -2   6  -2    0.61    0.69
  -3  -6  -2   10.21    0.89
   3  -6   2    9.72    0.87
   3   6   2   10.18    0.94
   3   6   2    8.83    0.93
  -3   6  -2    8.35    1.14
  -3   6  -2    9.24    1.18
   3   6   2   10.07    0.98
   4  -6   2    1.28    0.44
  -4  -6  -2    1.24    0.44
  -4   6  -2    1.49    0.74
   4   6   2    1.14    0.48
   4   6   2    1.13    0.47
   4   6   2    1.65    0.53
  -4   6  -2   -0.21    0.66
   5  -6   2   -0.55    0.40
  -5  -6  -2    1.22    0.88
  -5  -6  -2    0.31    0.41
  -5   6  -2    0.10    0.83
  -5   6  -2   -1.01    0.69
   5   6   2    0.13    0.49
   5   6   2   -0.12    0.48
   5   6   2   -0.30    0.51
  -5   6  -2   -0.29    0.52
  -6  -6  -2    0.00    0.42
   6  -6   2   -0.54    0.38
   6   6   2   -0.51    0.60
  -6   6  -2   -0.84    0.79
   6   6   2   -0.22    0.61
   6   6   2    0.38    0.49
   7  -6   2   11.03    1.08
   7   6   2   11.26    1.19
  -7   6  -2    8.72    1.52
   7   6   2    9.92    1.47
   8  -6   2    2.95    0.68
   8   6   2    2.37    0.78
   8   6   2    3.53    1.10
  -8   6  -2    1.34    1.43
  -6  -7   2    0.46    0.60
   6  -7  -2    1.20    0.73
  -6   7   2    4.53    1.44
   6   7  -2    1.60    0.69
  -6   7   2    1.55    1.25
   5  -7  -2    0.21    0.53
  -5  -7   2    0.17    0.44
  -5   7   2    1.28    1.03
   5   7  -2    0.47    0.59
  -5   7   2    2.23    1.26
   4  -7  -2    0.31    0.53
  -4  -7   2    0.87    0.45
   4   7  -2    0.19    0.54
   4   7  -2   -0.19    0.92
  -4   7   2    1.45    0.88
  -4   7   2   -0.05    1.10
  -4   7   2   -0.93    1.18
   3  -7  -2    0.16    0.47
  -3  -7   2    0.17    0.39
  -3   7   2    1.75    0.97
   3   7  -2    0.54    0.64
  -3   7   2   -0.06    0.69
   3   7  -2   -0.96    0.50
  -2  -7   2    3.53    0.57
  -2   7   2    4.57    1.03
   2   7  -2    4.47    0.68
   2   7  -2    6.45    1.07
   1  -7  -2    0.36    0.45
   1   7  -2    0.15    0.59
   1   7  -2    1.11    0.68
  -1   7   2    1.08    0.76
  -1   7   2    1.90    0.74
   0  -7   2    0.28    0.39
   0  -7  -2   -0.58    0.39
   0   7   2   -0.51    0.70
   0   7  -2    0.56    0.64
   0   7  -2    0.98    0.60
   0   7   2    2.29    0.81
  -1  -7  -2    0.48    0.40
   1  -7   2    0.52    0.43
   1   7   2    0.22    0.73
   1   7   2    1.49    0.68
  -1   7  -2    0.39    0.77
   2  -7   2    0.71    0.42
  -2  -7  -2    0.82    0.47
   2   7   2    0.49    0.61
  -2   7  -2    1.89    0.82
   2   7   2    1.09    0.79
  -2   7  -2    0.36    0.86
   3  -7   2    1.31    0.48
  -3  -7  -2    1.91    0.51
  -3   7  -2    1.47    0.90
   3   7   2    2.60    0.82
  -3   7  -2    2.19    0.98
  -4  -7  -2    2.43    0.73
   4  -7   2    3.14    0.62
  -4   7  -2    1.54    1.09
  -4   7  -2   -0.69    1.18
   4   7   2    1.20    0.68
   5  -7   2    0.28    0.52
  -5  -7  -2    1.15    0.61
   5   7   2   -0.55    0.74
   5   7   2    1.78    0.73
  -5   7  -2    3.46    1.21
  14   0  -3    0.17    0.72
 -13   0   3   -0.10    1.20
  13   0  -3    2.91    1.59
  13   0  -3   -1.41    0.78
  13   0  -3   -0.23    0.57
  12   0  -3    0.52    0.65
  12   0  -3    0.69    1.15
 -12   0   3    1.68    1.03
  11   0  -3   -0.18    0.35
  11   0  -3    0.19    0.78
  11   0  -3   -0.97    0.48
 -11   0   3   -0.09    0.45
 -11   0   3    0.27    0.67
  10   0  -3    0.08    0.26
 -10   0   3    1.39    0.54
  10   0  -3   -0.21    0.66
  10   0  -3    0.01    0.48
   9   0  -3    0.00    0.23
   9   0  -3   -0.44    0.48
  -9   0   3    0.61    0.42
   9   0  -3   -0.42    0.31
  -9   0   3    0.56    0.31
   8   0  -3    0.17    0.19
   8   0  -3   -0.31    0.44
  -8   0   3    0.46    0.25
   8   0  -3    0.18    0.29
  -8   0   3    0.21    0.35
   7   0  -3    0.11    0.20
  -7   0   3    0.16    0.27
  -7   0   3   -0.04    0.20
   7   0  -3   -0.40    0.35
   6   0  -3    0.16    0.31
  -6   0   3   -0.11    0.15
  -6   0   3    0.01    0.22
   6   0  -3    0.00    0.21
  -5   0   3    0.01    0.12
   5   0  -3    0.01    0.14
   5   0  -3    0.13    0.26
  -4   0   3    0.11    0.17
  -4   0   3    0.23    0.12
   4   0  -3    0.12    0.13
   4   0  -3   -0.02    0.22
  -3   0   3    0.01    0.07
   3   0  -3    0.12    0.16
   3   0  -3   -0.04    0.10
  -3   0   3    0.06    0.13
  -3   0   3    0.10    0.14
   2   0  -3   -0.28    0.14
   2   0  -3   -0.42    0.08
   2   0  -3   -0.33    0.03
  -2   0   3   -0.34    0.12
  -2   0   3   -0.25    0.07
  -2   0   3   -0.31    0.11
   2   0  -3   -0.32    0.09
   1   0  -3   -0.76    0.10
  -1   0   3   -0.83    0.09
  -1   0   3   -0.71    0.06
   1   0  -3   -0.72    0.07
   0   0  -3   -0.11    0.07
   0   0  -3   -0.12    0.09
   0   0   3   -0.02    0.05
   0   0  -3    0.05    0.05
   0   0   3   -0.06    0.08
   0   0  -3   -0.10    0.07
  -1   0  -3   -0.05    0.05
   1   0   3   -0.02    0.06
  -1   0  -3   -0.11    0.06
  -1   0  -3   -0.05    0.07
  -1   0  -3   -0.12    0.05
   1   0   3   -0.09    0.05
   2   0   3   -0.38    0.09
   2   0   3   -0.16    0.08
  -2   0  -3   -0.36    0.09
  -2   0  -3   -0.23    0.09
   3   0   3    0.03    0.09
   3   0   3   -0.15    0.11
  -3   0  -3   -0.07    0.11
  -3   0  -3   -0.05    0.09
   4   0   3   -0.20    0.16
  -4   0  -3   -0.16    0.13
   4   0   3   -0.02    0.11
  -4   0  -3   -0.19    0.10
  -5   0  -3    0.02    0.14
   5   0   3   -0.02    0.20
   5   0   3   -0.05    0.13
  -5   0  -3   -0.18    0.16
  -6   0  -3   -0.25    0.15
   6   0   3    0.09    0.29
   6   0   3   -0.19    0.18
  -6   0  -3   -0.02    0.20
  -7   0  -3    0.14    0.37
  -7   0  -3   -0.06    0.21
   7   0   3    0.36    0.42
   7   0   3    0.37    0.23
  -8   0  -3   -0.12    0.24
   8   0   3    0.60    0.32
   8   0   3   -0.06    0.42
  -8   0  -3    0.37    0.36
   9   0   3   -0.10    0.34
   9   0   3    0.13    0.60
  -9   0  -3   -0.06    0.42
  10   0   3   -0.36    0.38
 -10   0  -3    0.07    0.53
  10   0   3    0.50    0.38
 -10   0  -3    0.16    0.46
 -11   0  -3    0.84    0.76
  11   0   3   -0.06    0.43
  11   0   3    1.23    0.95
  12   0   3   -0.07    0.53
  12   0   3   -1.20    0.69
  12   0   3   -0.71    1.15
  13   0   3   -1.56    0.97
  13   0   3    0.37    1.60
  13   0   3   -1.14    0.76
 -13  -1   3    1.54    1.23
  13  -1  -3    1.47    1.46
  13  -1  -3    1.56    0.77
  13  -1  -3    2.72    0.76
  13   1  -3    1.69    0.90
  13   1  -3    1.90    1.53
  13   1  -3    1.94    0.65
 -13   1   3   -0.03    1.27
  12  -1  -3   -0.50    1.13
 -12  -1   3    0.18    0.97
  12  -1  -3    0.29    0.67
  12  -1  -3    0.71    0.55
 -12  -1   3   -0.11    0.68
 -12   1   3    1.88    1.13
  12   1  -3    0.46    1.09
  12   1  -3    1.33    0.66
  12   1  -3    0.11    0.43
  11  -1  -3    2.22    0.62
 -11  -1   3    2.47    0.68
  11  -1  -3    1.71    0.96
  11  -1  -3    1.54    0.52
 -11  -1   3    2.79    0.57
 -11   1   3    2.24    0.78
  11   1  -3    2.52    0.62
  11   1  -3    3.02    0.98
  10  -1  -3    7.92    0.96
 -10  -1   3    7.48    1.01
  10  -1  -3    9.42    1.53
  10  -1  -3    8.02    0.83
 -10   1   3   10.56    0.92
  10   1  -3    7.30    0.89
  10   1  -3   10.39    1.36
 -10   1   3    8.32    1.15
   9  -1  -3   10.13    1.37
  -9  -1   3    9.24    0.78
   9  -1  -3    8.96    0.92
   9  -1  -3    8.42    0.78
   9   1  -3    8.96    0.89
   9   1  -3   11.34    1.23
  -9   1   3    9.63    1.05
  -8  -1   3    1.72    0.39
   8  -1  -3    1.31    0.28
   8  -1  -3    1.32    0.42
  -8  -1   3    1.34    0.31
   8  -1  -3    1.17    0.60
   8   1  -3    1.08    0.52
   8   1  -3    1.24    0.35
  -8   1   3    1.08    0.44
  -8   1   3    1.08    0.32
  -7  -1   3    5.17    0.59
   7  -1  -3    3.83    0.44
   7  -1  -3    3.88    0.55
  -7  -1   3    4.19    0.43
   7  -1  -3    3.14    0.65
  -7   1   3    4.10    0.53
   7   1  -3    4.81    0.71
  -7   1   3    3.76    0.62
   7   1  -3    4.48    0.51
  -6  -1   3   36.80    2.17
   6  -1  -3   35.35    2.19
   6  -1  -3   37.43    2.27
   6  -1  -3   37.48    2.40
  -6  -1   3   37.45    2.24
  -6   1   3   37.76    2.32
  -6   1   3   35.34    2.22
   6   1  -3   35.53    2.32
   6   1  -3   37.78    2.22
   5  -1  -3   23.32    1.43
  -5  -1   3   22.84    1.39
  -5  -1   3   22.48    1.45
   5  -1  -3   22.57    1.59
  -5   1   3   23.32    1.46
   5   1  -3   22.54    1.42
  -5   1   3   24.09    1.54
   5   1  -3   25.20    1.53
   4  -1  -3   33.82    2.06
  -4  -1   3   33.77    1.99
   4  -1  -3   34.07    2.02
   4  -1  -3   35.82    2.15
  -4  -1   3   36.04    2.04
  -4   1   3   33.50    2.05
  -4   1   3   34.16    2.00
   4   1  -3   33.04    2.01
   3  -1  -3  174.18   10.79
  -3  -1   3  184.36   10.77
  -3  -1   3  187.32   10.73
  -3  -1   3  181.87   10.77
   3  -1  -3  197.75   10.78
   3  -1  -3  194.18   10.85
  -3   1   3  204.09   10.85
  -3   1   3  185.75   10.82
  -3   1   3  202.46   10.76
   3   1  -3  182.52   10.74
  -3   1   3  197.89   10.80
  -2  -1   3   21.26    1.24
   2  -1  -3   23.00    1.30
  -2  -1   3   19.31    1.25
   2  -1  -3   20.17    1.28
  -2  -1   3   21.89    1.22
   2  -1  -3   22.21    1.32
   2   1  -3   22.76    1.27
   2   1  -3   22.65    1.29
  -2   1   3   20.91    1.27
  -2   1   3   18.25    1.33
  -2   1   3   22.72    1.30
   1  -1  -3    3.03    0.31
   1  -1  -3    3.41    0.29
   1  -1  -3    3.25    0.40
  -1  -1   3    3.19    0.20
  -1   1   3    2.56    0.32
  -1   1   3    3.22    0.28
  -1   1   3    2.20    0.37
   1   1  -3    3.02    0.26
   0  -1   3  114.36    6.29
   0  -1  -3  122.20    6.33
   0  -1  -3  103.90    6.35
   0  -1  -3  113.67    6.33
   0  -1  -3  109.39    6.34
   0   1   3  113.28    6.35
   0   1  -3  110.48    6.33
   0   1   3  104.08    6.33
   0   1   3  112.87    6.33
  -1  -1  -3   51.06    2.79
  -1  -1  -3   46.90    2.80
   1  -1   3   47.67    2.81
   1  -1   3   47.23    2.78
  -1  -1  -3   44.88    2.82
   1   1   3   49.28    2.80
  -1   1  -3   46.24    2.80
  -1   1  -3   48.39    2.77
   1   1   3   52.66    2.80
  -1   1  -3   49.23    2.77
   1   1   3   48.21    2.81
   2  -1   3  213.51   12.34
  -2  -1  -3  215.59   12.36
   2  -1   3  205.70   12.36
  -2  -1  -3  226.19   12.35
  -2   1  -3  216.12   12.33
   2   1   3  208.75   12.34
   2   1   3  233.68   12.36
  -2   1  -3  228.53   12.36
  -3  -1  -3    8.36    0.65
   3  -1   3    8.46    0.64
  -3  -1  -3    9.43    0.63
   3  -1   3   11.38    0.71
   3  -1   3    8.98    0.63
  -3   1  -3    9.89    0.62
  -3   1  -3   10.36    0.65
   3   1   3   10.23    0.67
   3   1   3    9.32    0.63
   4  -1   3    3.13    0.34
   4  -1   3    3.19    0.34
  -4  -1  -3    3.69    0.37
  -4  -1  -3    3.70    0.33
  -4   1  -3    3.53    0.32
   4   1   3    3.10    0.38
   4   1   3    3.55    0.34
  -4   1  -3    4.09    0.37
   5  -1   3   19.62    1.24
  -5  -1  -3   18.05    1.24
   5  -1   3   19.68    1.24
  -5  -1  -3   19.32    1.21
   5   1   3   18.02    1.21
  -5   1  -3   19.71    1.26
  -5   1  -3   20.43    1.22
   5   1   3   20.29    1.30
   6  -1   3    9.79    0.94
   6  -1   3   10.38    0.80
  -6  -1  -3   11.91    0.84
  -6  -1  -3   11.74    0.78
   6  -1   3   11.31    0.80
   6   1   3   10.92    0.89
  -6   1  -3    9.73    0.83
   6   1   3    9.82    0.78
  -6   1  -3   10.58    0.77
   7  -1   3    0.90    0.27
  -7  -1  -3    1.35    0.27
  -7  -1  -3    0.90    0.35
   7  -1   3    1.06    0.35
   7  -1   3    0.45    0.44
  -7   1  -3    1.13    0.33
  -7   1  -3    1.18    0.30
   7   1   3    0.88    0.26
   7   1   3    1.28    0.42
  -8  -1  -3    0.12    0.37
   8  -1   3   -0.02    0.27
   8  -1   3    0.00    0.49
  -8  -1  -3    0.34    0.29
   8  -1   3    0.65    0.28
  -8   1  -3    0.60    0.38
   8   1   3    0.46    0.29
   8   1   3    0.64    0.48
   9  -1   3    4.54    0.63
   9  -1   3    6.98    1.13
  -9  -1  -3    4.65    0.81
   9  -1   3    4.27    0.64
   9   1   3    5.24    0.98
  -9   1  -3    4.21    0.79
   9   1   3    5.17    1.04
  10  -1   3    7.86    1.03
  10  -1   3    8.02    1.26
 -10  -1  -3    5.97    1.08
  10  -1   3    6.91    0.85
  10   1   3   10.15    1.27
 -10   1  -3    5.93    0.91
  10   1   3    7.70    0.95
 -10   1  -3    7.47    1.10
  11  -1   3    8.93    1.08
  11  -1   3   11.50    1.91
  11  -1   3    9.93    1.23
 -11   1  -3    7.02    1.09
  11   1   3   10.23    1.20
  11   1   3    7.58    1.27
  12  -1   3    0.45    0.87
  12  -1   3    0.30    1.31
  12  -1   3    0.77    0.65
  12   1   3    0.35    0.75
  12   1   3   -0.99    1.09
  13  -1   3    2.14    1.68
  13  -1   3    0.53    1.13
  13  -1   3    0.11    0.80
  13   1   3   -0.62    0.90
  13   1   3    1.28    0.80
  13  -2  -3    2.15    1.00
 -13  -2   3    1.68    1.19
  13  -2  -3    2.10    1.69
  13  -2  -3    0.44    0.96
 -13   2   3    0.80    1.48
  13   2  -3    0.27    0.83
  13   2  -3   -1.35    1.44
 -12  -2   3    1.50    1.03
 -12  -2   3    0.64    0.62
  12  -2  -3    1.89    1.18
  12  -2  -3    0.38    0.73
  12  -2  -3    0.93    0.72
  12   2  -3    0.54    0.66
  12   2  -3    3.56    1.24
 -12   2   3    0.47    1.08
  11  -2  -3    1.56    0.71
  11  -2  -3    1.64    1.12
 -11  -2   3    3.10    0.95
  11   2  -3    3.99    1.05
  11   2  -3    2.20    0.65
 -11   2   3    4.70    1.09
 -11   2   3    0.67    0.84
 -10  -2   3    0.46    0.55
  10  -2  -3    0.33    0.58
 -10  -2   3    0.19    0.38
  10  -2  -3    0.54    0.47
  10  -2  -3    1.19    0.93
 -10   2   3   -0.38    0.50
  10   2  -3    0.46    0.41
 -10   2   3    0.70    0.70
  10   2  -3    0.32    0.72
   9  -2  -3   25.74    2.04
   9  -2  -3   24.46    1.69
  -9  -2   3   22.92    1.51
   9  -2  -3   22.19    1.64
   9   2  -3   23.43    1.80
  -9   2   3   21.15    1.75
   9   2  -3   22.80    1.61
   8  -2  -3    0.79    0.40
  -8  -2   3    0.29    0.33
  -8  -2   3    0.21    0.23
   8  -2  -3    0.25    0.58
   8  -2  -3    0.17    0.34
  -8   2   3    0.30    0.34
  -8   2   3    0.39    0.45
   8   2  -3   -0.22    0.44
   8   2  -3    0.40    0.28
   7  -2  -3    4.69    0.56
   7  -2  -3    5.02    0.91
  -7  -2   3    3.87    0.41
   7  -2  -3    4.49    0.59
  -7  -2   3    2.68    0.51
   7   2  -3    3.36    0.56
   7   2  -3    3.90    0.48
  -7   2   3    3.96    0.64
  -7   2   3    4.40    0.56
   6  -2  -3    0.20    0.27
  -6  -2   3   -0.13    0.20
   6  -2  -3    0.09    0.23
  -6  -2   3    0.00    0.15
   6  -2  -3    0.24    0.45
  -6   2   3    0.21    0.17
  -6   2   3    0.55    0.25
   6   2  -3    0.23    0.29
  -6   2   3    0.19    0.34
   6   2  -3    0.21    0.19
   5  -2  -3    7.87    0.67
  -5  -2   3    7.53    0.52
  -5  -2   3    7.49    0.64
   5  -2  -3    7.07    0.84
  -5  -2   3    6.93    0.58
   5  -2  -3    7.33    0.66
  -5   2   3    8.45    0.65
  -5   2   3    7.79    0.74
   5   2  -3    6.92    0.65
  -5   2   3    7.70    0.57
  -5   2   3    8.13    0.76
   5   2  -3    7.62    0.56
   4  -2  -3   97.75    5.78
  -4  -2   3   96.10    5.71
   4  -2  -3   99.84    5.77
  -4  -2   3   97.02    5.71
  -4  -2   3   95.84    5.67
   4   2  -3   96.59    5.69
  -4   2   3  100.94    5.77
   4   2  -3  109.81    5.76
  -4   2   3  103.64    5.75
  -4   2   3  102.77    5.83
   3  -2  -3   21.70    1.35
  -3  -2   3   22.23    1.30
  -3  -2   3   24.16    1.30
   3  -2  -3   19.77    1.38
   3  -2  -3   20.72    1.44
  -3   2   3   20.52    1.35
   3   2  -3   22.28    1.33
   3   2  -3   23.66    1.28
  -3   2   3   19.27    1.42
  -3   2   3   22.07    1.42
  -3   2   3   22.46    1.37
   2  -2  -3   52.92    3.01
  -2  -2   3   51.50    2.97
  -2   2   3   47.48    3.05
  -2   2   3   51.45    3.02
  -2   2   3   56.18    3.10
  -2   2   3   51.62    3.05
   1  -2  -3    5.19    0.39
   1  -2  -3    5.04    0.42
   1  -2  -3    5.23    0.43
  -1  -2   3    5.22    0.36
  -1   2   3    6.11    0.42
   1   2  -3    4.93    0.46
  -1   2   3    5.06    0.51
  -1   2   3    5.13    0.46
  -1   2   3    4.90    0.48
   0  -2  -3    7.49    0.53
   0  -2  -3    6.83    0.54
   0  -2   3    8.40    0.49
   0  -2  -3    7.03    0.50
   0  -2  -3    7.87    0.58
   0   2  -3    7.73    0.56
   0   2   3    7.35    0.56
   0   2   3    7.02    0.55
   0   2   3    7.78    0.52
   1  -2   3    4.80    0.34
   1  -2   3    3.54    0.44
  -1  -2  -3    4.42    0.41
  -1  -2  -3    4.71    0.39
  -1   2  -3    4.47    0.40
   1   2   3    4.18    0.38
   1   2   3    4.85    0.35
   1   2   3    4.60    0.40
  -2  -2  -3    0.47    0.18
   2  -2   3    0.48    0.16
  -2  -2  -3    0.35    0.16
  -2  -2  -3    0.41    0.16
   2  -2   3    0.39    0.19
   2   2   3    0.31    0.14
  -2   2  -3    0.59    0.13
   2   2   3    0.31    0.13
  -2   2  -3    0.61    0.14
   2   2   3    0.38    0.16
  -2   2  -3    0.52    0.16
  -3  -2  -3   11.82    0.73
   3  -2   3   10.65    0.81
  -3  -2  -3   10.98    0.75
   3  -2   3   10.11    0.80
   3  -2   3   10.42    0.71
  -3  -2  -3   11.73    0.79
  -3   2  -3   11.36    0.74
  -3   2  -3   11.09    0.76
   3   2   3   11.23    0.76
  -3   2  -3   10.88    0.73
   3   2   3   10.31    0.73
  -4  -2  -3   52.86    2.92
  -4  -2  -3   47.67    2.89
   4  -2   3   48.98    2.91
   4  -2   3   51.52    3.01
   4  -2   3   46.61    2.98
  -4  -2  -3   50.86    2.95
  -4   2  -3   49.78    2.94
  -4   2  -3   52.28    2.94
   4   2   3   46.08    2.93
   4   2   3   51.60    2.91
  -4   2  -3   48.90    2.91
  -5  -2  -3   15.97    1.14
   5  -2   3   18.06    1.19
  -5  -2  -3   16.02    1.08
  -5  -2  -3   18.32    1.11
   5  -2   3   14.22    1.23
   5  -2   3   16.97    1.12
  -5   2  -3   17.45    1.10
   5   2   3   18.06    1.16
   5   2   3   17.74    1.10
  -5   2  -3   15.40    1.12
  -6  -2  -3   78.07    4.30
   6  -2   3   70.24    4.36
   6  -2   3   65.64    4.42
  -6  -2  -3   75.62    4.34
   6  -2   3   73.02    4.32
   6   2   3   73.38    4.29
  -6   2  -3   76.35    4.34
   6   2   3   76.69    4.38
  -7  -2  -3    4.67    0.54
   7  -2   3    3.73    0.70
   7  -2   3    3.86    0.57
  -7  -2  -3    3.17    0.59
   7  -2   3    3.25    0.56
  -7   2  -3    5.11    0.55
   7   2   3    4.46    0.70
  -7   2  -3    5.15    0.63
   7   2   3    4.01    0.52
   8  -2   3    2.21    0.44
   8  -2   3    2.38    0.49
  -8  -2  -3    2.38    0.41
   8  -2   3    2.27    0.73
   8   2   3    2.05    0.43
  -8   2  -3    3.08    0.45
   8   2   3    2.29    0.57
   9  -2   3   -0.11    0.38
   9  -2   3    0.56    0.72
  -9  -2  -3    0.81    0.47
  -9   2  -3    0.72    0.49
   9   2   3    1.38    0.64
  -9   2  -3    0.94    0.44
   9   2   3    0.44    0.34
 -10  -2  -3    1.57    0.77
  10  -2   3    0.17    0.50
  10  -2   3    0.00    0.85
  10  -2   3    0.64    0.51
 -10  -2  -3   -0.14    0.51
  10   2   3    0.06    0.45
  10   2   3    0.78    0.73
 -10   2  -3    0.04    0.64
 -10   2  -3    0.92    0.61
  11  -2   3    8.17    1.19
  11  -2   3    7.78    1.18
 -11  -2  -3    8.58    1.34
  11  -2   3    6.42    1.45
 -11   2  -3    7.18    1.15
  11   2   3    9.32    1.20
  11   2   3   11.55    1.74
  12  -2   3    3.44    0.86
  12  -2   3    2.03    0.92
  12  -2   3    1.87    1.65
  12   2   3    2.18    0.85
  12   2   3    0.58    1.25
 -12  -3   3    2.71    1.13
  12  -3  -3    3.38    1.69
  12  -3  -3    3.44    1.07
  12  -3  -3    2.61    1.02
  12   3  -3    5.07    1.42
 -12   3   3    4.12    1.38
  12   3  -3    2.98    0.89
 -11  -3   3    1.75    0.82
 -11  -3   3    1.18    0.59
  11  -3  -3    0.35    0.82
  11  -3  -3    0.83    0.66
  11  -3  -3    1.67    1.27
 -11   3   3    1.39    1.04
 -11   3   3    3.00    1.10
  11   3  -3    2.40    0.71
  11   3  -3    1.64    0.97
 -10  -3   3    1.03    0.47
  10  -3  -3    1.49    1.02
 -10  -3   3    0.17    0.62
  10  -3  -3    0.40    0.57
  10  -3  -3   -0.78    1.05
 -10  -3   3    0.53    0.71
  10   3  -3    1.32    0.52
 -10   3   3   -0.13    0.79
 -10   3   3    1.28    0.94
  10   3  -3   -0.83    0.66
   9  -3  -3    4.13    0.69
  -9  -3   3    4.30    0.69
   9  -3  -3    5.43    1.14
  -9  -3   3    5.76    0.81
   9  -3  -3    5.08    0.78
  -9  -3   3    3.59    0.62
   9   3  -3    3.17    0.55
  -9   3   3    2.80    0.62
   9   3  -3    3.24    0.75
  -9   3   3    3.93    0.86
  -9   3   3    4.59    0.80
   8  -3  -3    4.65    0.75
  -8  -3   3    5.16    0.79
   8  -3  -3    4.79    0.71
   8  -3  -3    6.39    0.98
  -8  -3   3    4.27    0.55
  -8   3   3    5.53    0.87
  -8   3   3    3.51    0.76
   8   3  -3    6.20    0.64
  -8   3   3    6.15    0.80
   8   3  -3    4.94    0.87
  -7  -3   3    0.73    0.34
  -7  -3   3    0.00    0.30
  -7  -3   3   -0.06    0.21
   7  -3  -3    0.11    0.35
   7  -3  -3    0.56    0.36
   7  -3  -3   -0.01    0.63
  -7   3   3   -0.44    0.46
   7   3  -3    0.87    0.37
  -7   3   3    0.15    0.26
   7   3  -3    0.48    0.25
  -7   3   3    0.19    0.51
  -7   3   3    0.46    0.37
  -6  -3   3    1.11    0.21
  -6  -3   3    0.96    0.30
   6  -3  -3    1.10    0.41
  -6  -3   3    1.32    0.31
   6  -3  -3    1.16    0.57
   6  -3  -3    1.56    0.36
   6   3  -3    0.92    0.26
  -6   3   3    1.73    0.49
  -6   3   3    1.08    0.36
   6   3  -3    1.43    0.38
  -6   3   3    1.41    0.48
   5  -3  -3   11.06    0.87
  -5  -3   3    9.87    0.78
   5  -3  -3   11.03    0.99
  -5  -3   3   12.24    0.81
   5  -3  -3   12.93    1.14
   5   3  -3   11.30    0.87
  -5   3   3   11.87    0.92
  -5   3   3   11.23    1.01
  -5   3   3   10.54    1.01
  -5   3   3   11.18    0.85
   5   3  -3   11.17    0.77
  -4  -3   3    2.01    0.32
   4  -3  -3    2.29    0.39
  -4  -3   3    2.58    0.33
   4  -3  -3    3.44    0.56
   4   3  -3    2.63    0.29
  -4   3   3    2.76    0.44
  -4   3   3    1.99    0.36
   4   3  -3    2.26    0.38
  -4   3   3    2.06    0.45
  -4   3   3    2.72    0.49
  -3  -3   3   10.10    0.66
   3  -3  -3    9.75    0.70
   3  -3  -3   10.78    0.90
   3  -3  -3    8.78    0.74
   3   3  -3    9.25    0.67
  -3   3   3    9.67    0.83
  -3   3   3   10.27    0.76
  -3   3   3   10.13    0.79
  -3   3   3    9.09    0.86
   3   3  -3   10.25    0.63
   2  -3  -3    5.38    0.64
   2  -3  -3    4.79    0.41
  -2  -3   3    5.20    0.40
   2  -3  -3    5.87    0.49
  -2   3   3    4.52    0.61
  -2   3   3    4.76    0.46
  -2   3   3    4.75    0.55
  -2   3   3    5.17    0.55
   1  -3  -3   25.25    1.49
  -1  -3   3   24.52    1.50
   1  -3  -3   27.87    1.58
  -1   3   3   25.16    1.64
   1   3  -3   27.30    1.65
  -1   3   3   24.78    1.60
  -1   3   3   24.08    1.54
  -1   3   3   22.40    1.57
   0  -3   3    2.60    0.28
   0  -3  -3    2.32    0.32
   0  -3  -3    2.54    0.34
   0   3   3    2.93    0.32
   0   3   3    2.56    0.39
   0   3   3    2.56    0.42
   0   3  -3    2.74    0.41
   0   3   3    2.48    0.38
  -1  -3  -3    1.58    0.26
  -1  -3  -3    1.27    0.23
  -1  -3  -3    1.49    0.31
   1  -3   3    1.71    0.25
   1   3   3    1.47    0.27
   1   3   3    1.72    0.26
  -1   3  -3    1.77    0.31
   1   3   3    1.78    0.29
  -2  -3  -3   35.85    2.24
  -2  -3  -3   37.06    2.25
   2  -3   3   38.22    2.23
   2  -3   3   36.77    2.37
  -2  -3  -3   39.81    2.31
   2   3   3   37.19    2.24
  -2   3  -3   35.60    2.22
  -2   3  -3   38.92    2.21
   2   3   3   39.67    2.23
   2   3   3   38.65    2.25
  -2   3  -3   36.13    2.30
   3  -3   3    7.51    0.72
  -3  -3  -3    7.98    0.64
   3  -3   3    8.15    0.81
  -3  -3  -3    9.97    0.64
  -3  -3  -3    7.62    0.69
  -3   3  -3    7.96    0.67
   3   3   3    7.48    0.61
   3   3   3    8.01    0.63
  -3   3  -3    9.22    0.63
  -3   3  -3    8.49    0.62
   3   3   3    7.90    0.63
  -4  -3  -3    0.12    0.18
  -4  -3  -3    0.08    0.22
   4  -3   3    0.06    0.28
   4  -3   3    0.95    0.39
  -4  -3  -3    0.49    0.29
   4   3   3   -0.13    0.20
  -4   3  -3    0.60    0.25
  -4   3  -3    0.20    0.20
   4   3   3    0.08    0.21
   5  -3   3    7.02    0.62
  -5  -3  -3    6.92    0.73
  -5  -3  -3    8.13    0.65
  -5  -3  -3    6.89    0.61
   5  -3   3    6.89    0.80
  -5   3  -3    8.40    0.68
  -5   3  -3    6.83    0.65
   5   3   3    7.52    0.68
  -5   3  -3    7.82    0.69
   5   3   3    7.34    0.62
   6  -3   3   40.10    2.62
  -6  -3  -3   42.12    2.48
  -6  -3  -3   38.89    2.52
   6  -3   3   43.36    2.48
  -6  -3  -3   36.67    2.44
   6  -3   3   45.80    2.72
  -6   3  -3   38.13    2.50
  -6   3  -3   40.81    2.49
   6   3   3   41.49    2.46
   6   3   3   39.67    2.54
  -7  -3  -3    0.44    0.39
   7  -3   3    0.66    0.60
   7  -3   3    0.80    0.45
  -7  -3  -3    0.68    0.31
   7  -3   3   -0.31    0.35
  -7   3  -3    0.42    0.36
  -7   3  -3    0.85    0.33
   7   3   3    0.74    0.31
   7   3   3    0.10    0.41
  -8  -3  -3    1.96    0.47
   8  -3   3    2.60    0.50
   8  -3   3    2.77    0.81
   8   3   3    2.10    0.57
   8   3   3    2.09    0.48
  -8   3  -3    1.78    0.51
  -8   3  -3    1.12    0.42
   9  -3   3    6.73    1.07
   9  -3   3    6.29    1.17
  -9  -3  -3    4.09    0.68
  -9  -3  -3    4.10    0.81
   9  -3   3    5.69    0.90
  -9   3  -3    6.86    1.06
   9   3   3    5.13    0.90
   9   3   3    5.70    0.83
  -9   3  -3    8.03    0.99
  10  -3   3    1.41    1.21
  10  -3   3    2.28    0.82
  10  -3   3    3.57    1.23
 -10   3  -3    0.76    0.75
  10   3   3    2.06    0.62
  10   3   3    2.74    0.89
  11  -3   3    0.06    0.84
 -11  -3  -3   -1.01    0.81
  11  -3   3   -1.50    0.74
  11   3   3   -0.60    1.04
  11   3   3   -1.01    0.64
  12  -3   3    0.02    0.91
  12  -3   3    0.16    1.87
  12  -3   3    1.67    1.15
  12   3   3    1.63    0.91
  12   3   3    1.07    1.37
  12  -4  -3    2.82    1.20
  12  -4  -3    1.80    2.19
  12  -4  -3   -1.62    1.23
  12   4  -3   -0.66    1.56
  12   4  -3    0.28    1.01
 -12   4   3   -3.09    1.64
 -11  -4   3    0.95    0.91
  11  -4  -3    0.92    0.88
  11  -4  -3   -0.48    1.04
  11  -4  -3    1.42    1.75
  11   4  -3   -0.31    1.07
  11   4  -3    1.13    0.77
 -11   4   3    3.59    1.28
  10  -4  -3   -1.22    1.23
  10  -4  -3    0.82    0.70
  10  -4  -3   -0.36    0.81
  10   4  -3    0.37    0.54
 -10   4   3   -1.79    0.98
  10   4  -3   -0.21    0.83
   9  -4  -3   11.47    1.55
   9  -4  -3   13.12    1.29
  -9  -4   3   13.13    1.28
   9  -4  -3   11.93    1.68
  -9   4   3    9.15    1.45
   9   4  -3   14.14    1.15
   9   4  -3   12.56    1.43
  -9   4   3   14.61    1.58
  -9   4   3   12.20    1.73
   8  -4  -3    3.79    0.97
   8  -4  -3    2.67    0.91
  -8  -4   3    2.87    0.57
   8  -4  -3    2.85    0.61
  -8   4   3    3.84    0.70
   8   4  -3    2.51    0.49
  -8   4   3    3.71    0.63
  -8   4   3    1.95    0.75
  -8   4   3    3.01    0.96
   8   4  -3    3.28    0.72
   7  -4  -3    1.14    0.44
   7  -4  -3    1.09    0.57
  -7  -4   3    0.65    0.40
   7  -4  -3    0.54    0.75
  -7   4   3    0.17    0.43
   7   4  -3    1.29    0.37
  -7   4   3    0.49    0.54
  -7   4   3    0.65    0.60
  -7   4   3   -0.93    0.59
   7   4  -3    1.11    0.50
  -6  -4   3    5.95    0.70
  -6  -4   3    7.19    0.64
   6  -4  -3    5.93    1.12
   6  -4  -3    6.45    0.70
   6   4  -3    6.48    0.59
  -6   4   3    7.14    0.73
  -6   4   3    6.58    1.01
  -6   4   3    4.74    0.83
   6   4  -3    6.48    0.77
  -6   4   3    5.34    0.83
  -5  -4   3   23.03    1.45
   5  -4  -3   24.28    1.80
  -5  -4   3   23.22    1.49
   5  -4  -3   23.47    1.49
   5  -4  -3   21.70    1.57
   5   4  -3   23.50    1.42
  -5   4   3   23.28    1.60
  -5   4   3   22.00    1.70
   5   4  -3   22.45    1.51
  -5   4   3   22.59    1.70
  -5   4   3   22.17    1.57
   4  -4  -3    0.99    0.35
   4  -4  -3    1.33    0.29
   4  -4  -3    2.63    0.58
  -4  -4   3    0.88    0.27
  -4   4   3    1.25    0.49
   4   4  -3    1.46    0.25
  -4   4   3    1.61    0.39
  -4   4   3    1.48    0.49
   4   4  -3    1.74    0.32
   3  -4  -3   11.01    0.88
   3  -4  -3   11.40    0.75
  -3  -4   3   11.68    0.78
  -3   4   3   10.69    0.90
  -3   4   3   12.60    0.98
   3   4  -3   10.46    0.74
  -3   4   3   10.76    0.98
  -3   4   3   10.42    1.03
   2  -4  -3    0.48    0.25
  -2  -4   3    0.33    0.20
   2  -4  -3    0.44    0.16
  -2   4   3    0.58    0.42
  -2   4   3    0.70    0.37
  -2   4   3    0.56    0.35
  -2   4   3    0.18    0.34
  -2   4   3    0.61    0.27
  -1  -4   3   59.42    3.65
   1  -4  -3   64.22    3.74
  -1   4   3   65.42    3.81
  -1   4   3   61.02    3.74
  -1   4   3   63.39    3.70
  -1   4   3   64.36    3.75
  -1   4   3   63.30    3.85
   0  -4   3   -0.16    0.20
   0  -4  -3    0.25    0.21
   0   4   3   -0.08    0.25
   0   4   3    0.23    0.22
   0   4  -3    0.12    0.29
   0   4   3   -0.09    0.35
   0   4   3   -0.27    0.25
  -1  -4  -3    1.30    0.31
   1  -4   3    1.72    0.29
  -1   4  -3    1.43    0.22
  -1   4  -3    1.18    0.36
   1   4   3    1.44    0.31
   1   4   3    1.14    0.48
   1   4   3    1.11    0.32
   1   4   3    1.43    0.28
  -2  -4  -3    3.44    0.46
  -2  -4  -3    3.39    0.58
   2  -4   3    3.53    0.42
   2   4   3    4.37    0.42
  -2   4  -3    3.35    0.42
   2   4   3    3.94    0.48
   2   4   3    4.32    0.50
  -2   4  -3    3.84    0.58
  -3  -4  -3   -0.05    0.22
  -3  -4  -3    0.06    0.24
  -3  -4  -3   -0.39    0.32
   3  -4   3    0.28    0.25
   3  -4   3   -0.23    0.40
   3   4   3    0.25    0.23
   3   4   3   -0.28    0.23
   3   4   3    0.18    0.19
  -3   4  -3   -0.20    0.22
  -3   4  -3    0.06    0.24
  -4  -4  -3    2.18    0.39
   4  -4   3    1.42    0.55
   4  -4   3    2.86    0.43
   4  -4   3    2.20    0.50
  -4  -4  -3    2.58    0.41
  -4  -4  -3    2.53    0.52
   4   4   3    2.92    0.45
  -4   4  -3    3.07    0.45
  -4   4  -3    3.35    0.52
   4   4   3    2.13    0.33
   4   4   3    2.79    0.38
  -5  -4  -3    1.43    0.39
   5  -4   3    1.59    0.57
  -5  -4  -3    1.25    0.33
  -5  -4  -3    0.55    0.43
   5  -4   3    1.78    0.56
  -5   4  -3    0.43    0.40
   5   4   3    1.20    0.31
  -5   4  -3    1.68    0.38
  -5   4  -3    1.81    0.41
   5   4   3    1.72    0.33
   5   4   3    1.53    0.35
  -6  -4  -3    2.67    0.44
  -6  -4  -3    1.32    0.37
   6  -4   3    3.24    0.70
   6  -4   3    2.79    0.65
  -6   4  -3    1.86    0.45
   6   4   3    1.52    0.48
  -6   4  -3    2.29    0.47
   6   4   3    2.08    0.40
   7  -4   3    3.81    0.47
  -7  -4  -3    3.39    0.68
   7  -4   3    2.39    0.70
   7  -4   3    4.37    0.93
  -7  -4  -3    3.36    0.54
  -7   4  -3    2.94    0.57
   7   4   3    2.63    0.48
   7   4   3    2.79    0.59
  -7   4  -3    3.70    0.61
  -8  -4  -3    1.43    0.54
   8  -4   3   -0.42    0.86
   8  -4   3    0.62    0.45
   8  -4   3    1.53    0.71
  -8  -4  -3    0.56    0.71
  -8   4  -3    0.71    0.55
  -8   4  -3    1.64    0.59
   8   4   3    0.96    0.47
   8   4   3    1.44    0.66
   9  -4   3   -0.93    1.11
   9  -4   3   -0.73    0.77
   9  -4   3    0.67    0.56
  -9  -4  -3   -0.65    0.63
   9   4   3   -0.18    0.50
   9   4   3   -0.01    0.68
  -9   4  -3    0.67    0.70
  10  -4   3   11.87    1.38
  10  -4   3    9.00    1.77
  10   4   3   12.11    1.78
 -10   4  -3   11.29    1.65
  10   4   3   11.59    1.37
  11  -4   3   -0.21    0.94
  11  -4   3   -1.46    1.92
  11  -4   3    0.82    1.19
  11   4   3    0.28    0.81
  11   4   3    1.09    1.18
  10  -5  -3   -1.77    1.74
  10  -5  -3   -0.26    1.11
 -10   5   3    2.30    1.56
  10   5  -3   -0.28    1.11
  10   5  -3   -0.50    0.71
   9  -5  -3    0.24    0.66
   9  -5  -3    0.50    1.39
  -9   5   3   -0.28    1.06
   9   5  -3    0.77    0.59
   9   5  -3    0.69    0.94
  -9   5   3   -0.06    1.16
   8  -5  -3    1.89    0.57
  -8  -5   3    2.71    0.76
   8  -5  -3    2.65    0.61
   8  -5  -3    3.29    1.25
  -8   5   3    3.42    1.11
   8   5  -3    2.49    0.58
   8   5  -3    2.21    0.77
  -8   5   3    0.91    0.96
   7  -5  -3    7.63    0.91
  -7  -5   3    7.77    1.01
   7  -5  -3    8.09    0.82
   7  -5  -3    6.23    1.23
  -7   5   3    7.94    1.09
   7   5  -3    8.33    0.84
  -7   5   3    7.41    1.25
  -7   5   3    7.53    1.11
   7   5  -3    8.24    1.10
  -7   5   3    9.07    1.07
   6  -5  -3   -0.15    0.43
   6  -5  -3   -0.94    0.83
  -6  -5   3    0.29    0.37
   6   5  -3    0.43    0.33
  -6   5   3   -0.24    0.46
  -6   5   3    0.20    0.70
   6   5  -3    0.17    0.46
  -6   5   3    1.09    0.63
  -6   5   3    0.01    0.67
   5  -5  -3   -0.15    0.73
  -5  -5   3   -0.07    0.28
   5  -5  -3   -0.01    0.35
   5   5  -3   -0.19    0.26
  -5   5   3    0.01    0.45
  -5   5   3    0.87    0.62
  -5   5   3   -0.84    0.51
   5   5  -3    0.74    0.39
  -5   5   3   -0.40    0.60
   4  -5  -3    4.80    0.64
  -4  -5   3    4.48    0.52
  -4   5   3    5.44    0.93
  -4   5   3    5.82    0.99
  -4   5   3    6.78    0.86
  -4   5   3    6.31    1.04
   4   5  -3    5.90    0.56
  -3  -5   3   16.48    1.16
   3  -5  -3   18.91    1.28
  -3   5   3   16.04    1.40
   3   5  -3   18.42    1.13
   3   5  -3   18.90    1.54
   3   5  -3   17.10    1.12
  -3   5   3   18.53    1.44
  -3   5   3   14.77    1.44
  -2  -5   3    1.66    0.35
   2  -5  -3    2.32    0.48
   2   5  -3    3.27    0.45
  -2   5   3    1.66    0.61
   2   5  -3    2.78    0.35
  -2   5   3    2.83    0.55
  -2   5   3    2.45    0.67
  -2   5   3    2.90    0.57
  -2   5   3    2.35    0.45
   2   5  -3    3.01    0.64
  -1  -5   3    0.37    0.23
   1  -5  -3   -0.06    0.26
  -1   5   3    0.51    0.39
  -1   5   3    0.46    0.57
   1   5  -3    0.84    0.41
  -1   5   3    0.15    0.43
  -1   5   3    0.63    0.53
   0  -5  -3    0.44    0.29
   0  -5   3    1.13    0.31
   0   5   3    1.09    0.37
   0   5  -3    0.95    0.24
   0   5   3    1.19    0.41
   0   5   3    1.51    0.40
   0   5   3    1.39    0.56
   0   5  -3    1.26    0.33
  -1  -5  -3    3.35    0.53
   1  -5   3    3.95    0.50
  -1   5  -3    4.87    0.48
   1   5   3    3.51    0.56
  -1   5  -3    5.42    0.78
  -1   5  -3    4.37    0.64
   1   5   3    4.14    0.55
   1   5   3    5.60    1.03
  -2  -5  -3   14.15    1.02
   2  -5   3   13.04    0.97
   2   5   3   13.79    1.05
   2   5   3   12.69    1.02
   2   5   3   13.90    1.02
  -2   5  -3   13.72    1.09
   2   5   3   15.80    1.40
  -2   5  -3   12.83    1.00
   3  -5   3   -0.40    0.28
  -3  -5  -3    0.33    0.30
  -3  -5  -3    0.88    0.53
   3   5   3    0.19    0.31
   3   5   3   -0.40    0.29
  -3   5  -3    0.54    0.37
  -3   5  -3    0.25    0.47
   3   5   3    0.42    0.31
  -4  -5  -3    1.01    0.36
   4  -5   3    1.24    0.32
  -4   5  -3    1.03    0.37
   4   5   3    1.60    0.38
  -4   5  -3    1.16    0.47
   4   5   3    1.79    0.40
   4   5   3    1.52    0.41
   5  -5   3   -0.20    0.33
  -5  -5  -3   -0.19    0.27
  -5  -5  -3    1.19    0.59
  -5   5  -3    0.38    0.43
  -5   5  -3    0.11    0.47
  -5   5  -3    0.34    0.40
   5   5   3   -0.12    0.34
   5   5   3    0.97    0.34
   5   5   3    0.36    0.40
   6  -5   3    1.09    0.77
   6  -5   3    2.26    0.52
   6  -5   3    2.83    0.91
  -6  -5  -3    1.96    0.44
  -6   5  -3    3.19    0.66
   6   5   3    3.11    0.64
  -6   5  -3    2.40    0.56
   6   5   3    2.02    0.50
   6   5   3    2.94    0.49
  -6   5  -3    2.16    0.63
   7  -5   3    7.13    0.85
  -7  -5  -3    6.51    0.74
   7  -5   3    6.55    1.21
   7  -5   3    9.29    1.53
   7   5   3    8.82    0.90
  -7   5  -3    5.36    0.88
   7   5   3    6.88    1.10
   7   5   3    6.28    1.00
  -7   5  -3    9.32    1.01
   8  -5   3    0.40    1.02
   8  -5   3    1.41    1.21
  -8  -5  -3   -0.40    0.44
   8  -5   3   -0.15    0.44
   8   5   3   -0.28    0.51
   8   5   3    0.76    0.72
  -8   5  -3    1.28    0.71
   9  -5   3   -1.16    1.14
   9   5   3   -0.41    0.89
   9   5   3   -0.82    0.63
  10  -5   3    0.77    1.48
  10   5   3    2.43    1.25
   9  -6  -3   -0.65    0.64
   9   6  -3    1.43    0.77
   9   6  -3   -2.08    1.11
   8  -6  -3    0.15    0.49
   8   6  -3    1.35    0.97
  -8   6   3    2.57    1.38
   7  -6  -3    0.32    0.49
  -7   6   3    2.82    1.18
   7   6  -3    1.37    0.60
   7   6  -3    0.78    0.75
   7   6  -3    0.59    0.62
   6  -6  -3    0.56    0.48
  -6  -6   3    0.51    0.42
   6   6  -3    0.50    0.63
  -6   6   3    1.09    0.88
   6   6  -3   -0.79    0.50
  -6   6   3    1.00    0.96
  -6   6   3   -0.26    0.95
   6   6  -3    0.53    0.44
  -6   6   3    3.20    1.04
   5  -6  -3    0.40    0.38
  -5  -6   3    0.23    0.34
  -5   6   3    1.58    0.85
   5   6  -3    1.07    0.39
  -5   6   3    1.90    0.79
  -5   6   3    0.77    0.85
  -4  -6   3    7.98    0.72
   4  -6  -3    7.67    0.85
  -4   6   3    7.21    1.08
  -4   6   3    7.06    1.04
   4   6  -3    7.97    0.78
  -4   6   3    7.02    1.29
   4   6  -3    9.65    1.60
  -4   6   3   10.95    1.29
   4   6  -3    6.50    0.78
   3  -6  -3    0.62    0.38
  -3  -6   3   -0.03    0.31
   3   6  -3   -0.33    0.34
  -3   6   3   -0.04    0.75
  -3   6   3    1.13    0.65
  -3   6   3    0.23    0.69
  -3   6   3    0.64    0.63
   3   6  -3   -1.19    0.76
   3   6  -3    0.17    0.32
  -3   6   3    0.66    0.69
  -2  -6   3    0.27    0.30
   2  -6  -3    0.35    0.38
   2   6  -3   -0.10    0.73
   2   6  -3    1.04    0.38
  -2   6   3   -0.03    0.74
   2   6  -3    0.20    0.35
  -2   6   3    0.42    0.64
  -2   6   3    0.63    0.48
  -2   6   3   -0.93    0.65
   1  -6  -3    0.63    0.38
  -1  -6   3    0.38    0.31
  -1   6   3   -0.13    0.48
  -1   6   3    0.92    0.79
   1   6  -3    0.68    0.38
   1   6  -3   -0.02    0.40
   1   6  -3    1.40    0.75
  -1   6   3    0.74    0.74
  -1   6   3    0.74    0.60
  -1   6   3    0.20    0.49
   0  -6   3    0.53    0.38
   0  -6  -3    1.24    0.43
   0   6   3    0.89    0.81
   0   6   3   -0.37    0.72
   0   6  -3    1.76    0.65
   0   6  -3    0.80    0.41
   0   6   3    1.20    0.43
   0   6   3    2.12    0.51
   0   6   3    0.63    0.56
   0   6  -3    0.57    0.49
   1  -6   3   -0.15    0.32
  -1  -6  -3    0.62    0.39
   1   6   3    0.47    0.41
  -1   6  -3    0.51    0.50
   1   6   3    0.80    0.49
   1   6   3    0.29    0.53
   1   6   3    0.70    0.77
  -1   6  -3    1.53    0.41
  -1   6  -3    1.19    0.66
   1   6   3   -0.51    0.84
  -2  -6  -3    0.03    0.39
   2  -6   3    0.33    0.35
  -2   6  -3    0.90    0.57
   2   6   3   -0.33    0.45
  -2   6  -3   -0.78    0.64
  -2   6  -3    0.77    0.51
   2   6   3   -0.10    0.45
   2   6   3   -1.07    0.76
   2   6   3    1.36    0.50
   3  -6   3    2.33    0.44
  -3  -6  -3    2.69    0.53
   3   6   3    2.17    0.51
   3   6   3    2.49    0.56
  -3   6  -3    2.94    0.75
   3   6   3    4.77    1.03
  -3   6  -3    2.69    0.60
   3   6   3    1.41    0.47
  -4  -6  -3    7.96    0.82
   4  -6   3    9.21    0.83
   4   6   3    6.50    0.92
   4   6   3    7.23    0.99
  -4   6  -3    8.11    1.15
  -4   6  -3    8.27    1.35
   4   6   3    7.63    0.92
  -5  -6  -3    0.24    0.90
   5  -6   3    0.16    0.40
  -5  -6  -3   -0.12    0.38
   5   6   3    0.35    0.58
  -5   6  -3    0.04    0.65
  -5   6  -3   -0.19    0.46
   5   6   3   -0.76    0.49
   5   6   3   -0.31    0.59
  -6  -6  -3    1.90    0.52
   6  -6   3    3.09    0.58
   6   6   3    2.73    0.74
   6   6   3    2.85    0.66
  -6   6  -3    0.74    0.83
  -7  -6  -3    1.06    0.54
   7  -6   3   -0.33    0.48
  -7   6  -3   -1.24    1.13
   7   6   3    0.50    0.80
   7   6   3   -0.36    0.63
   8  -6   3    2.63    0.69
  -8   6  -3    3.23    1.45
   8   6   3    2.68    0.85
   8   6   3    2.10    1.10
   6  -7  -3    7.46    1.67
  -6   7   3   10.77    1.55
  -6   7   3    9.88    1.65
   6   7  -3    6.97    1.00
   5  -7  -3    1.49    0.66
  -5  -7   3    1.97    0.55
  -5   7   3    2.25    1.06
   5   7  -3    2.52    0.62
  -5   7   3    2.72    1.36
   4  -7  -3    1.14    0.51
  -4  -7   3   -0.24    0.38
  -4   7   3   -0.77    1.12
  -4   7   3    0.87    0.90
   4   7  -3   -0.05    0.51
  -3  -7   3    0.69    0.44
   3  -7  -3    1.19    0.51
   3   7  -3   -0.69    0.62
  -3   7   3    0.76    1.03
  -3   7   3    0.76    0.73
  -3   7   3    0.60    1.01
   3   7  -3   -0.13    0.49
  -2  -7   3    1.95    0.46
   2   7  -3    2.04    0.62
  -2   7   3    0.79    0.91
  -2   7   3    2.11    0.71
   2   7  -3    1.99    0.54
   1  -7  -3   -0.02    0.41
  -1  -7   3    0.18    0.36
  -1   7   3   -0.07    0.79
  -1   7   3    0.24    0.56
   1   7  -3    0.37    0.56
  -1   7   3    0.79    0.76
   0  -7  -3    1.70    0.55
   0  -7   3    1.34    0.44
   0   7   3    2.56    0.87
   0   7   3    1.49    0.77
   0   7   3    3.03    1.45
   0   7  -3    1.70    0.62
   0   7  -3    1.81    0.68
  -1  -7  -3    2.70    0.56
   1  -7   3    4.03    0.60
  -1   7  -3    3.27    0.82
   1   7   3    2.64    0.82
   1   7   3    2.08    0.57
  -1   7  -3    3.47    0.80
   1   7   3    4.13    0.81
  -2  -7  -3   -1.00    0.44
   2  -7   3    0.78    0.47
   2   7   3    0.37    0.82
  -2   7  -3   -0.29    0.73
  -2   7  -3   -0.34    0.84
   3  -7   3    0.23    0.45
  -3  -7  -3   -0.18    0.44
  -3   7  -3    2.63    0.98
  -3   7  -3   -0.25    0.90
   3   7   3    0.89    0.88
   3   7   3    0.22    0.56
   3   7   3    0.46    0.64
   4  -7   3    6.77    0.88
   4   7   3    5.74    0.89
  -4   7  -3    7.87    1.26
   4   7   3    6.37    0.92
  -5  -7  -3   -0.92    0.53
   5  -7   3   -0.11    0.53
   5   7   3    0.14    0.72
   5   7   3   -1.00    0.71
  -5   7  -3    0.43    1.27
 -14   0   4    6.71    1.72
  14   0  -4    9.78    2.31
  14   0  -4    8.77    1.16
  13   0  -4    0.48    0.56
 -13   0   4    1.66    1.18
  13   0  -4    0.96    1.46
  13   0  -4    1.03    0.83
  12   0  -4   -0.74    0.41
  12   0  -4    0.84    1.21
 -12   0   4   -0.03    0.95
  12   0  -4   -0.68    0.65
 -11   0   4    4.35    1.01
  11   0  -4    6.17    1.29
  11   0  -4    5.65    0.89
  11   0  -4    4.44    0.69
 -11   0   4    7.31    1.21
 -11   0   4    7.63    0.95
  10   0  -4   12.47    1.64
 -10   0   4   13.74    1.24
  10   0  -4   12.11    0.96
  10   0  -4   13.54    1.56
  -9   0   4    3.50    0.54
  -9   0   4    2.03    0.49
   9   0  -4    2.31    0.40
   9   0  -4    2.02    0.46
   9   0  -4    2.54    0.69
  -8   0   4    9.44    0.92
   8   0  -4    9.92    0.74
   8   0  -4   11.17    1.14
  -8   0   4   11.11    0.81
   8   0  -4   10.03    0.89
  -7   0   4    9.85    0.73
   7   0  -4    9.01    0.80
   7   0  -4   10.92    0.68
   7   0  -4    9.15    0.96
  -7   0   4    9.01    0.81
  -6   0   4  101.34    5.50
   6   0  -4   94.29    5.53
  -6   0   4   86.87    5.56
   6   0  -4   99.26    5.64
  -5   0   4   86.24    5.31
  -5   0   4   93.05    5.24
   5   0  -4   96.51    5.37
   5   0  -4   93.23    5.28
  -5   0   4   87.73    5.32
  -4   0   4    0.75    0.21
  -4   0   4    0.92    0.24
  -4   0   4    0.76    0.15
   4   0  -4    0.63    0.26
   4   0  -4    0.76    0.19
  -3   0   4   66.81    4.03
  -3   0   4   71.95    4.03
   3   0  -4   69.03    3.93
  -3   0   4   68.97    3.98
   3   0  -4   73.15    4.06
   3   0  -4   67.00    3.99
   2   0  -4    1.08    0.16
  -2   0   4    1.08    0.17
  -2   0   4    1.07    0.16
   2   0  -4    1.30    0.21
   2   0  -4    0.91    0.22
  -1   0   4   11.88    0.75
  -1   0   4   11.05    0.80
   1   0  -4   12.36    0.75
  -1   0   4   12.16    0.75
   1   0  -4   12.80    0.76
   0   0  -4  512.97   28.86
   1   0   4    3.68    0.28
  -1   0  -4    3.87    0.26
  -1   0  -4    3.69    0.31
   1   0   4    3.93    0.30
  -1   0  -4    3.82    0.31
  -1   0  -4    4.22    0.28
   1   0   4    3.28    0.28
   2   0   4   16.32    1.05
   2   0   4   17.13    1.04
   2   0   4   17.27    1.04
  -2   0  -4   16.11    1.05
  -2   0  -4   19.40    1.02
  -2   0  -4   17.72    1.04
   3   0   4   52.50    3.04
  -3   0  -4   52.85    3.03
  -4   0  -4    0.29    0.17
  -4   0  -4    0.30    0.13
   4   0   4    0.40    0.22
   4   0   4    0.41    0.15
   5   0   4   48.85    2.99
   5   0   4   47.99    2.93
  -5   0  -4   45.90    2.91
  -5   0  -4   56.81    2.97
   6   0   4    0.11    0.29
  -6   0  -4   -0.27    0.15
  -6   0  -4    0.00    0.20
   6   0   4   -0.07    0.20
   7   0   4    5.92    0.59
   7   0   4    5.38    0.78
  -7   0  -4    4.75    0.54
   8   0   4    2.73    0.62
   8   0   4    2.29    0.44
  -8   0  -4    1.66    0.44
   9   0   4    0.06    0.38
  -9   0  -4   -0.35    0.46
  -9   0  -4    0.53    0.54
   9   0   4    0.33    0.57
  10   0   4   17.11    1.78
  10   0   4   17.11    1.34
 -10   0  -4   19.31    1.54
 -10   0  -4   16.73    1.39
  10   0   4   17.49    1.44
  11   0   4    4.08    0.70
 -11   0  -4    6.37    1.56
  11   0   4    3.18    0.73
  11   0   4    2.46    1.09
  12   0   4   -0.81    0.62
  12   0   4    1.15    0.61
  12   0   4   -1.99    1.23
  13   0   4   -0.39    0.78
  13   0   4    0.98    1.77
 -13  -1   4    0.25    1.07
  13  -1  -4    1.55    0.69
  13  -1  -4    0.58    1.43
  13  -1  -4    0.27    0.86
  13   1  -4    2.17    0.91
 -13   1   4   -0.11    1.24
  13   1  -4    0.07    1.52
  13   1  -4   -0.07    0.52
  12  -1  -4    1.48    0.75
 -12  -1   4    4.37    1.08
  12  -1  -4    5.19    1.33
 -12   1   4    3.68    1.17
  12   1  -4    2.64    1.19
  12   1  -4    2.35    0.82
  12   1  -4    3.49    0.59
 -11  -1   4    7.96    1.31
 -11  -1   4    5.64    0.72
  11  -1  -4    5.75    0.88
 -11  -1   4    6.27    1.10
  11  -1  -4    8.09    1.38
  11  -1  -4    6.96    0.87
 -11   1   4    5.48    1.06
 -11   1   4    6.04    0.97
  11   1  -4    5.76    1.01
 -11   1   4    7.01    1.01
  11   1  -4    7.67    1.26
  10  -1  -4    3.73    0.71
 -10  -1   4    3.93    0.77
 -10  -1   4    2.95    0.81
  10  -1  -4    4.03    0.98
  10  -1  -4    3.15    0.52
 -10  -1   4    3.06    0.49
 -10   1   4    2.76    0.82
  10   1  -4    2.53    0.81
  10   1  -4    3.24    0.67
   9  -1  -4    6.96    1.22
   9  -1  -4    6.98    0.70
  -9  -1   4    7.55    0.68
   9  -1  -4    7.55    0.82
   9   1  -4    6.48    0.75
  -9   1   4    7.39    0.96
  -9   1   4    6.53    0.72
   8  -1  -4   19.64    1.63
  -8  -1   4   19.81    1.39
   8  -1  -4   20.02    1.31
   8  -1  -4   20.14    1.42
  -8   1   4   17.94    1.47
  -8   1   4   19.79    1.34
   8   1  -4   22.77    1.61
   8   1  -4   18.59    1.37
   7  -1  -4   11.24    0.82
  -7  -1   4   11.69    0.92
  -7  -1   4   11.97    0.80
   7  -1  -4   11.48    0.92
  -7   1   4   10.67    1.00
   7   1  -4   11.68    1.06
  -7   1   4   10.55    0.91
   7   1  -4   11.25    0.87
   6  -1  -4    0.08    0.15
  -6  -1   4    0.50    0.31
  -6  -1   4    0.33    0.16
  -6  -1   4    0.35    0.23
   6  -1  -4    0.10    0.40
   6  -1  -4    0.26    0.25
  -6   1   4   -0.01    0.28
   6   1  -4    0.09    0.18
   6   1  -4   -0.16    0.30
  -6   1   4   -0.18    0.31
  -6   1   4    0.31    0.21
  -5  -1   4   23.59    1.50
   5  -1  -4   24.47    1.49
   5  -1  -4   24.23    1.43
   5  -1  -4   20.88    1.58
  -5  -1   4   23.77    1.40
  -5  -1   4   22.75    1.46
  -5   1   4   25.06    1.47
   5   1  -4   23.58    1.43
   5   1  -4   22.56    1.52
  -5   1   4   21.54    1.54
  -4  -1   4    5.41    0.38
   4  -1  -4    5.15    0.60
  -4  -1   4    5.46    0.49
  -4  -1   4    6.02    0.45
   4  -1  -4    5.70    0.49
   4  -1  -4    5.79    0.44
   4   1  -4    5.60    0.53
  -4   1   4    5.70    0.39
   4   1  -4    5.56    0.42
  -4   1   4    4.76    0.54
  -4   1   4    5.24    0.46
  -4   1   4    5.23    0.54
  -3  -1   4   33.77    1.87
   3  -1  -4   33.45    1.91
   3  -1  -4   35.89    2.03
   3  -1  -4   33.73    1.95
  -3  -1   4   32.31    1.91
  -3  -1   4   28.72    1.91
   3   1  -4   34.49    1.95
   3   1  -4   30.52    1.88
  -3   1   4   33.37    1.99
  -3   1   4   27.04    1.97
  -3   1   4   32.92    1.89
  -3   1   4   33.33    1.94
  -2  -1   4   79.42    4.27
   2  -1  -4   74.81    4.33
   2  -1  -4   78.57    4.36
  -2  -1   4   73.31    4.30
  -2   1   4   75.83    4.38
  -2   1   4   73.30    4.36
   2   1  -4   80.00    4.31
  -2   1   4   66.28    4.30
  -2   1   4   77.64    4.34
   1  -1  -4   93.95    5.65
   1  -1  -4  104.96    5.68
  -1  -1   4   94.95    5.64
   1  -1  -4  107.72    5.71
   1  -1  -4  103.27    5.65
  -1   1   4   88.14    5.68
  -1   1   4  108.56    5.66
   1   1  -4   98.51    5.63
  -1   1   4   92.67    5.66
   0  -1  -4  218.99   11.75
   0  -1   4  198.07   11.73
   0  -1  -4  223.79   11.73
   0  -1  -4  195.54   11.76
   0  -1  -4  196.64   11.72
   0   1   4  194.29   11.73
   0   1  -4  211.25   11.72
   0   1   4  222.46   11.76
   0   1   4  206.11   11.73
   1  -1   4  843.15   52.54
  -1  -1  -4  916.32   52.53
   1   1   4 1000.00   52.55
   1   1   4  973.41   52.53
  -2  -1  -4   54.90    2.97
   2  -1   4   49.80    2.92
   2  -1   4   49.87    3.04
   2  -1   4   50.53    2.91
   2  -1   4   50.72    2.95
  -2  -1  -4   49.10    2.94
  -2   1  -4   49.81    2.92
   2   1   4   50.11    2.93
   2   1   4   47.30    2.95
  -2   1  -4   52.00    2.93
   2   1   4   55.98    2.95
  -3  -1  -4    2.23    0.30
   3  -1   4    2.12    0.25
  -3  -1  -4    2.08    0.25
   3  -1   4    1.95    0.30
  -3  -1  -4    1.90    0.23
   3  -1   4    1.93    0.25
   3   1   4    2.22    0.28
  -3   1  -4    1.85    0.25
  -3   1  -4    2.05    0.23
   3   1   4    1.83    0.24
  -4  -1  -4   25.96    1.67
   4  -1   4   28.50    1.76
   4  -1   4   28.58    1.71
  -4  -1  -4   28.19    1.69
   4  -1   4   27.60    1.70
  -4  -1  -4   30.27    1.73
   4   1   4   27.69    1.69
  -4   1  -4   28.04    1.71
   4   1   4   28.84    1.74
  -4   1  -4   28.11    1.68
  -5  -1  -4    5.70    0.52
  -5  -1  -4    6.12    0.48
   5  -1   4    5.72    0.49
   5  -1   4    5.66    0.63
   5  -1   4    4.78    0.50
   5   1   4    4.92    0.55
  -5   1  -4    5.74    0.47
   5   1   4    5.13    0.47
  -5   1  -4    6.04    0.52
   6  -1   4   23.11    1.57
  -6  -1  -4   24.18    1.59
  -6  -1  -4   24.69    1.55
   6  -1   4   27.32    1.73
   6  -1   4   26.41    1.58
  -6   1  -4   25.79    1.59
   6   1   4   23.21    1.65
   6   1   4   23.07    1.56
  -6   1  -4   25.75    1.60
   7  -1   4    7.06    0.72
  -7  -1  -4    8.44    0.69
  -7  -1  -4    8.88    0.76
   7  -1   4    7.98    0.70
   7   1   4    7.65    0.84
   7   1   4    7.88    0.71
  -7   1  -4    9.41    0.78
  -7   1  -4    7.37    0.69
   8  -1   4    0.99    0.33
   8  -1   4    0.79    0.56
   8  -1   4    1.20    0.34
  -8  -1  -4    0.93    0.33
  -8  -1  -4    1.14    0.39
   8   1   4    1.02    0.52
   8   1   4    0.82    0.33
  -8   1  -4    0.86    0.41
   9  -1   4    1.47    0.40
   9  -1   4    1.23    0.51
   9  -1   4    0.92    0.66
  -9  -1  -4    1.87    0.57
   9   1   4    1.13    0.67
  -9   1  -4    1.08    0.52
   9   1   4    1.43    0.49
  10  -1   4    1.07    0.47
 -10  -1  -4    0.17    0.51
  10  -1   4    0.58    0.81
  10  -1   4    0.03    0.49
 -10  -1  -4    1.84    0.67
  10   1   4    1.52    0.56
  10   1   4    1.23    0.80
 -10   1  -4   -0.19    0.59
 -10   1  -4   -0.01    0.51
  11  -1   4    8.35    1.20
  11  -1   4    7.16    0.99
  11  -1   4    5.52    1.33
  11   1   4    6.11    1.30
  11   1   4    6.40    0.90
 -11   1  -4    6.98    1.12
  12  -1   4    1.24    0.68
  12  -1   4    0.52    1.34
  12  -1   4    0.11    0.82
  12   1   4   -2.21    1.21
  12   1   4   -0.16    0.77
  13  -1   4    2.46    1.08
  13  -1   4    0.45    0.88
  13  -1   4   -1.52    1.79
  13   1   4    1.23    0.86
  13   1   4    0.45    1.50
 -13  -2   4    0.71    1.23
  13  -2  -4   -0.16    1.67
  13  -2  -4   -0.60    1.02
  13  -2  -4   -0.31    0.90
  13   2  -4    2.48    1.58
  13   2  -4    1.57    0.86
 -13   2   4   -0.08    1.37
 -12  -2   4    4.73    0.80
  12  -2  -4    7.35    1.57
 -12  -2   4    4.35    1.08
  12  -2  -4    5.32    0.92
  12  -2  -4    6.38    1.10
 -12   2   4    3.95    1.27
  12   2  -4    5.62    0.94
  12   2  -4    3.38    1.27
  11  -2  -4    0.60    1.00
 -11  -2   4   -0.36    0.90
  11  -2  -4    0.43    0.63
  11  -2  -4    0.99    0.57
 -11   2   4    0.35    0.90
  11   2  -4    1.40    0.91
  11   2  -4    0.03    0.55
  10  -2  -4    0.71    0.43
  10  -2  -4   -0.11    0.43
 -10  -2   4   -0.54    0.33
 -10  -2   4    0.62    0.51
  10  -2  -4   -0.31    0.80
 -10  -2   4    1.28    0.64
 -10   2   4   -0.76    0.50
  10   2  -4   -0.14    0.71
 -10   2   4   -0.22    0.72
 -10   2   4   -0.93    0.66
  10   2  -4   -0.15    0.42
   9  -2  -4  105.38    6.03
   9  -2  -4   94.40    6.25
  -9  -2   4  102.76    6.05
  -9  -2   4  103.48    5.89
   9  -2  -4   96.67    6.04
   9   2  -4   96.95    6.15
  -9   2   4  108.51    6.13
  -9   2   4  103.38    6.18
   9   2  -4  106.22    6.00
   8  -2  -4   27.29    1.83
  -8  -2   4   26.88    1.76
  -8  -2   4   29.45    1.68
   8  -2  -4   26.72    1.79
  -8  -2   4   26.27    1.84
   8  -2  -4   29.99    2.13
   8   2  -4   26.47    1.75
  -8   2   4   25.18    1.93
  -8   2   4   24.41    1.94
  -7  -2   4   16.50    1.11
   7  -2  -4   14.37    1.13
  -7  -2   4   15.60    1.01
  -7  -2   4   15.86    1.17
   7  -2  -4   15.21    1.16
   7  -2  -4   16.47    1.44
  -7   2   4   17.56    1.31
   7   2  -4   13.67    1.22
  -7   2   4   14.96    1.29
  -7   2   4   15.20    1.15
   7   2  -4   15.84    1.08
   6  -2  -4    9.84    0.77
  -6  -2   4    7.92    0.69
  -6  -2   4    8.47    0.61
   6  -2  -4    8.52    0.77
  -6  -2   4    9.09    0.76
  -6   2   4    9.89    0.91
  -6   2   4    9.05    0.78
   6   2  -4    8.78    0.67
  -6   2   4    9.48    0.65
  -6   2   4    6.86    0.89
   6   2  -4    9.29    0.83
  -5  -2   4    2.70    0.43
   5  -2  -4    3.40    0.47
  -5  -2   4    3.35    0.38
   5  -2  -4    3.22    0.44
  -5  -2   4    3.79    0.31
   5  -2  -4    2.90    0.56
   5   2  -4    4.19    0.49
  -5   2   4    3.17    0.60
  -5   2   4    3.64    0.36
  -5   2   4    2.81    0.45
   5   2  -4    3.19    0.34
  -5   2   4    3.73    0.56
   4  -2  -4   18.83    1.20
  -4  -2   4   18.89    1.08
   4  -2  -4   16.82    1.21
  -4  -2   4   18.15    1.13
  -4   2   4   19.26    1.17
   4   2  -4   18.93    1.11
  -4   2   4   15.66    1.28
   4   2  -4   18.39    1.19
  -4   2   4   19.39    1.21
  -4   2   4   18.79    1.28
  -3  -2   4   15.03    0.94
   3  -2  -4   14.80    1.01
   3  -2  -4   16.81    1.15
  -3  -2   4   14.51    0.93
   3   2  -4   16.18    0.98
  -3   2   4   15.46    1.01
  -3   2   4   15.91    1.03
  -3   2   4   16.03    1.10
   3   2  -4   15.47    0.92
   2  -2  -4   -0.06    0.14
   2  -2  -4   -0.01    0.16
   2  -2  -4    0.20    0.19
   2  -2  -4   -0.27    0.26
  -2  -2   4    0.20    0.11
  -2   2   4   -0.04    0.25
  -2   2   4   -0.01    0.14
  -2   2   4    0.35    0.17
  -2   2   4    0.05    0.20
  -1  -2   4   42.15    2.41
   1  -2  -4   43.42    2.51
   1  -2  -4   44.71    2.49
   1  -2  -4   46.59    2.47
  -1   2   4   40.59    2.51
  -1   2   4   35.48    2.53
  -1   2   4   48.85    2.49
   1   2  -4   38.62    2.49
  -1   2   4   38.37    2.52
   0  -2  -4    5.48    0.41
   0  -2  -4    5.37    0.44
   0  -2   4    4.94    0.50
   0  -2  -4    4.69    0.45
   0  -2  -4    5.40    0.50
   0  -2   4    5.03    0.36
   0   2  -4    5.04    0.45
   0   2   4    6.15    0.48
   0   2   4    6.55    0.50
   0   2   4    5.72    0.42
   1  -2   4  107.68    6.34
  -1  -2  -4  122.27    6.31
  -1  -2  -4  107.84    6.31
   1  -2   4  113.79    6.25
  -1  -2  -4  103.11    6.33
   1   2   4  112.55    6.31
   1   2   4  104.00    6.29
  -1   2  -4  111.64    6.32
   1   2   4  109.16    6.29
   2  -2   4   38.51    2.26
   2  -2   4   37.41    2.32
  -2  -2  -4   39.31    2.28
  -2  -2  -4   37.82    2.30
   2   2   4   38.64    2.25
  -2   2  -4   34.42    2.22
   2   2   4   40.66    2.28
  -2   2  -4   39.65    2.22
   2   2   4   39.13    2.25
  -2   2  -4   37.26    2.27
  -3  -2  -4   11.87    0.80
  -3  -2  -4   11.40    0.76
   3  -2   4   11.12    0.71
   3  -2   4   11.92    0.75
  -3  -2  -4   11.98    0.84
   3  -2   4   11.35    0.84
   3  -2   4   11.17    0.85
  -3   2  -4   11.04    0.79
   3   2   4   11.86    0.81
  -3   2  -4   11.45    0.76
   3   2   4   12.03    0.78
  -3   2  -4   11.91    0.77
   4  -2   4   11.30    0.76
  -4  -2  -4   10.62    0.74
   4  -2   4   10.84    0.83
  -4  -2  -4   12.34    0.82
   4  -2   4    9.19    0.85
  -4  -2  -4   11.09    0.78
   4   2   4   11.24    0.80
   4   2   4   11.63    0.76
  -4   2  -4   10.97    0.74
  -4   2  -4    9.16    0.75
  -5  -2  -4   15.37    1.06
  -5  -2  -4   15.24    1.02
   5  -2   4   15.39    1.08
   5  -2   4   12.52    1.15
   5  -2   4   14.50    1.01
  -5   2  -4   15.68    1.03
   5   2   4   15.02    0.99
  -5   2  -4   15.01    0.99
   5   2   4   13.61    1.05
   6  -2   4   56.31    3.44
  -6  -2  -4   56.89    3.47
   6  -2   4   60.42    3.58
  -6  -2  -4   62.21    3.40
  -6  -2  -4   62.91    3.43
   6  -2   4   52.94    3.47
  -6   2  -4   59.94    3.43
   6   2   4   57.06    3.49
   6   2   4   53.97    3.41
  -6   2  -4   55.83    3.45
  -7  -2  -4   41.68    2.69
   7  -2   4   46.35    2.73
   7  -2   4   40.69    2.66
  -7  -2  -4   44.23    2.63
   7  -2   4   48.86    2.89
   7   2   4   41.44    2.63
  -7   2  -4   44.22    2.63
   7   2   4   38.24    2.72
  -7   2  -4   44.69    2.69
   8  -2   4    0.24    0.29
  -8  -2  -4    0.50    0.42
  -8  -2  -4   -0.28    0.34
   8  -2   4    0.45    0.37
   8  -2   4    0.27    0.59
   8   2   4    0.03    0.30
  -8   2  -4    0.50    0.36
   8   2   4    0.80    0.46
   9  -2   4    1.04    0.76
   9  -2   4    1.27    0.53
   9  -2   4    0.79    0.42
  -9  -2  -4    1.61    0.60
   9   2   4    1.07    0.44
  -9   2  -4    1.31    0.49
   9   2   4    0.89    0.57
  -9   2  -4    0.96    0.52
 -10  -2  -4    1.56    0.60
  10  -2   4    0.84    0.55
  10  -2   4    3.26    1.03
  10  -2   4    1.89    0.55
  10   2   4    2.04    0.59
 -10   2  -4    1.68    0.73
  10   2   4    1.73    0.84
  11  -2   4    3.27    1.28
  11  -2   4    1.16    0.67
  11  -2   4    0.01    0.62
  11   2   4    0.47    0.59
 -11   2  -4    1.92    0.91
  11   2   4    1.32    1.01
  12  -2   4    2.86    1.55
  12  -2   4   -0.77    0.86
  12  -2   4    1.19    0.85
  12   2   4    1.95    0.83
  12   2   4   -0.03    1.20
 -12  -3   4    2.30    1.12
  12  -3  -4    3.05    1.68
  12  -3  -4    0.08    0.91
  12  -3  -4    1.59    0.91
  12   3  -4   -0.30    1.19
 -12   3   4    0.12    1.46
  12   3  -4    1.02    0.79
  11  -3  -4   -0.56    0.66
 -11  -3   4   -1.17    0.78
  11  -3  -4    0.73    0.70
 -11  -3   4   -0.47    0.54
  11  -3  -4    0.30    1.28
  11   3  -4    0.10    0.59
 -11   3   4   -0.34    0.98
 -11   3   4   -0.16    1.06
  11   3  -4    0.35    0.97
 -10  -3   4    0.66    0.46
  10  -3  -4    0.56    1.02
  10  -3  -4   -0.16    0.51
 -10  -3   4   -0.89    0.58
 -10  -3   4   -0.86    0.59
  10  -3  -4    0.78    0.60
 -10   3   4    0.43    0.79
  10   3  -4    0.19    0.49
 -10   3   4    1.38    0.88
  10   3  -4    0.43    0.76
  -9  -3   4    5.04    0.70
  -9  -3   4    5.27    0.63
   9  -3  -4    5.13    0.88
   9  -3  -4    6.43    1.15
   9  -3  -4    4.06    0.80
  -9  -3   4    5.51    0.76
  -9   3   4    5.60    0.95
  -9   3   4    5.38    0.89
  -9   3   4    5.65    0.78
   9   3  -4    3.62    0.82
   9   3  -4    6.11    0.76
  -8  -3   4    5.96    0.84
   8  -3  -4    7.49    1.35
  -8  -3   4    6.60    0.63
   8  -3  -4    8.47    0.86
   8  -3  -4    9.43    1.00
  -8   3   4    7.57    1.10
   8   3  -4    6.06    0.94
  -8   3   4    8.26    0.92
  -8   3   4    8.58    1.10
   8   3  -4    7.53    0.75
   7  -3  -4    4.29    0.65
  -7  -3   4    3.13    0.51
   7  -3  -4    4.42    0.83
  -7  -3   4    4.37    0.60
   7  -3  -4    4.91    0.65
  -7  -3   4    2.97    0.41
   7   3  -4    4.43    0.51
  -7   3   4    4.49    0.50
  -7   3   4    3.57    0.68
  -7   3   4    3.38    0.56
   7   3  -4    3.86    0.69
  -7   3   4    4.15    0.74
   6  -3  -4    0.68    0.42
   6  -3  -4    1.06    0.39
   6  -3  -4    0.10    0.50
  -6  -3   4    1.11    0.28
   6   3  -4    1.36    0.28
  -6   3   4    1.49    0.42
  -6   3   4    1.15    0.27
  -6   3   4    1.10    0.48
   6   3  -4    1.31    0.36
  -6   3   4    1.42    0.47
   5  -3  -4   -0.09    0.24
   5  -3  -4    0.66    0.47
  -5  -3   4    0.19    0.19
  -5   3   4    0.13    0.30
  -5   3   4    0.19    0.40
   5   3  -4    0.14    0.16
  -5   3   4   -0.01    0.39
  -5   3   4    0.29    0.21
   5   3  -4    0.19    0.29
  -4  -3   4    9.95    0.72
   4  -3  -4   12.39    1.04
   4  -3  -4   10.40    0.80
  -4  -3   4   10.34    0.71
  -4   3   4   10.22    0.95
   4   3  -4   10.89    0.78
  -4   3   4   10.34    0.93
  -4   3   4   11.18    0.84
  -4   3   4   10.56    0.83
   4   3  -4   10.27    0.69
   3  -3  -4    1.17    0.27
   3  -3  -4    1.42    0.31
  -3  -3   4    1.30    0.21
   3  -3  -4    0.82    0.43
   3   3  -4    1.00    0.15
  -3   3   4    1.36    0.29
  -3   3   4    0.65    0.33
  -3   3   4    0.99    0.40
  -3   3   4    0.45    0.28
  -2  -3   4    0.13    0.15
   2  -3  -4    0.20    0.17
   2  -3  -4    0.16    0.18
  -2   3   4   -0.07    0.31
  -2   3   4    0.08    0.26
  -2   3   4    0.16    0.28
   2   3  -4   -0.05    0.24
  -2   3   4   -0.03    0.18
  -2   3   4    0.03    0.24
   1  -3  -4    6.59    0.49
  -1  -3   4    6.84    0.47
   1  -3  -4    6.21    0.56
   1  -3  -4    6.32    0.55
   1   3  -4    7.19    0.63
  -1   3   4    6.67    0.61
  -1   3   4    5.56    0.68
  -1   3   4    6.52    0.61
  -1   3   4    6.58    0.53
   0  -3   4    3.39    0.30
   0  -3  -4    2.89    0.34
   0  -3  -4    2.76    0.39
   0   3   4    3.58    0.43
   0   3   4    3.11    0.35
   0   3   4    3.10    0.43
   0   3   4    3.38    0.58
   0   3  -4    2.51    0.41
   1  -3   4    5.95    0.45
  -1  -3  -4    5.29    0.52
   1  -3   4    5.70    0.65
  -1  -3  -4    5.06    0.48
  -1  -3  -4    5.28    0.57
   1   3   4    6.41    0.55
   1   3   4    5.21    0.53
  -1   3  -4    6.00    0.56
   1   3   4    6.57    0.48
   2  -3   4   29.16    1.82
  -2  -3  -4   26.84    1.69
  -2  -3  -4   26.64    1.74
   2  -3   4   27.22    1.64
  -2  -3  -4   27.99    1.68
  -2   3  -4   27.32    1.73
   2   3   4   27.05    1.68
   2   3   4   26.14    1.66
   2   3   4   26.25    1.69
  -2   3  -4   28.45    1.63
  -3  -3  -4   18.38    1.34
  -3  -3  -4   19.04    1.28
   3  -3   4   20.78    1.43
  -3  -3  -4   20.56    1.31
   3  -3   4   20.96    1.34
   3   3   4   19.29    1.28
  -3   3  -4   21.49    1.34
  -3   3  -4   20.61    1.26
   3   3   4   20.76    1.30
  -3   3  -4   20.43    1.26
   3   3   4   19.50    1.27
  -4  -3  -4    3.68    0.45
   4  -3   4    4.56    0.66
  -4  -3  -4    4.56    0.53
  -4  -3  -4    5.10    0.63
   4  -3   4    5.94    0.73
   4   3   4    4.65    0.52
   4   3   4    3.77    0.48
  -4   3  -4    4.82    0.51
   4   3   4    4.58    0.47
  -4   3  -4    4.87    0.47
  -4   3  -4    3.95    0.46
   5  -3   4   17.66    1.11
  -5  -3  -4   16.05    1.23
   5  -3   4   16.27    1.32
  -5  -3  -4   18.28    1.18
  -5  -3  -4   16.15    1.12
   5  -3   4   17.91    1.05
   5  -3   4   16.88    1.32
  -5   3  -4   17.90    1.16
  -5   3  -4   16.79    1.14
  -5   3  -4   15.94    1.16
   5   3   4   17.45    1.15
   5   3   4   16.64    1.20
  -6  -3  -4   76.54    4.49
   6  -3   4   75.45    4.45
  -6  -3  -4   80.26    4.46
   6  -3   4   75.93    4.62
   6  -3   4   80.42    4.67
  -6   3  -4   77.69    4.48
   6   3   4   72.35    4.46
  -6   3  -4   77.75    4.50
   6   3   4   70.78    4.53
  -7  -3  -4   -0.35    0.35
   7  -3   4    0.54    0.34
   7  -3   4    0.97    0.66
  -7  -3  -4    0.26    0.30
   7  -3   4    0.11    0.44
  -7   3  -4   -0.28    0.31
   7   3   4    0.55    0.30
   7   3   4    0.62    0.40
  -7   3  -4    0.54    0.39
   8  -3   4    0.38    0.48
   8  -3   4    1.54    0.85
   8  -3   4    0.66    0.44
  -8  -3  -4   -0.23    0.41
  -8   3  -4    0.84    0.47
   8   3   4   -0.11    0.42
   8   3   4    0.34    0.53
  -8   3  -4    0.80    0.42
   9  -3   4   13.57    1.33
   9  -3   4   10.87    1.13
  -9  -3  -4   12.07    1.53
   9  -3   4   10.26    1.77
  -9   3  -4   10.89    1.24
   9   3   4   10.99    1.09
  -9   3  -4   11.45    1.18
   9   3   4    9.17    1.32
  10  -3   4   17.70    1.73
  10  -3   4   20.91    2.32
 -10  -3  -4   16.75    1.57
  10   3   4   16.45    1.49
 -10   3  -4   16.63    1.68
  10   3   4   16.86    1.89
  11  -3   4   -1.57    0.75
  11  -3   4    1.00    0.90
  11  -3   4    1.77    2.98
  11   3   4    0.61    1.05
  11   3   4    0.21    0.67
  12  -3   4    0.62    1.16
  12  -3   4    3.22    1.99
  12  -3   4    1.10    1.08
  12   3   4    0.81    1.32
  12   3   4    3.34    2.12
  12  -4  -4    2.94    1.14
  12  -4  -4    0.39    2.12
  12  -4  -4    1.70    1.31
  12   4  -4   -1.60    1.55
 -12   4   4   -1.02    1.74
  12   4  -4    1.18    0.93
  11  -4  -4    2.12    1.78
  11  -4  -4    2.15    0.92
  11  -4  -4   -0.59    0.95
  11   4  -4    1.38    1.20
 -11   4   4    0.72    1.42
  11   4  -4    0.32    0.76
  10  -4  -4    9.52    1.32
  10  -4  -4   10.23    1.61
  10   4  -4    9.61    1.22
  10   4  -4    9.49    1.66
 -10   4   4   12.13    1.77
 -10   4   4    9.06    1.49
   9  -4  -4   -0.37    0.68
   9  -4  -4    0.57    1.06
   9  -4  -4    0.89    0.61
  -9  -4   4    0.14    0.58
  -9   4   4   -1.24    0.82
   9   4  -4   -1.11    0.66
  -9   4   4   -0.14    0.86
   8  -4  -4    1.37    0.55
   8  -4  -4    0.38    0.87
  -8  -4   4    0.77    0.48
   8  -4  -4    0.87    0.67
  -8   4   4    0.68    0.73
   8   4  -4    1.62    0.42
   8   4  -4    1.22    0.61
  -8   4   4   -0.45    0.66
  -8   4   4    2.02    0.62
   7  -4  -4    2.95    0.54
  -7  -4   4    3.46    0.63
   7  -4  -4    2.16    0.83
   7   4  -4    3.28    0.62
   7   4  -4    3.31    0.46
  -7   4   4    4.59    0.81
  -7   4   4    3.91    0.55
  -7   4   4    1.85    0.65
  -7   4   4    4.11    0.77
   6  -4  -4    1.20    0.72
   6  -4  -4    1.78    0.43
  -6  -4   4    2.12    0.41
  -6   4   4    0.98    0.61
  -6   4   4    1.93    0.51
   6   4  -4    1.47    0.43
  -6   4   4    1.43    0.38
   6   4  -4    1.49    0.31
  -6   4   4    2.41    0.61
   5  -4  -4   76.57    4.36
   5  -4  -4   74.88    4.46
  -5  -4   4   74.55    4.32
  -5   4   4   78.07    4.55
   5   4  -4   74.03    4.29
  -5   4   4   73.04    4.44
  -5   4   4   77.58    4.45
  -5   4   4   78.50    4.55
   5   4  -4   62.92    4.34
  -4  -4   4   13.99    0.94
   4  -4  -4   13.74    0.97
   4  -4  -4   13.44    1.08
  -4   4   4   14.11    1.09
  -4   4   4   12.83    1.10
  -4   4   4   13.09    1.24
  -4   4   4   14.81    1.22
   4   4  -4   14.33    0.90
   3  -4  -4   16.02    1.14
  -3  -4   4   15.15    1.00
   3  -4  -4   15.94    1.02
  -3   4   4   14.56    1.21
  -3   4   4   17.26    1.16
  -3   4   4   14.20    1.20
   3   4  -4   15.69    0.97
  -3   4   4   16.91    1.28
   3   4  -4   14.06    1.37
  -2  -4   4   10.87    0.67
   2  -4  -4    9.20    0.65
   2  -4  -4    9.18    0.75
  -2   4   4    8.65    0.77
  -2   4   4    9.49    0.87
  -2   4   4    7.58    0.88
  -2   4   4    8.37    0.98
  -2   4   4    8.60    0.87
   1  -4  -4    0.52    0.26
  -1  -4   4    0.32    0.20
  -1   4   4    0.99    0.29
  -1   4   4    1.06    0.39
  -1   4   4    0.75    0.46
  -1   4   4    0.07    0.31
  -1   4   4    0.36    0.31
   0  -4  -4   57.55    3.49
   0  -4   4   56.62    3.41
   0   4   4   57.03    3.49
   0   4   4   59.09    3.47
   0   4   4   56.47    3.49
   0   4   4   65.05    3.62
   0   4  -4   58.87    3.58
  -1  -4  -4    2.10    0.37
  -1  -4  -4    2.99    0.42
   1  -4   4    2.51    0.33
  -1   4  -4    2.07    0.41
   1   4   4    2.00    0.34
   1   4   4    2.31    0.39
   1   4   4    2.08    0.37
   1   4   4    2.16    0.56
  -2  -4  -4    1.13    0.32
   2  -4   4    1.12    0.27
  -2  -4  -4    1.23    0.40
  -2  -4  -4    0.93    0.30
  -2   4  -4    1.04    0.33
   2   4   4    0.76    0.26
  -2   4  -4    0.89    0.25
   2   4   4    1.06    0.28
   2   4   4    0.88    0.29
  -3  -4  -4    1.42    0.31
   3  -4   4    1.24    0.48
  -3  -4  -4    1.42    0.43
  -3  -4  -4    2.09    0.36
   3  -4   4    1.72    0.32
   3   4   4    1.70    0.36
  -3   4  -4    2.23    0.40
  -3   4  -4    1.94    0.35
   3   4   4    1.37    0.32
  -3   4  -4    1.90    0.33
  -4  -4  -4   17.32    1.18
   4  -4   4   17.99    1.33
  -4  -4  -4   15.36    1.31
   4  -4   4   17.45    1.46
   4  -4   4   16.86    1.19
  -4  -4  -4   19.06    1.25
   4   4   4   17.67    1.23
  -4   4  -4   19.18    1.21
   4   4   4   17.82    1.20
  -4   4  -4   17.28    1.17
   4   4   4   16.70    1.19
   5  -4   4   25.76    1.81
  -5  -4  -4   24.01    1.54
  -5  -4  -4   19.89    1.46
   5  -4   4   21.21    1.70
  -5  -4  -4   20.21    1.60
   5   4   4   24.15    1.52
   5   4   4   24.86    1.50
  -5   4  -4   23.99    1.53
   5   4   4   22.29    1.55
  -5   4  -4   21.21    1.49
  -6  -4  -4    2.74    0.74
  -6  -4  -4    2.96    0.50
   6  -4   4    3.35    0.75
  -6  -4  -4    2.05    0.42
  -6   4  -4    2.90    0.49
   6   4   4    2.34    0.44
   6   4   4    3.08    0.51
  -6   4  -4    2.30    0.48
  -6   4  -4    2.56    0.49
  -7  -4  -4   -0.36    0.31
  -7  -4  -4    0.42    0.61
   7  -4   4   -0.28    0.74
   7  -4   4    0.88    0.64
  -7   4  -4    0.72    0.46
   7   4   4   -0.07    0.47
  -7   4  -4   -0.95    0.44
   8  -4   4    2.59    0.92
   8  -4   4    2.44    0.81
  -8  -4  -4    2.58    0.65
   8  -4   4    1.74    0.49
   8   4   4    1.16    0.62
   8   4   4    2.31    0.51
  -8   4  -4    0.51    0.58
   8   4   4    2.44    0.57
  -8   4  -4    1.91    0.61
   9  -4   4    1.97    0.63
   9  -4   4    0.83    1.19
  -9  -4  -4    0.26    0.72
   9  -4   4    1.21    0.86
   9   4   4    2.95    0.85
  -9   4  -4    2.38    0.75
   9   4   4    1.16    0.57
  10  -4   4   15.73    2.17
  10  -4   4   19.58    2.74
  10  -4   4   24.69    1.79
 -10  -4  -4   22.54    1.96
  10   4   4   21.33    1.79
 -10   4  -4   25.35    2.19
  10   4   4   15.64    2.18
  11  -4   4    6.92    1.34
  11  -4   4    4.98    1.50
  11   4   4    6.69    1.59
  11   4   4    4.94    1.08
  10  -5  -4    0.50    0.85
  10  -5  -4    0.40    1.73
  10   5  -4    0.19    0.70
 -10   5   4    0.17    1.48
  10   5  -4    0.98    1.14
   9  -5  -4    3.59    0.85
   9  -5  -4    3.24    1.49
   9   5  -4    2.58    1.00
  -9   5   4    2.66    1.29
   9   5  -4    3.59    0.69
   8  -5  -4   -0.36    0.48
  -8  -5   4   -1.23    0.63
   8  -5  -4    0.11    1.13
   8  -5  -4   -0.60    0.50
  -8   5   4    1.35    0.95
   8   5  -4   -0.43    0.72
  -8   5   4    0.57    1.01
  -8   5   4   -0.80    0.53
   8   5  -4    0.27    0.45
   7  -5  -4    2.27    1.02
   7  -5  -4    2.40    0.48
   7  -5  -4    2.28    0.54
   7   5  -4    2.85    0.68
  -7   5   4    1.89    0.90
   7   5  -4    1.66    0.44
  -7   5   4    1.75    0.59
  -7   5   4    3.02    0.74
  -7   5   4    3.40    0.93
  -6  -5   4    1.27    0.40
   6  -5  -4    1.92    0.57
   6  -5  -4    1.71    0.41
   6  -5  -4    1.13    0.93
   6   5  -4    1.70    0.38
  -6   5   4    2.76    0.78
  -6   5   4    2.61    0.55
   6   5  -4    1.99    0.56
  -6   5   4    3.46    0.73
  -6   5   4    1.75    0.83
   5  -5  -4    9.48    1.41
   5  -5  -4   10.27    0.95
  -5  -5   4    9.13    0.80
  -5   5   4   12.93    1.18
   5   5  -4    9.99    0.78
   5   5  -4   10.56    0.93
  -5   5   4   10.97    1.12
  -5   5   4    9.56    1.30
  -5   5   4   10.42    1.29
   4  -5  -4   31.04    2.20
  -4  -5   4   37.98    2.08
   4   5  -4   34.46    2.03
   4   5  -4   36.34    2.40
  -4   5   4   31.48    2.34
  -4   5   4   32.06    2.35
  -4   5   4   32.61    2.36
  -4   5   4   33.51    2.25
   3  -5  -4   97.16    5.78
  -3  -5   4  104.90    5.65
  -3   5   4   98.05    5.83
   3   5  -4   96.15    5.90
  -3   5   4   93.21    5.82
  -3   5   4   95.90    5.76
   3   5  -4   99.35    5.60
   2  -5  -4    4.15    0.60
  -2  -5   4    5.30    0.48
  -2   5   4    5.12    0.80
  -2   5   4    3.70    0.64
  -2   5   4    4.17    0.77
  -2   5   4    5.39    0.75
   2   5  -4    3.90    0.69
  -1  -5   4    0.26    0.23
   1  -5  -4    0.56    0.34
  -1   5   4    0.28    0.40
   1   5  -4    0.45    0.45
  -1   5   4   -0.20    0.32
  -1   5   4    0.81    0.46
  -1   5   4   -0.31    0.54
  -1   5   4    0.30    0.53
   0  -5  -4    9.15    0.81
   0  -5   4    9.98    0.73
   0   5  -4    9.50    1.00
   0   5   4    8.71    0.85
   0   5   4    7.08    1.11
   0   5   4    9.65    0.89
   0   5  -4   10.12    0.69
   0   5   4    9.59    0.93
  -1  -5  -4    9.53    0.79
   1  -5   4    7.27    0.67
   1   5   4    7.52    0.77
  -1   5  -4    8.71    0.66
   1   5   4    7.67    0.76
  -1   5  -4    8.91    0.95
   1   5   4    7.70    0.84
  -1   5  -4    7.90    0.77
   2  -5   4   10.70    0.83
  -2  -5  -4   11.28    0.90
   2   5   4   10.68    0.92
   2   5   4   10.76    0.92
  -2   5  -4   11.43    0.88
   2   5   4   11.53    0.94
  -2   5  -4   10.70    0.95
   2   5   4   10.39    1.33
  -3  -5  -4    3.40    0.54
  -3  -5  -4    3.49    0.63
   3  -5   4    3.03    0.48
   3   5   4    3.32    0.48
   3   5   4    3.35    0.56
   3   5   4    3.43    0.59
  -3   5  -4    3.68    0.61
   4  -5   4    0.02    0.28
  -4  -5  -4   -0.22    0.29
   4   5   4    0.16    0.33
  -4   5  -4    0.38    0.45
   4   5   4    0.20    0.39
   4   5   4    0.41    0.37
  -5  -5  -4    0.73    0.35
  -5  -5  -4    0.29    0.61
   5  -5   4    0.50    0.36
   5  -5   4    0.16    0.73
   5   5   4   -0.04    0.40
   5   5   4    0.25    0.41
   5   5   4   -0.48    0.38
  -5   5  -4    0.23    0.48
  -5   5  -4   -0.06    0.34
  -5   5  -4    1.24    0.47
  -6  -5  -4    5.95    0.96
   6  -5   4    7.15    0.77
   6  -5   4    5.32    1.04
   6  -5   4    8.62    1.43
  -6  -5  -4    6.48    0.86
  -6  -5  -4    5.41    0.70
  -6   5  -4    5.21    0.77
   6   5   4    7.43    0.87
  -6   5  -4    6.97    0.83
   6   5   4    5.24    0.79
  -6   5  -4    8.11    1.30
  -7  -5  -4   14.74    1.20
   7  -5   4   16.81    1.96
   7  -5   4   17.84    1.34
   7  -5   4   17.22    1.99
  -7  -5  -4   15.88    1.39
   7   5   4   15.66    1.39
  -7   5  -4   19.13    1.44
   7   5   4   17.29    1.36
  -7   5  -4   17.22    1.44
   7   5   4   15.90    1.50
   8  -5   4   -1.63    1.03
  -8  -5  -4   -0.14    0.38
   8  -5   4   -0.95    0.47
   8  -5   4    1.31    1.31
   8   5   4   -0.55    0.73
   8   5   4   -0.22    0.54
  -8   5  -4   -0.32    0.70
   9  -5   4    0.64    1.12
   9   5   4    0.01    0.95
   9   5   4   -0.42    0.64
   9   6  -4    0.59    0.82
   9   6  -4    1.00    1.18
   8  -6  -4   -0.04    0.54
   8   6  -4   -0.88    0.93
  -8   6   4    1.34    1.33
   8   6  -4   -0.38    0.59
   7  -6  -4    0.10    0.46
   7   6  -4    0.05    0.48
  -7   6   4    1.09    1.11
  -7   6   4    0.08    1.09
   6  -6  -4    2.68    0.64
  -6  -6   4    2.63    0.52
  -6   6   4    0.97    1.00
  -6   6   4    5.86    1.20
  -6   6   4    3.17    1.07
   6   6  -4    2.39    0.52
  -6   6   4    1.64    1.01
  -5  -6   4    0.42    0.34
   5  -6  -4    0.01    0.37
   5   6  -4    0.50    0.43
  -5   6   4    0.90    0.92
  -5   6   4    0.81    0.80
   5   6  -4    0.45    0.36
  -5   6   4    0.04    0.85
   5   6  -4    0.18    0.99
  -5   6   4    0.22    0.82
   4  -6  -4    8.76    0.97
  -4  -6   4   10.09    0.84
   4   6  -4    9.85    0.85
  -4   6   4   11.59    1.42
  -4   6   4   11.73    1.36
   4   6  -4    8.79    1.27
  -4   6   4   10.25    1.35
  -4   6   4    9.86    1.41
  -3  -6   4    6.17    0.68
   3  -6  -4    6.56    0.79
  -3   6   4    8.34    1.15
  -3   6   4    8.31    1.11
   3   6  -4    5.93    0.71
  -3   6   4    5.20    0.98
  -3   6   4    7.72    1.03
   3   6  -4    7.28    0.67
  -2  -6   4    5.87    0.62
   2  -6  -4    5.77    0.72
  -2   6   4    6.92    1.07
   2   6  -4    5.12    0.93
  -2   6   4    6.00    0.89
  -2   6   4    6.73    0.97
   2   6  -4    5.64    0.65
  -2   6   4    7.25    1.03
  -2   6   4    6.13    0.94
   1  -6  -4    8.80    0.90
  -1  -6   4    9.35    0.79
  -1   6   4    9.89    1.14
  -1   6   4    6.73    1.30
  -1   6   4    9.80    1.50
  -1   6   4   10.75    1.45
  -1   6   4   10.65    1.11
   1   6  -4    9.29    1.40
   0  -6  -4    0.03    0.36
   0  -6   4    0.23    0.30
   0   6  -4   -0.10    0.64
   0   6   4   -0.25    0.49
   0   6   4    0.80    0.80
   0   6   4    1.20    0.52
   0   6   4   -1.59    0.72
  -1  -6  -4    4.24    0.64
   1  -6   4    3.78    0.52
  -1   6  -4    4.93    0.88
   1   6   4    3.21    0.89
   1   6   4    3.36    0.63
   1   6   4    4.91    1.02
   1   6   4    4.10    0.64
   1   6   4    3.38    0.59
  -1   6  -4    5.13    0.72
  -1   6  -4    3.78    0.64
  -2  -6  -4    0.63    0.40
   2  -6   4    0.24    0.35
   2   6   4   -0.09    0.48
  -2   6  -4   -0.50    0.62
  -2   6  -4    0.84    0.61
   2   6   4   -0.40    0.89
   2   6   4    0.20    0.41
  -2   6  -4    0.85    0.47
   2   6   4    0.07    0.43
   3  -6   4    0.86    0.38
  -3  -6  -4    0.97    0.43
   3   6   4    0.81    0.54
   3   6   4    0.60    0.45
   3   6   4    0.24    0.42
  -3   6  -4    0.75    0.66
  -3   6  -4    1.06    0.58
   3   6   4    1.89    1.00
  -4  -6  -4    0.50    0.41
   4  -6   4    0.63    0.41
   4   6   4    0.38    0.47
  -4   6  -4    1.26    0.61
   4   6   4    1.35    0.55
  -4   6  -4   -0.60    0.72
   4   6   4    0.35    0.51
   5  -6   4    0.79    0.42
  -5  -6  -4    0.49    0.46
   5   6   4    0.21    0.57
   5   6   4    1.08    0.63
   5   6   4    0.21    0.57
  -5   6  -4   -0.01    0.85
  -5   6  -4    1.00    0.71
   6  -6   4    0.38    0.44
  -6  -6  -4    0.15    0.42
   6   6   4    1.10    0.69
   6   6   4   -0.05    0.61
  -6   6  -4   -0.74    0.72
   7  -6   4    3.91    0.69
  -7  -6  -4    1.77    0.55
  -7   6  -4    5.83    1.33
   7   6   4    2.88    0.93
   7   6   4    3.31    0.76
   8  -6   4   -0.41    0.55
  -8  -6  -4   -0.79    0.58
   8   6   4    0.64    1.09
  -8   6  -4    1.66    1.41
   8   6   4    0.72    0.79
   6  -7  -4    3.57    0.83
  -6   7   4    6.11    1.63
   6   7  -4    4.38    1.10
  -6   7   4    4.81    1.40
  -5  -7   4    0.42    0.42
   5  -7  -4    0.18    0.57
  -5   7   4    0.02    1.36
  -5   7   4    0.33    1.12
   5   7  -4    0.00    0.55
   4  -7  -4    0.58    0.46
  -4  -7   4    0.20    0.42
   4   7  -4    0.52    0.52
  -4   7   4    1.64    0.94
  -3  -7   4    1.23    0.45
   3  -7  -4    1.25    0.52
  -3   7   4    0.00    0.78
  -3   7   4   -0.18    1.01
   3   7  -4    0.39    0.47
  -3   7   4   -0.60    1.21
   2  -7  -4    8.76    0.99
  -2  -7   4    8.75    0.85
  -2   7   4   13.28    1.61
  -2   7   4    8.75    1.23
   2   7  -4   10.97    1.24
   2   7  -4    8.05    0.97
  -2   7   4   10.04    1.72
  -1  -7   4    1.97    0.46
   1  -7  -4    2.16    0.54
  -1   7   4    0.43    1.16
   1   7  -4    1.90    0.59
  -1   7   4    2.13    0.62
  -1   7   4    1.82    0.85
   0  -7  -4    5.10    0.78
   0  -7   4    4.44    0.69
   0   7   4    4.75    0.71
   0   7   4    3.70    0.97
   0   7  -4    5.25    0.76
   1  -7   4   -0.60    0.35
  -1  -7  -4   -0.14    0.40
   1   7   4   -1.63    0.79
   1   7   4    1.78    0.87
  -1   7  -4   -0.78    0.66
  -1   7  -4   -0.01    0.73
   1   7   4    0.36    0.50
  -2  -7  -4    6.93    0.88
   2  -7   4    6.08    0.80
   2   7   4    6.57    1.07
   2   7   4    6.47    0.97
  -2   7  -4    8.74    1.27
  -2   7  -4    9.63    1.43
   2   7   4    5.77    0.87
  -3  -7  -4    1.67    0.85
   3  -7   4    2.13    0.55
   3   7   4    1.33    0.63
  -3   7  -4    1.88    0.97
   3   7   4    2.01    0.76
   4  -7   4    6.65    0.89
  -4  -7  -4    8.80    1.00
   4   7   4    8.98    1.20
  -4   7  -4    8.20    1.33
   4   7   4    5.65    0.97
  -5  -7  -4    6.44    1.03
   5  -7   4    9.28    1.02
  -5   7  -4    8.81    1.54
   5   7   4    7.81    1.10
  14   0  -5   -2.85    1.88
  14   0  -5   -1.48    0.72
  13   0  -5    1.11    0.56
  13   0  -5    0.69    0.84
  13   0  -5   -0.15    1.35
 -13   0   5    0.33    1.21
  12   0  -5   -0.26    0.40
  12   0  -5    1.03    0.77
  12   0  -5   -0.64    1.07
 -12   0   5    0.40    0.90
  11   0  -5    1.09    0.89
 -11   0   5    0.91    0.73
  11   0  -5    0.02    0.49
  11   0  -5   -0.47    0.31
 -11   0   5   -0.16    0.49
 -11   0   5   -0.34    0.64
  10   0  -5   -0.35    0.26
  10   0  -5   -0.01    0.76
 -10   0   5   -0.69    0.52
 -10   0   5   -0.35    0.62
  10   0  -5    0.15    0.55
  -9   0   5    0.36    0.30
  -9   0   5    0.61    0.47
   9   0  -5   -0.04    0.59
   9   0  -5    0.23    0.37
   9   0  -5    0.11    0.21
  -9   0   5   -0.35    0.46
   8   0  -5    0.17    0.29
  -8   0   5   -0.04    0.34
   8   0  -5   -0.02    0.15
  -8   0   5   -0.12    0.39
   8   0  -5    0.23    0.49
  -8   0   5    0.45    0.26
   7   0  -5    0.08    0.25
   7   0  -5   -0.09    0.14
  -7   0   5   -0.02    0.31
  -7   0   5    0.14    0.36
   7   0  -5   -0.20    0.40
  -7   0   5   -0.29    0.20
  -6   0   5   -0.17    0.16
  -6   0   5   -0.04    0.27
   6   0  -5    0.19    0.20
  -6   0   5   -0.19    0.27
   6   0  -5   -0.07    0.10
   6   0  -5    0.51    0.36
  -5   0   5    0.22    0.22
   5   0  -5   -0.15    0.27
   5   0  -5    0.04    0.09
   5   0  -5   -0.03    0.16
  -5   0   5   -0.09    0.22
  -5   0   5   -0.16    0.13
   4   0  -5   -0.02    0.06
  -4   0   5   -0.30    0.19
   4   0  -5   -0.07    0.25
  -4   0   5    0.08    0.21
  -4   0   5   -0.03    0.12
   4   0  -5   -0.02    0.14
  -3   0   5   -0.03    0.16
  -3   0   5    0.07    0.10
  -3   0   5   -0.18    0.16
   3   0  -5   -0.24    0.12
   3   0  -5   -0.09    0.18
   3   0  -5    0.11    0.11
  -2   0   5   -0.15    0.15
  -2   0   5   -0.02    0.09
   2   0  -5   -0.10    0.17
   2   0  -5   -0.06    0.09
  -2   0   5   -0.13    0.12
   1   0  -5   -0.08    0.11
  -1   0   5   -0.03    0.16
  -1   0   5   -0.11    0.10
   1   0  -5   -0.11    0.09
  -1   0   5   -0.07    0.09
  -1   0   5   -0.10    0.15
   0   0  -5    0.03    0.09
   0   0  -5    0.10    0.08
   0   0  -5    0.09    0.10
   0   0   5    0.08    0.09
   0   0  -5    0.05    0.11
   0   0   5    0.05    0.09
   0   0   5    0.07    0.12
   1   0   5   -0.02    0.07
  -1   0  -5    0.00    0.09
  -1   0  -5    0.06    0.10
   1   0   5   -0.05    0.09
   1   0   5    0.00    0.07
  -1   0  -5   -0.09    0.07
  -1   0  -5   -0.11    0.07
  -2   0  -5    0.26    0.10
   2   0   5    0.15    0.09
   2   0   5    0.07    0.09
  -2   0  -5    0.27    0.10
   2   0   5    0.00    0.13
  -2   0  -5    0.45    0.14
   3   0   5    0.01    0.08
   3   0   5    0.13    0.14
   3   0   5   -0.05    0.10
  -3   0  -5    0.07    0.12
  -3   0  -5   -0.11    0.09
  -4   0  -5    0.17    0.17
  -4   0  -5    0.12    0.12
   4   0   5   -0.11    0.17
   4   0   5   -0.06    0.12
  -5   0  -5    0.15    0.20
   5   0   5   -0.10    0.24
  -5   0  -5   -0.10    0.15
   5   0   5    0.11    0.17
   6   0   5    0.17    0.20
   6   0   5    0.30    0.29
  -6   0  -5    0.19    0.26
   7   0   5    0.14    0.28
   7   0   5   -0.46    0.36
  -7   0  -5   -0.39    0.30
   8   0   5    0.63    0.54
   8   0   5    0.15    0.29
  -8   0  -5   -0.24    0.36
   9   0   5    0.36    0.60
  -9   0  -5   -0.03    0.49
  10   0   5    0.37    0.67
  10   0   5   -0.32    0.50
 -10   0  -5   -1.09    0.58
  10   0   5    0.21    0.38
 -10   0  -5   -0.47    0.50
  11   0   5   -0.43    0.97
  11   0   5    0.04    0.59
  11   0   5   -0.51    0.49
  12   0   5   -0.06    0.79
  12   0   5    0.43    1.16
  12   0   5    1.28    0.63
  13  -1  -5    6.21    1.70
  13  -1  -5    2.37    1.01
 -13  -1   5    1.64    1.19
  13  -1  -5    2.58    0.83
  13   1  -5    3.38    0.66
  13   1  -5    3.53    1.55
  13   1  -5    3.27    1.01
 -13   1   5    2.40    1.33
 -12  -1   5    7.31    1.11
 -12  -1   5    5.79    1.19
  12  -1  -5    5.55    0.94
  12  -1  -5    4.92    1.36
  12  -1  -5    4.80    0.88
  12   1  -5    4.63    0.89
 -12   1   5    7.27    1.28
  12   1  -5    7.75    1.48
  12   1  -5    5.21    0.79
 -11  -1   5    0.62    0.74
 -11  -1   5    1.50    0.71
  11  -1  -5    1.51    0.99
 -11  -1   5    0.63    0.48
  11  -1  -5    1.44    0.46
  11  -1  -5    0.86    0.56
  11   1  -5    0.30    0.53
 -11   1   5    1.21    0.78
 -11   1   5    2.51    0.60
 -11   1   5    1.09    0.85
  11   1  -5    0.65    0.93
 -10  -1   5    1.04    0.63
  10  -1  -5    0.71    0.50
  10  -1  -5    0.39    0.72
 -10  -1   5    0.56    0.36
  10  -1  -5    0.88    0.33
 -10   1   5    0.75    0.75
  10   1  -5   -0.14    0.77
 -10   1   5    0.62    0.63
 -10   1   5    0.80    0.42
   9  -1  -5    2.91    0.56
   9  -1  -5    3.32    0.45
   9  -1  -5    4.49    0.91
  -9  -1   5    3.50    0.70
  -9  -1   5    2.52    0.42
   9   1  -5    2.92    0.50
  -9   1   5    4.84    0.87
  -9   1   5    3.06    0.78
   9   1  -5    3.39    0.75
  -9   1   5    1.99    0.46
   8  -1  -5   79.55    4.61
  -8  -1   5   80.33    4.75
  -8  -1   5   79.73    4.69
  -8  -1   5   79.28    4.60
   8  -1  -5   76.25    4.71
   8   1  -5   79.79    4.82
   8   1  -5   76.30    4.66
  -8   1   5   76.18    4.77
  -8   1   5   84.10    4.66
  -8   1   5   78.83    4.80
   7  -1  -5   11.95    0.84
   7  -1  -5   13.17    1.20
  -7  -1   5   12.85    0.83
   7  -1  -5   11.35    0.95
  -7  -1   5   12.31    0.94
  -7  -1   5   11.44    0.99
  -7   1   5   11.79    1.07
   7   1  -5   11.32    0.88
   7   1  -5   13.21    1.09
  -7   1   5   11.56    0.94
  -7   1   5    9.50    1.01
  -6  -1   5   12.02    0.91
  -6  -1   5   11.12    0.94
   6  -1  -5   11.69    0.83
   6  -1  -5   13.65    1.14
   6  -1  -5   11.86    0.92
  -6  -1   5   11.94    0.80
  -6   1   5   11.30    0.88
  -6   1   5   14.19    1.04
   6   1  -5   13.36    1.01
   6   1  -5   11.94    0.86
  -6   1   5   12.39    1.01
  -5  -1   5    0.24    0.23
   5  -1  -5    0.01    0.16
  -5  -1   5    0.11    0.11
   5  -1  -5   -0.19    0.29
   5  -1  -5    0.12    0.14
  -5  -1   5   -0.09    0.16
  -5   1   5    0.03    0.16
   5   1  -5    0.23    0.26
  -5   1   5   -0.12    0.24
   5   1  -5   -0.06    0.14
  -5   1   5   -0.39    0.24
  -4  -1   5   36.33    2.05
   4  -1  -5   35.06    2.14
  -4  -1   5   34.04    2.12
   4  -1  -5   35.81    2.08
  -4  -1   5   35.05    2.11
  -4   1   5   35.08    2.20
  -4   1   5   35.92    2.05
   4   1  -5   36.08    2.09
   4   1  -5   34.22    2.16
  -4   1   5   34.94    2.19
  -4   1   5   35.93    2.13
  -3  -1   5   20.60    1.23
  -3  -1   5   21.43    1.26
  -3  -1   5   19.78    1.18
   3  -1  -5   22.06    1.31
  -3   1   5   21.21    1.33
   3   1  -5   21.92    1.26
  -3   1   5   18.73    1.26
   3   1  -5   20.43    1.22
  -3   1   5   21.13    1.21
   3   1  -5   16.51    1.27
  -2  -1   5   48.99    2.95
   2  -1  -5   49.55    3.00
   2  -1  -5   48.05    2.97
  -2   1   5   56.44    3.02
   2   1  -5   55.10    2.95
  -2   1   5   50.78    2.95
   2   1  -5   50.08    2.97
  -2   1   5   52.11    2.98
   2   1  -5   51.28    2.92
   2   1  -5   49.16    2.93
  -1  -1   5    0.10    0.11
  -1  -1   5    0.15    0.12
   1  -1  -5    0.23    0.11
   1  -1  -5    0.13    0.11
   1  -1  -5    0.12    0.12
   1   1  -5    0.23    0.08
  -1   1   5    0.06    0.13
   1   1  -5    0.22    0.07
   1   1  -5    0.26    0.14
   1   1  -5    0.20    0.06
  -1   1   5    0.05    0.15
  -1   1   5   -0.10    0.13
  -1   1   5    0.31    0.12
   0  -1  -5   21.79    1.32
   0  -1  -5   19.96    1.27
   0  -1   5   20.24    1.26
   0  -1  -5   20.52    1.29
   0  -1  -5   19.91    1.26
   0   1   5   21.18    1.30
   0   1  -5   22.04    1.24
   0   1   5   22.20    1.28
   0   1   5   19.81    1.27
   0   1  -5   21.85    1.25
   0   1  -5   22.09    1.21
   1  -1   5  683.23   42.13
  -1  -1  -5  811.97   42.14
   1   1   5  749.43   42.16
   2  -1   5   76.32    4.87
   2  -1   5   83.02    4.89
  -2  -1  -5   87.24    4.89
   2  -1   5   81.41    4.85
   2  -1   5   81.67    4.85
  -2  -1  -5   92.11    4.92
  -2  -1  -5   96.80    4.87
   2   1   5   85.96    4.87
  -2   1  -5   90.33    4.85
   2   1   5   80.65    4.88
  -2   1  -5   81.31    4.86
   2   1   5   86.71    4.90
   3  -1   5    7.23    0.51
   3  -1   5    7.76    0.55
  -3  -1  -5    7.48    0.52
  -3  -1  -5    6.99    0.51
   3  -1   5    7.51    0.57
  -3  -1  -5    7.67    0.57
   3  -1   5    7.99    0.52
   3   1   5    7.55    0.53
   3   1   5    7.47    0.53
   3   1   5    6.88    0.56
  -3   1  -5    7.25    0.50
  -3   1  -5    6.09    0.52
   4  -1   5   10.69    0.74
   4  -1   5   10.85    0.82
   4  -1   5   10.49    0.76
  -4  -1  -5   12.16    0.73
  -4  -1  -5   12.08    0.80
  -4  -1  -5   10.17    0.74
  -4   1  -5   11.29    0.73
  -4   1  -5   10.61    0.77
   4   1   5   10.24    0.79
   4   1   5   11.09    0.75
  -5  -1  -5    0.96    0.26
  -5  -1  -5    0.95    0.22
   5  -1   5    0.69    0.22
   5  -1   5    0.82    0.32
   5  -1   5    0.77    0.23
   5   1   5    0.63    0.21
  -5   1  -5    1.00    0.25
   5   1   5    0.76    0.27
  -5   1  -5    0.77    0.20
   6  -1   5    6.16    0.57
   6  -1   5    6.09    0.75
  -6  -1  -5    6.01    0.63
   6  -1   5    6.05    0.59
  -6   1  -5    6.42    0.62
   6   1   5    5.61    0.68
   6   1   5    5.53    0.55
  -6   1  -5    6.05    0.61
  -7  -1  -5    6.92    0.66
   7  -1   5    5.96    0.63
  -7  -1  -5    6.46    0.70
   7  -1   5    4.91    0.76
   7  -1   5    6.82    0.64
  -7   1  -5    7.73    0.72
  -7   1  -5    6.69    0.62
   7   1   5    6.60    0.64
   7   1   5    5.69    0.81
   8  -1   5    2.12    0.45
  -8  -1  -5    1.94    0.41
   8  -1   5    2.19    0.43
   8  -1   5    1.43    0.60
  -8  -1  -5    2.19    0.48
   8   1   5    2.25    0.41
   8   1   5    1.87    0.55
  -8   1  -5    1.42    0.39
  -8   1  -5    1.97    0.45
   9  -1   5   -0.58    0.58
  -9  -1  -5   -0.24    0.40
   9  -1   5    0.07    0.38
   9  -1   5   -0.05    0.38
  -9  -1  -5   -0.11    0.51
  -9   1  -5    1.02    0.54
  -9   1  -5   -0.54    0.48
   9   1   5   -0.16    0.39
  10  -1   5    1.32    0.45
 -10  -1  -5    1.24    0.54
  10  -1   5    1.05    0.85
  10  -1   5    0.51    0.53
 -10  -1  -5    0.83    0.63
 -10   1  -5    0.22    0.56
  10   1   5    0.94    0.54
  10   1   5    0.56    0.83
 -10   1  -5    1.31    0.68
  11  -1   5    0.81    0.58
  11  -1   5    0.99    0.67
  11  -1   5    0.51    1.10
  11   1   5    2.65    0.70
  11   1   5    0.85    0.92
 -11   1  -5   -0.11    0.87
  12  -1   5    1.85    1.42
  12  -1   5   -0.16    0.88
  12  -1   5   -0.22    0.62
  12   1   5   -0.06    1.24
  12   1   5    0.06    0.80
  13  -2  -5    6.61    2.00
  13  -2  -5    7.53    1.22
  13  -2  -5    5.64    1.17
 -13  -2   5    6.59    1.37
 -13   2   5    4.15    1.71
  13   2  -5    5.87    1.25
  13   2  -5    9.48    1.93
 -12  -2   5    2.75    0.73
 -12  -2   5    1.06    1.00
  12  -2  -5    2.52    0.84
  12  -2  -5    4.30    1.45
  12  -2  -5    4.18    0.98
 -12   2   5    2.52    1.19
  12   2  -5    5.16    1.34
  12   2  -5    2.37    0.83
  11  -2  -5    2.70    0.71
  11  -2  -5    3.19    1.14
  11  -2  -5    4.59    0.86
 -11  -2   5    2.96    1.35
 -11   2   5    1.49    0.94
 -11   2   5    1.71    0.91
  11   2  -5    2.41    1.01
  11   2  -5    2.70    0.69
  10  -2  -5    0.81    0.58
  10  -2  -5    0.41    0.82
  10  -2  -5    0.36    0.47
 -10  -2   5    0.20    0.53
 -10  -2   5    1.11    0.37
 -10  -2   5    0.90    0.60
 -10   2   5    1.13    0.78
 -10   2   5    0.76    0.67
 -10   2   5    0.45    0.52
  10   2  -5    1.33    0.76
  10   2  -5    0.61    0.47
   9  -2  -5   11.88    1.10
  -9  -2   5   13.87    1.21
   9  -2  -5   15.37    1.63
   9  -2  -5   12.62    1.15
   9   2  -5   13.04    1.31
  -9   2   5   12.37    1.37
   9   2  -5   11.66    1.07
  -8  -2   5   13.14    1.17
  -8  -2   5   14.11    1.11
   8  -2  -5   14.74    1.52
   8  -2  -5   15.89    1.14
   8  -2  -5   14.47    1.18
  -8  -2   5   14.97    0.98
  -8   2   5   13.83    1.29
   8   2  -5   13.53    1.29
   8   2  -5   14.49    1.08
  -8   2   5   14.63    1.33
   7  -2  -5    5.17    0.97
   7  -2  -5    4.88    0.65
   7  -2  -5    4.52    0.62
  -7  -2   5    5.70    0.46
  -7  -2   5    4.20    0.67
  -7  -2   5    5.22    0.60
  -7   2   5    5.84    0.65
   7   2  -5    5.77    0.58
  -7   2   5    6.80    0.85
  -7   2   5    4.53    0.77
   7   2  -5    4.56    0.76
  -6  -2   5    9.83    0.83
   6  -2  -5   11.67    1.13
   6  -2  -5   10.43    0.87
  -6  -2   5   10.59    0.70
   6  -2  -5   10.78    0.86
  -6  -2   5   10.41    0.80
   6   2  -5   10.86    0.94
  -6   2   5   10.13    0.73
   6   2  -5   10.53    0.78
  -6   2   5    9.77    0.96
  -6   2   5   12.94    1.02
  -5  -2   5    3.89    0.32
   5  -2  -5    4.25    0.52
  -5  -2   5    4.09    0.45
   5  -2  -5    3.87    0.50
   5  -2  -5    5.34    0.78
  -5  -2   5    3.85    0.41
  -5   2   5    3.96    0.38
   5   2  -5    3.89    0.38
  -5   2   5    3.37    0.52
  -5   2   5    3.66    0.58
   5   2  -5    4.21    0.55
  -5   2   5    4.68    0.53
  -4  -2   5   13.98    0.81
   4  -2  -5   10.91    1.01
   4  -2  -5   12.14    0.89
   4   2  -5   12.58    0.79
  -4   2   5   13.90    1.03
  -4   2   5   11.64    0.95
  -4   2   5   11.89    0.88
  -4   2   5   12.57    0.83
   4   2  -5   11.68    0.88
   3  -2  -5   93.88    5.59
   3   2  -5   97.00    5.50
  -3   2   5   99.42    5.65
   3   2  -5   88.03    5.55
  -3   2   5  102.95    5.69
  -3   2   5   94.92    5.60
  -3   2   5  103.39    5.59
   2  -2  -5    8.09    0.61
   2  -2  -5    7.56    0.71
   2  -2  -5    6.96    0.56
  -2  -2   5    7.93    0.47
   2  -2  -5    7.34    0.56
  -2   2   5    6.42    0.61
   2   2  -5    7.86    0.57
  -2   2   5    7.07    0.55
  -2   2   5    5.52    0.65
  -2   2   5    6.58    0.57
   1  -2  -5   67.29    4.13
   1  -2  -5   70.70    4.09
  -1  -2   5   77.17    4.02
   1  -2  -5   73.22    4.11
  -1   2   5   65.54    4.12
   1   2  -5   72.14    4.12
  -1   2   5   64.08    4.14
  -1   2   5   76.74    4.11
   0  -2   5    0.00    0.10
   0  -2  -5    0.14    0.18
   0  -2  -5    0.26    0.17
   0  -2  -5   -0.05    0.17
   0  -2   5    0.18    0.17
   0  -2  -5    0.11    0.11
   0   2   5    0.00    0.12
   0   2   5   -0.12    0.13
   0   2  -5   -0.05    0.12
   0   2   5    0.07    0.17
  -1  -2  -5    2.48    0.28
  -1  -2  -5    2.78    0.37
   1  -2   5    2.20    0.35
  -1  -2  -5    2.54    0.33
   1  -2   5    2.44    0.21
   1   2   5    2.13    0.31
   1   2   5    2.31    0.35
  -1   2  -5    1.97    0.27
   1   2   5    2.20    0.26
   2  -2   5    6.18    0.57
  -2  -2  -5    6.48    0.56
   2  -2   5    7.07    0.49
  -2  -2  -5    6.28    0.53
  -2  -2  -5    5.82    0.49
  -2   2  -5    6.21    0.49
   2   2   5    6.62    0.53
   2   2   5    6.08    0.50
  -2   2  -5    6.18    0.44
   2   2   5    5.73    0.47
   3  -2   5    5.32    0.54
  -3  -2  -5    5.41    0.50
  -3  -2  -5    5.16    0.54
   3  -2   5    5.06    0.53
   3  -2   5    5.77    0.38
  -3  -2  -5    5.33    0.46
   3  -2   5    5.51    0.43
  -3   2  -5    6.61    0.49
  -3   2  -5    5.99    0.45
   3   2   5    6.04    0.51
   3   2   5    6.13    0.48
  -3   2  -5    5.62    0.44
   3   2   5    5.99    0.48
   4  -2   5    2.55    0.27
   4  -2   5    2.75    0.42
  -4  -2  -5    2.33    0.38
  -4  -2  -5    2.58    0.38
   4  -2   5    2.95    0.43
   4  -2   5    1.93    0.32
  -4  -2  -5    1.89    0.31
   4   2   5    2.86    0.34
  -4   2  -5    2.25    0.31
  -4   2  -5    2.56    0.35
   4   2   5    2.83    0.35
   4   2   5    2.28    0.39
  -5  -2  -5    6.28    0.82
  -5  -2  -5    7.01    0.65
   5  -2   5    7.23    0.61
  -5  -2  -5    6.61    0.57
   5  -2   5    6.17    0.65
   5  -2   5    7.27    0.77
  -5   2  -5    8.25    0.63
   5   2   5    6.84    0.59
  -5   2  -5    8.13    0.60
   5   2   5    7.14    0.67
   6  -2   5    9.49    1.01
   6  -2   5    8.72    0.83
  -6  -2  -5    9.27    0.76
  -6  -2  -5    8.68    0.85
  -6  -2  -5    9.93    0.79
   6  -2   5    9.60    0.80
  -6   2  -5   11.20    0.81
  -6   2  -5   10.92    0.78
   6   2   5    9.42    0.86
   6   2   5    9.44    0.77
   7  -2   5   22.61    1.56
   7  -2   5   22.46    1.59
  -7  -2  -5   22.74    1.60
  -7  -2  -5   24.83    1.55
   7  -2   5   18.80    1.70
   7   2   5   21.57    1.64
  -7   2  -5   27.35    1.55
   7   2   5   21.85    1.52
  -7   2  -5   25.14    1.58
  -8  -2  -5    4.51    0.81
   8  -2   5    5.21    0.70
  -8  -2  -5    4.02    0.64
   8  -2   5    4.01    0.82
   8  -2   5    4.09    0.64
   8   2   5    4.61    0.65
  -8   2  -5    4.80    0.68
   8   2   5    4.37    0.73
  -8   2  -5    4.25    0.72
   9  -2   5   -0.07    0.45
   9  -2   5    0.17    0.39
  -9  -2  -5   -0.97    0.45
   9  -2   5    0.38    0.79
  -9  -2  -5    0.40    0.58
   9   2   5    0.50    0.39
  -9   2  -5   -0.26    0.46
   9   2   5   -0.67    0.55
  -9   2  -5    0.44    0.53
  10  -2   5    0.36    0.49
  10  -2   5    0.42    0.54
  10  -2   5    0.74    0.97
 -10  -2  -5   -0.34    0.56
 -10   2  -5    0.62    0.72
  10   2   5   -0.13    0.44
  10   2   5    0.86    0.83
  11  -2   5   -1.22    1.15
  11  -2   5    0.79    0.71
  11  -2   5    1.41    0.79
 -11   2  -5    1.42    0.96
  11   2   5   -1.73    0.99
  11   2   5    0.28    0.70
  12  -2   5    5.79    1.10
  12  -2   5    4.72    1.73
  12  -2   5    4.32    1.08
  12   2   5    3.33    1.36
  12   2   5    4.52    1.01
  13  -3  -5    3.18    1.25
  13  -3  -5    2.63    1.14
  13  -3  -5   -1.25    2.10
  13   3  -5    4.27    1.20
  12  -3  -5    5.72    2.09
  12  -3  -5    8.55    1.27
  12  -3  -5    9.16    1.32
 -12  -3   5   11.52    1.72
  12   3  -5    8.41    1.41
  12   3  -5    9.29    1.67
 -12   3   5    8.50    1.73
  11  -3  -5    0.49    0.73
 -11  -3   5   -0.22    0.76
  11  -3  -5   -0.85    1.35
  11  -3  -5   -0.07    0.72
 -11  -3   5    0.09    0.53
 -11   3   5    0.35    1.05
  11   3  -5   -0.42    0.58
  11   3  -5    0.66    0.96
 -11   3   5   -2.29    1.02
  10  -3  -5    0.55    0.60
 -10  -3   5    0.46    0.38
  10  -3  -5    0.04    0.60
 -10  -3   5    0.03    0.58
 -10  -3   5    1.12    0.65
  10  -3  -5   -0.21    1.02
 -10   3   5   -0.31    0.83
  10   3  -5    1.21    0.49
  10   3  -5   -0.37    0.73
 -10   3   5   -0.31    0.78
  -9  -3   5   -0.09    0.30
  -9  -3   5    1.07    0.48
   9  -3  -5    0.22    0.48
  -9  -3   5   -0.28    0.47
   9  -3  -5    1.25    0.92
   9  -3  -5   -0.51    0.52
   9   3  -5    0.60    0.62
  -9   3   5   -0.08    0.74
  -9   3   5    0.23    0.57
   9   3  -5    0.88    0.38
   8  -3  -5    5.87    0.99
   8  -3  -5    5.87    0.83
  -8  -3   5    5.62    0.76
   8  -3  -5    5.36    0.93
  -8  -3   5    6.23    0.57
  -8   3   5    6.12    0.98
  -8   3   5    8.82    0.95
   8   3  -5    6.80    0.71
  -8   3   5    6.60    1.09
   8   3  -5    5.71    0.97
   7  -3  -5   -0.04    0.38
   7  -3  -5    0.68    0.40
  -7  -3   5    0.00    0.27
   7  -3  -5    0.09    0.59
  -7   3   5    0.42    0.53
   7   3  -5    0.19    0.23
  -7   3   5    0.31    0.25
  -7   3   5   -0.03    0.38
   7   3  -5   -0.30    0.39
  -7   3   5    0.15    0.48
   6  -3  -5    5.35    1.00
  -6  -3   5    6.19    0.56
   6  -3  -5    4.98    0.74
   6  -3  -5    6.43    0.67
  -6   3   5    6.11    0.73
  -6   3   5    6.56    0.58
   6   3  -5    5.48    0.53
   6   3  -5    5.73    0.71
  -6   3   5    4.88    0.88
  -6   3   5    6.51    0.85
   5  -3  -5    3.33    0.66
   5  -3  -5    2.80    0.46
  -5  -3   5    2.91    0.37
  -5   3   5    2.24    0.53
  -5   3   5    2.90    0.53
   5   3  -5    3.30    0.46
   5   3  -5    2.22    0.33
  -5   3   5    2.80    0.44
   4  -3  -5   42.86    2.82
   4  -3  -5   46.73    2.68
  -4  -3   5   42.89    2.59
  -4   3   5   46.91    2.71
  -4   3   5   45.12    2.81
  -4   3   5   45.19    2.69
   4   3  -5   40.71    2.63
   4   3  -5   44.26    2.56
  -4   3   5   44.55    2.78
   3  -3  -5   13.35    0.91
  -3  -3   5    9.70    0.82
   3  -3  -5   12.89    0.87
  -3   3   5   12.18    0.90
  -3   3   5   11.36    1.04
  -3   3   5   12.07    0.97
  -3   3   5   13.65    0.94
  -2  -3   5    8.32    0.53
   2  -3  -5    6.86    0.62
   2  -3  -5    7.49    0.60
  -2   3   5    7.40    0.64
  -2   3   5    7.31    0.72
  -2   3   5    7.87    0.75
  -2   3   5    8.88    0.81
   2   3  -5    7.98    0.70
   1  -3  -5    0.28    0.18
   1  -3  -5    0.11    0.17
  -1  -3   5    0.47    0.15
   1  -3  -5    0.33    0.23
   1   3  -5    0.55    0.23
  -1   3   5    0.43    0.27
  -1   3   5    0.42    0.26
  -1   3   5    0.40    0.20
  -1   3   5    0.49    0.31
   0  -3  -5    8.87    0.71
   0  -3  -5   10.08    0.75
   0  -3   5   10.88    0.64
   0  -3  -5    8.85    0.66
   0   3  -5    9.68    0.77
   0   3   5    9.52    0.75
   0   3   5    9.24    0.70
   0   3   5    9.69    0.77
   1  -3   5    1.03    0.34
   1  -3   5    1.51    0.24
  -1  -3  -5    1.30    0.29
  -1  -3  -5    1.12    0.25
  -1  -3  -5    1.34    0.32
  -1   3  -5    0.82    0.22
   1   3   5    1.47    0.29
   1   3   5    1.24    0.27
   1   3   5    1.23    0.23
  -2  -3  -5    9.05    0.73
  -2  -3  -5    9.20    0.81
   2  -3   5    9.40    0.87
   2  -3   5   10.52    0.68
  -2  -3  -5    9.49    0.78
   2   3   5   10.00    0.76
   2   3   5    9.75    0.70
  -2   3  -5    9.65    0.76
  -2   3  -5   10.72    0.67
   2   3   5   10.09    0.75
   3  -3   5    0.48    0.34
  -3  -3  -5    0.66    0.24
  -3  -3  -5    0.56    0.25
  -3  -3  -5    0.32    0.29
   3  -3   5    0.56    0.23
   3  -3   5    0.21    0.27
   3   3   5    0.58    0.20
  -3   3  -5    0.25    0.19
   3   3   5    0.56    0.22
   3   3   5    0.38    0.23
  -3   3  -5    0.12    0.20
  -3   3  -5    0.69    0.19
  -4  -3  -5    5.80    0.53
  -4  -3  -5    5.15    0.57
  -4  -3  -5    4.84    0.62
   4  -3   5    6.20    0.73
  -4   3  -5    5.23    0.50
  -4   3  -5    5.75    0.56
  -4   3  -5    5.89    0.53
   4   3   5    4.54    0.58
   4   3   5    5.26    0.54
   5  -3   5   11.16    0.73
   5  -3   5   12.03    0.80
  -5  -3  -5    9.80    0.96
   5  -3   5   11.76    1.08
  -5  -3  -5    9.51    0.82
  -5  -3  -5   12.67    0.92
   5  -3   5   10.78    1.02
  -5   3  -5   12.67    0.87
  -5   3  -5   12.47    0.84
   5   3   5   11.11    0.87
   5   3   5   10.03    0.89
   5   3   5   11.76    0.86
   6  -3   5   36.67    2.22
  -6  -3  -5   38.06    2.29
   6  -3   5   34.72    2.46
   6  -3   5   40.60    2.53
  -6  -3  -5   35.06    2.38
   6  -3   5   38.34    2.29
   6   3   5   38.42    2.34
  -6   3  -5   37.00    2.30
  -6   3  -5   40.44    2.34
   6   3   5   33.62    2.36
   6   3   5   39.38    2.31
   7  -3   5    3.03    0.61
   7  -3   5    2.46    0.73
  -7  -3  -5    1.93    0.41
   7  -3   5    2.86    0.42
   7  -3   5    2.67    0.48
  -7  -3  -5    2.38    0.47
  -7   3  -5    2.45    0.48
   7   3   5    3.80    0.59
   7   3   5    2.33    0.44
  -7   3  -5    1.81    0.44
   7   3   5    2.54    0.55
   8  -3   5    0.08    0.75
  -8  -3  -5    0.30    0.55
   8  -3   5    0.00    0.47
  -8  -3  -5   -0.24    0.44
   8  -3   5    0.59    0.41
  -8   3  -5    1.32    0.48
  -8   3  -5    0.78    0.43
   8   3   5   -0.19    0.49
   8   3   5    0.15    0.38
   9  -3   5    6.94    0.96
  -9  -3  -5    5.28    0.80
   9  -3   5    7.00    1.12
   9  -3   5    8.00    1.30
   9   3   5    7.07    1.25
  -9   3  -5    6.33    0.84
  -9   3  -5    5.40    0.85
   9   3   5    5.42    0.89
 -10  -3  -5   16.67    1.66
  10  -3   5   16.67    1.75
  10  -3   5   22.91    2.48
 -10   3  -5   13.84    1.74
  10   3   5   19.91    2.02
  10   3   5   18.52    1.54
  11  -3   5    1.54    0.85
  11  -3   5    0.76    0.96
  11  -3   5    5.42    1.97
  11   3   5    1.43    0.82
  11   3   5    2.62    1.18
 -11   3  -5   -0.27    1.08
  12  -4  -5    5.17    2.20
  12  -4  -5    3.52    1.12
  12  -4  -5    4.90    1.38
  12   4  -5    2.06    1.49
 -12   4   5    1.00    1.73
  12   4  -5    1.74    1.03
  11  -4  -5    1.63    0.85
  11  -4  -5    3.73    1.71
  11  -4  -5    1.51    1.02
 -11   4   5    0.48    1.39
 -11   4   5    1.38    1.40
  11   4  -5    0.83    0.74
  10  -4  -5   -0.49    0.82
  10  -4  -5    1.10    0.78
  10  -4  -5    0.05    1.21
  10   4  -5    1.06    0.88
  10   4  -5    1.63    0.63
 -10   4   5    2.50    1.11
 -10   4   5    1.91    1.18
   9  -4  -5   -0.38    1.03
  -9  -4   5    0.91    0.58
   9  -4  -5    0.04    0.64
   9   4  -5   -0.01    0.46
  -9   4   5   -0.49    0.95
   9   4  -5    0.28    0.70
  -9   4   5   -1.56    0.84
   8  -4  -5    3.39    1.00
  -8  -4   5    3.31    0.56
   8  -4  -5    3.17    0.63
  -8   4   5    1.82    0.85
  -8   4   5    3.16    0.76
   8   4  -5    2.73    0.74
   8   4  -5    2.95    0.49
  -8   4   5    2.56    0.86
   7  -4  -5   15.52    1.25
  -7  -4   5   14.32    1.16
   7  -4  -5   15.01    1.64
   7   4  -5   14.73    1.13
   7   4  -5   15.93    1.36
  -7   4   5   18.22    1.39
  -7   4   5   17.30    1.21
  -7   4   5   16.53    1.76
  -7   4   5   16.86    1.58
   6  -4  -5   -0.09    0.35
  -6  -4   5    0.44    0.31
   6  -4  -5    0.10    0.61
  -6   4   5   -0.41    0.56
  -6   4   5   -0.08    0.30
   6   4  -5   -0.12    0.21
   6   4  -5   -0.39    0.39
  -6   4   5    0.36    0.45
  -6   4   5    0.10    0.54
  -5  -4   5   30.55    1.87
   5  -4  -5   31.05    1.95
   5  -4  -5   33.34    2.05
   5   4  -5   30.63    1.84
   5   4  -5   26.59    1.92
  -5   4   5   32.71    2.05
  -5   4   5   32.54    2.01
  -5   4   5   28.34    2.12
  -5   4   5   31.11    2.16
   4  -4  -5   20.03    1.42
   4  -4  -5   20.01    1.32
   4  -4  -5   21.50    1.64
   4   4  -5   20.83    1.22
  -4   4   5   19.79    1.52
  -4   4   5   18.89    1.43
  -4   4   5   19.44    1.44
   3  -4  -5    4.55    0.48
  -3  -4   5    4.89    0.42
   3  -4  -5    4.11    0.55
  -3   4   5    5.21    0.77
  -3   4   5    5.02    0.70
  -3   4   5    4.25    0.73
  -3   4   5    4.01    0.68
   2  -4  -5    6.27    0.51
  -2  -4   5    5.89    0.48
   2  -4  -5    6.58    0.60
  -2   4   5    6.02    0.75
  -2   4   5    4.63    0.85
  -2   4   5    6.27    0.76
  -2   4   5    5.63    0.64
  -2   4   5    5.51    0.76
  -1  -4   5    3.67    0.39
   1  -4  -5    3.80    0.49
  -1   4   5    4.30    0.79
   1   4  -5    3.84    0.68
  -1   4   5    4.04    0.62
  -1   4   5    4.02    0.65
  -1   4   5    4.19    0.53
  -1   4   5    5.44    0.72
   0  -4  -5    3.79    0.48
   0  -4  -5    3.10    0.47
   0   4   5    4.10    0.57
   0   4  -5    2.80    0.46
   0   4   5    3.34    0.49
   0   4   5    2.89    0.50
   0   4   5    4.74    0.83
  -1  -4  -5   19.65    1.42
  -1  -4  -5   18.97    1.31
  -1  -4  -5   19.12    1.31
   1   4   5   19.33    1.30
   1   4   5   20.76    1.34
  -1   4  -5   21.44    1.40
   1   4   5   17.93    1.32
   2  -4   5    0.16    0.43
  -2  -4  -5    0.87    0.39
  -2  -4  -5    0.07    0.23
  -2  -4  -5   -0.07    0.29
   2  -4   5    0.28    0.23
   2   4   5    0.37    0.29
  -2   4  -5    0.57    0.22
   2   4   5    0.40    0.28
   2   4   5    0.62    0.27
  -2   4  -5    0.44    0.28
  -3  -4  -5   15.74    1.23
   3  -4   5   15.65    1.04
  -3  -4  -5   14.21    1.12
  -3  -4  -5   13.49    1.08
   3  -4   5   14.80    1.35
  -3   4  -5   15.98    1.05
   3   4   5   14.84    1.10
  -3   4  -5   15.72    1.00
   3   4   5   16.60    1.09
  -3   4  -5   16.46    1.16
   3   4   5   16.96    1.09
   4  -4   5    6.92    0.62
   4  -4   5    7.63    0.98
  -4  -4  -5    6.19    0.84
  -4  -4  -5    6.84    0.74
  -4  -4  -5    5.74    0.61
   4  -4   5    6.93    0.83
   4   4   5    6.92    0.66
   4   4   5    5.78    0.68
  -4   4  -5    6.48    0.65
   4   4   5    5.85    0.63
  -4   4  -5    7.54    0.60
   5  -4   5    0.13    0.53
   5  -4   5    0.22    0.48
  -5  -4  -5    0.17    0.30
   5  -4   5    0.36    0.31
  -5  -4  -5    0.52    0.38
   5   4   5   -0.15    0.30
  -5   4  -5    0.45    0.30
   5   4   5    0.59    0.34
   5   4   5    0.34    0.31
  -5   4  -5   -0.37    0.31
   6  -4   5    3.12    0.73
   6  -4   5    3.54    0.81
  -6  -4  -5    3.45    0.63
  -6  -4  -5    3.67    0.54
  -6  -4  -5    4.06    0.69
   6   4   5    4.54    0.63
  -6   4  -5    3.14    0.53
  -6   4  -5    5.05    0.67
   6   4   5    4.13    0.71
   6   4   5    3.87    0.60
  -7  -4  -5   -0.03    0.35
  -7  -4  -5   -0.95    0.63
   7  -4   5    0.47    0.60
  -7  -4  -5   -0.80    0.50
   7  -4   5    0.97    0.77
   7   4   5    0.55    0.45
  -7   4  -5   -0.84    0.41
   7   4   5    0.76    0.39
  -7   4  -5   -0.03    0.43
   7   4   5    0.04    0.48
  -8  -4  -5    8.28    0.91
   8  -4   5   11.76    1.49
   8  -4   5   10.30    1.72
  -8  -4  -5   10.67    1.21
  -8   4  -5   11.91    1.19
   8   4   5    7.64    1.28
   8   4   5    9.63    1.02
  -8   4  -5   12.59    1.11
   9  -4   5    6.79    1.37
   9  -4   5    3.60    0.51
   9  -4   5    5.03    1.06
   9   4   5    3.40    0.90
   9   4   5    2.32    0.66
  -9   4  -5    4.98    0.88
  10  -4   5    4.48    1.24
 -10  -4  -5    5.52    1.30
  10  -4   5    7.66    1.71
  10   4   5    3.74    0.88
  10   4   5    4.19    1.26
  11  -4   5    8.53    1.58
  11   4   5    6.04    1.18
  10  -5  -5    0.64    0.88
  10  -5  -5   -0.97    1.72
  10   5  -5    0.39    0.74
  10   5  -5   -0.37    1.04
 -10   5   5    1.58    1.41
   9  -5  -5    0.40    0.72
   9  -5  -5   -0.35    1.38
   9   5  -5    1.20    0.92
   9   5  -5    0.36    0.55
  -9   5   5   -1.38    1.21
  -9   5   5    0.16    1.11
   8  -5  -5    0.77    0.58
   8  -5  -5    0.20    0.54
   8  -5  -5    2.25    1.24
   8   5  -5    0.48    0.75
  -8   5   5   -0.31    0.95
  -8   5   5    0.04    0.60
  -8   5   5   -0.06    1.01
   8   5  -5    1.27    0.48
   7  -5  -5    0.89    1.00
   7  -5  -5    0.23    0.44
   7  -5  -5    0.56    0.43
  -7   5   5    1.03    0.55
   7   5  -5    0.08    0.74
  -7   5   5    1.27    1.08
  -7   5   5   -0.07    0.70
  -7   5   5   -0.43    0.85
   7   5  -5    0.57    0.36
   6  -5  -5    2.36    0.46
   6  -5  -5    2.94    0.98
   6  -5  -5    2.14    0.59
  -6   5   5    3.32    0.63
   6   5  -5    1.88    0.58
   6   5  -5    2.93    0.42
  -6   5   5    0.81    0.80
  -6   5   5    2.03    0.71
  -6   5   5    2.74    0.89
   5  -5  -5    1.99    0.46
   5  -5  -5    1.84    0.38
  -5  -5   5    1.51    0.36
   5   5  -5    2.42    0.34
  -5   5   5    1.22    0.58
  -5   5   5    1.92    0.75
  -5   5   5    2.43    0.78
  -5   5   5    1.26    0.71
   5   5  -5    2.87    0.67
  -5   5   5    2.39    0.72
   4  -5  -5   49.76    2.80
   4  -5  -5   50.32    2.99
  -4  -5   5   43.81    2.81
   4   5  -5   46.42    3.10
  -4   5   5   49.44    3.11
  -4   5   5   50.44    3.02
   4   5  -5   48.65    2.77
  -4   5   5   45.19    3.09
  -4   5   5   41.68    3.09
   3  -5  -5   46.66    3.01
  -3  -5   5   51.36    2.87
  -3   5   5   47.81    3.10
  -3   5   5   51.54    3.11
  -3   5   5   44.43    3.16
  -3   5   5   48.63    3.02
   3   5  -5   47.35    3.14
  -2  -5   5    1.62    0.29
   2  -5  -5    1.08    0.42
  -2   5   5    1.61    0.66
  -2   5   5    2.38    0.46
  -2   5   5    2.01    0.53
  -2   5   5    0.48    0.89
  -2   5   5    1.89    0.53
   2   5  -5    2.03    0.55
  -1  -5   5    9.53    0.72
   1  -5  -5    9.89    0.86
  -1   5   5   11.04    0.99
  -1   5   5    9.76    0.90
   1   5  -5    7.38    1.01
  -1   5   5    9.54    0.94
  -1   5   5    7.53    1.17
   0  -5   5    2.04    0.34
   0  -5  -5    1.53    0.40
   0   5   5    2.55    0.52
   0   5   5    1.92    0.46
   0   5   5    1.10    0.39
   0   5  -5    1.84    0.59
   0   5   5    2.21    0.67
   1  -5   5    6.50    0.60
  -1  -5  -5    7.80    0.72
   1   5   5    4.46    0.91
  -1   5  -5    6.56    0.87
   1   5   5    6.58    0.74
   1   5   5    7.08    0.82
   1   5   5    7.93    0.75
   2  -5   5    1.58    0.35
  -2  -5  -5    0.97    0.37
  -2   5  -5    1.85    0.35
   2   5   5    1.30    0.72
   2   5   5    1.43    0.42
   2   5   5    1.32    0.37
  -2   5  -5    1.97    0.49
   2   5   5    0.85    0.40
  -3  -5  -5    0.91    0.35
   3  -5   5    0.72    0.34
   3   5   5    1.35    0.37
   3   5   5    0.69    0.36
   3   5   5    0.10    0.35
  -4  -5  -5    0.28    0.59
  -4  -5  -5    0.48    0.33
   4  -5   5    1.69    0.36
  -4   5  -5    1.29    0.50
   4   5   5    0.94    0.41
   4   5   5    0.71    0.39
   4   5   5    1.11    0.42
   5  -5   5    0.34    0.37
  -5  -5  -5   -0.22    0.45
   5  -5   5    0.96    0.71
  -5  -5  -5    0.52    0.66
  -5  -5  -5    0.53    0.32
  -5   5  -5   -0.80    0.42
   5   5   5    0.25    0.40
   5   5   5    0.01    0.40
   5   5   5    1.36    0.43
  -5   5  -5    1.46    0.49
  -5   5  -5    1.23    0.38
   6  -5   5   -0.15    0.76
  -6  -5  -5   -0.91    0.52
  -6  -5  -5    0.14    0.38
  -6  -5  -5    0.29    0.75
   6  -5   5    1.15    0.44
   6   5   5   -0.24    0.44
  -6   5  -5   -0.06    0.43
  -6   5  -5   -0.05    0.47
   6   5   5   -1.06    0.49
   6   5   5    0.46    0.49
  -7  -5  -5    6.86    0.75
  -7  -5  -5    5.43    0.87
   7  -5   5    4.22    1.16
   7  -5   5    7.58    1.25
   7  -5   5    6.70    0.83
   7   5   5    7.68    1.16
  -7   5  -5    5.55    0.83
   7   5   5    6.84    0.96
  -7   5  -5    7.88    1.03
   8  -5   5    3.81    1.53
   8  -5   5    2.38    0.61
  -8  -5  -5    0.73    0.50
   8  -5   5    3.99    1.21
   8   5   5    2.30    0.67
   8   5   5    1.72    0.80
   9  -5   5   -0.67    1.18
   9   5   5    0.72    0.67
   9   5   5    0.01    1.02
   9  -6  -5   -1.30    0.68
   9   6  -5   -0.38    0.74
   8  -6  -5    1.07    0.75
   8   6  -5    0.22    0.62
  -8   6   5   -0.51    1.17
   7  -6  -5    0.69    0.45
  -7   6   5    0.63    1.08
   7   6  -5   -0.11    0.48
  -7   6   5    1.34    1.19
  -6  -6   5    8.59    0.87
   6  -6  -5    8.12    1.00
  -6   6   5    9.47    1.45
  -6   6   5   10.84    1.77
   6   6  -5    9.85    0.90
   5  -6  -5    0.56    0.40
  -5  -6   5   -0.38    0.35
  -5   6   5   -1.47    0.91
   5   6  -5   -0.11    0.90
  -5   6   5    0.26    0.90
   5   6  -5    0.78    0.41
   5   6  -5   -0.42    0.34
  -5   6   5    0.00    0.85
  -5   6   5    0.75    0.86
   4  -6  -5    0.57    0.43
  -4  -6   5    0.44    0.33
  -4   6   5   -0.24    0.72
   4   6  -5    0.76    0.32
  -4   6   5    0.93    0.89
  -4   6   5    0.47    0.67
   4   6  -5    1.28    0.84
   4   6  -5    0.14    0.33
  -4   6   5    0.90    1.43
  -4   6   5   -0.34    0.82
   3  -6  -5    0.65    0.42
  -3  -6   5   -0.17    0.31
  -3   6   5    1.39    0.70
   3   6  -5   -0.10    0.28
  -3   6   5    0.94    0.73
  -3   6   5   -0.57    0.74
  -3   6   5    1.71    0.64
  -2  -6   5    5.44    0.60
   2  -6  -5    6.05    0.78
  -2   6   5    3.93    0.98
  -2   6   5    6.70    0.98
  -2   6   5    6.20    0.91
  -2   6   5    6.69    0.96
   2   6  -5    3.40    0.88
   1  -6  -5    0.36    0.41
  -1  -6   5    0.68    0.30
  -1   6   5    1.48    0.62
  -1   6   5    0.52    0.52
  -1   6   5    0.86    0.88
  -1   6   5    1.57    0.59
  -1   6   5    0.77    0.84
   1   6  -5    0.59    0.62
   0  -6   5    0.32    0.30
   0  -6  -5    0.20    0.38
   0   6   5    0.92    0.51
   0   6   5    1.51    0.85
   0   6   5    0.97    0.58
   0   6   5    0.17    0.46
   0   6   5    0.53    0.84
   0   6  -5    0.92    0.73
  -1  -6  -5    0.09    0.34
   1   6   5   -0.54    0.43
   1   6   5    1.51    0.54
   1   6   5    0.05    0.81
   1   6   5    1.11    0.93
   1   6   5    0.58    0.51
  -1   6  -5   -0.59    0.58
  -2  -6  -5    5.22    0.72
   2  -6   5    5.09    0.65
   2   6   5    6.82    0.88
   2   6   5    6.89    0.96
   2   6   5    5.79    0.82
  -2   6  -5    6.30    0.84
  -2   6  -5    5.41    0.81
   2   6   5    7.21    1.25
  -3  -6  -5    0.79    0.45
   3  -6   5    0.13    0.36
   3   6   5    0.43    0.57
  -3   6  -5   -0.34    0.67
  -3   6  -5    0.82    0.52
   3   6   5    1.16    0.46
   3   6   5    1.29    1.04
   3   6   5   -0.03    0.45
  -4  -6  -5    3.84    0.66
   4  -6   5    4.85    0.62
  -4  -6  -5    3.72    0.99
   4   6   5    4.04    0.65
  -4   6  -5    6.67    0.96
   4   6   5    4.37    0.66
   4   6   5    4.58    0.81
  -4   6  -5    5.23    0.73
   5  -6   5    0.65    0.44
  -5  -6  -5    0.17    0.41
  -5   6  -5    1.74    0.94
   5   6   5    0.03    0.63
   5   6   5    0.56    0.57
   6  -6   5   -0.98    0.43
  -6  -6  -5   -0.06    0.77
   6   6   5   -0.48    0.61
   6   6   5   -1.01    0.65
  -7  -6  -5    1.25    0.54
   7  -6   5    1.58    0.58
   7   6   5    2.19    0.94
  -7   6  -5    2.16    1.22
   7   6   5    1.70    0.69
   6  -7  -5    0.93    0.67
  -6   7   5   -1.56    1.41
  -6   7   5    0.21    1.27
  -5  -7   5    6.45    0.79
   5  -7  -5    4.90    1.57
  -5   7   5    6.51    1.47
   5   7  -5    7.13    1.02
  -5   7   5    5.48    1.31
   4  -7  -5    5.80    0.88
  -4  -7   5    3.05    0.61
  -4   7   5    6.43    1.42
   4   7  -5    4.81    0.64
  -4   7   5    4.50    1.05
  -3  -7   5    1.92    0.46
   3  -7  -5    2.26    0.65
  -3   7   5    0.23    0.80
  -3   7   5    0.68    1.05
   3   7  -5    1.23    0.50
  -2  -7   5    2.28    0.50
   2  -7  -5    1.99    0.61
  -2   7   5    4.73    1.21
  -2   7   5    2.23    0.93
  -2   7   5    2.76    0.81
   1  -7  -5   -0.32    0.47
  -1  -7   5    0.42    0.35
  -1   7   5    1.31    0.84
  -1   7   5    0.63    0.64
   0  -7  -5    4.13    0.70
   0  -7   5    4.50    0.69
   0   7   5    5.72    0.82
   0   7   5    5.96    1.09
   1  -7   5    0.62    0.43
  -1  -7  -5    1.17    0.50
   1   7   5    1.02    0.62
   1   7   5   -0.13    0.92
   1   7   5    1.36    0.74
  -2  -7  -5   -0.01    0.50
   2  -7   5    0.72    0.44
   2   7   5   -1.08    0.67
   2   7   5    0.90    0.58
  -2   7  -5    2.52    0.84
   3  -7   5    0.61    0.51
  -3  -7  -5    0.49    0.57
   3   7   5   -0.37    0.61
   3   7   5    0.45    0.71
  -3   7  -5    1.41    0.98
  -4  -7  -5    1.92    0.61
   4  -7   5    0.63    0.52
   4   7   5    0.18    0.78
  -4   7  -5    1.44    1.19
   4   7   5    1.25    0.76
   5  -7   5   20.88    1.57
  -5  -7  -5   18.33    1.64
   5   7   5   23.95    1.93
  14   0  -6    2.45    1.85
  14   0  -6    0.39    0.79
 -14   0   6   -2.39    1.42
  13   0  -6   -0.27    0.87
 -13   0   6   -1.08    1.21
  13   0  -6    0.03    0.61
  13   0  -6    0.67    1.44
  12   0  -6    5.98    0.80
  12   0  -6    7.19    1.48
  12   0  -6    4.24    0.82
 -12   0   6    4.33    1.07
 -11   0   6   11.93    1.39
  11   0  -6   11.90    1.26
 -11   0   6   11.22    1.58
  11   0  -6   11.85    0.96
 -11   0   6   11.26    1.11
  11   0  -6   10.44    1.80
  10   0  -6   16.78    1.19
 -10   0   6   19.95    1.51
  10   0  -6   15.10    1.51
 -10   0   6   17.10    1.59
  -9   0   6    7.46    1.07
   9   0  -6    9.38    0.70
   9   0  -6    7.93    0.92
  -9   0   6    8.89    0.99
  -9   0   6    9.91    0.81
   9   0  -6   11.04    1.26
   8   0  -6    4.84    0.65
   8   0  -6    5.70    0.94
   8   0  -6    4.57    0.43
  -8   0   6    4.78    0.54
  -8   0   6    4.27    0.62
  -8   0   6    3.18    0.60
   7   0  -6    1.10    0.34
   7   0  -6    1.22    0.22
  -7   0   6    1.33    0.45
  -7   0   6    1.16    0.27
   7   0  -6    1.48    0.51
   6   0  -6    2.64    0.43
   6   0  -6    2.85    0.54
   6   0  -6    2.07    0.24
  -6   0   6    1.83    0.43
  -6   0   6    2.26    0.34
  -6   0   6    2.50    0.44
   5   0  -6    2.88    0.24
   5   0  -6    2.70    0.38
  -5   0   6    3.24    0.47
  -5   0   6    2.54    0.32
   5   0  -6    3.57    0.57
  -5   0   6    2.98    0.47
   4   0  -6  228.13   12.35
  -4   0   6  211.65   12.24
   4   0  -6  193.90   12.26
  -4   0   6  245.36   12.34
  -4   0   6  205.39   12.29
   4   0  -6  212.01   12.17
   3   0  -6   68.88    4.69
   3   0  -6   86.49    4.69
  -3   0   6   75.94    4.67
   3   0  -6   80.87    4.66
  -3   0   6   93.02    4.73
  -3   0   6   80.29    4.64
  -2   0   6  536.79   29.64
   2   0  -6  493.05   29.64
   2   0  -6  522.97   29.66
  -2   0   6  539.70   29.63
  -2   0   6  536.45   29.68
  -1   0   6   79.95    4.49
  -1   0   6   87.41    4.55
  -1   0   6   73.41    4.51
   1   0  -6   81.05    4.50
  -1   0   6   73.24    4.48
   1   0  -6   74.76    4.49
   0   0  -6    2.42    0.25
   0   0  -6    3.07    0.30
   0   0   6    2.75    0.24
   0   0  -6    2.86    0.23
   0   0  -6    2.90    0.26
   0   0   6    2.81    0.25
   0   0   6    2.66    0.30
   1   0   6    1.56    0.19
   1   0   6    1.71    0.20
  -1   0  -6    1.78    0.21
  -1   0  -6    1.89    0.26
  -1   0  -6    1.73    0.21
  -1   0  -6    1.78    0.18
   1   0   6    1.47    0.23
  -2   0  -6   66.92    4.12
  -2   0  -6   75.99    4.09
   2   0   6   74.58    4.15
  -2   0  -6   75.89    4.16
   2   0   6   66.67    4.11
  -3   0  -6   15.39    0.97
  -3   0  -6   14.28    0.99
   3   0   6   15.29    0.97
   3   0   6   15.24    0.96
   3   0   6   16.88    1.01
   4   0   6  167.89    8.95
   4   0   6  147.18    8.92
  -4   0  -6  157.60    8.96
   4   0   6  157.64    8.98
  -4   0  -6  153.94    8.92
  -5   0  -6    7.84    0.62
  -5   0  -6    7.70    0.67
   5   0   6    8.49    0.63
   5   0   6    8.93    0.73
   6   0   6    8.79    0.88
  -6   0  -6    9.48    0.73
   6   0   6    8.35    0.73
  -6   0  -6   11.01    0.79
  -7   0  -6    4.14    0.63
   7   0   6    4.42    0.58
   7   0   6    4.12    0.65
  -7   0  -6    5.18    0.60
  -8   0  -6    1.37    0.44
   8   0   6    1.58    0.40
   8   0   6    2.09    0.62
  -9   0  -6    1.66    0.53
   9   0   6    0.95    0.46
  -9   0  -6    0.62    0.56
   9   0   6    1.67    0.68
  10   0   6    8.78    1.39
 -10   0  -6    6.38    1.10
  10   0   6    6.46    1.02
 -10   0  -6    6.22    0.97
  10   0   6    8.06    0.90
  11   0   6   -0.87    0.61
  11   0   6   -0.65    0.90
  11   0   6   -0.57    0.47
  12   0   6    1.56    1.42
  12   0   6    2.35    0.96
  12   0   6    3.77    0.79
  13  -1  -6    0.79    0.70
  13  -1  -6   -0.03    0.90
 -13  -1   6   -0.75    1.16
  13  -1  -6    1.76    1.53
  13   1  -6    1.66    0.85
  13   1  -6    1.35    1.58
 -13   1   6   -1.04    1.15
 -12  -1   6    8.64    1.17
  12  -1  -6    5.03    1.40
 -12  -1   6    7.68    1.24
  12  -1  -6    8.20    1.11
  12  -1  -6    8.85    1.31
  12   1  -6    8.94    1.52
  12   1  -6    7.49    1.23
 -12   1   6    7.99    1.42
  12   1  -6    8.27    0.86
 -11  -1   6    7.98    1.20
 -11  -1   6    6.58    1.06
  11  -1  -6   10.89    1.76
  11  -1  -6    7.39    0.90
  11  -1  -6    7.78    1.11
 -11  -1   6    6.49    0.96
  11   1  -6   11.56    1.87
 -11   1   6    7.84    1.39
  11   1  -6    5.96    1.04
 -11   1   6    6.43    1.22
  11   1  -6    7.49    0.74
 -11   1   6    9.28    1.06
  10  -1  -6    1.95    0.91
  10  -1  -6    0.64    0.54
 -10  -1   6    0.38    0.66
 -10  -1   6    0.16    0.39
  10  -1  -6    0.91    0.38
 -10   1   6    0.62    0.63
 -10   1   6    1.11    0.45
  10   1  -6    1.54    0.85
 -10   1   6    0.23    0.61
   9  -1  -6   14.64    1.09
   9  -1  -6   18.18    1.61
  -9  -1   6   15.77    1.08
  -9  -1   6   13.58    1.30
   9  -1  -6   13.60    1.23
  -9   1   6   14.38    1.37
   9   1  -6   15.71    1.21
  -9   1   6   14.54    1.40
   9   1  -6   15.41    1.49
   8  -1  -6   14.60    1.56
   8  -1  -6   20.12    1.25
   8  -1  -6   19.97    1.38
  -8  -1   6   19.85    1.37
  -8  -1   6   16.52    1.40
  -8  -1   6   19.44    1.23
  -8   1   6   19.88    1.30
   8   1  -6   18.86    1.32
  -8   1   6   18.26    1.49
  -8   1   6   16.10    1.44
   8   1  -6   17.77    1.51
   7  -1  -6    6.12    0.56
   7  -1  -6    6.46    0.69
  -7  -1   6    7.18    0.54
   7  -1  -6    6.71    0.97
  -7  -1   6    7.42    0.77
  -7  -1   6    5.89    0.67
  -7   1   6    6.18    0.62
   7   1  -6    6.70    0.63
  -7   1   6    5.14    0.86
  -7   1   6    5.62    0.81
   7   1  -6    6.39    0.84
   6  -1  -6   10.95    0.87
   6  -1  -6   11.48    0.78
  -6  -1   6   11.64    0.75
   6  -1  -6    8.68    1.04
  -6  -1   6    9.27    0.83
  -6  -1   6   11.08    0.91
   6   1  -6   10.61    0.97
  -6   1   6   13.05    0.99
  -6   1   6   11.47    0.84
  -6   1   6   11.56    0.98
   6   1  -6   11.52    0.82
   5  -1  -6    0.33    0.37
  -5  -1   6    0.13    0.12
  -5  -1   6    0.10    0.21
   5  -1  -6   -0.18    0.17
  -5  -1   6   -0.02    0.21
   5  -1  -6   -0.17    0.14
   5   1  -6    0.17    0.16
  -5   1   6   -0.32    0.28
   5   1  -6    0.31    0.28
  -5   1   6    0.30    0.19
  -5   1   6    0.16    0.28
   4  -1  -6    1.94    0.43
  -4  -1   6    2.22    0.35
  -4  -1   6    2.45    0.24
   4  -1  -6    3.01    0.38
  -4  -1   6    2.93    0.36
   4  -1  -6    2.74    0.30
  -4   1   6    2.66    0.36
   4   1  -6    2.65    0.30
  -4   1   6    2.61    0.22
  -4   1   6    3.03    0.48
  -4   1   6    2.71    0.44
   4   1  -6    2.76    0.43
   3  -1  -6   31.85    1.88
   3  -1  -6   29.57    1.83
  -3  -1   6   28.68    1.81
  -3  -1   6   30.19    1.74
  -3  -1   6   29.30    1.78
  -3   1   6   28.14    1.76
  -3   1   6   31.63    1.92
   3   1  -6   32.31    1.82
  -3   1   6   32.57    1.89
  -3   1   6   30.37    1.83
   3   1  -6   28.64    1.78
   2  -1  -6   10.38    0.71
  -2  -1   6    8.37    0.65
   2  -1  -6    8.85    0.66
   2   1  -6    9.91    0.63
   2   1  -6    9.43    0.60
  -2   1   6    9.81    0.71
  -2   1   6    9.34    0.74
   2   1  -6    9.62    0.62
   2   1  -6   11.33    0.69
  -1  -1   6    0.08    0.11
   1  -1  -6    0.23    0.13
   1  -1  -6    0.00    0.12
   1  -1  -6   -0.07    0.13
  -1  -1   6    0.05    0.10
  -1  -1   6    0.32    0.15
  -1   1   6    0.03    0.16
  -1   1   6    0.11    0.20
  -1   1   6   -0.08    0.14
   1   1  -6    0.12    0.07
   1   1  -6    0.13    0.08
  -1   1   6    0.09    0.11
   0  -1  -6   -0.04    0.11
   0  -1   6   -0.09    0.08
   0  -1  -6    0.23    0.14
   0  -1   6    0.07    0.10
   0  -1  -6    0.07    0.14
   0  -1  -6   -0.07    0.17
   0   1  -6    0.13    0.08
   0   1   6    0.09    0.12
   0   1  -6    0.09    0.07
   0   1   6    0.11    0.16
   0   1  -6    0.09    0.09
   0   1   6   -0.07    0.13
   0   1  -6   -0.07    0.11
   1  -1   6   62.15    3.59
  -1  -1  -6   62.42    3.66
  -1  -1  -6   66.40    3.70
   1  -1   6   63.03    3.65
  -1  -1  -6   58.40    3.63
  -1  -1  -6   65.05    3.65
   1  -1   6   61.45    3.62
  -1   1  -6   64.25    3.62
   1   1   6   62.43    3.67
  -1   1  -6   67.60    3.60
  -1   1  -6   63.43    3.63
   1   1   6   62.92    3.65
   1   1   6   61.97    3.64
  -2  -1  -6    3.92    0.41
   2  -1   6    4.14    0.32
   2  -1   6    4.13    0.36
   2  -1   6    3.23    0.35
   2  -1   6    4.12    0.31
  -2  -1  -6    4.21    0.38
   2   1   6    4.16    0.36
   2   1   6    4.70    0.40
   2   1   6    4.29    0.35
  -2   1  -6    3.71    0.34
  -2   1  -6    4.15    0.31
   3  -1   6    3.04    0.29
   3  -1   6    3.08    0.33
   3  -1   6    2.19    0.26
   3  -1   6    2.92    0.36
  -3  -1  -6    3.27    0.30
  -3  -1  -6    2.89    0.33
  -3  -1  -6    2.84    0.37
   3   1   6    2.89    0.36
   3   1   6    2.37    0.30
  -3   1  -6    2.88    0.31
   3   1   6    2.81    0.32
  -3   1  -6    2.64    0.27
   4  -1   6    0.44    0.17
   4  -1   6    0.46    0.16
   4  -1   6    0.49    0.24
  -4  -1  -6    0.32    0.16
   4  -1   6    0.27    0.16
  -4  -1  -6    0.47    0.17
  -4  -1  -6    0.30    0.20
  -4   1  -6    0.24    0.20
  -4   1  -6    0.25    0.14
   4   1   6    0.43    0.17
   4   1   6    0.40    0.16
   4   1   6    0.31    0.21
  -5  -1  -6   79.31    4.59
  -5  -1  -6   77.14    4.62
   5  -1   6   78.23    4.64
  -5  -1  -6   84.82    4.68
   5  -1   6   78.84    4.62
   5   1   6   77.80    4.61
  -5   1  -6   84.97    4.79
  -5   1  -6   76.84    4.60
  -6  -1  -6    6.80    0.62
  -6  -1  -6    6.42    0.68
   6  -1   6    7.35    0.64
   6  -1   6    7.22    0.81
   6  -1   6    6.76    0.63
   6   1   6    6.35    0.60
  -6   1  -6    7.17    0.67
   6   1   6    6.58    0.74
  -6   1  -6    7.36    0.61
   7  -1   6    0.67    0.30
  -7  -1  -6    0.83    0.30
   7  -1   6    0.87    0.45
  -7  -1  -6    0.48    0.35
   7  -1   6    0.76    0.30
   7   1   6    0.56    0.42
  -7   1  -6    0.39    0.27
  -7   1  -6    1.27    0.37
   7   1   6    0.79    0.32
  -8  -1  -6   -0.18    0.39
   8  -1   6    0.17    0.29
   8  -1   6    0.41    0.54
   8  -1   6    0.45    0.35
   8   1   6    0.66    0.31
  -8   1  -6    0.54    0.43
   8   1   6    0.52    0.48
  -8   1  -6    0.26    0.31
  -9  -1  -6   -0.37    0.51
  -9  -1  -6    1.18    0.48
   9  -1   6    0.29    0.63
   9  -1   6    0.20    0.33
   9   1   6   -0.07    0.74
  -9   1  -6    0.56    0.45
   9   1   6   -0.71    0.36
  -9   1  -6    0.47    0.55
  10  -1   6    1.02    0.54
  10  -1   6    0.15    1.24
 -10  -1  -6   -0.40    0.58
  10  -1   6    0.24    0.43
 -10  -1  -6    0.43    0.71
  10   1   6    0.76    0.80
 -10   1  -6   -0.41    0.63
  10   1   6    1.45    0.54
  11  -1   6    6.10    1.06
  11  -1   6    7.31    0.99
  11  -1   6    6.23    1.34
 -11   1  -6    5.59    1.19
  11   1   6    8.19    1.35
  11   1   6    7.18    1.20
  12  -1   6    1.42    1.58
  12  -1   6    2.42    0.90
  12   1   6    2.09    1.37
  12   1   6    1.91    0.99
  13  -2  -6   16.30    1.86
 -13  -2   6   14.39    2.24
  13  -2  -6   18.05    1.93
  13  -2  -6   22.09    3.09
 -13   2   6   17.00    2.26
  13   2  -6   21.54    2.84
  13   2  -6   14.38    1.97
  12  -2  -6    1.89    0.90
  12  -2  -6    1.17    1.33
 -12  -2   6    1.06    0.94
 -12  -2   6    1.44    0.66
  12   2  -6    2.37    0.83
 -12   2   6   -0.16    1.18
  12   2  -6    3.39    1.39
  11  -2  -6    0.39    1.15
 -11  -2   6    1.21    0.75
  11  -2  -6   -0.52    0.56
  11  -2  -6    0.97    0.58
  11   2  -6    0.31    0.91
  11   2  -6    0.38    0.53
 -11   2   6    1.48    0.92
 -11   2   6   -1.04    0.95
 -10  -2   6    0.96    0.52
  10  -2  -6    0.82    0.52
 -10  -2   6    1.69    0.67
 -10  -2   6    0.85    0.37
  10  -2  -6    0.76    0.51
  10  -2  -6    0.69    0.89
  10   2  -6    0.90    0.50
  10   2  -6    0.55    0.73
 -10   2   6    0.67    0.47
 -10   2   6    0.79    0.72
 -10   2   6   -0.35    0.81
   9  -2  -6    0.91    0.50
  -9  -2   6    1.30    0.49
   9  -2  -6    0.32    0.70
  -9  -2   6    0.67    0.30
   9  -2  -6    0.67    0.44
  -9   2   6   -0.11    0.61
   9   2  -6    1.02    0.43
   9   2  -6    0.50    0.58
  -9   2   6    0.89    0.68
  -8  -2   6   21.04    1.28
  -8  -2   6   20.91    1.49
   8  -2  -6   19.55    1.43
  -8  -2   6   20.41    1.42
   8  -2  -6   20.01    1.48
   8  -2  -6   19.90    1.78
   8   2  -6   19.71    1.40
  -8   2   6   19.28    1.66
  -8   2   6   19.32    1.62
   8   2  -6   21.37    1.61
  -7  -2   6    0.27    0.17
   7  -2  -6    0.61    0.31
  -7  -2   6    0.57    0.33
   7  -2  -6    0.07    0.53
   7  -2  -6    0.04    0.31
  -7  -2   6    0.00    0.27
   7   2  -6    0.45    0.25
  -7   2   6   -0.19    0.51
  -7   2   6    0.42    0.32
   7   2  -6    0.39    0.41
  -7   2   6    0.31    0.46
   6  -2  -6    0.52    0.51
  -6  -2   6    1.22    0.33
   6  -2  -6    1.15    0.34
  -6  -2   6    1.10    0.19
  -6  -2   6    1.29    0.27
   6  -2  -6    1.14    0.32
  -6   2   6    0.28    0.40
   6   2  -6    1.23    0.26
  -6   2   6    1.50    0.49
   6   2  -6    1.23    0.39
  -6   2   6    1.22    0.22
  -6   2   6    0.89    0.34
   5  -2  -6    0.09    0.24
   5  -2  -6    0.17    0.40
  -5  -2   6   -0.05    0.18
  -5  -2   6    0.21    0.11
  -5  -2   6    0.23    0.19
  -5   2   6    0.37    0.25
  -5   2   6    0.43    0.36
  -5   2   6    0.50    0.36
   5   2  -6    0.18    0.17
  -5   2   6    0.12    0.16
   5   2  -6   -0.10    0.27
  -4  -2   6   19.31    1.21
   4  -2  -6   20.52    1.30
  -4   2   6   19.16    1.30
  -4   2   6   20.08    1.24
   4   2  -6   19.93    1.20
  -4   2   6   19.25    1.41
  -4   2   6   20.37    1.38
   4   2  -6   18.84    1.29
   3  -2  -6   30.91    1.90
   3  -2  -6   28.12    1.77
   3  -2  -6   29.29    1.82
  -3   2   6   24.19    1.74
  -3   2   6   29.00    1.88
   3   2  -6   29.13    1.72
   3   2  -6   30.85    1.75
   3   2  -6   28.06    1.67
  -3   2   6   29.60    1.84
  -3   2   6   29.20    1.79
   3   2  -6   29.03    1.76
   2  -2  -6    0.26    0.30
   2  -2  -6    0.27    0.20
   2  -2  -6   -0.04    0.20
   2  -2  -6    0.15    0.20
  -2   2   6    0.09    0.29
  -2   2   6    0.34    0.24
  -2   2   6    0.19    0.27
   2   2  -6    0.06    0.15
  -2   2   6    0.36    0.17
   1  -2  -6    6.11    0.55
   1  -2  -6    7.03    0.52
  -1  -2   6    6.51    0.40
   1  -2  -6    6.38    0.50
   1   2  -6    6.23    0.49
  -1   2   6    5.59    0.55
  -1   2   6    6.08    0.51
  -1   2   6    6.68    0.59
   0  -2  -6    1.09    0.23
   0  -2  -6    0.92    0.25
   0  -2  -6    1.06    0.25
   0  -2   6    0.74    0.22
   0  -2  -6    0.62    0.17
   0   2   6    0.86    0.25
   0   2   6    0.71    0.18
   0   2  -6    0.74    0.16
   0   2   6    0.95    0.21
  -1  -2  -6    2.93    0.42
  -1  -2  -6    2.74    0.36
   1  -2   6    3.24    0.40
  -1  -2  -6    3.11    0.32
  -1  -2  -6    2.86    0.37
   1   2   6    2.76    0.36
   1   2   6    3.36    0.40
  -1   2  -6    3.13    0.32
   1   2   6    3.26    0.33
  -1   2  -6    3.07    0.23
   2  -2   6  203.64   11.89
  -2  -2  -6  217.61   11.87
  -2  -2  -6  207.60   11.90
   2  -2   6  219.20   11.83
  -2  -2  -6  209.67   11.83
  -2   2  -6  213.05   11.85
   2   2   6  200.40   11.83
  -2   2  -6  208.89   11.78
  -2   2  -6  212.09   11.79
   2   2   6  192.73   11.84
   2   2   6  209.31   11.87
   3  -2   6   28.58    1.78
  -3  -2  -6   28.35    1.74
   3  -2   6   28.79    1.66
  -3  -2  -6   29.10    1.79
   3  -2   6   27.46    1.64
   3  -2   6   25.02    1.73
  -3  -2  -6   30.70    1.71
  -3   2  -6   28.23    1.67
   3   2   6   28.75    1.71
   3   2   6   25.55    1.71
   3   2   6   28.16    1.75
  -3   2  -6   28.76    1.69
   4  -2   6    8.29    0.72
  -4  -2  -6    9.17    0.65
   4  -2   6    9.48    0.77
  -4  -2  -6    8.93    0.76
  -4  -2  -6    8.18    0.69
   4  -2   6    8.30    0.59
   4  -2   6    8.71    0.64
   4   2   6    8.78    0.67
  -4   2  -6    9.44    0.66
  -4   2  -6    8.77    0.63
   4   2   6    8.97    0.72
   4   2   6    7.28    0.65
   5  -2   6    8.23    0.67
  -5  -2  -6    7.29    0.76
   5  -2   6    8.76    0.59
   5  -2   6    7.54    0.73
   5  -2   6    7.11    0.78
  -5  -2  -6    8.09    0.70
  -5  -2  -6    6.97    0.63
   5   2   6    7.33    0.71
  -5   2  -6    7.81    0.66
   5   2   6    7.89    0.65
  -5   2  -6    9.34    0.65
   5   2   6    8.42    0.68
   6  -2   6   17.66    1.21
   6  -2   6   18.83    1.15
   6  -2   6   17.21    1.27
  -6  -2  -6   16.72    1.17
  -6  -2  -6   17.53    1.28
   6  -2   6   17.19    1.36
  -6  -2  -6   18.35    1.23
   6   2   6   17.32    1.20
   6   2   6   17.86    1.29
  -6   2  -6   17.09    1.22
  -6   2  -6   17.22    1.19
   6   2   6   17.27    1.22
  -7  -2  -6   38.10    2.38
   7  -2   6   36.53    2.55
  -7  -2  -6   40.76    2.47
   7  -2   6   35.34    2.37
   7  -2   6   37.34    2.44
  -7   2  -6   40.16    2.36
  -7   2  -6   39.45    2.40
   7   2   6   38.01    2.36
   7   2   6   37.39    2.47
   8  -2   6    3.51    0.55
   8  -2   6    2.56    0.75
  -8  -2  -6    3.74    0.69
   8   2   6    3.94    0.66
  -8   2  -6    3.84    0.61
  -8   2  -6    3.42    0.54
   9  -2   6    3.08    0.94
   9  -2   6    3.00    0.62
  -9  -2  -6    2.00    0.71
   9  -2   6    2.54    0.56
  -9   2  -6    2.72    0.58
  -9   2  -6    5.53    0.96
   9   2   6    3.24    0.56
   9   2   6    3.72    0.83
  10  -2   6    0.26    0.52
  10  -2   6    0.95    1.00
  10  -2   6   -0.27    0.58
 -10   2  -6   -0.50    0.73
  10   2   6   -0.05    0.55
  10   2   6   -0.28    0.85
  11  -2   6    2.82    0.73
  11  -2   6    3.26    0.86
  11  -2   6    4.05    1.39
  11  -2   6    2.63    0.82
 -11   2  -6    4.07    1.12
  11   2   6    5.18    1.29
  11   2   6    3.59    0.83
  12  -2   6   -0.13    0.90
  12  -2   6   -1.95    0.90
  12  -2   6    0.26    1.71
  12   2   6    0.94    1.37
  12   2   6    0.76    0.98
  13  -3  -6    7.38    1.48
  13  -3  -6    7.66    1.45
  13  -3  -6   10.31    2.29
  13   3  -6    7.96    1.31
  12  -3  -6    5.99    1.16
  12  -3  -6    4.98    1.10
 -12  -3   6    4.05    1.17
  12  -3  -6    6.53    1.87
  12   3  -6    6.55    1.49
 -12   3   6    6.56    1.59
  12   3  -6    5.66    0.97
  11  -3  -6    1.80    0.78
  11  -3  -6    1.95    0.98
 -11  -3   6    1.02    0.81
 -11  -3   6    2.09    0.55
  11  -3  -6    2.92    1.42
 -11   3   6    2.09    1.13
  11   3  -6    3.44    1.11
  11   3  -6    0.85    0.66
 -10  -3   6    0.46    0.56
  10  -3  -6    0.16    0.59
  10  -3  -6    1.73    1.08
  10  -3  -6   -0.19    0.57
 -10  -3   6    0.26    0.60
 -10  -3   6    0.24    0.37
  10   3  -6    0.21    0.49
 -10   3   6    0.12    0.93
  10   3  -6   -0.36    0.79
 -10   3   6    0.99    0.89
  -9  -3   6    6.09    0.63
   9  -3  -6    6.53    1.01
   9  -3  -6    6.84    1.21
  -9  -3   6    6.47    0.87
  -9  -3   6    6.12    0.87
   9  -3  -6    5.17    0.83
   9   3  -6    6.29    1.13
  -9   3   6    6.17    1.00
  -9   3   6    7.94    1.26
  -9   3   6    4.45    0.73
   9   3  -6    6.12    0.81
  -8  -3   6    7.51    0.75
   8  -3  -6    6.69    0.94
   8  -3  -6    5.81    0.85
   8  -3  -6    5.39    1.03
  -8   3   6    6.77    1.14
   8   3  -6    6.20    1.00
   8   3  -6    7.66    0.75
  -8   3   6    6.80    1.16
  -8   3   6    7.53    0.95
   7  -3  -6    8.98    1.22
   7  -3  -6    5.89    0.84
   7  -3  -6    7.53    0.83
  -7  -3   6    7.04    0.69
  -7   3   6    8.53    0.90
   7   3  -6    6.61    0.65
   7   3  -6    7.25    0.90
  -7   3   6    6.28    0.90
  -7   3   6    6.24    1.00
   6  -3  -6    5.51    0.98
   6  -3  -6    4.78    0.66
  -6  -3   6    4.79    0.50
  -6   3   6    5.91    0.85
   6   3  -6    4.53    0.71
  -6   3   6    4.91    0.52
  -6   3   6    4.47    0.71
   6   3  -6    4.44    0.47
  -6   3   6    4.75    0.72
   5  -3  -6    3.91    0.73
  -5  -3   6    3.99    0.41
   5  -3  -6    4.38    0.58
  -5   3   6    3.11    0.63
  -5   3   6    4.97    0.62
   5   3  -6    4.17    0.40
  -5   3   6    4.56    0.50
  -5   3   6    4.45    0.74
   5   3  -6    4.03    0.60
   4  -3  -6   20.02    1.26
   4  -3  -6   14.58    1.43
   4   3  -6   18.22    1.11
  -4   3   6   16.95    1.25
  -4   3   6   21.86    1.39
  -4   3   6   19.28    1.29
   4   3  -6   18.17    1.22
   3  -3  -6    1.99    0.50
  -3  -3   6    1.78    0.26
   3  -3  -6    1.38    0.29
   3  -3  -6    1.56    0.31
  -3   3   6    1.60    0.32
   3   3  -6    1.69    0.37
  -3   3   6    1.39    0.43
  -3   3   6    0.86    0.40
  -3   3   6    1.60    0.40
  -3   3   6    1.61    0.35
   2  -3  -6   21.51    1.45
   2  -3  -6   20.34    1.38
   2  -3  -6   24.06    1.44
  -2   3   6   20.95    1.56
  -2   3   6   24.10    1.49
  -2   3   6   22.70    1.49
  -2   3   6   22.22    1.43
  -2   3   6   20.32    1.50
   1  -3  -6    6.59    0.64
  -1  -3   6    7.53    0.48
   1  -3  -6    7.16    0.55
   1  -3  -6    6.25    0.58
  -1   3   6    6.06    0.60
  -1   3   6    6.72    0.69
  -1   3   6    6.58    0.66
  -1   3   6    8.87    0.83
   1   3  -6    6.69    0.62
   0  -3  -6  111.61    5.90
   0  -3  -6   93.14    5.93
   0  -3  -6   95.04    5.95
   0  -3   6  105.51    5.83
   0   3   6   93.70    5.93
   0   3   6  101.92    5.97
   0   3   6  111.42    5.94
   0   3  -6  103.39    5.96
   0   3   6  109.14    6.06
   1  -3   6    1.10    0.18
  -1  -3  -6    0.69    0.30
   1  -3   6    1.04    0.35
  -1  -3  -6    0.48    0.24
  -1  -3  -6    0.81    0.28
   1   3   6    0.79    0.29
   1   3   6    0.66    0.23
  -1   3  -6    0.69    0.22
   1   3   6    0.88    0.28
   2  -3   6    6.18    0.73
  -2  -3  -6    8.59    0.72
   2  -3   6    7.39    0.52
  -2  -3  -6    7.20    0.61
  -2  -3  -6    6.85    0.67
   2   3   6    7.48    0.64
  -2   3  -6    7.88    0.63
   2   3   6    6.06    0.58
  -2   3  -6    7.69    0.53
   2   3   6    7.52    0.65
  -3  -3  -6    1.32    0.29
   3  -3   6    1.48    0.34
  -3  -3  -6    0.98    0.44
   3  -3   6    1.34    0.39
  -3  -3  -6    1.37    0.34
   3  -3   6    1.54    0.26
   3   3   6    1.11    0.26
  -3   3  -6    1.41    0.23
  -3   3  -6    1.11    0.23
   3   3   6    1.29    0.29
  -3   3  -6    1.42    0.32
   3   3   6    1.75    0.33
   4  -3   6    0.63    0.35
  -4  -3  -6    0.41    0.26
  -4  -3  -6    0.63    0.34
  -4  -3  -6    0.53    0.28
   4  -3   6    0.41    0.34
   4   3   6    0.28    0.24
   4   3   6    0.28    0.21
  -4   3  -6    0.17    0.20
   4   3   6    0.07    0.24
  -4   3  -6    0.42    0.26
  -4   3  -6    0.53    0.21
   5  -3   6    0.25    0.43
  -5  -3  -6    0.56    0.35
   5  -3   6    0.14    0.32
  -5  -3  -6    0.03    0.63
  -5  -3  -6    0.07    0.28
  -5   3  -6    0.24    0.23
   5   3   6   -0.40    0.22
  -5   3  -6    0.02    0.24
   5   3   6   -0.21    0.25
   5   3   6   -0.43    0.24
   6  -3   6   10.36    1.13
   6  -3   6   10.13    0.84
   6  -3   6   10.11    0.73
  -6  -3  -6   10.94    0.93
  -6  -3  -6    9.31    0.80
   6  -3   6   12.08    1.08
   6   3   6   10.13    0.87
   6   3   6   10.95    0.86
  -6   3  -6   10.87    0.84
  -6   3  -6   11.83    0.89
   6   3   6    9.46    0.94
  -7  -3  -6    4.98    0.74
  -7  -3  -6    4.62    0.59
   7  -3   6    3.30    0.92
   7  -3   6    4.94    0.64
   7  -3   6    5.91    0.88
   7   3   6    4.50    0.63
  -7   3  -6    4.72    0.66
  -7   3  -6    5.01    0.74
   7   3   6    3.69    0.56
   7   3   6    3.44    0.85
  -8  -3  -6    6.88    1.13
   8  -3   6    7.58    1.39
   8  -3   6    6.28    1.05
   8  -3   6    6.54    0.70
   8  -3   6    6.85    0.86
   8   3   6    6.97    0.79
  -8   3  -6    7.06    0.91
   8   3   6    5.25    0.87
  -8   3  -6    7.92    0.96
   8   3   6    6.34    1.08
   9  -3   6   -0.65    0.54
   9  -3   6   -0.11    0.38
   9  -3   6    0.71    0.93
   9  -3   6    0.62    0.53
  -9  -3  -6    0.23    0.61
   9   3   6    0.75    0.72
  -9   3  -6    0.63    0.75
  -9   3  -6    0.07    0.62
   9   3   6    0.15    0.43
  10  -3   6    1.21    1.28
  10  -3   6   -0.67    0.73
  10   3   6   -1.63    0.80
 -10   3  -6    1.27    0.83
  10   3   6    0.61    0.56
  11  -3   6    1.97    1.77
  11  -3   6    0.37    0.89
  11  -3   6   -0.42    0.90
  11   3   6    0.61    1.21
  11   3   6    0.69    0.74
  12  -4  -6    5.38    1.31
  12  -4  -6   -0.68    2.14
  12   4  -6    5.02    1.12
  12   4  -6    3.99    1.66
 -12   4   6    7.59    2.18
  11  -4  -6    0.05    1.58
  11  -4  -6   -1.54    0.79
  11   4  -6    0.63    1.19
  11   4  -6    0.21    0.69
 -11   4   6    2.50    1.42
 -11   4   6    2.32    1.49
  10  -4  -6    1.10    1.30
  10  -4  -6    1.41    0.80
  10   4  -6   -0.72    0.89
  10   4  -6    1.63    0.59
 -10   4   6    1.49    1.23
 -10   4   6    0.35    1.17
   9  -4  -6    1.36    0.78
  -9  -4   6    1.03    0.57
   9  -4  -6    0.99    1.05
   9   4  -6    2.11    0.56
  -9   4   6    1.13    0.91
   9   4  -6    1.19    0.81
  -9   4   6    1.11    0.92
  -8  -4   6    1.18    0.55
   8  -4  -6    1.10    0.52
   8  -4  -6    0.17    0.92
   8   4  -6    1.58    0.72
   8   4  -6    1.24    0.43
  -8   4   6    3.04    0.85
  -8   4   6    1.45    0.83
  -8   4   6    1.20    0.68
   7  -4  -6   17.15    1.39
  -7  -4   6   16.88    1.27
   7  -4  -6   19.38    1.82
   7   4  -6   18.21    1.26
  -7   4   6   18.21    1.70
  -7   4   6   20.56    1.74
  -7   4   6   15.79    1.50
   7   4  -6   19.08    1.49
  -7   4   6   19.35    1.34
   6  -4  -6   -0.47    0.36
   6  -4  -6   -0.24    0.66
  -6   4   6    0.14    0.48
  -6   4   6   -0.25    0.63
  -6   4   6   -0.55    0.56
  -6   4   6   -0.03    0.34
   6   4  -6   -0.11    0.24
   6   4  -6   -0.05    0.41
   5  -4  -6    3.70    0.75
   5  -4  -6    2.74    0.51
   5  -4  -6    2.75    0.46
  -5   4   6    2.29    0.67
  -5   4   6    3.26    0.53
  -5   4   6    3.43    0.52
   5   4  -6    3.01    0.38
  -5   4   6    3.58    0.73
   4  -4  -6    9.21    0.79
  -4  -4   6   10.61    0.71
   4  -4  -6   10.10    0.87
   4  -4  -6   10.83    1.16
   4   4  -6    9.69    0.64
  -4   4   6    9.47    1.02
  -4   4   6    8.61    0.91
  -4   4   6    7.62    1.03
  -4   4   6   12.10    1.15
   4   4  -6    8.68    1.06
  -4   4   6    8.70    0.92
   3  -4  -6    3.48    0.49
  -3  -4   6    3.75    0.40
   3  -4  -6    3.54    0.47
  -3   4   6    3.82    0.66
  -3   4   6    3.95    0.60
  -3   4   6    4.96    0.92
  -3   4   6    3.24    0.61
  -3   4   6    4.24    0.59
   2  -4  -6   22.77    1.51
   2  -4  -6   21.94    1.42
  -2   4   6   21.09    1.59
  -2   4   6   25.31    1.65
  -2   4   6   22.10    1.60
   1  -4  -6    6.20    0.63
   1  -4  -6    6.09    0.65
   1  -4  -6    5.82    0.54
  -1   4   6    8.00    0.98
  -1   4   6    6.68    0.74
   1   4  -6    7.73    0.75
  -1   4   6    7.17    0.66
  -1   4   6    6.22    0.76
   0  -4  -6   -0.09    0.28
   0  -4   6    0.10    0.18
   0  -4  -6   -0.18    0.23
   0   4   6    0.14    0.31
   0   4   6   -0.01    0.52
   0   4   6   -0.11    0.25
   0   4   6    0.21    0.30
   0   4  -6    0.28    0.28
  -1  -4  -6    5.43    0.72
  -1  -4  -6    3.98    0.53
  -1  -4  -6    4.85    0.62
   1  -4   6    4.86    0.43
   1   4   6    4.88    0.62
   1   4   6    5.07    0.63
  -1   4  -6    5.17    0.61
  -2  -4  -6    0.52    0.41
   2  -4   6    0.67    0.42
   2  -4   6    0.80    0.24
  -2  -4  -6    0.69    0.31
   2   4   6    0.50    0.30
  -2   4  -6    0.75    0.23
   2   4   6    0.53    0.33
   2   4   6    0.31    0.28
  -2   4  -6    1.54    0.36
  -3  -4  -6    2.90    0.44
  -3  -4  -6    2.29    0.45
  -3  -4  -6    3.35    0.58
   3  -4   6    2.58    0.61
   3  -4   6    2.71    0.44
  -3   4  -6    2.93    0.43
   3   4   6    2.87    0.42
   3   4   6    2.83    0.49
  -3   4  -6    3.62    0.56
   3   4   6    2.75    0.45
  -4  -4  -6    1.00    0.33
   4  -4   6    1.97    0.36
   4  -4   6    1.75    0.46
  -4  -4  -6    1.63    0.51
  -4  -4  -6    1.17    0.42
   4  -4   6    1.62    0.59
   4   4   6    1.43    0.33
   4   4   6    1.44    0.33
   4   4   6    1.64    0.38
  -4   4  -6    1.24    0.32
   5  -4   6    0.17    0.50
  -5  -4  -6   -0.19    0.39
  -5  -4  -6    0.12    0.30
   5  -4   6    0.18    0.59
   5  -4   6   -0.34    0.29
  -5   4  -6    0.49    0.28
   5   4   6    0.38    0.34
   5   4   6   -0.19    0.32
   5   4   6   -0.09    0.33
  -5   4  -6    0.40    0.30
   6  -4   6    4.32    0.81
  -6  -4  -6    6.65    0.86
   6  -4   6    8.36    1.16
  -6  -4  -6    6.35    1.02
  -6  -4  -6    4.19    0.60
  -6   4  -6    6.70    0.73
   6   4   6    7.74    0.73
   6   4   6    4.55    0.75
  -6   4  -6    5.54    0.71
   6   4   6    6.82    0.84
  -7  -4  -6    0.72    0.39
  -7  -4  -6    0.78    0.68
   7  -4   6    0.68    0.74
   7  -4   6    0.63    0.65
   7   4   6    0.88    0.39
   7   4   6    0.26    0.49
   7   4   6   -0.04    0.44
  -7   4  -6    1.27    0.43
  -7   4  -6    0.65    0.47
   8  -4   6    1.82    0.80
  -8  -4  -6    1.56    0.46
  -8  -4  -6   -0.09    0.72
   8  -4   6    2.24    1.00
  -8   4  -6    0.30    0.58
  -8   4  -6    0.51    0.59
   8   4   6    0.51    0.46
   8   4   6    1.00    0.74
   9  -4   6    1.77    0.96
  -9  -4  -6    0.98    0.88
   9  -4   6    2.80    1.26
   9   4   6    0.34    0.60
   9   4   6    1.36    0.85
  -9   4  -6    2.35    0.84
  10  -4   6    3.45    1.83
  10  -4   6    1.79    1.12
  10   4   6    4.21    1.16
  10   4   6    1.84    0.79
  10  -5  -6   -0.49    0.87
  10   5  -6    0.98    0.77
 -10   5   6   -1.53    1.38
  10   5  -6   -0.19    1.16
   9  -5  -6    2.63    1.41
   9   5  -6   -0.50    0.55
  -9   5   6   -1.39    1.17
  -9   5   6    0.77    1.19
   9   5  -6   -1.37    0.86
   8  -5  -6    6.06    0.96
   8  -5  -6    6.01    0.85
   8  -5  -6    4.17    1.39
   8   5  -6    6.46    0.90
  -8   5   6    9.07    1.09
   8   5  -6    5.72    0.98
  -8   5   6    6.84    1.18
  -8   5   6    8.83    1.29
   7  -5  -6   21.85    1.74
   7  -5  -6   20.32    2.29
   7  -5  -6   23.88    1.66
  -7   5   6   24.50    1.97
  -7   5   6   28.95    2.25
  -7   5   6   24.38    1.77
   7   5  -6   21.71    1.57
  -7   5   6   23.84    2.12
   6  -5  -6    4.04    0.68
   6  -5  -6    3.64    0.71
   6  -5  -6    3.56    1.06
  -6   5   6    3.52    0.91
  -6   5   6    4.42    0.72
   6   5  -6    3.21    0.45
  -6   5   6    3.55    0.70
   5  -5  -6    2.85    0.57
  -5  -5   6    3.73    0.53
   5  -5  -6    4.46    0.62
   5   5  -6    3.94    0.77
   5   5  -6    3.80    0.49
  -5   5   6    4.10    0.82
  -5   5   6    5.01    0.92
  -5   5   6    4.80    0.92
  -5   5   6    6.30    0.97
  -4  -5   6   40.72    2.38
   4  -5  -6   35.93    2.53
   4  -5  -6   39.33    2.39
  -4   5   6   43.67    2.63
  -4   5   6   40.09    2.83
   4   5  -6   40.83    2.33
  -4   5   6   38.44    2.69
   4   5  -6   37.65    2.65
   3  -5  -6    4.57    0.67
  -3  -5   6    6.19    0.54
   3  -5  -6    6.00    0.55
  -3   5   6    6.37    1.02
  -3   5   6    6.72    0.82
   3   5  -6    5.60    0.93
  -3   5   6    5.11    0.93
  -3   5   6    4.97    0.93
  -2  -5   6    9.74    0.76
   2  -5  -6   11.98    0.96
  -2   5   6   12.89    1.10
  -2   5   6    9.22    0.98
  -2   5   6   10.81    1.15
  -2   5   6    9.75    1.34
   1  -5  -6   -0.02    0.31
  -1  -5   6    0.08    0.22
  -1   5   6    0.65    0.62
  -1   5   6    0.21    0.41
   1   5  -6   -0.14    0.40
  -1   5   6    0.97    0.44
  -1   5   6    0.12    0.41
   0  -5  -6    7.36    0.73
   0  -5   6    7.43    0.60
   0   5  -6    8.96    0.96
   0   5   6    7.36    0.84
   0   5   6    5.91    0.81
   0   5   6    7.99    0.86
   0   5   6    6.23    1.15
   1  -5   6   14.74    1.01
  -1  -5  -6   14.23    1.12
   1   5   6   15.59    1.17
   1   5   6   15.56    1.20
   1   5   6   16.44    1.61
   1   5   6   14.34    1.14
  -1   5  -6   12.48    1.21
  -2  -5  -6    0.95    0.38
   2  -5   6    0.07    0.28
  -2  -5  -6    0.14    0.27
   2   5   6    0.08    0.37
  -2   5  -6    0.24    0.43
   2   5   6   -0.61    0.73
   2   5   6   -0.03    0.33
  -2   5  -6    0.02    0.29
   2   5   6    0.50    0.38
  -3  -5  -6    0.48    0.41
   3  -5   6    0.23    0.28
  -3  -5  -6    0.32    0.30
  -3   5  -6    0.11    0.42
  -3   5  -6    0.86    0.32
   3   5   6    0.65    0.39
   3   5   6    0.26    0.33
  -4  -5  -6    1.17    0.51
   4  -5   6    1.42    0.36
   4  -5   6    0.77    0.75
  -4  -5  -6    0.88    0.69
  -4  -5  -6    1.23    0.37
   4   5   6    0.97    0.45
   4   5   6    2.40    0.46
  -4   5  -6    1.00    0.44
  -4   5  -6    1.55    0.53
   4   5   6    1.10    0.42
  -5  -5  -6    0.84    0.51
  -5  -5  -6    0.76    0.34
   5  -5   6    0.06    0.34
  -5  -5  -6    0.41    0.70
   5  -5   6    0.00    0.73
  -5   5  -6   -0.28    0.41
   5   5   6   -0.26    0.78
   5   5   6    0.05    0.42
  -5   5  -6    0.34    0.34
   5   5   6    0.64    0.47
   6  -5   6    1.74    0.49
  -6  -5  -6    0.36    0.39
  -6  -5  -6    0.68    0.60
   6  -5   6    0.85    0.86
  -6   5  -6    1.25    0.46
   6   5   6    1.10    0.56
   6   5   6    2.83    0.60
   6   5   6    1.44    0.53
  -6   5  -6    0.17    0.56
  -7  -5  -6    3.78    0.85
  -7  -5  -6    2.80    0.49
   7  -5   6    4.10    1.13
   7  -5   6    3.27    0.61
   7  -5   6    3.47    1.17
  -7   5  -6    2.71    0.66
   7   5   6    3.09    0.65
   7   5   6    3.18    0.77
  -7   5  -6    1.72    0.71
   8  -5   6   10.00    1.53
   8  -5   6    8.12    0.98
   8   5   6    7.30    1.16
   8   5   6    7.50    1.17
   9  -5   6    0.02    1.30
   9  -5   6    1.79    0.65
   9   5   6    0.84    0.76
   9   5   6   -0.37    1.00
   8  -6  -6    3.33    1.27
  -8   6   6    2.78    1.46
   8   6  -6    3.35    0.72
  -8   6   6    1.64    1.42
  -7   6   6    1.55    1.20
   7   6  -6    0.32    0.50
  -7   6   6    2.59    1.20
   6  -6  -6   -0.25    0.52
  -6   6   6    1.27    1.03
  -6   6   6    1.16    1.05
   6   6  -6   -0.29    0.36
  -6   6   6    0.14    1.99
   5  -6  -6    0.79    0.49
  -5  -6   6   -0.03    0.38
  -5   6   6   -0.63    0.96
  -5   6   6    1.11    0.90
   5   6  -6    0.48    0.82
  -5   6   6    0.12    0.90
  -5   6   6   -0.31    0.90
   5   6  -6    0.22    0.33
   4  -6  -6    0.15    0.43
  -4  -6   6   -0.24    0.31
   4   6  -6   -1.56    0.75
  -4   6   6   -0.22    0.74
   4   6  -6    0.23    0.28
  -4   6   6   -0.14    0.73
  -4   6   6    0.62    0.91
   4   6  -6    0.23    0.32
  -3  -6   6    0.74    0.32
   3  -6  -6    0.07    0.39
  -3   6   6   -0.70    0.86
  -3   6   6   -0.61    0.71
  -3   6   6   -0.78    0.64
   3   6  -6    0.90    0.68
  -3   6   6    0.49    0.76
  -3   6   6    1.75    0.72
   2  -6  -6    0.77    0.45
  -2  -6   6    1.44    0.36
  -2   6   6    1.60    0.60
  -2   6   6    1.06    0.67
  -2   6   6    0.82    0.87
  -2   6   6    2.01    0.95
   2   6  -6    1.19    0.73
  -2   6   6    1.55    0.63
  -1  -6   6    1.01    0.34
   1  -6  -6    1.34    0.47
  -1   6   6   -0.91    0.82
  -1   6   6    1.75    0.63
  -1   6   6    1.50    0.97
  -1   6   6    1.44    0.68
  -1   6   6    1.54    0.59
   1   6  -6    1.24    0.71
   0  -6   6    0.19    0.30
   0  -6  -6   -0.49    0.37
   0   6   6   -1.21    0.90
   0   6  -6    1.11    0.64
   0   6   6    0.06    0.47
   0   6   6   -0.47    0.55
   0   6   6   -0.71    0.85
   0   6   6    1.13    0.59
  -1  -6  -6   -0.45    0.37
   1  -6   6   -0.31    0.29
  -1   6  -6   -0.57    0.58
   1   6   6    0.55    0.57
   1   6   6    0.15    0.58
   1   6   6    0.34    0.89
   1   6   6    0.05    0.43
   2  -6   6    1.48    0.42
  -2  -6  -6    1.81    0.49
  -2   6  -6    0.87    0.49
   2   6   6    2.02    0.66
   2   6   6    2.69    0.60
   2   6   6    1.69    0.55
  -2   6  -6    1.19    0.59
   3  -6   6    1.87    0.43
  -3  -6  -6    1.70    0.50
   3   6   6    1.81    0.52
   3   6   6    1.61    0.71
  -3   6  -6    2.53    0.70
  -3   6  -6    2.50    0.55
   3   6   6    2.64    0.64
   3   6   6    2.68    1.20
  -4  -6  -6    0.12    0.38
   4  -6   6    1.25    0.43
   4   6   6    1.22    0.55
  -4   6  -6    0.61    0.59
   4   6   6    1.44    0.70
  -4   6  -6    1.36    0.79
   4   6   6    1.10    0.56
  -5  -6  -6    1.53    0.47
   5  -6   6    0.89    0.48
  -5   6  -6   -1.26    0.64
   5   6   6    0.35    0.56
   5   6   6   -0.70    0.55
  -6  -6  -6    0.36    0.54
   6  -6   6    0.21    0.49
  -6   6  -6    0.74    0.74
   6   6   6    0.94    0.67
   6   6   6   -0.92    0.66
  -7  -6  -6   -0.25    0.51
   7  -6   6   -0.87    0.48
   7   6   6   -0.12    0.72
   7   6   6   -0.08    0.85
   6  -7  -6    0.37    0.71
   5  -7  -6    8.39    1.15
  -5  -7   6    9.88    0.97
  -5   7   6    9.31    1.43
  -5   7   6    9.06    1.66
  -4  -7   6    1.30    0.45
  -4   7   6    1.86    0.96
  -4   7   6    1.07    1.21
   3  -7  -6    0.37    0.49
  -3  -7   6    0.74    0.43
  -3   7   6    2.32    1.06
  -3   7   6   -0.06    0.81
  -2  -7   6    1.04    0.46
   2  -7  -6    1.24    0.55
  -2   7   6    2.32    0.95
  -2   7   6    3.18    0.81
   1  -7  -6    1.67    0.56
  -1  -7   6    1.60    0.45
  -1   7   6    0.61    0.64
  -1   7   6    2.16    0.90
   0  -7  -6    0.10    0.47
   0  -7   6   -0.55    0.34
   0   7   6    0.18    0.63
   0   7   6    1.27    0.82
   1  -7   6    1.80    0.49
  -1  -7  -6    0.46    0.45
   1   7   6    0.37    0.75
   1   7   6    0.66    0.64
   2  -7   6    1.47    0.47
  -2  -7  -6    0.54    0.79
   2   7   6    1.23    0.62
   2   7   6   -0.49    0.72
   3  -7   6   -0.04    0.46
  -3  -7  -6    0.19    0.52
  -3   7  -6    0.48    1.04
   3   7   6    0.24    0.79
   3   7   6    1.43    0.74
   4  -7   6    0.95    0.53
  -4  -7  -6    0.39    0.60
   4   7   6   -0.33    0.73
  -4   7  -6   -0.86    1.76
   4   7   6   -0.36    0.78
 -14   0   7    2.37    1.58
  14   0  -7    2.46    0.84
  14   0  -7    0.91    1.88
  13   0  -7   -0.57    0.73
  13   0  -7   -1.57    1.38
 -13   0   7    0.82    1.23
  13   0  -7    0.62    0.56
 -12   0   7   -0.56    0.88
  12   0  -7   -0.73    0.42
  12   0  -7   -0.02    0.66
  12   0  -7    1.05    1.03
 -11   0   7   -0.37    0.70
  11   0  -7   -0.52    0.46
 -11   0   7    0.14    0.50
  11   0  -7    0.91    0.94
 -11   0   7    1.81    0.88
  11   0  -7    0.16    0.34
  10   0  -7   -0.24    1.35
 -10   0   7    0.05    0.60
 -10   0   7   -0.16    0.59
  10   0  -7    0.22    0.46
  10   0  -7    0.14    0.24
   9   0  -7    0.05    0.19
  -9   0   7   -0.41    0.52
  -9   0   7    0.41    0.30
  -9   0   7    0.03    0.43
   9   0  -7    0.24    0.37
   9   0  -7    0.21    0.62
  -8   0   7   -0.21    0.41
  -8   0   7   -0.25    0.24
   8   0  -7    0.17    0.55
   8   0  -7    0.44    0.30
   8   0  -7   -0.07    0.16
  -8   0   7   -0.60    0.40
  -7   0   7   -0.30    0.22
   7   0  -7   -0.01    0.13
   7   0  -7    0.45    0.47
  -7   0   7    0.00    0.37
   7   0  -7   -0.02    0.24
   6   0  -7    0.43    0.40
   6   0  -7   -0.30    0.19
  -6   0   7    0.07    0.18
  -6   0   7   -0.01    0.30
   6   0  -7   -0.07    0.11
  -6   0   7    0.03    0.30
   5   0  -7   -0.20    0.17
  -5   0   7    0.15    0.15
   5   0  -7   -0.08    0.32
  -5   0   7    0.23    0.27
  -5   0   7   -0.24    0.25
   5   0  -7    0.02    0.09
  -4   0   7    0.17    0.25
   4   0  -7    0.04    0.28
   4   0  -7   -0.05    0.15
   4   0  -7   -0.30    0.14
  -4   0   7   -0.01    0.13
  -4   0   7   -0.05    0.21
   3   0  -7   -0.11    0.21
  -3   0   7   -0.13    0.16
   3   0  -7   -0.10    0.13
  -3   0   7   -0.30    0.20
   3   0  -7   -0.11    0.15
  -3   0   7   -0.05    0.13
  -2   0   7   -0.23    0.17
   2   0  -7   -0.12    0.10
   2   0  -7    0.04    0.22
  -2   0   7   -0.09    0.16
  -2   0   7   -0.15    0.13
   2   0  -7   -0.14    0.12
  -2   0   7   -0.10    0.11
   1   0  -7   -0.02    0.13
  -1   0   7    0.09    0.11
  -1   0   7    0.00    0.14
  -1   0   7   -0.10    0.18
   1   0  -7    0.11    0.11
  -1   0   7   -0.01    0.11
   1   0  -7   -0.23    0.10
   0   0  -7   -0.07    0.10
   0   0  -7    0.00    0.13
   0   0   7    0.02    0.09
   0   0   7    0.02    0.13
   0   0  -7   -0.03    0.10
   0   0   7    0.07    0.11
   0   0  -7    0.06    0.09
   1   0   7    0.04    0.13
   1   0   7   -0.07    0.09
  -1   0  -7    0.09    0.12
   1   0   7    0.10    0.12
  -1   0  -7   -0.15    0.10
  -1   0  -7   -0.06    0.13
  -1   0  -7    0.13    0.11
  -2   0  -7   -0.04    0.15
   2   0   7    0.09    0.10
  -2   0  -7   -0.19    0.11
   2   0   7    0.05    0.11
   2   0   7    0.02    0.13
  -2   0  -7   -0.08    0.10
  -3   0  -7    0.03    0.14
   3   0   7   -0.11    0.10
   3   0   7    0.00    0.12
  -3   0  -7   -0.12    0.13
   3   0   7   -0.11    0.17
  -3   0  -7   -0.14    0.15
  -4   0  -7   -0.15    0.14
   4   0   7   -0.22    0.14
   4   0   7    0.02    0.19
  -4   0  -7   -0.03    0.18
   4   0   7    0.12    0.15
   5   0   7    0.19    0.19
  -5   0  -7   -0.10    0.16
  -5   0  -7   -0.23    0.22
   5   0   7    0.05    0.16
   5   0   7   -0.20    0.27
   6   0   7   -0.03    0.22
   6   0   7   -0.01    0.22
  -6   0  -7   -0.05    0.22
  -6   0  -7    0.10    0.28
   6   0   7   -0.09    0.31
   7   0   7   -0.06    0.27
  -7   0  -7    0.31    0.37
   7   0   7   -0.10    0.38
   8   0   7   -0.06    0.49
  -8   0  -7    0.44    0.43
   8   0   7    0.24    0.35
   9   0   7    0.53    0.43
  -9   0  -7    0.44    0.50
   9   0   7    1.10    0.68
  -9   0  -7    0.05    0.41
 -10   0  -7    0.44    0.72
  10   0   7    0.31    0.47
  10   0   7    0.51    0.83
  10   0   7    0.23    0.54
  11   0   7    0.28    1.05
  11   0   7   -0.80    0.68
  11   0   7   -0.18    0.54
  12   0   7    0.79    0.69
  12   0   7   -1.55    0.79
 -13  -1   7    2.56    1.25
  13  -1  -7    3.69    0.81
  13  -1  -7    1.41    0.94
  13  -1  -7    2.20    1.69
 -13   1   7    1.66    1.34
  13   1  -7    4.02    0.96
  13   1  -7    2.82    0.66
  13   1  -7    7.25    1.63
 -12  -1   7    6.07    0.83
 -12  -1   7    7.36    1.22
  12  -1  -7    8.29    1.08
  12  -1  -7    8.00    1.52
  12  -1  -7    6.10    1.00
  12   1  -7    4.85    1.32
 -12   1   7    5.10    1.25
  12   1  -7    8.04    1.24
  12   1  -7    6.09    0.79
  11  -1  -7    1.09    0.63
 -11  -1   7    1.67    0.74
  11  -1  -7    1.01    0.47
  11  -1  -7    0.74    0.95
 -11  -1   7    1.27    0.77
 -11   1   7    1.75    0.59
 -11   1   7    1.47    0.92
  11   1  -7    0.89    0.36
  11   1  -7    1.35    0.57
 -11   1   7    1.85    0.85
  11   1  -7    3.16    1.04
  10  -1  -7    2.77    0.68
 -10  -1   7    2.07    0.43
  10  -1  -7    1.85    0.45
  10  -1  -7    3.87    1.22
 -10  -1   7    2.49    0.74
  10   1  -7    2.24    0.86
 -10   1   7    3.01    0.73
 -10   1   7    2.05    0.74
 -10   1   7    1.40    0.51
  10   1  -7    3.69    1.01
  -9  -1   7    3.11    0.52
  -9  -1   7    3.36    0.63
   9  -1  -7    1.74    0.81
   9  -1  -7    2.52    0.42
   9  -1  -7    1.98    0.49
   9   1  -7    2.95    0.76
  -9   1   7    2.25    0.64
  -9   1   7    1.50    0.43
  -9   1   7    2.84    0.71
   9   1  -7    2.43    0.50
   8  -1  -7   13.54    0.98
  -8  -1   7   15.14    0.97
  -8  -1   7   14.30    1.20
   8  -1  -7   14.90    1.43
   8  -1  -7   13.81    1.13
  -8  -1   7   14.47    1.15
  -8   1   7   12.74    1.25
   8   1  -7   13.17    1.08
  -8   1   7   12.27    1.24
   8   1  -7   13.74    1.31
  -8   1   7   12.84    1.04
  -7  -1   7    5.41    0.48
  -7  -1   7    6.15    0.63
   7  -1  -7    6.28    0.65
   7  -1  -7    4.44    0.78
   7  -1  -7    5.09    0.51
  -7  -1   7    4.17    0.69
   7   1  -7    4.97    0.59
  -7   1   7    5.72    0.60
  -7   1   7    3.65    0.79
   7   1  -7    5.77    0.85
  -7   1   7    4.63    0.79
   6  -1  -7    0.14    0.18
   6  -1  -7    0.55    0.47
   6  -1  -7    0.53    0.26
  -6  -1   7   -0.10    0.26
  -6  -1   7    0.13    0.30
  -6  -1   7    0.42    0.17
   6   1  -7    0.20    0.22
  -6   1   7    0.46    0.40
  -6   1   7    0.18    0.23
   6   1  -7   -0.03    0.34
  -6   1   7    0.21    0.37
   5  -1  -7   -0.02    0.21
   5  -1  -7   -0.10    0.34
  -5  -1   7   -0.12    0.21
  -5  -1   7    0.33    0.13
  -5  -1   7   -0.09    0.22
   5  -1  -7    0.07    0.17
  -5   1   7   -0.19    0.25
   5   1  -7   -0.03    0.16
   5   1  -7    0.07    0.29
  -5   1   7    0.14    0.17
  -5   1   7    0.03    0.29
   4  -1  -7   47.30    2.92
  -4  -1   7   47.61    2.77
   4  -1  -7   47.36    2.86
  -4  -1   7   49.03    2.81
   4  -1  -7   47.51    2.82
  -4  -1   7   47.70    2.72
  -4   1   7   47.46    2.71
  -4   1   7   49.52    2.81
  -4   1   7   48.05    2.87
   4   1  -7   46.95    2.81
   4   1  -7   46.98    2.77
   4   1  -7   40.65    2.83
   3  -1  -7   73.41    4.32
  -3  -1   7   68.21    4.26
  -3  -1   7   74.45    4.21
  -3  -1   7   74.28    4.19
   3  -1  -7   77.24    4.29
   3   1  -7   70.15    4.19
  -3   1   7   75.46    4.35
   3   1  -7   75.51    4.24
  -3   1   7   73.78    4.28
  -3   1   7   71.30    4.21
   3   1  -7   77.68    4.27
  -3   1   7   73.27    4.31
   2  -1  -7    0.05    0.24
   2  -1  -7    0.02    0.16
  -2  -1   7    0.00    0.06
  -2  -1   7    0.03    0.08
   2  -1  -7    0.07    0.15
  -2  -1   7   -0.17    0.17
  -2  -1   7   -0.06    0.14
  -2   1   7   -0.15    0.20
   2   1  -7    0.26    0.18
   2   1  -7   -0.01    0.11
  -2   1   7   -0.03    0.18
   2   1  -7    0.05    0.11
  -2   1   7    0.07    0.23
   2   1  -7   -0.01    0.06
  -2   1   7    0.13    0.12
  -1  -1   7    0.95    0.21
   1  -1  -7    0.90    0.20
  -1  -1   7    0.89    0.16
   1  -1  -7    0.90    0.19
  -1  -1   7    1.05    0.16
   1  -1  -7    0.81    0.20
  -1   1   7    0.86    0.21
   1   1  -7    1.22    0.14
   1   1  -7    1.06    0.15
  -1   1   7    0.86    0.23
  -1   1   7    0.65    0.16
   1   1  -7    0.99    0.17
  -1   1   7    0.56    0.27
   0  -1   7    5.09    0.35
   0  -1   7    4.32    0.36
   0  -1  -7    3.62    0.43
   0  -1  -7    4.72    0.37
   0  -1  -7    3.14    0.40
   0  -1  -7    4.46    0.39
   0   1  -7    4.13    0.34
   0   1   7    3.90    0.43
   0   1  -7    4.54    0.38
   0   1   7    4.34    0.38
   0   1   7    3.79    0.40
   0   1  -7    4.54    0.32
  -1  -1  -7   41.62    2.49
   1  -1   7   41.65    2.43
  -1  -1  -7   40.01    2.42
   1  -1   7   42.19    2.40
   1  -1   7   41.43    2.38
  -1  -1  -7   40.40    2.44
  -1  -1  -7   46.93    2.47
   1   1   7   38.60    2.43
  -1   1  -7   41.94    2.39
   1   1   7   41.57    2.47
   1   1   7   41.13    2.45
  -1   1  -7   36.54    2.42
  -1   1  -7   46.10    2.41
   2  -1   7    6.75    0.44
  -2  -1  -7    6.84    0.55
   2  -1   7    5.74    0.42
   2  -1   7    5.41    0.46
  -2  -1  -7    5.64    0.48
  -2  -1  -7    6.01    0.45
   2  -1   7    6.05    0.47
   2   1   7    5.59    0.46
  -2   1  -7    6.09    0.47
   2   1   7    5.83    0.50
  -2   1  -7    5.99    0.42
   3  -1   7    3.76    0.34
   3  -1   7    3.43    0.31
   3  -1   7    4.25    0.42
  -3  -1  -7    3.29    0.49
  -3  -1  -7    3.56    0.47
  -3  -1  -7    4.04    0.39
   3  -1   7    3.76    0.38
   3   1   7    3.84    0.37
  -3   1  -7    3.83    0.38
  -3   1  -7    3.85    0.33
   3   1   7    2.98    0.34
   4  -1   7    4.23    0.51
   4  -1   7    3.91    0.38
   4  -1   7    3.93    0.43
  -4  -1  -7    4.99    0.43
  -4  -1  -7    4.50    0.49
   4  -1   7    4.54    0.41
  -4  -1  -7    4.17    0.40
   4   1   7    5.02    0.49
   4   1   7    4.43    0.41
   4   1   7    3.33    0.39
  -4   1  -7    4.17    0.45
  -4   1  -7    4.10    0.39
  -5  -1  -7   54.12    3.36
   5  -1   7   53.47    3.30
   5  -1   7   60.72    3.40
   5  -1   7   57.01    3.34
  -5  -1  -7   61.14    3.28
   5  -1   7   58.09    3.29
   5   1   7   53.13    3.30
   5   1   7   56.74    3.37
  -5   1  -7   50.92    3.27
   6  -1   7   12.34    0.95
   6  -1   7   13.17    0.95
   6  -1   7   12.94    1.08
  -6  -1  -7   13.96    1.04
  -6  -1  -7   13.08    0.95
   6  -1   7   12.09    0.90
   6   1   7   12.06    0.93
   6   1   7   14.73    1.08
  -6   1  -7   12.98    0.97
  -6   1  -7   12.60    0.92
   7  -1   7   18.41    1.66
  -7  -1  -7   23.14    1.61
   7  -1   7   21.53    1.51
   7  -1   7   21.11    1.51
   7  -1   7   22.53    1.48
  -7  -1  -7   24.49    1.53
   7   1   7   23.59    1.52
   7   1   7   22.05    1.51
  -7   1  -7   23.35    1.49
  -7   1  -7   24.17    1.59
   7   1   7   23.62    1.64
   8  -1   7    3.34    0.57
   8  -1   7    2.81    0.71
   8  -1   7    2.63    0.45
  -8  -1  -7    2.43    0.56
   8  -1   7    1.54    0.46
   8   1   7    3.44    0.72
  -8   1  -7    2.76    0.55
   8   1   7    3.13    0.69
  -8   1  -7    2.44    0.46
  -9  -1  -7    0.20    0.47
   9  -1   7   -0.51    0.62
   9  -1   7   -0.36    0.45
   9  -1   7   -0.09    0.36
  -9  -1  -7   -0.05    0.56
   9   1   7   -0.34    0.55
  -9   1  -7   -0.80    0.44
   9   1   7   -0.08    0.45
   9   1   7   -0.15    0.41
  -9   1  -7   -0.64    0.54
  10  -1   7    3.13    0.57
  10  -1   7    3.72    0.76
  10  -1   7    2.79    0.62
  10   1   7    4.04    0.71
 -10   1  -7    4.07    0.81
  11  -1   7    0.13    0.62
  11  -1   7    0.51    1.14
  11  -1   7    1.00    0.76
  11   1   7    0.02    1.00
  11   1   7    0.70    0.73
  12  -1   7    4.41    0.97
  12  -1   7    2.99    1.65
  12  -1   7    4.63    1.12
  12   1   7    4.81    1.55
  12   1   7    4.99    1.16
  13  -2  -7    5.77    1.09
  13  -2  -7    2.76    1.17
  13  -2  -7    6.88    1.88
  13   2  -7    5.82    1.17
 -13   2   7    2.29    1.73
  13   2  -7    4.92    1.62
  12  -2  -7    0.45    0.73
 -12  -2   7    1.90    0.97
  12  -2  -7    1.29    1.34
 -12  -2   7    1.48    0.64
  12  -2  -7    2.02    0.90
  12   2  -7    2.82    1.28
  12   2  -7    0.85    0.80
 -12   2   7    0.50    1.29
 -11  -2   7    0.08    0.44
  11  -2  -7    0.66    1.11
  11  -2  -7    0.69    0.59
 -11  -2   7   -0.15    0.74
  11  -2  -7    0.58    0.56
  11   2  -7    0.72    0.55
 -11   2   7    0.00    0.94
  11   2  -7    0.57    0.93
 -11   2   7    0.05    0.92
  10  -2  -7    3.04    0.61
  10  -2  -7    2.36    0.64
  10  -2  -7    3.45    1.06
 -10  -2   7    3.73    0.75
 -10  -2   7    2.53    0.63
 -10  -2   7    2.74    0.46
 -10   2   7    2.53    0.64
 -10   2   7    2.18    0.82
  10   2  -7    3.43    0.93
  10   2  -7    2.74    0.64
 -10   2   7    1.69    0.82
  -9  -2   7   11.33    0.87
   9  -2  -7   13.10    1.07
   9  -2  -7   13.61    1.64
  -9  -2   7   11.38    1.14
   9  -2  -7   10.30    1.11
   9   2  -7   11.96    1.02
  -9   2   7    8.71    1.59
   9   2  -7   11.73    1.39
  -9   2   7   14.44    1.36
   8  -2  -7    8.31    0.90
   8  -2  -7    9.18    0.86
  -8  -2   7    9.70    0.93
  -8  -2   7    8.58    0.66
   8  -2  -7    7.20    1.30
  -8  -2   7    8.37    0.85
   8   2  -7    8.27    1.09
   8   2  -7    8.43    0.79
  -8   2   7    8.79    1.11
  -8   2   7   10.93    1.16
  -7  -2   7    0.48    0.17
   7  -2  -7    0.26    0.30
   7  -2  -7    0.92    0.39
  -7  -2   7    0.54    0.33
   7  -2  -7    0.09    0.58
  -7  -2   7    0.87    0.31
  -7   2   7    0.34    0.32
  -7   2   7   -0.31    0.46
  -7   2   7    0.25    0.56
   7   2  -7    0.67    0.29
   7   2  -7    0.40    0.42
  -6  -2   7    0.09    0.22
   6  -2  -7    0.29    0.27
  -6  -2   7    0.09    0.13
   6  -2  -7    0.06    0.49
   6  -2  -7    0.00    0.28
  -6  -2   7    0.10    0.24
   6   2  -7   -0.20    0.36
  -6   2   7    0.30    0.41
   6   2  -7   -0.14    0.20
  -6   2   7    0.46    0.34
  -6   2   7    0.07    0.40
  -6   2   7    0.16    0.15
  -5  -2   7   20.04    1.26
   5  -2  -7   20.06    1.34
   5  -2  -7   18.36    1.50
   5   2  -7   18.56    1.23
  -5   2   7   19.75    1.23
  -5   2   7   21.96    1.36
   5   2  -7   21.35    1.38
  -5   2   7   18.20    1.42
  -5   2   7   19.04    1.47
  -4  -2   7   16.99    1.07
   4  -2  -7   16.37    1.16
   4  -2  -7   18.41    1.33
   4   2  -7   16.37    1.16
  -4   2   7   17.67    1.17
   4   2  -7   17.07    1.05
  -4   2   7   16.86    1.09
  -4   2   7   16.56    1.31
  -4   2   7   16.53    1.23
   3  -2  -7   12.45    0.94
   3  -2  -7    9.10    0.74
   3  -2  -7   11.41    0.82
  -3   2   7   12.08    0.79
   3   2  -7    9.91    0.64
  -3   2   7    9.00    0.72
  -3   2   7   10.69    0.83
  -3   2   7    9.55    0.91
   3   2  -7    9.08    0.70
   3   2  -7    9.06    0.74
   3   2  -7    9.54    0.68
   2  -2  -7   90.64    5.53
   2  -2  -7   92.45    5.53
   2  -2  -7  103.62    5.60
  -2   2   7   99.80    5.62
   2   2  -7   96.35    5.51
  -2   2   7   97.36    5.55
  -2   2   7   91.36    5.57
   1  -2  -7   -0.06    0.20
   1  -2  -7    0.02    0.16
   1  -2  -7    0.08    0.16
  -1  -2   7   -0.14    0.17
  -1   2   7    0.24    0.17
  -1   2   7    0.16    0.28
  -1   2   7    0.07    0.19
   1   2  -7   -0.17    0.11
  -1   2   7    0.00    0.23
   0  -2  -7    2.50    0.39
   0  -2  -7    2.13    0.30
   0  -2   7    2.30    0.37
   0  -2  -7    2.67    0.32
   0  -2  -7    2.48    0.43
   0   2  -7    2.06    0.28
   0   2   7    2.13    0.37
   0   2   7    2.66    0.42
   0   2   7    2.41    0.33
  -1  -2  -7   58.50    3.29
  -1  -2  -7   52.72    3.20
   1  -2   7   53.04    3.24
  -1  -2  -7   51.10    3.23
  -1   2  -7   54.29    3.13
   1   2   7   57.14    3.21
  -1   2  -7   53.73    3.12
   1   2   7   54.15    3.24
  -1   2  -7   57.55    3.20
  -2  -2  -7    0.88    0.25
  -2  -2  -7    0.87    0.22
   2  -2   7    0.75    0.19
  -2  -2  -7    0.56    0.25
   2  -2   7    0.44    0.23
  -2   2  -7    0.85    0.15
  -2   2  -7    0.92    0.18
   2   2   7    0.78    0.20
   2   2   7    0.84    0.21
   2   2   7    0.74    0.24
  -2   2  -7    0.40    0.17
  -3  -2  -7   54.61    3.14
   3  -2   7   52.01    3.11
   3  -2   7   54.01    2.99
  -3  -2  -7   55.86    3.09
   3  -2   7   51.54    3.07
   3  -2   7   50.87    2.97
  -3  -2  -7   48.51    3.03
  -3   2  -7   55.68    3.01
   3   2   7   48.44    3.05
  -3   2  -7   44.87    3.01
   3   2   7   51.79    3.05
   3   2   7   53.66    3.09
   4  -2   7    7.92    0.76
  -4  -2  -7    9.04    0.65
   4  -2   7    8.95    0.59
  -4  -2  -7    9.03    0.78
  -4  -2  -7    7.77    0.71
   4  -2   7    8.70    0.64
  -4   2  -7    8.19    0.63
   4   2   7    7.32    0.72
  -4   2  -7    8.22    0.65
   4   2   7    9.74    0.69
   4   2   7    8.41    0.75
  -5  -2  -7    0.10    0.24
  -5  -2  -7    0.44    0.31
  -5  -2  -7    0.69    0.32
   5  -2   7    0.29    0.24
   5  -2   7    0.39    0.35
   5  -2   7    0.35    0.17
   5  -2   7    0.27    0.26
  -5   2  -7    0.42    0.23
   5   2   7    0.12    0.26
  -5   2  -7    0.30    0.26
   5   2   7    0.07    0.20
   5   2   7    0.39    0.22
   6  -2   7    0.17    0.44
   6  -2   7    0.73    0.31
  -6  -2  -7    0.30    0.32
  -6  -2  -7    0.79    0.40
   6  -2   7    0.96    0.24
   6  -2   7    0.34    0.30
  -6  -2  -7    0.46    0.28
   6   2   7    0.66    0.29
  -6   2  -7    0.75    0.29
   6   2   7    0.56    0.35
  -6   2  -7    0.89    0.33
   7  -2   7    0.57    0.32
  -7  -2  -7    2.05    0.53
  -7  -2  -7    1.06    0.40
   7  -2   7    1.05    0.29
   7  -2   7    0.78    0.38
   7  -2   7    0.77    0.55
   7   2   7    1.07    0.34
  -7   2  -7    1.28    0.42
   7   2   7    1.06    0.48
  -7   2  -7    1.26    0.38
   8  -2   7    0.54    0.67
   8  -2   7    1.39    0.48
  -8  -2  -7    1.65    0.54
   8  -2   7    1.07    0.36
   8  -2   7    0.90    0.45
  -8   2  -7    1.00    0.49
  -8   2  -7    0.37    0.38
   8   2   7    1.12    0.39
   8   2   7    0.27    0.54
  -9  -2  -7    5.55    0.93
  -9  -2  -7    2.95    0.76
   9  -2   7    3.43    0.66
   9  -2   7    1.84    0.51
   9  -2   7    3.95    0.71
   9  -2   7    2.96    0.92
  -9   2  -7    5.91    1.01
   9   2   7    4.94    0.79
   9   2   7    4.04    0.86
  -9   2  -7    2.53    0.63
  10  -2   7    0.99    0.62
  10  -2   7    1.77    1.16
  10  -2   7    0.75    0.56
  10  -2   7    1.74    0.63
  10   2   7    0.03    0.80
 -10   2  -7    0.80    0.79
  10   2   7    0.56    0.58
  11  -2   7   13.67    1.62
  11  -2   7   13.67    1.57
  11  -2   7   11.89    1.52
  11   2   7   12.65    1.60
  11   2   7   15.01    2.18
 -11   2  -7   12.68    1.57
  12  -2   7    0.89    0.98
  12  -2   7    1.14    0.92
  12  -2   7   -0.39    1.83
  12   2   7    1.52    1.51
  12  -3  -7    1.83    1.01
  12  -3  -7    3.43    0.99
  12  -3  -7    2.09    1.69
 -12  -3   7    4.56    1.06
  12   3  -7    4.94    1.48
  12   3  -7    2.44    0.85
 -12   3   7    0.60    1.43
  11  -3  -7    1.71    0.79
 -11  -3   7    2.35    0.83
  11  -3  -7    2.03    0.72
  11  -3  -7    2.92    1.39
  11   3  -7    0.34    0.67
 -11   3   7    2.95    1.16
  11   3  -7    1.96    1.12
 -11   3   7    3.05    1.26
 -10  -3   7    0.87    0.56
 -10  -3   7    0.78    0.37
  10  -3  -7    0.52    1.37
  10  -3  -7    1.02    0.67
  10  -3  -7    1.59    0.62
 -10  -3   7    1.27    0.64
  10   3  -7    0.34    0.82
  10   3  -7    0.58    0.48
 -10   3   7   -1.57    0.93
 -10   3   7    1.03    0.95
  -9  -3   7    0.33    0.29
  -9  -3   7    1.06    0.44
  -9  -3   7   -0.05    0.46
   9  -3  -7    0.20    0.54
   9  -3  -7    0.49    0.89
  -9   3   7    0.87    0.75
  -9   3   7   -0.28    0.60
   9   3  -7    0.89    0.66
   9   3  -7    0.59    0.42
  -9   3   7   -0.29    0.74
   8  -3  -7    3.51    0.96
   8  -3  -7    3.98    0.65
  -8   3   7    3.89    0.84
  -8   3   7    3.65    0.65
  -8   3   7    4.82    0.87
   8   3  -7    4.96    0.79
   8   3  -7    3.97    0.56
   7  -3  -7    1.05    0.48
  -7  -3   7    1.47    0.33
   7  -3  -7    1.64    0.63
  -7   3   7    0.61    0.28
  -7   3   7    1.17    0.59
   7   3  -7    1.22    0.31
  -7   3   7    0.82    0.44
   7   3  -7    1.22    0.49
  -7   3   7    0.40    0.59
   6  -3  -7    1.16    0.60
   6  -3  -7    0.48    0.36
  -6  -3   7    0.84    0.28
  -6   3   7    0.39    0.41
  -6   3   7    0.36    0.48
   6   3  -7    0.77    0.25
   6   3  -7    1.16    0.42
  -6   3   7    1.84    0.53
  -6   3   7    0.50    0.25
   5  -3  -7   13.53    1.43
  -5  -3   7   17.10    1.07
   5  -3  -7   17.35    1.21
  -5   3   7   17.08    1.25
  -5   3   7   18.79    1.37
  -5   3   7   15.43    1.15
   5   3  -7   18.08    1.24
   5   3  -7   17.64    1.08
   4  -3  -7    0.53    0.28
   4  -3  -7    0.27    0.47
  -4   3   7    0.82    0.51
   4   3  -7    0.38    0.30
   4   3  -7    0.97    0.31
   4   3  -7    0.65    0.16
  -4   3   7    0.01    0.36
  -4   3   7    0.81    0.28
   3  -3  -7    5.35    0.56
   3  -3  -7    5.65    0.58
   3  -3  -7    5.94    0.64
   3  -3  -7    6.08    0.81
  -3   3   7    5.93    0.60
  -3   3   7    5.85    0.95
  -3   3   7    6.55    0.73
   3   3  -7    4.90    0.59
  -3   3   7    5.98    0.77
  -3   3   7    6.20    0.63
   2  -3  -7    0.80    0.26
  -2  -3   7    0.95    0.18
   2  -3  -7    0.72    0.26
   2  -3  -7    0.94    0.30
  -2   3   7    0.80    0.28
  -2   3   7    0.44    0.34
  -2   3   7    0.10    0.39
  -2   3   7    0.93    0.32
   2   3  -7    0.29    0.23
   1  -3  -7   21.77    1.51
  -1  -3   7   25.19    1.38
   1  -3  -7   25.27    1.57
   1  -3  -7   21.09    1.46
  -1   3   7   22.44    1.55
   1   3  -7   24.65    1.53
  -1   3   7   25.03    1.59
  -1   3   7   22.88    1.51
   0  -3  -7    9.39    0.84
   0  -3  -7    8.23    0.69
   0  -3  -7    8.18    0.76
   0  -3   7    8.78    0.83
   0  -3   7    9.19    0.57
   0  -3  -7    8.75    0.68
   0   3  -7    9.01    0.71
   0   3   7    8.29    0.71
   0   3   7    8.81    0.75
   0   3   7    8.80    0.97
   0   3   7    9.21    0.78
   1  -3   7   33.40    2.15
   1  -3   7   34.15    1.93
  -1  -3  -7   28.28    2.02
  -1  -3  -7   31.55    2.08
  -1  -3  -7   32.91    2.14
   1   3   7   33.59    2.05
   1   3   7   33.47    2.08
   1   3   7   35.37    2.05
  -1   3  -7   36.23    2.06
   2  -3   7   16.47    1.36
   2  -3   7   19.26    1.16
  -2  -3  -7   20.16    1.33
  -2  -3  -7   16.39    1.61
  -2  -3  -7   21.55    1.27
  -2   3  -7   19.08    1.16
  -2   3  -7   18.73    1.26
   2   3   7   18.29    1.29
   2   3   7   20.40    1.27
   2   3   7   19.59    1.26
   3  -3   7    1.35    0.29
   3  -3   7    0.89    0.38
  -3  -3  -7    0.84    0.27
  -3  -3  -7    0.64    0.38
  -3  -3  -7    0.59    0.34
   3  -3   7    1.50    0.25
   3   3   7    0.90    0.31
   3   3   7    0.96    0.26
   3   3   7    1.11    0.28
  -3   3  -7    1.05    0.23
  -3   3  -7    1.04    0.25
  -3   3  -7    0.90    0.21
  -4  -3  -7    3.04    0.43
   4  -3   7    3.62    0.65
   4  -3   7    3.48    0.59
  -4  -3  -7    4.41    0.58
  -4  -3  -7    4.04    0.64
   4   3   7    4.01    0.54
  -4   3  -7    3.83    0.43
  -4   3  -7    3.72    0.49
   4   3   7    2.92    0.47
  -4   3  -7    2.48    0.38
   4   3   7    3.28    0.48
  -5  -3  -7    2.61    0.43
  -5  -3  -7    3.00    0.50
   5  -3   7    2.75    0.53
   5  -3   7    2.87    0.55
   5   3   7    2.29    0.39
   5   3   7    3.05    0.56
  -5   3  -7    2.57    0.39
   5   3   7    2.61    0.40
  -6  -3  -7    4.67    0.69
  -6  -3  -7    1.79    0.40
   6  -3   7    2.59    0.35
   6  -3   7    3.07    0.43
   6  -3   7    3.46    0.70
   6  -3   7    2.88    0.56
   6   3   7    2.66    0.45
  -6   3  -7    4.47    0.55
   6   3   7    3.15    0.52
   6   3   7    2.99    0.54
  -6   3  -7    3.22    0.50
  -7  -3  -7    0.12    0.32
   7  -3   7    0.71    0.64
   7  -3   7    1.00    0.40
   7  -3   7    0.64    0.50
  -7  -3  -7    1.27    0.44
   7   3   7    0.37    0.37
  -7   3  -7    1.06    0.39
   7   3   7   -0.26    0.46
   7   3   7    0.13    0.33
  -7   3  -7    0.46    0.37
   8  -3   7   -0.18    0.53
  -8  -3  -7    0.66    0.69
   8  -3   7    1.52    0.79
   8  -3   7    1.29    0.46
  -8  -3  -7    0.79    0.62
   8  -3   7    0.73    0.32
  -8   3  -7    1.18    0.47
  -8   3  -7    0.41    0.52
   8   3   7    1.05    0.61
   8   3   7    0.93    0.45
   8   3   7    1.37    0.53
   9  -3   7    7.85    1.28
  -9  -3  -7    7.92    1.19
   9  -3   7    4.96    0.79
   9  -3   7    6.92    1.02
   9  -3   7    6.17    0.99
   9   3   7    6.15    0.96
  -9   3  -7    7.63    1.23
   9   3   7    6.12    1.02
  10  -3   7    0.88    1.30
  10  -3   7    0.29    0.76
  10  -3   7   -1.09    0.55
 -10   3  -7    0.08    0.87
  10   3   7    1.36    0.64
  10   3   7    0.29    0.90
  11  -3   7    0.96    1.05
  11  -3   7    0.03    0.89
  11  -3   7   -1.14    1.75
  11   3   7    0.29    0.75
  11   3   7    1.81    1.33
  12  -4  -7   -1.09    1.13
  12  -4  -7   -0.18    2.04
  12   4  -7   -0.10    0.87
 -12   4   7    1.41    2.51
  12   4  -7    2.54    1.63
  11  -4  -7    1.23    1.56
  11  -4  -7    2.27    0.94
  11   4  -7    0.71    0.79
 -11   4   7    0.95    1.51
  11   4  -7    3.59    1.35
  10  -4  -7    0.30    0.74
  10   4  -7    0.23    0.94
 -10   4   7   -1.01    1.14
  10   4  -7    0.44    0.57
 -10   4   7   -1.49    1.04
   9  -4  -7    1.43    1.05
   9  -4  -7    1.15    0.65
  -9  -4   7    0.93    0.59
  -9   4   7   -0.03    0.96
   9   4  -7    1.25    0.81
   9   4  -7    1.15    0.47
  -9   4   7   -0.86    1.00
   8  -4  -7    1.05    0.56
   8  -4  -7    0.49    0.98
  -8   4   7    0.94    0.90
   8   4  -7    1.61    0.43
  -8   4   7    2.40    0.94
  -8   4   7    1.20    0.76
  -8   4   7    0.75    0.41
   8   4  -7    1.42    0.77
   7  -4  -7    4.14    0.68
  -7  -4   7    4.20    0.62
   7  -4  -7    2.97    0.90
  -7   4   7    2.92    0.87
   7   4  -7    3.75    0.72
  -7   4   7    3.56    0.91
   7   4  -7    3.79    0.57
  -7   4   7    3.72    0.80
  -7   4   7    4.69    0.66
   6  -4  -7    7.63    0.87
   6  -4  -7    7.53    1.28
   6   4  -7    7.52    0.92
  -6   4   7    7.64    0.99
   6   4  -7    8.09    0.69
  -6   4   7    9.06    1.14
  -6   4   7    7.99    1.11
  -6   4   7    8.83    0.84
   5  -4  -7    0.41    0.66
   5  -4  -7    0.96    0.39
   5  -4  -7    0.57    0.33
  -5   4   7    0.37    0.60
  -5   4   7    0.49    0.49
   5   4  -7    0.88    0.40
   5   4  -7    0.95    0.23
  -5   4   7    1.51    0.40
  -5   4   7    0.60    0.43
   4  -4  -7    1.05    0.34
   4  -4  -7    0.84    0.36
  -4  -4   7    0.70    0.26
   4   4  -7    1.04    0.19
  -4   4   7    0.41    0.62
  -4   4   7    0.62    0.51
  -4   4   7    0.97    0.49
  -4   4   7    0.65    0.42
  -4   4   7    0.35    0.38
   3  -4  -7   25.18    1.84
   3  -4  -7   29.34    1.80
  -3  -4   7   27.90    1.71
  -3   4   7   25.15    1.93
  -3   4   7   32.18    2.10
  -3   4   7   32.04    2.03
  -3   4   7   29.27    1.99
  -3   4   7   29.02    1.90
   2  -4  -7    2.84    0.43
   2  -4  -7    2.16    0.40
  -2  -4   7    3.22    0.33
  -2   4   7    2.56    0.55
  -2   4   7    2.12    0.52
  -2   4   7    3.06    0.58
  -2   4   7    2.81    0.49
  -2   4   7    1.72    0.61
   1  -4  -7    0.54    0.30
  -1  -4   7    0.62    0.18
   1  -4  -7    0.27    0.23
   1  -4  -7   -0.08    0.30
  -1   4   7    0.61    0.35
  -1   4   7   -0.47    0.51
  -1   4   7    0.47    0.36
   1   4  -7    0.02    0.28
  -1   4   7    0.90    0.31
   0  -4   7   10.26    0.67
   0  -4  -7    9.18    0.85
   0  -4  -7    8.84    0.79
   0   4   7   10.34    0.85
   0   4   7    9.01    0.88
   0   4   7   12.28    1.24
   0   4  -7   10.10    0.86
   0   4   7    9.34    0.89
  -1  -4  -7    1.55    0.50
  -1  -4  -7    1.15    0.38
  -1  -4  -7    1.11    0.33
   1  -4   7    1.51    0.24
   1   4   7    1.23    0.38
   1   4   7    1.08    0.32
  -1   4  -7    1.86    0.37
   1   4   7    1.00    0.36
   1   4   7    0.38    0.57
  -2  -4  -7    4.33    0.74
  -2  -4  -7    3.56    0.52
   2  -4   7    4.61    0.43
   2  -4   7    5.26    0.84
  -2  -4  -7    5.97    0.68
   2   4   7    4.19    0.61
   2   4   7    3.36    0.57
  -2   4  -7    5.14    0.44
  -2   4  -7    3.42    0.58
   2   4   7    4.71    0.60
  -3  -4  -7    3.24    0.52
   3  -4   7    3.98    0.71
   3  -4   7    3.66    0.42
  -3  -4  -7    3.51    0.64
  -3  -4  -7    4.16    0.70
  -3   4  -7    5.05    0.57
   3   4   7    3.18    0.50
   3   4   7    3.61    0.57
   3   4   7    3.39    0.55
  -3   4  -7    3.19    0.38
   4  -4   7    3.25    0.74
   4  -4   7    3.71    0.48
  -4  -4  -7    4.66    0.74
  -4  -4  -7    3.42    0.52
  -4   4  -7    4.31    0.50
   4   4   7    3.79    0.60
   4   4   7    3.86    0.56
  -4   4  -7    4.40    0.49
   4   4   7    4.73    0.62
  -5  -4  -7    0.49    0.32
  -5  -4  -7    0.03    0.45
  -5  -4  -7   -0.16    0.52
   5  -4   7    0.90    0.33
   5   4   7    0.60    0.35
  -5   4  -7    0.71    0.30
  -5   4  -7   -0.42    0.30
   5   4   7    0.07    0.34
   6  -4   7   -0.06    0.64
  -6  -4  -7    0.03    0.48
  -6  -4  -7    0.02    0.34
  -6  -4  -7   -0.50    0.56
   6  -4   7    0.62    0.61
   6   4   7   -0.13    0.42
  -6   4  -7   -0.06    0.35
   6   4   7    0.52    0.38
  -6   4  -7    0.35    0.37
   6   4   7    0.59    0.40
  -7  -4  -7    0.15    1.19
   7  -4   7    0.61    0.68
  -7  -4  -7    0.15    0.35
   7  -4   7    0.49    0.85
   7   4   7    0.68    0.49
   7   4   7    0.23    0.41
  -7   4  -7   -0.13    0.44
  -7   4  -7   -0.12    0.47
   8  -4   7    9.22    1.55
   8  -4   7   11.34    1.48
  -8  -4  -7    9.80    0.94
   8   4   7   10.10    1.35
  -8   4  -7   10.77    1.23
   8   4   7    7.92    1.07
  -8   4  -7   10.98    1.21
   9  -4   7   -1.14    1.24
  -9  -4  -7   -0.45    0.93
   9  -4   7    1.01    1.00
   9   4   7   -0.81    0.84
  -9   4  -7    0.14    0.83
   9   4   7   -0.71    0.59
  10  -4   7    8.62    1.55
  10   4   7    5.42    1.36
  10   4   7    6.03    1.03
  10  -5  -7    0.56    0.99
  10  -5  -7    3.64    1.86
  10   5  -7    1.78    0.76
  10   5  -7    3.70    1.36
 -10   5   7    3.13    1.55
   9  -5  -7    2.40    0.77
   9  -5  -7    0.74    1.50
   9  -5  -7   -0.38    0.54
   9   5  -7    1.05    0.64
  -9   5   7    1.00    1.22
   9   5  -7    2.41    1.02
   8  -5  -7    9.53    1.56
   8  -5  -7    7.74    1.00
   8  -5  -7    6.79    0.91
  -8   5   7    6.40    1.33
   8   5  -7   10.11    1.53
   8   5  -7    6.13    0.93
  -8   5   7    7.16    1.19
  -8   5   7    9.39    1.49
   7  -5  -7    0.97    0.51
   7  -5  -7    0.54    0.49
   7  -5  -7    0.48    1.04
  -7   5   7    0.57    0.91
   7   5  -7    3.17    0.76
  -7   5   7    0.71    0.91
   7   5  -7    1.60    0.42
  -7   5   7    2.12    0.58
  -7   5   7    2.66    1.03
   6  -5  -7    3.01    0.66
   6  -5  -7    2.62    1.08
   6  -5  -7    3.41    0.56
  -6   5   7    2.59    0.85
  -6   5   7    2.28    0.88
  -6   5   7    2.40    0.62
   6   5  -7    2.82    0.74
   6   5  -7    2.56    0.42
  -6   5   7    1.92    0.72
   5  -5  -7    2.27    0.46
   5  -5  -7    1.67    0.46
   5   5  -7    2.88    0.64
   5   5  -7    2.10    0.32
  -5   5   7    2.81    0.67
  -5   5   7    3.25    0.79
  -5   5   7    1.89    0.81
  -5   5   7    0.22    0.84
  -4  -5   7    5.02    0.52
   4  -5  -7    4.63    0.60
   4  -5  -7    4.54    0.68
  -4   5   7    4.31    1.16
  -4   5   7    4.25    0.74
  -4   5   7    4.94    0.91
   4   5  -7    5.91    0.96
  -4   5   7    4.55    0.82
   4   5  -7    3.80    0.44
   3  -5  -7    8.22    0.86
   3  -5  -7    7.62    0.71
  -3  -5   7    7.24    0.66
  -3   5   7    8.18    1.04
  -3   5   7   10.87    0.98
  -3   5   7    8.77    1.36
  -3   5   7    9.04    1.15
   3   5  -7    9.43    1.04
   2  -5  -7    1.22    0.41
  -2   5   7    0.77    0.71
   2   5  -7    1.05    0.48
  -2   5   7    1.81    0.55
  -2   5   7    0.98    0.53
  -2   5   7    0.96    0.45
   1  -5  -7    0.55    0.31
  -1  -5   7    0.26    0.24
  -1   5   7    0.80    0.48
   1   5  -7   -0.43    0.44
  -1   5   7    0.02    0.70
  -1   5   7    0.41    0.45
  -1   5   7    0.90    0.43
   0  -5   7   12.42    0.89
   0  -5  -7   13.08    1.05
   0   5  -7   15.20    1.22
   0   5   7   14.26    1.15
   0   5   7   11.11    1.11
   0   5   7   13.97    1.47
   0   5   7   13.60    1.16
  -1  -5  -7    1.71    0.43
  -1  -5  -7    1.10    0.38
   1  -5   7    1.35    0.29
   1   5   7    0.03    0.78
  -1   5  -7    1.37    0.43
   1   5   7    1.00    0.42
   1   5   7    1.32    0.43
   1   5   7    1.51    0.46
  -2  -5  -7    1.13    0.47
   2  -5   7    0.62    0.29
  -2  -5  -7    1.41    0.38
  -2   5  -7    0.47    0.28
  -2   5  -7    0.70    0.44
   2   5   7    0.32    0.41
   2   5   7    0.31    0.78
   2   5   7    0.68    0.40
   2   5   7    0.72    0.49
  -3  -5  -7    1.03    0.48
  -3  -5  -7   -0.20    0.32
   3  -5   7    0.37    0.30
  -3  -5  -7    0.78    0.66
   3   5   7    0.50    0.40
  -3   5  -7    0.06    0.31
   3   5   7    0.30    0.38
   3   5   7    0.08    0.37
  -3   5  -7   -0.34    0.43
   4  -5   7    0.33    0.31
   4  -5   7    0.46    0.74
  -4  -5  -7    1.99    0.72
  -4  -5  -7    0.58    0.35
  -4  -5  -7    0.15    0.56
   4   5   7    1.20    0.43
  -4   5  -7    1.88    0.51
   4   5   7    0.74    0.44
   4   5   7    0.14    0.45
  -4   5  -7   -0.05    0.37
  -5  -5  -7    1.23    0.41
  -5  -5  -7   -0.11    0.58
   5  -5   7    1.11    0.38
   5  -5   7    0.15    0.82
  -5  -5  -7    1.23    0.81
   5   5   7    1.56    0.55
  -5   5  -7    0.80    0.45
   5   5   7    1.12    0.49
   5   5   7    0.72    0.51
  -5   5  -7    2.08    0.42
   6  -5   7    0.76    0.90
  -6  -5  -7   -0.25    0.72
  -6  -5  -7    0.29    0.37
   6  -5   7   -0.36    0.42
   6   5   7    0.29    0.50
   6   5   7    0.05    0.49
  -6   5  -7    0.58    0.44
  -7  -5  -7    2.97    0.58
   7  -5   7    3.75    1.22
  -7  -5  -7    1.67    0.87
   7  -5   7    5.02    1.22
   7  -5   7    2.58    0.60
   7   5   7    3.06    0.64
   7   5   7    1.18    0.76
  -7   5  -7    3.73    0.69
  -7   5  -7    3.46    0.72
   8  -5   7    2.10    0.64
   8  -5   7    4.41    1.29
   8   5   7    2.28    0.90
   8   5   7    1.08    0.71
   9  -5   7   -0.67    0.59
   9  -5   7   -0.17    1.30
   9   5   7   -0.15    0.77
   9   5   7   -1.03    1.12
   8  -6  -7    1.78    0.68
  -8   6   7    3.04    1.46
  -8   6   7    3.51    1.44
   7  -6  -7    0.22    0.46
   7  -6  -7    0.30    0.55
  -7   6   7    0.67    1.14
  -7   6   7    0.30    1.27
   7   6  -7    1.97    0.56
   6  -6  -7    0.26    0.47
  -6   6   7   -0.76    1.22
  -6   6   7    0.43    1.07
  -6   6   7   -0.57    1.03
   6   6  -7   -0.02    0.41
   5  -6  -7    0.84    0.45
  -5   6   7    1.21    1.00
  -5   6   7    0.43    0.90
   5   6  -7    1.18    0.34
  -5   6   7    2.53    1.06
   5   6  -7   -0.06    0.86
   4  -6  -7    0.68    0.46
  -4  -6   7    0.19    0.34
  -4   6   7   -0.34    0.75
  -4   6   7    0.90    0.83
   4   6  -7   -1.23    0.74
  -4   6   7    0.45    0.83
   3  -6  -7    0.87    0.48
  -3  -6   7    0.43    0.34
  -3   6   7    1.74    0.71
  -3   6   7    0.57    0.74
  -3   6   7    1.00    1.12
   3   6  -7   -0.33    0.76
  -3   6   7   -0.53    0.97
  -3   6   7   -0.22    0.87
   2  -6  -7    0.30    0.43
  -2  -6   7   -0.07    0.30
   2   6  -7    0.89    0.69
  -2   6   7   -0.08    0.59
  -2   6   7    0.53    0.82
  -2   6   7    0.31    0.70
  -2   6   7   -0.02    0.58
  -2   6   7    1.42    0.97
   1  -6  -7    3.45    0.64
  -1  -6   7    5.16    0.56
  -1   6   7    4.74    1.06
  -1   6   7    3.13    1.11
  -1   6   7    4.80    0.82
  -1   6   7    5.30    0.99
  -1   6   7    6.28    0.85
   0  -6   7    1.88    0.35
   0  -6  -7    0.81    0.51
   0   6   7    0.46    0.98
   0   6   7    0.79    0.56
   0   6   7    1.07    0.63
   0   6  -7    0.19    0.63
   0   6   7    1.84    0.65
   0   6   7    1.31    1.33
  -1  -6  -7    1.86    0.51
   1  -6   7    2.73    0.41
   1   6   7    2.97    1.05
   1   6   7    2.63    0.60
   1   6   7    3.91    0.82
   1   6   7    1.21    0.61
   2  -6   7    6.78    0.70
  -2  -6  -7    5.43    0.75
   2   6   7    6.38    0.93
  -2   6  -7    8.85    1.01
   2   6   7    7.30    0.94
   2   6   7    5.55    1.31
  -2   6  -7    7.44    0.81
   2   6   7    7.89    1.16
  -3  -6  -7    0.37    0.42
   3  -6   7   -0.04    0.37
   3   6   7   -0.40    0.45
   3   6   7    0.75    0.67
   3   6   7    0.51    1.25
   3   6   7   -0.42    0.53
  -3   6  -7   -0.45    0.53
  -4  -6  -7    2.05    0.51
   4  -6   7    3.30    0.53
   4   6   7    3.15    0.67
   4   6   7    1.59    0.65
  -4   6  -7    1.60    0.61
   5  -6   7    0.04    0.43
  -5  -6  -7   -0.57    0.40
   5   6   7   -0.29    0.63
   5   6   7   -1.00    0.56
   6  -6   7    3.33    0.62
   6   6   7    2.24    0.78
   6   6   7    3.57    0.77
  -6   6  -7    4.24    0.84
   7  -6   7    2.62    0.67
  -7  -6  -7    1.09    0.63
   7   6   7    1.98    0.81
   7   6   7    1.37    0.95
   5  -7  -7    1.28    0.72
  -5   7   7    3.86    1.27
  -5   7   7    1.67    1.42
   4  -7  -7    1.83    0.68
  -4  -7   7    1.05    0.49
  -4   7   7    0.07    1.19
  -3  -7   7   -0.48    0.44
  -3   7   7    0.79    0.98
  -3   7   7   -0.04    0.85
  -2  -7   7    0.92    0.40
   2  -7  -7    1.22    0.69
  -2   7   7    1.73    0.84
  -2   7   7    0.63    0.93
  -1  -7   7    0.27    0.43
   1  -7  -7   -0.21    0.49
  -1   7   7   -1.10    0.85
  -1   7   7    0.28    0.71
   0  -7  -7    1.96    0.77
   0  -7   7    1.39    0.44
   0   7   7    2.78    0.89
   0   7   7    3.20    0.77
  -1  -7  -7    2.45    1.00
   1  -7   7    1.91    0.48
   1   7   7    1.66    0.79
   1   7   7    2.13    0.77
  -2  -7  -7    1.46    0.61
   2  -7   7    1.54    0.48
   2   7   7    1.53    0.81
   2   7   7    1.46    0.69
   3  -7   7    5.94    0.85
  -3  -7  -7    6.49    0.98
   3   7   7    6.82    1.21
   3   7   7    8.58    1.42
   4  -7   7    5.89    0.86
  -4  -7  -7    3.24    0.77
   4   7   7    4.58    1.03
   4   7   7    4.39    0.91
  14   0  -8    1.11    2.05
 -14   0   8    0.79    1.61
  13   0  -8    1.78    1.33
 -13   0   8   -0.60    1.18
  13   0  -8    1.28    0.59
  13   0  -8    0.47    0.93
  12   0  -8    8.38    0.90
 -12   0   8    7.18    1.30
  12   0  -8    7.74    1.50
  12   0  -8    9.08    1.23
 -12   0   8    7.25    1.24
  11   0  -8    1.93    0.42
 -11   0   8    2.39    0.85
 -11   0   8    1.80    0.53
 -11   0   8    3.98    0.80
  11   0  -8    1.04    0.64
  11   0  -8    2.26    0.91
  10   0  -8   15.31    1.36
  10   0  -8   19.35    1.82
 -10   0   8   18.02    1.51
  10   0  -8   15.06    1.14
 -10   0   8   18.54    1.65
  -9   0   8    0.08    0.50
   9   0  -8   -0.09    0.39
  -9   0   8    0.75    0.48
   9   0  -8    0.89    0.63
  -9   0   8    0.70    0.32
   9   0  -8    0.16    0.22
   8   0  -8   11.69    1.38
  -8   0   8   15.84    1.07
   8   0  -8   14.90    1.15
   8   0  -8   15.30    0.96
  -8   0   8   15.09    1.28
   7   0  -8   48.04    2.89
  -7   0   8   51.36    2.98
  -7   0   8   48.24    3.11
   7   0  -8   52.00    3.23
  -7   0   8   53.67    3.13
   7   0  -8   46.79    3.04
   6   0  -8   14.09    1.34
  -6   0   8   18.87    1.15
  -6   0   8   15.81    1.26
  -6   0   8   20.07    1.31
   6   0  -8   16.97    1.20
   6   0  -8   17.41    1.04
   5   0  -8   21.17    1.58
   5   0  -8   23.58    1.47
  -5   0   8   23.07    1.54
  -5   0   8   23.05    1.42
  -5   0   8   22.27    1.51
   4   0  -8    4.05    0.46
  -4   0   8    4.13    0.49
  -4   0   8    2.92    0.51
  -4   0   8    4.02    0.40
   4   0  -8    4.32    0.43
   4   0  -8    5.13    0.61
  -3   0   8    8.05    0.63
  -3   0   8   10.37    0.76
   3   0  -8    8.33    0.75
  -3   0   8    8.18    0.66
   3   0  -8    9.23    0.68
   3   0  -8    8.83    0.65
   2   0  -8  173.91    9.93
   2   0  -8  179.06    9.97
   2   0  -8  163.24    9.90
  -2   0   8  185.62    9.97
  -2   0   8  176.05    9.90
  -2   0   8  178.46    9.90
  -2   0   8  163.78    9.94
  -1   0   8    2.43    0.36
   1   0  -8    1.83    0.28
  -1   0   8    1.97    0.25
   1   0  -8    1.96    0.33
  -1   0   8    1.64    0.30
   1   0  -8    1.77    0.26
  -1   0   8    1.80    0.24
   1   0  -8    2.04    0.24
   0   0   8   76.96    4.73
   0   0  -8   88.15    4.72
   0   0  -8   73.94    4.70
   0   0   8   86.49    4.72
   0   0   8   84.99    4.69
  -1   0  -8   28.10    1.74
   1   0   8   29.88    1.76
  -1   0  -8   31.46    1.80
   1   0   8   27.65    1.71
  -1   0  -8   27.71    1.69
  -1   0  -8   29.35    1.74
   1   0   8   29.97    1.74
  -2   0  -8   44.90    2.53
   2   0   8   44.79    2.51
   2   0   8   42.01    2.54
  -2   0  -8   44.23    2.47
  -2   0  -8   43.93    2.54
   2   0   8   43.78    2.53
  -2   0  -8   37.64    2.55
  -3   0  -8  186.95   10.65
  -3   0  -8  180.76   10.69
  -3   0  -8  203.52   10.74
   3   0   8  208.51   10.71
   3   0   8  180.86   10.68
   3   0   8  169.47   10.71
   4   0   8    4.21    0.42
   4   0   8    4.19    0.50
  -4   0  -8    3.86    0.49
   4   0   8    4.10    0.42
  -4   0  -8    4.12    0.44
   5   0   8    2.50    0.40
   5   0   8    2.59    0.38
  -5   0  -8    2.85    0.49
   5   0   8    2.81    0.50
  -5   0  -8    3.47    0.52
   6   0   8    0.64    0.28
   6   0   8    0.65    0.37
   6   0   8    0.73    0.27
  -6   0  -8    1.10    0.35
  -6   0  -8    0.52    0.24
   7   0   8    0.71    0.29
  -7   0  -8    0.55    0.39
   7   0   8    0.51    0.45
   7   0   8    0.64    0.30
   8   0   8    1.11    0.59
   8   0   8    2.52    0.49
  -8   0  -8    1.36    0.48
   9   0   8    1.30    0.76
   9   0   8    0.65    0.43
   9   0   8    0.74    0.45
  -9   0  -8    0.03    0.58
  -9   0  -8    1.57    0.51
  10   0   8    1.64    0.57
  10   0   8    2.84    0.94
 -10   0  -8    1.54    0.87
  10   0   8    2.62    0.66
  11   0   8    3.04    1.22
  11   0   8    5.16    0.96
  11   0   8    6.30    1.05
  12   0   8    1.85    1.43
  12   0   8    1.09    0.99
  12   0   8    2.70    0.83
  13  -1  -8   10.56    1.61
 -13  -1   8    8.36    1.48
  13  -1  -8    5.85    1.89
  13  -1  -8    7.98    1.34
 -13   1   8    8.41    1.80
  13   1  -8    9.89    1.57
  13   1  -8    8.79    0.99
  13   1  -8    8.07    1.69
  12  -1  -8    3.81    0.75
  12  -1  -8    3.81    1.34
  12  -1  -8    4.09    0.92
 -12  -1   8    5.13    0.75
 -12  -1   8    4.93    1.07
 -12   1   8    4.15    1.15
  12   1  -8    3.90    0.57
  12   1  -8    4.65    0.90
  12   1  -8    2.98    1.29
  11  -1  -8    0.56    1.06
  11  -1  -8    1.37    0.48
 -11  -1   8    0.31    0.85
  11  -1  -8    1.03    0.62
  11   1  -8    1.61    0.94
  11   1  -8    1.62    0.58
 -11   1   8    2.13    0.85
  11   1  -8    1.23    0.34
 -11   1   8    0.47    0.57
 -11   1   8    1.75    0.91
  10  -1  -8    2.94    0.60
  10  -1  -8    4.02    0.56
 -10  -1   8    3.00    0.49
 -10  -1   8    3.19    0.77
  10   1  -8    3.75    0.47
  10   1  -8    2.78    0.70
 -10   1   8    3.98    0.87
 -10   1   8    2.66    0.85
 -10   1   8    4.92    0.76
  -9  -1   8    1.29    0.57
   9  -1  -8    1.07    0.74
   9  -1  -8    1.59    0.46
  -9  -1   8    1.52    0.35
   9  -1  -8    1.30    0.37
  -9   1   8    0.75    0.57
  -9   1   8    1.21    0.64
   9   1  -8    1.79    0.45
  -9   1   8    0.51    0.41
   9   1  -8    2.26    0.73
  -8  -1   8   97.11    5.98
   8  -1  -8  100.48    5.85
  -8  -1   8   99.75    5.84
  -8  -1   8   96.49    5.96
  -8   1   8  102.59    6.08
  -8   1   8  102.53    5.93
   8   1  -8  114.44    6.14
   8   1  -8   98.71    5.95
   7  -1  -8   20.91    1.42
   7  -1  -8   25.45    1.82
   7  -1  -8   21.99    1.55
  -7  -1   8   22.50    1.56
  -7  -1   8   21.11    1.55
  -7  -1   8   20.21    1.40
  -7   1   8   23.70    1.52
  -7   1   8   19.65    1.63
   7   1  -8   25.68    1.72
   7   1  -8   23.07    1.52
  -7   1   8   25.66    1.70
   6  -1  -8   35.90    2.12
   6  -1  -8   31.47    1.99
  -6  -1   8   32.78    2.09
   6  -1  -8   27.78    2.23
  -6  -1   8   35.62    1.99
   6   1  -8   34.54    2.07
  -6   1   8   31.26    2.19
  -6   1   8   36.26    2.09
  -6   1   8   34.38    2.20
  -5  -1   8    5.26    0.42
  -5  -1   8    5.74    0.54
   5  -1  -8    6.29    0.79
  -5  -1   8    5.74    0.58
   5  -1  -8    5.25    0.56
   5   1  -8    5.46    0.52
   5   1  -8    4.97    0.70
  -5   1   8    4.87    0.54
  -5   1   8    5.97    0.67
   4  -1  -8   61.71    3.82
  -4  -1   8   65.29    3.83
  -4  -1   8   64.96    3.73
  -4  -1   8   62.46    3.77
   4  -1  -8   66.76    3.88
   4  -1  -8   71.75    3.95
  -4   1   8   66.95    3.82
   4   1  -8   67.96    3.83
  -4   1   8   65.49    3.87
   4   1  -8   59.54    3.70
  -4   1   8   66.94    3.92
  -4   1   8   65.80    3.71
   4   1  -8   61.45    3.78
  -3  -1   8   71.20    4.06
   3  -1  -8   67.97    4.19
   3  -1  -8   67.76    4.15
  -3  -1   8   71.53    4.16
  -3  -1   8   71.67    4.08
  -3   1   8   66.67    4.18
   3   1  -8   74.96    4.14
  -3   1   8   77.08    4.26
  -3   1   8   72.33    4.16
   3   1  -8   70.50    4.05
   3   1  -8   71.61    4.11
  -3   1   8   72.26    4.08
  -2  -1   8   89.48    4.66
  -2  -1   8   83.33    4.57
  -2  -1   8   79.08    4.60
  -2  -1   8   81.25    4.57
   2  -1  -8   72.76    4.65
  -2  -1   8   69.07    4.64
   2  -1  -8   82.12    4.70
  -2   1   8   90.62    4.75
  -2   1   8   75.15    4.72
   2   1  -8   83.66    4.63
   2   1  -8   84.20    4.58
  -2   1   8   75.33    4.66
   2   1  -8   77.47    4.67
   2   1  -8   85.00    4.62
   1  -1  -8   16.62    1.13
  -1  -1   8   16.56    1.02
  -1  -1   8   15.65    0.95
  -1  -1   8   15.07    1.01
   1  -1  -8   18.25    1.04
  -1  -1   8   16.47    0.97
   1  -1  -8   15.03    1.05
   1  -1  -8   17.11    1.10
  -1   1   8   18.46    1.19
  -1   1   8   18.44    1.07
  -1   1   8   16.31    1.11
  -1   1   8   15.06    1.06
   1   1  -8   15.98    1.00
   1   1  -8   15.42    1.01
   0  -1  -8   13.54    0.95
   0  -1   8   12.34    0.83
   0  -1   8   13.07    0.78
   0  -1   8   13.21    0.83
   0  -1  -8   11.26    0.86
   0  -1  -8   13.04    0.90
   0  -1  -8   14.43    0.86
   0   1   8   13.04    0.87
   0   1   8   14.91    0.93
   0   1  -8   13.55    0.81
   0   1   8   13.94    0.88
   0   1  -8   13.00    0.86
   0   1  -8   11.83    0.82
  -1  -1  -8   20.23    1.26
   1  -1   8   18.87    1.21
   1  -1   8   18.87    1.16
  -1  -1  -8   21.51    1.31
   1  -1   8   20.54    1.18
  -1  -1  -8   19.45    1.21
  -1  -1  -8   21.92    1.25
   1  -1   8   18.85    1.20
  -1   1  -8   20.24    1.20
   1   1   8   20.86    1.23
   1   1   8   16.88    1.22
   1   1   8   17.46    1.26
  -1   1  -8   19.53    1.18
  -1   1  -8   21.33    1.24
   2  -1   8   30.79    1.77
   2  -1   8   28.73    1.75
  -2  -1  -8   30.20    1.87
  -2  -1  -8   29.30    1.77
   2  -1   8   29.46    1.80
  -2  -1  -8   29.75    1.82
   2  -1   8   27.85    1.78
  -2   1  -8   30.35    1.76
  -2   1  -8   32.64    1.81
   2   1   8   31.10    1.80
   2   1   8   29.86    1.81
   2   1   8   28.47    1.83
   3  -1   8    1.25    0.27
  -3  -1  -8    0.78    0.24
   3  -1   8    1.54    0.24
  -3  -1  -8    1.01    0.31
   3  -1   8    1.24    0.24
  -3  -1  -8    1.00    0.22
   3  -1   8    1.14    0.21
   3   1   8    1.06    0.26
  -3   1  -8    0.94    0.20
   3   1   8    1.03    0.21
   3   1   8    1.08    0.23
  -4  -1  -8    5.67    0.51
  -4  -1  -8    5.55    0.58
  -4  -1  -8    4.51    0.43
   4  -1   8    4.58    0.48
   4  -1   8    4.99    0.43
   4  -1   8    4.51    0.44
   4  -1   8    4.97    0.54
  -4   1  -8    4.47    0.43
   4   1   8    4.43    0.53
  -4   1  -8    4.58    0.50
   4   1   8    4.98    0.46
   4   1   8    4.40    0.45
   5  -1   8    0.03    0.19
   5  -1   8   -0.02    0.17
  -5  -1  -8    0.27    0.31
  -5  -1  -8    0.40    0.22
   5  -1   8    0.35    0.22
  -5  -1  -8    0.21    0.24
   5  -1   8    0.43    0.32
  -5   1  -8    0.40    0.29
   5   1   8    0.24    0.22
   5   1   8   -0.05    0.25
   5   1   8    0.16    0.20
   6  -1   8    0.05    0.22
  -6  -1  -8   -0.14    0.33
   6  -1   8    0.07    0.23
  -6  -1  -8    0.71    0.29
   6  -1   8   -0.02    0.21
   6  -1   8   -0.05    0.34
  -6   1  -8    0.39    0.30
   6   1   8   -0.08    0.24
   6   1   8    0.18    0.25
   6   1   8    0.02    0.31
  -6   1  -8   -0.02    0.23
   7  -1   8   53.40    3.25
   7  -1   8   54.47    3.27
  -7  -1  -8   54.31    3.32
  -7  -1  -8   56.02    3.25
   7  -1   8   48.66    3.37
   7  -1   8   60.50    3.24
  -7   1  -8   52.14    3.21
   7   1   8   46.68    3.24
   7   1   8   53.09    3.25
   7   1   8   57.10    3.38
   8  -1   8   11.70    1.01
   8  -1   8   11.52    0.96
  -8  -1  -8   11.33    1.17
   8  -1   8   12.34    1.04
  -8  -1  -8   10.90    1.03
   8  -1   8    9.49    1.27
   8   1   8   10.51    1.22
   8   1   8   11.83    1.01
   8   1   8   11.38    1.00
  -8   1  -8   12.35    1.10
  -8   1  -8   11.45    1.02
   9  -1   8    0.47    0.70
   9  -1   8    0.39    0.46
   9  -1   8   -0.31    0.37
  -9  -1  -8    0.83    0.54
   9  -1   8    0.06    0.45
  -9  -1  -8   -0.73    0.61
  -9   1  -8    0.51    0.59
   9   1   8    0.70    0.49
  -9   1  -8   -0.38    0.49
   9   1   8    0.43    0.45
   9   1   8   -0.09    0.58
  10  -1   8    0.28    0.52
  10  -1   8    1.25    0.91
  10  -1   8    0.65    0.52
  10  -1   8    0.68    0.65
  10   1   8    0.56    0.90
 -10   1  -8   -0.08    0.75
  10   1   8    0.33    0.62
  11  -1   8    2.74    1.32
  11  -1   8    5.04    0.86
  11  -1   8    3.25    0.89
  11   1   8    5.24    0.96
  11   1   8    3.99    1.29
  12  -1   8    4.93    1.05
  12  -1   8    2.07    1.68
  12  -1   8    5.20    1.13
  12   1   8    4.24    1.61
  12   1   8    5.00    1.14
  13  -2  -8    1.68    1.19
  13  -2  -8   -0.93    1.79
 -13  -2   8    2.91    1.30
  13   2  -8    0.59    0.98
  13   2  -8    0.46    0.57
  13   2  -8    2.46    1.58
 -13   2   8    1.68    1.68
 -12  -2   8    5.63    1.10
  12  -2  -8    4.94    1.66
  12  -2  -8    8.45    1.28
  12  -2  -8    4.13    1.02
  12   2  -8    5.08    1.39
  12   2  -8    6.62    1.00
 -12   2   8    7.15    1.43
 -11  -2   8   -0.05    0.43
 -11  -2   8   -0.69    0.73
  11  -2  -8   -0.21    0.53
  11  -2  -8   -1.23    1.11
  11  -2  -8   -1.37    0.67
 -11   2   8    2.16    1.03
 -11   2   8    0.44    1.02
  11   2  -8    0.33    0.58
  11   2  -8    2.09    0.99
  10  -2  -8   -0.45    0.57
  10  -2  -8    0.76    0.53
 -10  -2   8    1.24    0.37
 -10  -2   8    1.15    0.61
 -10  -2   8    1.63    0.61
  10   2  -8    0.62    0.53
  10   2  -8    1.28    0.81
 -10   2   8   -0.29    0.50
 -10   2   8    1.19    0.90
 -10   2   8   -0.11    0.79
   9  -2  -8   11.83    1.05
   9  -2  -8   10.37    1.20
  -9  -2   8   11.31    1.10
   9  -2  -8    9.93    1.59
  -9  -2   8   10.56    1.47
  -9  -2   8   10.91    0.85
   9   2  -8   10.32    1.01
   9   2  -8   13.00    1.72
  -9   2   8   12.73    1.38
   8  -2  -8    7.54    1.29
  -8  -2   8    6.93    0.79
  -8  -2   8    6.99    0.76
   8  -2  -8    6.86    0.80
  -8  -2   8    6.70    0.56
   8  -2  -8    5.55    0.75
  -8   2   8    5.93    0.93
   8   2  -8    6.73    0.72
   8   2  -8    6.84    1.04
  -8   2   8    7.30    1.05
  -7  -2   8    1.53    0.38
   7  -2  -8    1.15    0.64
   7  -2  -8    1.36    0.44
  -7  -2   8    0.76    0.33
  -7  -2   8    1.15    0.21
  -7   2   8    0.71    0.52
  -7   2   8    0.58    0.50
   7   2  -8    1.33    0.34
  -7   2   8    0.78    0.37
   7   2  -8    1.35    0.55
  -6  -2   8    5.20    0.41
   6  -2  -8    5.14    0.63
  -6  -2   8    5.18    0.54
  -6  -2   8    6.26    0.64
  -6   2   8    5.42    0.79
   6   2  -8    4.94    0.53
  -6   2   8    6.17    0.47
  -6   2   8    5.15    0.82
   6   2  -8    6.92    0.78
  -6   2   8    5.52    0.67
   5  -2  -8    6.06    0.89
  -5  -2   8    7.30    0.61
   5  -2  -8    7.64    0.70
  -5   2   8    7.53    0.70
   5   2  -8    6.59    0.57
  -5   2   8    6.74    0.78
   5   2  -8    7.34    0.77
  -5   2   8    7.69    0.56
  -5   2   8    7.23    0.89
  -4  -2   8    3.77    0.38
   4  -2  -8    3.13    0.52
   4  -2  -8    3.12    0.48
   4  -2  -8    3.18    0.60
  -4   2   8    2.58    0.48
  -4   2   8    3.82    0.61
  -4   2   8    3.43    0.46
   4   2  -8    3.45    0.38
  -4   2   8    3.06    0.36
   4   2  -8    3.11    0.33
   4   2  -8    2.74    0.41
   4   2  -8    2.92    0.52
   3  -2  -8    9.29    0.95
   3  -2  -8   10.12    0.79
   3  -2  -8   10.02    0.83
   3   2  -8    9.96    0.66
  -3   2   8   10.50    0.87
  -3   2   8    9.58    0.91
   3   2  -8   10.07    0.71
   3   2  -8   10.26    0.77
   3   2  -8   10.32    0.70
  -3   2   8   11.08    0.80
  -3   2   8   10.35    0.75
   2  -2  -8    4.50    0.47
   2  -2  -8    4.93    0.53
  -2   2   8    3.22    0.63
   2   2  -8    5.82    0.43
  -2   2   8    5.01    0.55
  -2   2   8    5.26    0.49
  -2   2   8    4.46    0.60
   1  -2  -8   15.44    1.09
   1  -2  -8   18.10    1.17
  -1  -2   8   17.25    1.13
   1  -2  -8   16.20    1.09
  -1   2   8   16.68    1.11
  -1   2   8   17.48    1.14
   1   2  -8   17.93    1.07
  -1   2   8   15.55    1.17
   0  -2  -8    3.29    0.36
   0  -2   8    2.73    0.40
   0  -2  -8    3.49    0.37
   0  -2  -8    2.75    0.49
   0  -2  -8    3.25    0.43
   0   2   8    3.31    0.41
   0   2  -8    3.27    0.32
   0   2   8    2.73    0.45
   0   2   8    3.06    0.38
   0   2  -8    3.10    0.24
  -1  -2  -8  122.39    6.51
  -1  -2  -8  104.78    6.40
  -1  -2  -8  102.28    6.44
   1  -2   8  112.11    6.45
  -1  -2  -8   99.71    6.39
   1   2   8  117.61    6.43
  -1   2  -8  114.96    6.36
  -1   2  -8  109.00    6.34
  -1   2  -8  119.78    6.40
   1   2   8  105.01    6.40
  -1   2  -8  110.28    6.32
   1   2   8  121.69    6.46
  -2  -2  -8  160.21    9.75
  -2  -2  -8  175.41    9.67
  -2  -2  -8  178.92    9.73
   2  -2   8  165.08    9.64
   2  -2   8  161.30    9.72
   2   2   8  167.93    9.71
   2   2   8  166.23    9.67
   2   2   8  189.24    9.71
  -2   2  -8  166.21    9.61
  -2   2  -8  167.09    9.63
   3  -2   8   10.49    0.82
   3  -2   8   10.86    0.69
  -3  -2  -8    8.23    0.73
   3  -2   8   10.89    0.66
   3  -2   8   10.22    0.79
  -3  -2  -8   10.73    0.86
  -3  -2  -8   10.90    0.82
  -3   2  -8   10.42    0.70
   3   2   8   10.32    0.75
   3   2   8    9.78    0.81
  -3   2  -8   10.14    0.73
   3   2   8   10.44    0.77
   4  -2   8    7.12    0.58
  -4  -2  -8    6.82    0.66
   4  -2   8    7.35    0.53
   4  -2   8    7.77    0.72
   4  -2   8    7.03    0.69
  -4  -2  -8    7.20    0.75
  -4  -2  -8    7.30    0.60
   4   2   8    7.78    0.69
   4   2   8    7.25    0.64
  -4   2  -8    7.32    0.61
  -4   2  -8    6.93    0.58
   5  -2   8    1.89    0.47
   5  -2   8    2.08    0.34
   5  -2   8    1.77    0.30
  -5  -2  -8    2.61    0.39
  -5  -2  -8    1.60    0.38
  -5  -2  -8    2.74    0.52
   5  -2   8    1.61    0.38
   5   2   8    1.51    0.33
   5   2   8    1.80    0.39
   5   2   8    1.69    0.35
  -5   2  -8    1.57    0.34
  -6  -2  -8   43.01    2.58
  -6  -2  -8   45.95    2.73
   6  -2   8   43.46    2.69
   6  -2   8   40.66    2.55
   6  -2   8   43.04    2.60
   6  -2   8   41.70    2.74
  -6  -2  -8   44.44    2.65
  -6   2  -8   41.87    2.58
   6   2   8   42.71    2.62
  -6   2  -8   44.82    2.62
   6   2   8   38.98    2.68
   7  -2   8   74.07    3.99
   7  -2   8   63.31    3.88
  -7  -2  -8   55.22    3.95
   7  -2   8   67.33    4.06
   7  -2   8   63.73    3.96
   7   2   8   73.64    4.03
  -7   2  -8   63.69    3.90
   7   2   8   62.82    3.89
  -7   2  -8   62.41    3.85
  -8  -2  -8    2.25    0.64
   8  -2   8    0.77    0.34
  -8  -2  -8    0.85    0.53
   8  -2   8    0.92    0.40
   8  -2   8    1.47    0.47
   8  -2   8    0.30    0.66
   8   2   8    0.61    0.58
  -8   2  -8    0.34    0.51
   8   2   8    0.94    0.40
   8   2   8    1.15    0.40
  -8   2  -8    0.22    0.39
   9  -2   8    0.37    0.86
   9  -2   8    1.68    0.57
  -9  -2  -8    0.44    0.61
   9  -2   8   -0.18    0.39
   9  -2   8    1.82    0.60
   9   2   8    1.83    0.70
  -9   2  -8    1.10    0.66
   9   2   8    0.75    0.50
  -9   2  -8    2.09    0.88
  10  -2   8   -0.44    1.06
  10  -2   8   -0.59    0.52
  10  -2   8   -0.36    0.54
  10  -2   8   -0.23    0.66
  10   2   8    0.02    0.88
  10   2   8    1.01    0.63
  11  -2   8    2.01    1.58
  11  -2   8    1.35    0.83
  11  -2   8    0.48    0.79
  11   2   8   -0.11    0.74
 -11   2  -8   -1.54    1.35
  11   2   8    0.42    1.18
  12  -3  -8    2.99    1.02
  12  -3  -8    3.92    1.81
  12  -3  -8    4.29    1.03
 -12  -3   8    5.50    0.99
 -12   3   8    4.60    1.63
  12   3  -8    6.22    1.52
  12   3  -8    4.55    1.02
  11  -3  -8    4.90    0.97
 -11  -3   8    4.58    0.75
  11  -3  -8    3.60    1.61
  11  -3  -8    4.61    0.95
  11   3  -8    4.42    0.89
 -11   3   8    4.43    1.38
  11   3  -8    5.39    1.28
 -11   3   8    5.83    1.25
 -10  -3   8   -0.25    0.64
 -10  -3   8    0.12    0.34
  10  -3  -8    0.06    0.57
  10  -3  -8    1.27    1.34
 -10  -3   8    0.63    0.52
  10   3  -8   -0.18    0.54
 -10   3   8    2.42    0.94
 -10   3   8   -1.86    0.90
  10   3  -8    1.61    0.86
  -9  -3   8    4.89    0.87
   9  -3  -8    3.79    1.10
   9  -3  -8    8.04    1.00
   9   3  -8    5.58    0.81
  -9   3   8    5.25    1.04
  -9   3   8    6.37    1.11
   8  -3  -8   11.60    1.57
   8  -3  -8   14.52    1.28
   8   3  -8   13.55    1.11
   8   3  -8   17.49    1.43
  -7  -3   8    1.04    0.32
   7  -3  -8    1.03    0.68
   7  -3  -8    0.43    0.41
   7   3  -8    1.44    0.56
  -7   3   8    0.55    0.44
  -7   3   8   -0.40    0.51
  -7   3   8    0.93    0.27
   7   3  -8    0.76    0.31
  -6  -3   8    0.20    0.23
   6  -3  -8   -0.02    0.34
   6  -3  -8   -0.10    0.55
  -6   3   8    0.33    0.24
   6   3  -8    0.37    0.42
  -6   3   8    0.36    0.54
  -6   3   8    0.05    0.37
   6   3  -8    0.34    0.24
  -6   3   8    0.76    0.47
   5  -3  -8   12.73    1.04
   5  -3  -8   16.74    1.35
   5   3  -8   13.55    1.05
   5   3  -8   12.96    0.90
  -5   3   8   12.62    1.19
  -5   3   8   14.27    1.00
   5   3  -8   12.77    1.01
  -5   3   8   14.48    1.09
   4  -3  -8   -0.30    0.49
   4  -3  -8    0.21    0.26
   4  -3  -8   -0.50    0.26
   4   3  -8   -0.12    0.27
  -4   3   8   -0.11    0.35
  -4   3   8   -0.40    0.49
   4   3  -8    0.04    0.15
  -4   3   8    0.03    0.26
  -4   3   8   -0.13    0.31
   3  -3  -8    1.04    0.29
   3  -3  -8    1.15    0.32
   3  -3  -8    0.58    0.31
   3   3  -8    1.05    0.29
  -3   3   8    1.49    0.35
  -3   3   8    0.58    0.47
  -3   3   8    1.06    0.46
  -3   3   8    1.03    0.45
  -3   3   8    1.18    0.30
   2  -3  -8    2.85    0.41
   2  -3  -8    3.18    0.53
   2  -3  -8    2.81    0.42
   2   3  -8    2.71    0.39
  -2   3   8    1.93    0.52
  -2   3   8    2.58    0.41
  -2   3   8    2.23    0.45
  -2   3   8    1.93    0.41
   1  -3  -8    5.90    0.65
   1  -3  -8    5.94    0.55
  -1  -3   8    6.30    0.42
   1  -3  -8    6.20    0.57
  -1   3   8    6.48    0.92
  -1   3   8    6.72    0.61
  -1   3   8    5.79    0.68
   1   3  -8    5.80    0.56
  -1   3   8    5.90    0.66
   0  -3  -8   12.71    0.98
   0  -3  -8   15.22    1.08
   0  -3  -8   13.52    0.97
   0  -3  -8   15.55    1.14
   0  -3   8   13.68    1.11
   0   3  -8   15.04    1.00
   0   3   8   13.90    1.02
   0   3   8   14.30    1.26
   0   3   8   13.62    1.03
   0   3   8   13.61    1.06
  -1  -3  -8    6.87    0.63
   1  -3   8    6.94    0.79
  -1  -3  -8    8.10    0.75
  -1  -3  -8    7.24    0.90
   1   3   8    7.55    0.69
   1   3   8    7.90    0.74
  -1   3  -8    7.38    0.63
   1   3   8    7.36    0.65
  -2  -3  -8    3.65    0.61
   2  -3   8    4.21    0.65
  -2  -3  -8    3.73    0.57
  -2  -3  -8    4.32    0.46
  -2   3  -8    2.81    0.31
   2   3   8    3.28    0.52
   2   3   8    3.20    0.48
   3  -3   8    0.42    0.35
  -3  -3  -8    0.63    0.39
  -3  -3  -8    0.74    0.28
   3  -3   8    0.80    0.23
  -3  -3  -8    0.15    0.29
  -3   3  -8    0.82    0.23
   3   3   8    0.61    0.25
   3   3   8    0.65    0.32
  -3   3  -8    1.16    0.21
   3   3   8    0.49    0.25
  -3   3  -8    0.88    0.26
  -4  -3  -8    2.80    0.61
   4  -3   8    3.86    0.60
   4  -3   8    4.02    0.64
  -4  -3  -8    3.54    0.56
  -4  -3  -8    4.07    0.46
   4   3   8    3.63    0.48
   4   3   8    3.49    0.56
  -4   3  -8    3.53    0.44
  -4   3  -8    3.32    0.41
   4   3   8    3.06    0.52
   5  -3   8    0.73    0.48
  -5  -3  -8    0.59    0.41
   5  -3   8    0.50    0.43
  -5  -3  -8    0.60    0.28
   5   3   8    0.86    0.37
   5   3   8    0.42    0.29
  -5   3  -8    1.05    0.29
  -5   3  -8    0.13    0.26
   5   3   8   -0.14    0.26
   6  -3   8    1.08    0.52
  -6  -3  -8    2.09    0.49
   6  -3   8    1.19    0.24
   6  -3   8    1.23    0.33
  -6  -3  -8    0.43    0.31
   6  -3   8    1.04    0.58
   6   3   8    1.08    0.36
  -6   3  -8    0.51    0.34
   6   3   8    0.77    0.45
   6   3   8    1.20    0.38
  -6   3  -8    0.55    0.38
  -7  -3  -8    0.63    0.67
   7  -3   8    1.33    0.41
   7  -3   8    0.07    0.43
   7  -3   8    2.13    0.76
   7  -3   8    1.16    0.29
  -7  -3  -8    1.32    0.40
   7   3   8    0.60    0.51
   7   3   8    1.12    0.42
   7   3   8    0.60    0.41
  -7   3  -8    1.69    0.49
  -7   3  -8    1.17    0.40
   8  -3   8    1.89    0.35
  -8  -3  -8    1.37    0.63
   8  -3   8    1.48    0.65
   8  -3   8    1.50    0.51
   8  -3   8    1.16    0.83
  -8   3  -8    1.90    0.55
   8   3   8    1.83    0.69
   8   3   8    0.93    0.48
  -8   3  -8    0.86    0.91
   9  -3   8   -0.18    0.63
  -9  -3  -8   -0.18    0.73
   9  -3   8   -0.65    0.42
   9  -3   8    1.55    1.07
   9  -3   8    0.88    0.56
   9   3   8    0.70    0.54
   9   3   8   -0.74    0.69
  10  -3   8    1.76    1.38
  10   3   8    0.66    0.98
  10   3   8    1.43    0.67
 -10   3  -8    1.91    0.99
  11  -3   8    0.08    1.92
  11  -3   8    0.20    0.94
  11  -3   8    0.98    1.11
  11   3   8    0.02    1.45
  11   3   8    1.95    1.18
  12  -4  -8    3.48    1.27
  12  -4  -8    1.05    2.07
  12   4  -8    4.47    1.75
  12   4  -8    2.98    1.02
  11  -4  -8    3.82    1.07
  11  -4  -8    6.71    1.78
  11   4  -8    4.08    0.95
  11   4  -8    5.93    1.45
 -11   4   8    5.60    1.64
  10  -4  -8   -0.61    0.72
  10  -4  -8    0.62    1.39
  10   4  -8    2.56    0.99
 -10   4   8   -1.46    1.11
  10   4  -8   -0.25    0.61
 -10   4   8   -1.20    1.16
   9  -4  -8    0.33    1.12
   9  -4  -8   -0.10    0.65
  -9  -4   8    1.56    0.53
  -9   4   8    1.41    1.03
  -9   4   8    1.17    0.93
   9   4  -8    0.75    0.50
   9   4  -8    1.45    0.79
   8  -4  -8    0.86    0.99
   8  -4  -8    0.45    0.53
   8   4  -8    1.44    0.86
  -8   4   8    0.35    0.39
  -8   4   8    0.02    0.81
   8   4  -8    0.90    0.40
  -8   4   8    2.41    0.93
  -8   4   8    1.01    0.72
   7  -4  -8    1.52    0.89
   7  -4  -8    1.83    0.57
   7   4  -8    1.66    0.37
  -7   4   8    0.73    0.81
  -7   4   8    1.90    0.84
  -7   4   8    1.57    0.68
  -7   4   8    1.18    0.42
   7   4  -8    2.33    0.60
   6  -4  -8    5.58    1.00
   6  -4  -8    3.13    0.63
   6  -4  -8    4.01    0.64
   6   4  -8    3.56    0.50
  -6   4   8    3.49    0.54
  -6   4   8    3.18    0.91
   6   4  -8    4.06    0.63
   6   4  -8    3.25    0.61
  -6   4   8    3.03    0.79
  -6   4   8    3.67    0.66
   5  -4  -8    6.52    0.74
   5  -4  -8    6.94    0.73
   5  -4  -8    8.53    1.21
   5   4  -8    6.95    0.56
  -5   4   8    6.51    0.86
  -5   4   8    6.83    0.81
  -5   4   8    5.87    1.03
   5   4  -8    7.23    0.91
  -5   4   8    4.50    0.91
   4  -4  -8   11.27    0.95
   4  -4  -8   11.58    0.94
  -4   4   8   11.03    1.23
  -4   4   8   12.46    1.17
  -4   4   8   12.49    1.36
  -4   4   8    9.84    1.02
  -4   4   8   11.45    1.06
  -3  -4   8   31.65    1.74
   3  -4  -8   27.18    1.89
   3  -4  -8   28.01    1.84
  -3   4   8   31.16    2.01
  -3   4   8   29.77    1.93
  -3   4   8   29.86    2.05
  -3   4   8   24.96    2.12
  -3   4   8   28.34    2.00
   2  -4  -8   54.65    3.69
   2  -4  -8   63.97    3.63
  -2  -4   8   67.98    3.61
   2  -4  -8   66.13    3.74
  -2   4   8   62.55    3.76
  -2   4   8   62.24    3.78
  -2   4   8   59.65    3.71
  -2   4   8   60.36    3.78
  -2   4   8   62.06    3.87
   2   4  -8   54.85    3.79
   1  -4  -8   -0.32    0.24
   1  -4  -8    0.05    0.27
  -1  -4   8    0.40    0.19
   1  -4  -8   -0.20    0.35
  -1   4   8   -0.10    0.31
  -1   4   8    0.03    0.36
   1   4  -8    0.01    0.28
  -1   4   8    0.30    0.29
  -1   4   8   -0.72    0.50
   0  -4  -8   10.31    0.97
   0  -4  -8    9.52    0.84
   0  -4   8   10.39    0.68
   0   4   8   11.36    0.97
   0   4   8   11.91    1.28
   0   4   8   10.56    0.91
   0   4  -8   10.94    0.90
   0   4   8    9.42    0.91
  -1  -4  -8    1.35    0.37
  -1  -4  -8    2.22    0.47
  -1  -4  -8    2.23    0.54
   1  -4   8    2.45    0.30
   1  -4   8    2.58    0.59
   1   4   8    1.89    0.44
  -1   4  -8    3.57    0.50
   1   4   8    2.25    0.43
   1   4   8    2.40    0.45
  -2  -4  -8    5.35    0.72
   2  -4   8    4.39    0.43
  -2  -4  -8    4.26    0.55
  -2  -4  -8    4.20    0.67
   2  -4   8    5.45    0.81
   2   4   8    4.81    0.63
   2   4   8    4.37    0.61
   2   4   8    4.14    0.64
  -2   4  -8    3.85    0.60
  -2   4  -8    3.91    0.40
  -3  -4  -8   31.24    2.32
  -3  -4  -8   38.99    2.52
   3  -4   8   37.86    2.57
   3  -4   8   38.63    2.24
  -3  -4  -8   39.71    2.44
  -3   4  -8   39.56    2.40
   3   4   8   40.52    2.37
   3   4   8   35.87    2.38
  -3   4  -8   38.45    2.25
   3   4   8   37.62    2.38
  -4  -4  -8    5.38    0.80
  -4  -4  -8    3.86    0.53
   4  -4   8    3.35    0.75
   4   4   8    3.96    0.64
  -4   4  -8    4.76    0.65
   4   4   8    4.97    0.66
  -4   4  -8    3.05    0.48
  -4   4  -8    3.67    0.49
   4   4   8    4.10    0.62
   5  -4   8    4.39    0.85
   5  -4   8    4.46    0.57
  -5  -4  -8    5.03    0.89
  -5  -4  -8    5.97    0.87
  -5  -4  -8    5.80    0.63
   5   4   8    5.39    0.73
  -5   4  -8    6.17    0.62
   5   4   8    6.01    0.73
  -5   4  -8    4.87    0.62
   5   4   8    4.21    0.73
  -6  -4  -8    0.27    0.64
  -6  -4  -8    1.22    0.41
   6  -4   8    1.61    0.75
  -6  -4  -8    1.60    0.62
   6  -4   8    2.04    0.73
   6   4   8    0.53    0.51
   6   4   8    0.95    0.40
  -6   4  -8    1.26    0.40
   6   4   8    1.22    0.46
  -6   4  -8    1.39    0.43
   7  -4   8    0.74    0.74
   7  -4   8    1.29    0.88
  -7  -4  -8   -0.01    0.37
  -7   4  -8   -0.78    0.49
   7   4   8    0.01    0.60
  -7   4  -8    0.39    0.52
   7   4   8    0.72    0.45
  -8  -4  -8    9.99    0.96
  -8  -4  -8   11.16    1.48
   8  -4   8   12.22    1.65
   8   4   8   11.50    1.15
   8   4   8   13.38    1.45
  -8   4  -8    8.88    1.28
  -8   4  -8    9.47    1.51
   9  -4   8    0.52    1.04
  -9  -4  -8    0.62    1.00
   9  -4   8    2.14    1.45
   9   4   8   -0.02    0.63
   9   4   8   -0.50    0.92
  10  -4   8    8.24    1.63
  10   4   8    6.00    1.11
  10   4   8    8.81    1.57
  10  -5  -8    2.19    1.04
  10  -5  -8    1.68    1.85
  10   5  -8    0.44    0.74
 -10   5   8    1.44    1.47
  10   5  -8    1.07    1.22
   9  -5  -8   -0.18    0.51
   9  -5  -8    0.97    0.77
   9  -5  -8   -0.79    1.52
  -9   5   8    3.30    1.47
   9   5  -8    0.03    0.92
  -9   5   8    0.98    1.21
   9   5  -8    1.13    0.63
  -9   5   8   -1.95    1.05
   8  -5  -8    0.69    0.48
   8  -5  -8    0.16    1.30
  -8   5   8    1.49    0.63
   8   5  -8    0.36    0.49
  -8   5   8    3.01    1.28
  -8   5   8    1.11    1.01
   8   5  -8   -0.09    0.78
   8   5  -8    1.01    0.79
   7  -5  -8    1.84    0.61
   7  -5  -8    1.09    1.13
   7  -5  -8    2.74    0.59
  -7   5   8    2.13    0.99
  -7   5   8    1.95    0.63
   7   5  -8    2.48    0.76
  -7   5   8    0.43    1.03
   7   5  -8    2.22    0.48
   6  -5  -8    0.73    0.50
   6  -5  -8    0.07    0.38
  -6   5   8    0.17    0.75
  -6   5   8    1.31    0.90
   6   5  -8    0.41    0.33
  -6   5   8   -0.19    0.54
  -6   5   8    0.93    0.74
   6   5  -8    0.84    0.64
  -6   5   8   -0.44    0.84
   5  -5  -8   -0.01    0.40
   5  -5  -8   -0.07    0.36
   5   5  -8    0.20    0.25
  -5   5   8    0.38    0.66
   5   5  -8    0.63    0.54
  -5   5   8   -1.85    0.92
  -5   5   8    0.22    0.69
   4  -5  -8   26.56    1.67
   4  -5  -8   23.86    1.77
  -4  -5   8   26.95    1.59
  -4   5   8   22.43    1.90
  -4   5   8   27.25    2.15
  -4   5   8   23.91    2.01
   4   5  -8   26.16    1.89
  -4   5   8   25.44    1.99
   3  -5  -8   33.79    1.94
  -3  -5   8   29.69    1.86
   3  -5  -8   30.49    2.06
  -3   5   8   29.32    2.09
   3   5  -8   30.17    2.14
  -3   5   8   30.93    2.23
   2  -5  -8   11.97    1.00
  -2  -5   8    9.74    0.79
   2  -5  -8   12.18    0.89
   2   5  -8   11.72    1.13
  -2   5   8   11.44    1.18
  -2   5   8   14.26    1.21
  -2   5   8   10.08    1.08
  -2   5   8   12.24    1.49
   1  -5  -8    0.31    0.35
  -1  -5   8    0.70    0.26
  -1   5   8    1.27    0.78
  -1   5   8    0.14    0.47
  -1   5   8   -0.21    0.45
  -1   5   8    0.50    0.43
   1   5  -8    0.47    0.47
   0  -5   8   18.16    1.16
   0  -5  -8   17.66    1.36
   0  -5  -8   17.62    1.33
   0   5   8   20.96    1.44
   0   5  -8   19.00    1.46
   0   5   8   16.98    1.42
   0   5   8   19.50    1.41
   1  -5   8   12.21    0.85
  -1  -5  -8   12.56    1.03
  -1  -5  -8   10.32    1.09
   1   5   8   13.56    1.13
   1   5   8    8.29    1.60
   1   5   8   12.97    1.13
  -1   5  -8   14.64    1.17
  -2  -5  -8    1.40    0.66
  -2  -5  -8    3.22    0.61
  -2  -5  -8    2.08    0.51
   2  -5   8    3.26    0.40
   2   5   8    1.96    0.51
   2   5   8    2.92    0.54
  -2   5  -8    2.31    0.35
  -2   5  -8    1.45    0.45
   2   5   8    2.43    0.50
   2   5   8    1.29    0.90
   3  -5   8   -0.05    0.31
  -3  -5  -8    0.26    0.50
  -3  -5  -8    0.64    0.71
  -3  -5  -8    0.04    0.34
   3  -5   8    0.45    0.67
   3   5   8   -0.42    0.40
  -3   5  -8    0.53    0.49
  -3   5  -8   -0.35    0.29
   3   5   8   -0.41    0.46
   3   5   8   -0.52    0.39
  -4  -5  -8    0.38    0.77
  -4  -5  -8    0.66    0.86
  -4  -5  -8    0.11    0.34
   4  -5   8   -0.71    0.67
  -4   5  -8   -0.26    0.48
   4   5   8    0.34    0.54
   4   5   8    0.03    0.41
   4   5   8   -0.38    0.40
  -5  -5  -8   10.68    1.25
  -5  -5  -8    6.72    0.84
   5  -5   8    8.85    0.77
   5  -5   8   10.99    1.40
   5   5   8    9.74    1.02
   5   5   8    9.67    1.13
   5   5   8   10.12    1.04
  -5   5  -8    7.65    0.88
  -5   5  -8    7.46    0.83
   6  -5   8    3.14    0.54
  -6  -5  -8    4.00    0.64
   6  -5   8    5.76    1.15
  -6  -5  -8    1.97    0.90
   6   5   8    2.44    0.69
  -6   5  -8    4.18    0.66
  -6   5  -8    3.36    0.59
   6   5   8    2.81    0.65
   7  -5   8    4.16    1.16
   7  -5   8    2.11    0.54
  -7  -5  -8    1.62    0.55
  -7  -5  -8    2.36    0.92
   7   5   8    2.14    0.81
  -7   5  -8    2.81    0.72
   7   5   8    2.04    0.64
   8  -5   8    1.63    1.24
  -8  -5  -8    1.27    0.63
   8  -5   8    2.09    0.67
   8   5   8    2.26    0.75
   8   5   8    1.78    0.93
   8  -6  -8    1.56    0.96
   8  -6  -8    1.46    0.58
  -8   6   8    1.15    1.48
  -8   6   8    1.39    1.36
   8   6  -8    1.08    0.86
   7  -6  -8    3.10    1.01
   7  -6  -8    3.85    0.70
  -7   6   8    3.74    1.31
  -7   6   8    2.17    1.28
   7   6  -8    3.23    0.61
   6  -6  -8   10.03    1.01
   6  -6  -8    6.95    1.01
  -6   6   8    9.45    1.47
   6   6  -8   10.09    0.94
  -6   6   8    9.33    1.44
  -6   6   8   14.39    2.14
   5  -6  -8    0.13    0.41
   5  -6  -8    0.48    0.47
   5   6  -8   -0.54    0.33
  -5   6   8   -0.28    0.96
  -5   6   8   -1.68    1.14
  -5   6   8    1.79    0.89
   5   6  -8    0.77    0.82
  -4  -6   8   16.42    1.09
   4  -6  -8   14.72    1.30
  -4   6   8   14.18    1.71
  -4   6   8   15.09    1.77
  -4   6   8   18.03    1.83
   4   6  -8   12.15    1.60
  -4   6   8   13.22    1.98
  -3  -6   8    5.89    0.58
   3  -6  -8    4.90    0.81
   3   6  -8    5.15    0.93
  -3   6   8    5.36    0.93
  -3   6   8    5.30    0.93
  -3   6   8    6.87    1.36
  -3   6   8    2.35    1.17
  -3   6   8    5.84    0.95
   2  -6  -8    3.72    0.62
  -2  -6   8    1.90    0.42
  -2   6   8    3.28    0.77
  -2   6   8    3.60    0.79
   2   6  -8    2.70    0.88
  -2   6   8    6.83    1.32
  -2   6   8    2.72    0.76
  -2   6   8    2.99    1.14
  -1  -6   8    7.73    0.69
   1  -6  -8    5.51    0.83
  -1   6   8    6.89    1.11
  -1   6   8    7.12    1.24
  -1   6   8    9.41    1.93
  -1   6   8    7.11    1.29
   1   6  -8   10.16    1.29
  -1   6   8    9.35    1.35
   0  -6   8   -0.21    0.30
   0  -6  -8    0.65    0.45
   0   6   8    0.20    1.10
   0   6   8    0.71    0.57
   0   6   8   -0.25    0.68
   0   6  -8    0.28    0.64
   0   6   8    1.20    0.68
  -1  -6  -8    5.32    0.77
   1  -6   8    5.00    0.60
   1   6   8    5.21    1.27
   1   6   8    7.61    1.01
   1   6   8    5.73    0.94
   1   6   8    5.10    0.86
   2  -6   8    2.11    0.39
  -2  -6  -8    0.54    0.43
   2   6   8    1.22    0.58
   2   6   8    1.46    0.59
   2   6   8    0.84    1.26
   2   6   8    3.12    0.75
   3  -6   8    1.20    0.44
  -3  -6  -8    0.85    0.42
  -3   6  -8    0.11    0.47
   3   6   8    0.94    0.60
   3   6   8    0.62    0.62
   3   6   8    3.12    1.67
   4  -6   8   -0.52    0.40
  -4  -6  -8    0.41    0.37
   4   6   8    0.33    0.61
   4   6   8   -0.09    0.56
  -4   6  -8    1.38    0.52
   5  -6   8    0.24    0.48
  -5  -6  -8   -0.29    0.65
  -5   6  -8   -0.24    0.64
   5   6   8   -0.37    0.65
   5   6   8   -0.29    0.65
   6  -6   8    0.90    0.56
  -6  -6  -8   -0.35    0.57
   6   6   8    0.61    0.77
   6   6   8    0.89    0.82
  -6   6  -8   -0.28    0.86
   5  -7  -8    0.44    0.66
  -5   7   8    2.47    1.48
  -5   7   8    4.79    1.32
   4  -7  -8   -0.30    0.48
  -4  -7   8    0.68    0.49
  -4   7   8    1.49    1.10
  -4   7   8    0.41    1.16
  -3  -7   8    0.69    0.49
   3  -7  -8    0.32    0.65
  -3   7   8    0.68    0.92
  -3   7   8    0.20    0.98
   2  -7  -8    2.07    0.85
  -2  -7   8    2.11    0.51
  -2   7   8    0.93    0.99
  -2   7   8    2.01    0.89
   1  -7  -8    0.92    0.96
  -1  -7   8    0.45    0.41
  -1   7   8   -0.57    0.86
  -1   7   8   -0.11    0.75
   0  -7  -8    0.77    0.64
   0  -7   8    0.93    0.46
   0   7   8    1.71    0.75
   0   7   8    3.57    0.94
  -1  -7  -8    0.57    0.56
   1  -7   8    0.64    0.43
   1   7   8   -0.12    0.73
   1   7   8   -0.50    0.68
   2  -7   8   -0.16    0.47
  -2  -7  -8    0.22    0.64
   2   7   8   -0.61    0.71
  -3  -7  -8    7.26    1.06
   3  -7   8    8.75    0.88
   3   7   8    9.19    1.37
   3   7   8    7.40    1.10
  13   0  -9    0.37    1.47
 -13   0   9   -0.08    1.10
  13   0  -9   -0.44    0.77
  13   0  -9    0.56    0.61
 -12   0   9   -0.62    0.95
 -12   0   9    0.16    0.78
  12   0  -9   -0.58    1.13
  12   0  -9   -0.19    0.70
  12   0  -9    0.07    0.42
 -11   0   9    1.40    0.83
  11   0  -9   -0.25    0.49
  11   0  -9    0.26    0.33
 -11   0   9    0.52    0.51
  11   0  -9   -0.86    0.93
 -11   0   9   -0.83    0.73
  10   0  -9   -1.09    0.71
 -10   0   9   -0.23    0.60
  10   0  -9    0.27    0.42
 -10   0   9    0.14    0.60
  10   0  -9    0.28    0.26
   9   0  -9    0.17    0.68
  -9   0   9    0.05    0.56
   9   0  -9    0.16    0.19
  -9   0   9    0.13    0.33
   9   0  -9    0.19    0.39
   8   0  -9    0.10    0.31
   8   0  -9   -0.10    0.17
  -8   0   9   -0.26    0.27
  -8   0   9   -0.60    0.38
   8   0  -9    0.38    0.60
  -7   0   9    0.10    0.42
   7   0  -9    0.08    0.50
   7   0  -9    0.01    0.15
   7   0  -9    0.06    0.30
  -7   0   9   -0.05    0.39
  -7   0   9    0.01    0.24
   6   0  -9   -0.05    0.43
  -6   0   9   -0.36    0.28
  -6   0   9    0.08    0.23
   6   0  -9    0.04    0.25
  -6   0   9    0.51    0.36
  -5   0   9    0.61    0.23
   5   0  -9    0.04    0.34
  -5   0   9    0.09    0.26
   5   0  -9    0.23    0.23
  -5   0   9   -0.44    0.27
   5   0  -9    0.27    0.21
  -4   0   9    0.25    0.16
   4   0  -9   -0.17    0.21
   4   0  -9    0.05    0.18
  -4   0   9   -0.06    0.20
   4   0  -9   -0.01    0.33
  -4   0   9   -0.14    0.29
  -3   0   9    0.04    0.13
   3   0  -9    0.02    0.16
   3   0  -9    0.34    0.19
  -3   0   9    0.17    0.26
  -3   0   9   -0.10    0.19
   3   0  -9    0.31    0.26
   2   0  -9   -0.13    0.16
  -2   0   9    0.17    0.22
   2   0  -9   -0.06    0.26
  -2   0   9    0.09    0.13
  -2   0   9    0.06    0.22
   2   0  -9   -0.03    0.14
  -2   0   9    0.04    0.15
   1   0  -9    0.12    0.15
  -1   0   9    0.12    0.12
   1   0  -9    0.03    0.15
  -1   0   9   -0.17    0.13
   1   0  -9    0.04    0.18
   1   0  -9    0.12    0.15
  -1   0   9   -0.09    0.18
  -1   0   9    0.04    0.22
   0   0   9    0.00    0.16
   0   0   9    0.25    0.14
   0   0  -9    0.02    0.17
   0   0  -9    0.50    0.14
   0   0  -9   -0.04    0.13
   0   0   9   -0.01    0.12
   0   0  -9    0.51    0.16
   1   0   9   -0.07    0.11
  -1   0  -9    0.17    0.13
  -1   0  -9   -0.15    0.14
   1   0   9   -0.09    0.13
   1   0   9    0.00    0.14
  -1   0  -9   -0.17    0.15
  -1   0  -9    0.07    0.18
  -2   0  -9   -0.07    0.13
  -2   0  -9   -0.12    0.14
   2   0   9   -0.08    0.12
   2   0   9    0.09    0.16
  -2   0  -9    0.17    0.15
  -2   0  -9   -0.04    0.21
   2   0   9   -0.02    0.13
  -3   0  -9    0.15    0.23
   3   0   9    0.05    0.21
  -3   0  -9    0.40    0.16
   3   0   9    0.03    0.16
   3   0   9    0.12    0.16
  -3   0  -9    0.00    0.16
   4   0   9    0.07    0.17
  -4   0  -9   -0.16    0.17
   4   0   9    0.05    0.17
  -4   0  -9    0.17    0.25
   5   0   9   -0.30    0.21
   5   0   9   -0.18    0.19
  -5   0  -9   -0.22    0.29
  -5   0  -9    0.05    0.22
   5   0   9   -0.23    0.25
   6   0   9   -0.09    0.22
  -6   0  -9   -0.39    0.58
   6   0   9    0.13    0.24
  -6   0  -9    0.24    0.26
   6   0   9   -0.10    0.33
   7   0   9    0.09    0.29
  -7   0  -9    0.34    0.40
   7   0   9   -0.13    0.44
   7   0   9    0.22    0.29
  -8   0  -9    1.49    0.53
   8   0   9   -0.12    0.51
   9   0   9   -0.04    0.51
  -9   0  -9   -0.16    0.66
  -9   0  -9    0.47    0.54
   9   0   9   -0.42    0.35
   9   0   9    0.14    0.43
  10   0   9   -0.28    0.46
  10   0   9    1.21    0.59
  10   0   9    0.12    0.94
 -10   0  -9    0.42    0.91
  11   0   9   -0.18    0.83
  11   0   9    0.65    1.17
  11   0   9   -0.05    0.60
  12   0   9    0.09    0.84
  12   0   9   -0.56    0.99
  13  -1  -9    3.07    1.60
  13  -1  -9    1.46    1.01
 -13  -1   9   -0.33    1.15
  13  -1  -9   -0.19    0.74
 -13   1   9   -0.12    1.30
  13   1  -9    0.38    0.90
  13   1  -9    2.27    1.41
  13   1  -9    0.56    0.51
 -12  -1   9    0.66    0.65
  12  -1  -9    1.05    0.70
 -12  -1   9   -0.25    0.91
  12  -1  -9   -1.70    1.17
  12  -1  -9   -0.55    0.53
  12   1  -9    1.19    0.69
  12   1  -9    1.25    1.09
 -12   1   9    1.96    1.11
 -11  -1   9    0.52    0.89
  11  -1  -9    0.95    0.48
  11  -1  -9    0.82    0.61
  11  -1  -9   -0.54    0.98
 -11   1   9    1.65    0.88
  11   1  -9    1.63    0.64
 -11   1   9    1.13    0.84
  11   1  -9    2.17    1.03
  11   1  -9    0.58    0.30
 -10  -1   9    1.91    0.68
  10  -1  -9    1.63    0.99
 -10  -1   9    1.88    0.42
 -10  -1   9    1.99    0.94
  10  -1  -9    2.03    0.45
  10  -1  -9    2.01    0.65
  10   1  -9    2.70    0.87
 -10   1   9    2.11    0.82
 -10   1   9    1.06    0.79
  10   1  -9    1.74    0.57
 -10   1   9    0.73    0.50
  10   1  -9    2.02    0.31
  -9  -1   9    6.04    0.85
  -9  -1   9    5.84    0.63
   9  -1  -9    5.19    0.80
   9  -1  -9    6.18    1.05
   9  -1  -9    5.18    0.63
  -9   1   9    5.61    0.89
   9   1  -9    4.64    0.78
  -9   1   9    6.63    0.93
   9   1  -9    5.60    0.48
   9   1  -9    8.50    1.14
  -8  -1   9   65.80    3.89
   8  -1  -9   62.58    3.74
   8  -1  -9   64.70    3.90
  -8  -1   9   66.22    3.90
  -8  -1   9   68.89    3.75
   8  -1  -9   58.43    4.07
  -8   1   9   64.77    3.84
  -8   1   9   63.73    3.99
   8   1  -9   59.58    3.85
  -7  -1   9   12.78    1.11
  -7  -1   9   11.81    1.07
   7  -1  -9   11.57    1.31
   7  -1  -9   14.60    0.93
   7  -1  -9   14.61    1.08
  -7  -1   9   14.69    0.91
  -7   1   9   12.44    1.17
   7   1  -9   12.27    1.02
  -7   1   9   14.31    1.22
  -7   1   9   13.87    1.05
   7   1  -9   12.33    1.22
  -6  -1   9    7.79    0.74
  -6  -1   9    8.36    0.78
   6  -1  -9    8.12    1.01
  -6  -1   9    8.29    0.60
   6  -1  -9    7.34    0.75
   6   1  -9    7.76    0.71
  -6   1   9    7.54    0.73
  -6   1   9   10.33    0.90
  -6   1   9    7.91    0.86
  -5  -1   9   64.21    3.58
  -5  -1   9   58.17    3.44
  -5  -1   9   58.75    3.51
   5  -1  -9   55.50    3.55
   5   1  -9   62.49    3.53
   5   1  -9   61.24    3.57
  -5   1   9   58.94    3.62
   5   1  -9   58.21    3.62
  -5   1   9   60.27    3.55
  -4  -1   9   12.84    0.82
   4  -1  -9   12.10    0.93
  -4  -1   9   14.64    0.97
  -4  -1   9   13.20    0.87
   4  -1  -9   12.01    0.98
  -4   1   9   13.62    1.01
  -4   1   9   13.14    0.80
   4   1  -9   13.72    1.02
   4   1  -9   13.01    0.90
  -4   1   9   12.56    0.93
  -4   1   9   13.24    1.08
   4   1  -9   13.19    0.94
  -3  -1   9   43.54    2.32
   3  -1  -9   37.33    2.29
  -3  -1   9   36.09    2.19
   3  -1  -9   37.55    2.33
  -3  -1   9   35.84    2.18
  -3   1   9   42.68    2.41
   3   1  -9   38.53    2.32
  -3   1   9   36.82    2.28
   3   1  -9   37.44    2.24
  -3   1   9   35.59    2.31
   3   1  -9   36.49    2.15
  -3   1   9   35.62    2.38
   3   1  -9   37.83    2.26
  -2  -1   9   16.19    1.07
   2  -1  -9   15.22    1.02
  -2  -1   9   14.97    0.93
  -2  -1   9   15.48    0.94
   2  -1  -9   15.67    1.08
   2  -1  -9   14.93    1.04
   2   1  -9   15.66    1.00
  -2   1   9   16.86    1.17
  -2   1   9   17.05    1.14
  -2   1   9   15.94    1.07
  -2   1   9   15.97    1.04
   2   1  -9   14.41    0.99
  -1  -1   9   15.29    1.05
   1  -1  -9   16.85    1.16
  -1  -1   9   17.73    1.11
  -1  -1   9   15.83    1.02
   1  -1  -9   17.18    1.12
   1  -1  -9   17.35    1.05
  -1  -1   9   16.63    0.99
  -1  -1   9   16.56    0.96
  -1   1   9   15.03    1.07
   1   1  -9   17.03    1.03
  -1   1   9   15.39    1.08
  -1   1   9   15.86    1.14
   1   1  -9   16.96    1.02
   0  -1  -9   10.29    0.76
   0  -1  -9    9.06    0.71
   0  -1   9    9.91    0.61
   0  -1   9    9.96    0.64
   0  -1   9    9.31    0.67
   0  -1  -9    9.09    0.79
   0  -1  -9    9.97    0.69
   0   1  -9    9.97    0.67
   0   1   9    9.73    0.72
   0   1   9   10.40    0.78
   0   1  -9    9.08    0.71
   0   1   9   10.81    0.73
   0   1  -9    9.97    0.66
   1  -1   9   23.74    1.55
   1  -1   9   23.73    1.50
   1  -1   9   25.58    1.55
  -1  -1  -9   27.34    1.56
  -1  -1  -9   25.05    1.60
   1  -1   9   25.49    1.53
  -1  -1  -9   23.58    1.58
  -1  -1  -9   27.82    1.67
   1   1   9   27.37    1.59
  -1   1  -9   27.32    1.55
  -1   1  -9   25.34    1.58
   1   1   9   24.68    1.56
  -1   1  -9   26.06    1.53
   1   1   9   27.09    1.62
  -2  -1  -9   16.42    1.12
   2  -1   9   16.98    1.04
  -2  -1  -9   19.07    1.19
  -2  -1  -9   15.34    1.10
   2  -1   9   17.25    1.10
   2  -1   9   17.10    1.09
   2  -1   9   16.71    1.06
  -2  -1  -9   17.73    1.07
  -2   1  -9   18.25    1.06
   2   1   9   16.36    1.13
   2   1   9   16.29    1.10
   2   1   9   16.89    1.09
  -2   1  -9   16.67    1.11
  -2   1  -9   16.88    1.08
   3  -1   9   27.14    1.68
  -3  -1  -9   25.63    1.67
   3  -1   9   26.92    1.72
   3  -1   9   28.41    1.74
  -3  -1  -9   30.63    1.81
   3  -1   9   27.88    1.68
  -3  -1  -9   28.42    1.74
   3   1   9   26.97    1.71
   3   1   9   25.34    1.72
  -3   1  -9   29.68    1.74
  -3   1  -9   27.28    1.68
   3   1   9   31.16    1.77
   4  -1   9    3.24    0.50
  -4  -1  -9    3.22    0.37
   4  -1   9    3.01    0.40
  -4  -1  -9    3.34    0.55
   4  -1   9    3.61    0.44
   4  -1   9    3.91    0.38
   4   1   9    4.01    0.41
  -4   1  -9    3.55    0.41
  -4   1  -9    3.21    0.48
   4   1   9    3.54    0.41
   4   1   9    2.68    0.49
   5  -1   9    1.14    0.31
   5  -1   9    1.38    0.28
  -5  -1  -9    0.80    0.38
  -5  -1  -9    0.94    0.28
   5  -1   9    0.66    0.37
  -5  -1  -9    1.55    0.32
   5  -1   9    0.99    0.23
   5   1   9    1.06    0.34
  -5   1  -9    0.95    0.32
   5   1   9    0.79    0.26
   5   1   9    0.96    0.26
  -5   1  -9    0.60    0.24
  -6  -1  -9   16.54    1.16
   6  -1   9   16.66    1.14
  -6  -1  -9   14.83    1.24
   6  -1   9   16.49    1.17
   6  -1   9   15.58    1.29
   6   1   9   15.77    1.13
  -6   1  -9   16.58    1.20
   6   1   9   16.87    1.16
   6   1   9   17.34    1.27
  -6   1  -9   15.60    1.13
  -7  -1  -9   21.14    1.62
   7  -1   9   24.53    1.72
   7  -1   9   22.60    1.51
   7  -1   9   22.68    1.52
   7   1   9   22.72    1.65
  -7   1  -9   20.29    1.55
   7   1   9   20.57    1.50
  -7   1  -9   21.68    1.48
   8  -1   9   13.53    1.15
   8  -1   9   16.12    1.57
  -8  -1  -9   15.63    1.42
   8  -1   9   14.29    1.22
  -8  -1  -9   17.14    1.27
   8  -1   9   13.86    1.21
  -8   1  -9   17.44    1.33
   8   1   9   14.62    1.44
  -8   1  -9   13.50    1.45
   8   1   9   15.02    1.21
   8   1   9   16.78    1.24
   9  -1   9   -0.59    0.43
   9  -1   9    0.79    0.76
   9  -1   9    0.72    0.46
   9  -1   9    1.15    0.54
  -9  -1  -9    0.14    0.56
  -9  -1  -9   -0.02    0.73
   9   1   9    0.31    0.47
  -9   1  -9    0.28    0.65
   9   1   9    0.51    0.66
   9   1   9    0.66    0.49
  10  -1   9    2.19    0.63
  10  -1   9    1.61    0.69
  10  -1   9   -0.06    0.97
  10  -1   9    1.27    0.60
  10   1   9    2.31    0.98
  10   1   9    1.70    0.69
  11  -1   9    1.16    0.77
  11  -1   9   -0.66    0.82
  11  -1   9   -1.36    1.20
  11   1   9    0.28    0.75
  11   1   9    0.83    1.14
  13  -2  -9   12.49    2.40
  13  -2  -9   14.44    1.83
 -13  -2   9   13.97    2.19
  13  -2  -9   12.71    1.89
  13   2  -9   15.07    2.61
  13   2  -9   14.58    1.90
  13   2  -9   15.76    1.26
 -13   2   9   16.16    2.21
  12  -2  -9    0.64    1.54
  12  -2  -9   -1.32    0.67
 -12  -2   9    0.47    0.89
  12   2  -9   -0.04    0.80
  12   2  -9   -0.25    1.11
 -12   2   9   -1.72    1.23
 -11  -2   9   12.44    1.05
  11  -2  -9   11.95    1.29
 -11  -2   9   12.36    1.40
  11  -2  -9    9.88    1.69
  11  -2  -9   10.32    1.38
  11   2  -9   10.49    1.78
 -11   2   9   12.12    1.89
  11   2  -9   11.80    1.38
  10  -2  -9   -0.48    0.92
  10  -2  -9    0.61    0.52
 -10  -2   9    1.46    0.63
  10  -2  -9    0.92    0.60
 -10  -2   9    1.88    0.63
 -10   2   9    0.84    0.60
  10   2  -9    0.09    0.73
  10   2  -9    0.73    0.53
 -10   2   9    0.85    0.84
 -10   2   9    1.02    0.84
   9  -2  -9    6.10    1.16
  -9  -2   9    5.07    0.70
  -9  -2   9    6.09    0.88
  -9  -2   9    5.37    0.57
   9  -2  -9    6.35    0.76
  -9   2   9    4.69    1.00
   9   2  -9    4.45    0.78
  -9   2   9    6.65    0.86
  -9   2   9    5.11    0.92
   8  -2  -9    5.05    0.74
  -8  -2   9    4.58    0.47
  -8  -2   9    4.33    0.67
   8  -2  -9    4.03    0.90
  -8  -2   9    4.91    0.72
  -8   2   9    4.16    0.77
   8   2  -9    4.12    0.78
   8   2  -9    4.52    0.67
  -7  -2   9   10.79    0.85
  -7  -2   9   12.20    0.93
  -7  -2   9   10.97    0.72
   7  -2  -9   11.61    1.32
   7  -2  -9    9.25    0.93
  -7   2   9   10.99    1.00
   7   2  -9   10.31    0.88
  -7   2   9   10.85    1.12
   7   2  -9   10.09    1.07
  -7   2   9   11.28    1.17
   6  -2  -9   -0.04    0.51
   6  -2  -9    0.49    0.32
  -6  -2   9    0.26    0.24
   6   2  -9    0.36    0.42
  -6   2   9    0.54    0.44
   6   2  -9    0.44    0.24
  -6   2   9    0.54    0.68
  -6   2   9    0.40    0.17
  -6   2   9    0.09    0.34
  -5  -2   9   14.63    0.94
   5  -2  -9   12.80    1.01
  -5   2   9   14.32    0.87
   5   2  -9   12.31    0.91
  -5   2   9   12.72    1.12
   5   2  -9   13.21    0.89
  -5   2   9   10.36    1.17
   4  -2  -9   10.56    0.81
   4  -2  -9    9.30    1.03
   4  -2  -9   10.31    0.85
  -4  -2   9    9.92    0.71
  -4   2   9    9.41    0.79
   4   2  -9    7.31    0.79
  -4   2   9    9.62    0.70
   4   2  -9   10.86    0.74
   4   2  -9    9.13    0.68
   4   2  -9    8.26    0.65
  -4   2   9   10.34    0.89
  -4   2   9    8.46    0.95
   3  -2  -9   38.16    2.38
   3  -2  -9   35.18    2.27
   3  -2  -9   36.27    2.21
   3  -2  -9   37.77    2.22
   3   2  -9   35.01    2.13
   3   2  -9   35.21    2.11
  -3   2   9   34.57    2.26
  -3   2   9   34.23    2.17
  -3   2   9   34.50    2.22
   3   2  -9   41.50    2.20
  -3   2   9   33.41    2.32
   3   2  -9   35.52    2.13
   2  -2  -9    2.86    0.51
   2  -2  -9    3.20    0.41
   2  -2  -9    3.39    0.43
  -2   2   9    2.68    0.52
  -2   2   9    3.06    0.51
   2   2  -9    3.39    0.32
   2   2  -9    3.51    0.32
  -2   2   9    2.74    0.42
   2   2  -9    3.46    0.33
  -2   2   9    2.56    0.51
  -1  -2   9   30.96    2.07
   1  -2  -9   33.11    2.06
   1  -2  -9   35.53    2.14
   1  -2  -9   36.91    2.09
  -1   2   9   31.18    2.14
  -1   2   9   33.30    2.09
   1   2  -9   33.97    2.02
  -1   2   9   38.77    2.26
  -1   2   9   32.13    2.10
   1   2  -9   34.27    1.96
   0  -2  -9   11.65    0.80
   0  -2  -9   12.94    0.81
   0  -2  -9   11.38    0.87
   0  -2   9   10.47    0.82
   0  -2  -9   11.12    0.92
   0   2   9   10.51    0.87
   0   2  -9   11.69    0.75
   0   2  -9   10.82    0.68
   0   2  -9   10.43    0.71
   0   2   9   10.65    0.82
   0   2   9   10.38    0.83
  -1  -2  -9   24.09    1.60
  -1  -2  -9   28.01    1.69
   1  -2   9   24.61    1.54
  -1  -2  -9   28.64    1.64
  -1  -2  -9   29.49    1.75
   1  -2   9   24.22    1.65
  -1   2  -9   25.77    1.58
  -1   2  -9   27.22    1.60
   1   2   9   25.18    1.67
   1   2   9   25.70    1.63
  -1   2  -9   25.34    1.55
   1   2   9   25.55    1.63
  -1   2  -9   24.85    1.52
   2  -2   9  205.71   11.93
   2  -2   9  208.27   11.85
  -2  -2  -9  223.75   11.95
  -2  -2  -9  220.13   11.87
  -2  -2  -9  207.90   11.98
  -2   2  -9  208.97   11.85
   2   2   9  201.03   11.88
   2   2   9  182.55   11.88
   2   2   9  209.71   11.93
  -2   2  -9  220.43   11.82
  -3  -2  -9    1.25    0.28
   3  -2   9    1.42    0.33
  -3  -2  -9    1.89    0.45
   3  -2   9    1.40    0.33
  -3  -2  -9    1.40    0.33
   3  -2   9    1.77    0.28
  -3   2  -9    2.24    0.37
  -3   2  -9    1.37    0.23
   3   2   9    1.51    0.30
   3   2   9    1.21    0.33
   4  -2   9    2.20    0.31
   4  -2   9    2.31    0.30
  -4  -2  -9    1.79    0.37
  -4  -2  -9    1.44    0.30
   4  -2   9    2.40    0.41
   4  -2   9    1.86    0.40
  -4  -2  -9    1.85    0.45
   4   2   9    1.52    0.30
  -4   2  -9    1.74    0.29
  -4   2  -9    1.95    0.35
   4   2   9    1.11    0.29
   4   2   9    2.05    0.40
   5  -2   9    0.12    0.18
   5  -2   9    0.24    0.27
   5  -2   9   -0.24    0.24
  -5  -2  -9   -0.40    0.36
  -5  -2  -9   -0.12    0.26
  -5  -2  -9    0.25    0.34
   5  -2   9    0.08    0.38
   5   2   9    0.26    0.25
   5   2   9    0.01    0.31
  -5   2  -9   -0.19    0.20
  -5   2  -9   -0.01    0.27
  -6  -2  -9    0.09    0.45
   6  -2   9    0.65    0.32
  -6  -2  -9    0.45    0.32
  -6  -2  -9    0.32    0.37
   6  -2   9    0.15    0.22
   6  -2   9    0.62    0.32
   6  -2   9    0.29    0.47
   6   2   9    0.41    0.39
  -6   2  -9    0.47    0.35
  -6   2  -9   -0.02    0.26
   6   2   9    0.45    0.29
   7  -2   9   17.51    1.55
   7  -2   9   17.37    1.43
  -7  -2  -9   17.04    1.52
   7  -2   9   18.42    1.33
   7   2   9   19.61    1.52
  -7   2  -9   21.53    1.41
  -7   2  -9   19.10    1.31
   7   2   9   17.30    1.33
   8  -2   9    6.66    0.88
  -8  -2  -9    7.72    1.20
  -8  -2  -9    7.04    0.85
   8  -2   9    5.40    0.74
   8  -2   9    6.82    0.92
   8  -2   9    7.51    1.19
  -8   2  -9    6.77    0.97
  -8   2  -9    6.74    0.88
   8   2   9    6.27    0.82
   8   2   9    5.50    0.86
   8   2   9    7.96    1.09
   9  -2   9    0.03    0.50
   9  -2   9    0.26    0.89
   9  -2   9    0.18    0.76
   9   2   9    0.00    0.70
   9   2   9    0.74    0.56
  -9   2  -9   -0.59    0.68
  10  -2   9    1.36    0.76
  10  -2   9    2.25    1.33
  10  -2   9    1.83    0.64
  10  -2   9    2.49    0.73
  10   2   9    1.18    0.97
  10   2   9    1.19    0.72
 -10   2  -9    2.57    0.92
  11  -2   9    1.42    1.61
  11  -2   9    0.13    0.79
  11  -2   9    0.28    0.79
  11   2   9    0.44    1.25
  12  -3  -9    1.09    0.96
 -12  -3   9    0.80    0.87
  12  -3  -9   -0.77    1.63
 -12   3   9    1.04    1.54
  12   3  -9   -0.52    1.28
  12   3  -9   -0.40    0.79
  11  -3  -9   -0.21    1.35
  11  -3  -9    1.01    0.73
 -11  -3   9    0.65    0.66
 -11   3   9    0.21    1.14
  11   3  -9    1.37    0.69
  11   3  -9    1.14    1.02
  10  -3  -9   -1.50    1.07
 -10  -3   9    1.50    0.63
  10  -3  -9    1.51    0.67
  10   3  -9    0.33    0.83
  10   3  -9    0.46    0.52
 -10   3   9   -0.17    0.91
 -10   3   9   -1.59    0.97
   9  -3  -9    4.74    1.13
  -9  -3   9    4.65    0.81
   9  -3  -9    3.81    0.80
  -9   3   9    4.06    0.96
   9   3  -9    3.54    0.58
  -9   3   9    3.10    0.89
  -9   3   9    3.88    0.82
   9   3  -9    2.33    0.80
   8  -3  -9    5.67    1.03
   8  -3  -9    4.07    0.71
   8   3  -9    3.65    0.55
  -8   3   9    3.91    0.99
   8   3  -9    4.88    0.83
  -8   3   9    4.15    0.93
   7  -3  -9    9.91    0.97
  -7  -3   9   10.48    0.81
   7  -3  -9    7.27    1.26
  -7   3   9   10.59    0.78
  -7   3   9    9.67    1.18
   7   3  -9   10.04    1.10
   7   3  -9    9.30    0.82
   6  -3  -9   16.94    1.46
   6  -3  -9   12.54    1.11
  -6  -3   9   14.41    0.92
  -6   3   9   11.94    1.24
  -6   3   9   12.08    1.13
  -6   3   9   13.35    1.34
   6   3  -9   12.97    0.95
   6   3  -9   11.94    1.11
   6   3  -9   13.55    1.01
  -6   3   9   13.20    0.96
   5  -3  -9    0.37    0.37
   5  -3  -9    0.43    0.60
   5   3  -9    0.51    0.21
  -5   3   9    0.13    0.37
   5   3  -9    0.34    0.28
   5   3  -9    0.42    0.40
  -5   3   9    0.48    0.53
  -5   3   9   -0.64    0.43
  -5   3   9    0.30    0.27
   4  -3  -9   -0.04    0.51
   4  -3  -9    0.60    0.35
   4  -3  -9    0.11    0.33
   4  -3  -9   -0.21    0.23
  -4   3   9    0.81    0.48
  -4   3   9    0.34    0.30
  -4   3   9    0.16    0.50
   4   3  -9    0.09    0.25
  -4   3   9    0.09    0.27
  -4   3   9    0.07    0.37
   4   3  -9    0.36    0.17
   3  -3  -9    7.97    0.70
   3  -3  -9    9.25    0.82
   3  -3  -9    7.21    0.70
  -3   3   9    8.01    0.86
  -3   3   9    7.12    0.73
  -3   3   9    6.66    0.72
  -3   3   9    8.51    0.99
   3   3  -9    7.44    0.66
  -3   3   9    6.87    0.90
   2  -3  -9    1.91    0.46
   2  -3  -9    2.19    0.40
   2  -3  -9    2.16    0.36
  -2   3   9    1.81    0.45
  -2   3   9    1.99    0.55
  -2   3   9    1.77    0.42
  -2   3   9    1.78    0.48
   2   3  -9    2.20    0.35
   1  -3  -9    7.35    0.61
   1  -3  -9    6.19    0.73
   1  -3  -9    6.89    0.62
  -1   3   9    6.63    0.72
  -1   3   9    6.71    0.64
  -1   3   9    5.20    0.92
   1   3  -9    6.97    0.59
  -1   3   9    6.70    0.77
   0  -3   9    0.55    0.34
   0  -3  -9   -0.02    0.28
   0  -3  -9    0.15    0.21
   0  -3  -9    0.46    0.26
   0   3   9    0.39    0.33
   0   3  -9    0.05    0.19
   0   3   9    0.24    0.28
   0   3   9    0.14    0.27
   0   3   9    0.38    0.52
  -1  -3  -9    2.57    0.50
  -1  -3  -9    2.46    0.45
  -1  -3  -9    3.18    0.43
   1  -3   9    2.67    0.50
   1   3   9    3.01    0.51
   1   3   9    2.65    0.46
  -1   3  -9    3.09    0.41
   1   3   9    2.69    0.47
  -1   3  -9    2.92    0.27
  -2  -3  -9    1.71    0.35
  -2  -3  -9    2.37    0.47
   2  -3   9    1.81    0.46
  -2  -3  -9    2.01    0.47
   2   3   9    2.06    0.38
   2   3   9    3.20    0.47
  -2   3  -9    2.91    0.41
  -2   3  -9    2.65    0.29
   2   3   9    1.93    0.42
   3  -3   9    2.17    0.53
  -3  -3  -9    2.59    0.41
  -3  -3  -9    2.59    0.54
   3   3   9    2.68    0.41
  -3   3  -9    3.33    0.42
  -3   3  -9    3.04    0.37
  -3   3  -9    3.07    0.46
   3   3   9    3.89    0.55
   3   3   9    3.61    0.52
  -4  -3  -9    5.83    0.73
   4  -3   9    6.28    0.75
  -4  -3  -9    6.31    0.60
   4  -3   9    6.29    0.80
  -4   3  -9    6.31    0.58
   4   3   9    5.34    0.64
  -4   3  -9    5.64    0.54
   4   3   9    6.49    0.71
   4   3   9    5.16    0.61
   5  -3   9    7.09    1.01
  -5  -3  -9    8.40    0.95
  -5  -3  -9    8.60    0.76
   5  -3   9    9.56    1.02
  -5   3  -9   10.43    0.77
   5   3   9    9.35    0.84
   5   3   9   10.15    0.83
  -5   3  -9    9.69    0.81
   5   3   9    9.39    0.90
  -6  -3  -9    2.94    0.55
   6  -3   9    2.25    0.68
  -6  -3  -9    2.31    0.64
   6  -3   9    2.19    0.59
  -6  -3  -9    1.39    0.41
  -6   3  -9    3.45    0.61
   6   3   9    2.52    0.65
   6   3   9    2.51    0.45
  -6   3  -9    2.67    0.45
   7  -3   9    0.22    0.28
  -7  -3  -9    0.65    0.56
   7  -3   9    0.29    0.36
   7  -3   9   -0.23    0.51
  -7  -3  -9    0.91    0.67
  -7  -3  -9   -0.48    0.33
   7  -3   9    0.08    0.69
  -7   3  -9    1.08    0.45
  -7   3  -9   -0.81    0.40
   7   3   9    0.50    0.46
   7   3   9   -0.23    0.38
   7   3   9   -0.87    0.42
   8  -3   9    3.23    0.93
   8  -3   9    1.99    0.41
   8  -3   9    1.72    0.50
  -8  -3  -9    0.64    0.68
   8   3   9    1.72    0.52
   8   3   9    1.76    0.75
  -8   3  -9    0.45    0.53
   9  -3   9    0.55    0.73
   9  -3   9    1.17    0.62
   9  -3   9    2.07    1.12
   9  -3   9    0.85    0.46
   9   3   9    0.30    0.56
  -9   3  -9    1.50    0.79
   9   3   9    1.14    0.84
  10  -3   9   -0.09    0.88
  10  -3   9    0.51    1.42
  10   3   9    1.12    1.07
  10   3   9    1.00    0.78
  11  -4  -9   -0.73    0.96
  11  -4  -9    1.02    1.57
  11   4  -9    1.19    0.77
  11   4  -9    1.16    1.28
 -11   4   9    4.68    1.54
  10  -4  -9    2.89    0.96
  10  -4  -9    3.00    1.44
  10   4  -9    5.14    1.11
 -10   4   9    4.05    1.26
 -10   4   9    0.47    1.30
  10   4  -9    2.13    0.72
   9  -4  -9    0.98    1.13
  -9  -4   9    1.20    0.55
   9  -4  -9    0.28    0.66
   9   4  -9    0.71    0.84
  -9   4   9   -0.78    1.08
   9   4  -9   -0.48    0.46
  -9   4   9    0.15    0.92
   8  -4  -9    1.94    0.74
   8  -4  -9    3.34    1.08
  -8   4   9    2.95    1.00
  -8   4   9    2.82    0.79
  -8   4   9    2.38    0.48
   8   4  -9    2.73    0.51
   8   4  -9    1.98    0.83
   7  -4  -9    0.11    0.88
   7  -4  -9    0.67    0.49
  -7   4   9    0.94    0.63
  -7   4   9    0.29    0.68
  -7   4   9    1.94    0.81
   7   4  -9    0.92    0.58
  -7   4   9    1.28    0.40
   7   4  -9    0.32    0.50
   7   4  -9    1.24    0.38
   6  -4  -9    0.71    0.74
   6  -4  -9    1.51    0.50
   6  -4  -9    0.82    0.37
  -6   4   9    0.71    0.67
   6   4  -9    1.87    0.47
  -6   4   9   -0.24    0.67
  -6   4   9    1.25    0.41
  -6   4   9    0.65    0.53
   6   4  -9    1.67    0.32
   5  -4  -9    5.72    0.73
   5  -4  -9    4.31    0.68
   5  -4  -9    5.52    0.95
  -5   4   9    4.97    0.87
  -5   4   9    5.29    0.83
  -5   4   9    5.08    0.75
  -5   4   9    5.11    0.86
  -5   4   9    5.49    1.08
   5   4  -9    5.30    0.50
   4  -4  -9    3.58    0.61
   4  -4  -9    2.93    0.55
  -4   4   9    3.11    0.72
  -4   4   9    3.91    0.70
  -4   4   9    4.09    0.70
  -4   4   9    4.27    0.82
   3  -4  -9    2.10    0.41
   3  -4  -9    1.49    0.40
  -3   4   9    1.75    0.54
  -3   4   9    1.66    0.58
  -3   4   9    0.08    0.62
  -3   4   9    1.32    0.39
  -3   4   9    1.24    0.49
   2  -4  -9  147.77    8.96
   2  -4  -9  167.04    8.91
   2  -4  -9  161.32    9.00
   2   4  -9  164.19    8.99
  -2   4   9  152.79    8.98
  -2   4   9  167.87    9.06
  -2   4   9  146.74    9.00
  -2   4   9  133.04    9.06
   1  -4  -9    1.76    0.36
  -1  -4   9    1.94    0.26
   1  -4  -9    2.41    0.50
   1  -4  -9    1.39    0.38
  -1   4   9    1.00    0.43
   1   4  -9    1.08    0.39
  -1   4   9    1.83    0.45
  -1   4   9    1.71    0.50
  -1   4   9    2.44    0.69
   0  -4   9    0.22    0.18
   0  -4  -9    0.00    0.39
   0  -4  -9   -0.18    0.29
   0   4   9   -0.04    0.39
   0   4   9   -0.12    0.35
   0   4  -9    0.20    0.27
   0   4   9    0.83    0.68
   0   4   9   -0.11    0.31
   1  -4   9   10.89    1.10
  -1  -4  -9    8.57    1.01
  -1  -4  -9    8.97    0.95
  -1  -4  -9    8.43    0.80
   1   4   9    9.48    0.89
  -1   4  -9   10.05    0.84
   1   4   9    9.39    0.92
   1   4   9   10.19    0.89
  -2  -4  -9   -0.30    0.30
  -2  -4  -9    0.06    0.50
   2  -4   9    0.14    0.49
   2   4   9    0.22    0.37
  -2   4  -9   -0.12    0.29
   2   4   9   -0.06    0.32
   2   4   9   -0.64    0.28
  -3  -4  -9   -0.43    0.46
  -3  -4  -9   -0.32    0.26
   3  -4   9   -0.14    0.47
   3  -4   9   -0.36    0.22
   3   4   9    0.21    0.34
   3   4   9    0.35    0.37
  -3   4  -9   -0.50    0.31
   3   4   9   -0.05    0.32
  -3   4  -9    0.13    0.20
   4  -4   9    0.32    0.26
   4  -4   9    0.06    0.72
  -4  -4  -9    1.10    0.53
  -4  -4  -9    0.24    0.33
   4   4   9   -0.02    0.34
  -4   4  -9   -0.26    0.34
   4   4   9    0.35    0.38
  -4   4  -9    0.46    0.46
  -4   4  -9    0.11    0.27
  -5  -4  -9   -0.71    0.65
  -5  -4  -9   -0.50    0.30
   5  -4   9    0.12    0.34
  -5  -4  -9    0.50    0.52
  -5   4  -9    0.89    0.35
  -5   4  -9   -0.34    0.33
   5   4   9    0.01    0.37
   5   4   9   -0.19    0.39
   5   4   9    0.41    0.40
  -6  -4  -9    2.72    0.85
  -6  -4  -9    4.62    0.64
   6  -4   9    4.22    0.85
   6  -4   9    4.65    0.61
   6  -4   9    3.94    0.94
  -6   4  -9    5.77    0.78
   6   4   9    3.91    0.69
   6   4   9    5.51    0.82
   6   4   9    4.66    0.75
  -6   4  -9    4.61    0.63
  -7  -4  -9    0.11    0.35
  -7  -4  -9   -0.15    0.68
   7  -4   9    2.75    1.02
   7  -4   9    1.49    0.78
  -7   4  -9    1.00    0.50
   7   4   9    1.17    0.50
  -7   4  -9    0.92    0.51
   7   4   9    0.85    0.60
   8  -4   9   18.46    2.27
  -8  -4  -9   15.01    1.27
  -8  -4  -9   17.79    1.79
   8  -4   9   18.34    1.99
   8   4   9   15.46    1.44
  -8   4  -9   16.62    1.56
   8   4   9   17.52    1.80
   9  -4   9    0.58    1.08
   9   4   9   -0.88    0.64
  10  -5  -9    5.12    0.96
  10  -5  -9    5.60    2.09
  10  -5  -9    4.57    1.12
  10   5  -9    2.53    0.86
  10   5  -9    4.97    1.30
 -10   5   9    3.17    1.53
   9  -5  -9    7.62    1.11
   9  -5  -9    6.91    3.58
   9  -5  -9    6.42    1.38
  -9   5   9    6.73    1.71
   9   5  -9    7.82    1.26
  -9   5   9    8.16    1.49
   9   5  -9    7.11    1.22
  -9   5   9    9.10    1.22
   9   5  -9    6.00    0.96
   8  -5  -9    0.75    0.50
   8  -5  -9   -0.77    1.33
   8  -5  -9    0.09    0.64
  -8   5   9    0.92    0.68
   8   5  -9    0.56    0.51
   8   5  -9    2.39    0.81
  -8   5   9   -0.87    1.09
   7  -5  -9    7.57    0.97
   7  -5  -9    5.52    1.40
   7  -5  -9    4.17    0.80
   7   5  -9    5.97    0.90
  -7   5   9    7.12    1.17
  -7   5   9    6.80    1.05
  -7   5   9    4.39    1.20
  -7   5   9    5.26    1.27
   6  -5  -9   -0.17    0.45
   6  -5  -9    0.77    0.49
  -6   5   9   -0.81    0.55
   6   5  -9   -0.57    0.57
  -6   5   9    0.61    0.79
   6   5  -9   -0.31    0.32
  -6   5   9   -0.52    0.93
  -6   5   9   -0.82    0.82
  -6   5   9    0.78    0.78
   5  -5  -9    0.21    0.35
   5  -5  -9    0.70    0.44
  -5   5   9    1.61    0.72
  -5   5   9    1.48    0.80
  -5   5   9    2.05    0.81
   5   5  -9   -0.01    0.56
  -5   5   9    0.96    0.74
  -5   5   9    0.23    0.89
   5   5  -9    1.00    0.29
   4  -5  -9   45.73    2.84
   4  -5  -9   42.10    2.70
  -4   5   9   47.05    3.03
  -4   5   9   42.90    3.03
  -4   5   9   48.43    2.97
  -4   5   9   45.73    3.19
   4   5  -9   37.68    2.83
   3  -5  -9    0.65    0.36
   3  -5  -9    0.52    0.33
  -3  -5   9    0.38    0.29
  -3   5   9   -0.52    0.80
  -3   5   9    0.58    0.56
  -3   5   9    0.18    0.55
  -3   5   9    0.43    0.58
   3   5  -9    0.60    0.51
   2  -5  -9    2.43    0.45
  -2  -5   9    3.05    0.41
   2  -5  -9    2.55    0.51
  -2   5   9    2.13    0.58
  -2   5   9    2.20    0.76
  -2   5   9    2.60    0.62
  -2   5   9    2.92    0.90
   2   5  -9    3.50    0.60
   1  -5  -9   -0.54    0.45
   1  -5  -9    0.09    0.36
  -1  -5   9    1.04    0.25
  -1   5   9    0.08    0.49
   1   5  -9    0.56    0.44
  -1   5   9    0.56    0.52
  -1   5   9    1.41    0.84
   0  -5  -9    1.42    0.42
   0  -5  -9    2.89    0.60
   0   5   9    1.98    0.88
   0   5   9    1.92    0.55
   0   5   9    0.99    0.76
   0   5  -9    2.84    0.50
   0   5   9    2.33    0.52
  -1  -5  -9    8.51    1.03
  -1  -5  -9    8.23    0.80
   1  -5   9    7.48    0.60
  -1   5  -9    7.85    0.91
   1   5   9    8.03    0.91
   1   5   9    7.38    0.92
   1   5   9    6.46    1.17
   1   5   9    8.23    0.97
   2  -5   9    0.59    0.29
  -2  -5  -9    0.88    0.56
  -2  -5  -9    0.52    0.34
  -2  -5  -9    0.12    0.64
   2   5   9    0.65    0.44
   2   5   9    1.02    0.42
  -2   5  -9    0.86    0.48
   2   5   9   -0.83    0.91
   2   5   9    0.62    0.45
  -3  -5  -9    0.16    0.39
   3  -5   9   -0.57    0.73
  -3  -5  -9   -0.39    0.74
   3   5   9    0.02    0.48
   3   5   9    0.57    0.48
  -3   5  -9    0.20    0.31
  -3   5  -9    0.32    0.52
   3   5   9   -0.36    0.45
   4  -5   9    1.04    0.35
  -4  -5  -9    0.12    0.36
   4  -5   9    1.49    0.89
  -4  -5  -9    0.52    0.81
  -4  -5  -9    2.75    0.72
  -4   5  -9    1.39    0.59
   4   5   9   -0.12    0.43
   4   5   9    0.63    0.48
  -4   5  -9    0.88    0.38
   4   5   9   -0.18    0.56
  -5  -5  -9    2.32    0.78
   5  -5   9    0.67    0.37
  -5  -5  -9    1.03    0.44
   5  -5   9    0.35    0.84
   5   5   9    0.95    0.56
  -5   5  -9    2.02    0.47
   5   5   9    0.94    0.55
   6  -5   9    5.56    0.72
  -6  -5  -9    5.39    1.04
  -6  -5  -9    5.31    0.74
   6   5   9    6.98    1.06
  -6   5  -9    8.08    0.97
  -6   5  -9    6.69    1.00
   6   5   9    6.53    0.94
   7  -5   9    0.09    1.03
   7  -5   9   -0.33    0.52
   7   5   9    0.38    0.66
  -7   5  -9    0.83    0.84
   7   5   9    0.42    0.71
   8  -5   9    1.22    0.62
  -8  -5  -9    0.69    0.56
   8  -5   9    2.28    1.28
   8   5   9    1.42    1.00
   8   5   9    0.44    0.78
   8  -6  -9    1.19    0.62
  -8   6   9    1.28    1.42
   8   6  -9    1.34    0.74
  -8   6   9    0.23    1.54
   7  -6  -9    0.01    0.58
   7  -6  -9    0.62    0.63
  -7   6   9    1.55    1.32
  -7   6   9    1.96    1.32
   7   6  -9   -0.17    0.56
   6  -6  -9    1.05    0.54
   6  -6  -9    1.31    0.60
   6   6  -9    0.60    0.44
  -6   6   9    0.84    1.14
   6   6  -9    0.46    1.04
  -6   6   9   -1.45    1.30
  -6   6   9    2.42    1.22
   5  -6  -9   -0.15    0.45
   5  -6  -9    0.22    0.47
  -5   6   9   -0.96    1.26
  -5   6   9   -0.18    1.01
  -5   6   9   -0.44    0.88
   5   6  -9   -0.48    0.79
   4  -6  -9   -0.12    0.44
  -4   6   9    0.82    0.83
   4   6  -9    0.71    0.70
  -4   6   9    0.12    0.88
  -4   6   9   -0.86    1.14
  -3  -6   9    8.49    0.77
   3  -6  -9    8.10    0.97
  -3   6   9    8.98    1.42
  -3   6   9   11.14    1.47
  -3   6   9    9.01    1.33
   3   6  -9   11.02    1.37
  -3   6   9    7.43    1.72
   2  -6  -9   -0.09    0.41
  -2  -6   9    0.41    0.35
  -2   6   9   -1.11    0.58
   2   6  -9   -0.06    0.66
  -2   6   9    0.05    0.73
  -2   6   9   -0.29    0.65
  -2   6   9    1.41    1.15
   1  -6  -9   10.30    1.09
  -1  -6   9   13.19    0.89
  -1   6   9   12.35    2.02
  -1   6   9   11.00    1.45
   1   6  -9   14.08    1.43
  -1   6   9   12.76    1.33
  -1   6   9   10.07    1.38
   0  -6   9    0.41    0.35
   0  -6  -9    0.08    0.40
   0   6   9    0.22    0.65
   0   6   9   -0.79    1.12
   0   6   9    0.57    0.74
   0   6   9   -0.23    0.53
  -1  -6  -9    0.22    0.43
   1  -6   9   -0.07    0.32
   1   6   9   -2.11    1.09
   1   6   9   -0.04    0.66
   1   6   9    0.60    0.52
   1   6   9    0.48    0.56
   2  -6   9    5.47    0.62
  -2  -6  -9    4.11    0.75
   2   6   9    3.56    1.81
   2   6   9    5.77    0.81
   2   6   9    5.57    0.94
  -3  -6  -9    1.52    0.51
   3  -6   9    0.98    0.43
  -3   6  -9    1.04    0.47
   3   6   9    0.77    0.57
   3   6   9    1.24    0.62
   4  -6   9    1.22    0.50
  -4  -6  -9    2.31    0.53
   4   6   9    1.07    0.65
  -4   6  -9    2.29    0.58
   4   6   9    2.07    0.67
  -5  -6  -9    0.62    0.51
   5   6   9    1.34    0.72
  -5   6  -9    1.10    0.71
   5   6   9   -0.11    0.70
  -6  -6  -9    0.24    0.52
   6   6   9   -0.40    0.82
   6   6   9    0.32    0.84
   5  -7  -9    0.77    0.70
  -5   7   9    1.98    1.38
   4  -7  -9    0.17    0.61
  -4   7   9    0.68    1.09
  -4   7   9    1.26    1.16
   3  -7  -9    0.51    0.55
  -3  -7   9    0.19    0.50
  -3   7   9   -0.30    0.97
  -3   7   9    0.67    1.10
  -2  -7   9    4.60    0.72
   2  -7  -9    3.05    0.75
  -2   7   9    5.08    1.04
  -2   7   9    5.37    1.21
   1  -7  -9   17.30    1.49
  -1  -7   9   16.48    1.22
  -1   7   9   18.69    1.95
  -1   7   9   13.99    1.67
   0  -7   9    2.21    0.50
   0  -7  -9    1.76    0.68
   0   7   9    2.00    0.86
   0   7   9    3.45    0.96
   1  -7   9    0.29    0.48
  -1  -7  -9    0.46    0.57
   1   7   9    0.24    0.80
   1   7   9    0.11    0.82
  -2  -7  -9    2.73    0.72
   2   7   9    0.32    0.79
   2   7   9    1.35    0.80
  -3  -7  -9    1.46    0.64
   3   7   9    1.68    0.91
   3   7   9    1.97    0.85
 -13   0  10    4.40    1.25
  13   0 -10    1.34    1.46
  13   0 -10    1.28    0.94
  13   0 -10    1.67    0.66
  12   0 -10    6.53    1.52
 -12   0  10    7.23    1.25
  12   0 -10    9.01    0.90
  12   0 -10    7.34    1.23
 -12   0  10    7.30    1.10
  11   0 -10   21.11    1.38
 -11   0  10   23.74    1.54
 -11   0  10   15.09    1.84
  11   0 -10   14.99    2.11
  11   0 -10   20.74    1.67
  10   0 -10   27.11    1.68
 -10   0  10   31.50    2.11
 -10   0  10   24.17    2.07
  10   0 -10   24.55    1.92
  -9   0  10    0.42    0.52
   9   0 -10    0.53    0.44
   9   0 -10    0.48    0.24
   9   0 -10   -0.09    0.60
   8   0 -10   19.54    1.42
  -8   0  10   19.51    1.51
   8   0 -10   19.51    1.69
   8   0 -10   19.38    1.18
  -8   0  10   17.72    1.29
  -7   0  10  259.84   14.50
   7   0 -10  237.07   14.42
  -7   0  10  263.95   14.36
   7   0 -10  240.58   14.55
  -7   0  10  260.27   14.47
  -6   0  10   21.48    1.39
  -6   0  10   22.71    1.51
   6   0 -10   20.57    1.45
   5   0 -10   61.45    3.61
  -5   0  10   61.60    3.51
   5   0 -10   58.26    3.55
  -5   0  10   57.60    3.57
  -4   0  10    2.53    0.41
   4   0 -10    3.08    0.40
   4   0 -10    2.98    0.45
  -4   0  10    2.64    0.38
   4   0 -10    2.91    0.53
  -4   0  10    2.80    0.49
  -3   0  10   38.44    2.42
   3   0 -10   38.10    2.37
  -3   0  10   39.18    2.42
  -3   0  10   40.90    2.32
   3   0 -10   36.70    2.33
  -3   0  10   39.09    2.33
  -2   0  10   48.94    2.91
  -2   0  10   49.28    2.84
   2   0 -10   50.38    2.89
  -2   0  10   47.27    2.93
  -2   0  10   48.88    2.85
   2   0 -10   45.78    2.86
   1   0 -10    0.04    0.21
  -1   0  10    0.09    0.21
   1   0 -10   -0.01    0.14
  -1   0  10    0.01    0.28
  -1   0  10    0.11    0.15
  -1   0  10    0.25    0.14
   1   0 -10   -0.24    0.16
   1   0 -10   -0.02    0.18
   0   0  10    0.33    0.16
   0   0 -10    0.41    0.14
   0   0 -10    0.48    0.23
   0   0  10    0.40    0.17
   0   0 -10    0.54    0.18
   0   0 -10    0.48    0.18
   0   0  10    0.44    0.22
  -1   0 -10   17.95    1.15
  -1   0 -10   15.11    1.19
  -1   0 -10   17.95    1.09
   1   0  10   18.05    1.16
   1   0  10   18.37    1.12
  -1   0 -10   19.23    1.16
   1   0  10   19.60    1.18
   2   0  10    9.11    0.74
  -2   0 -10   10.09    0.79
   2   0  10    9.13    0.67
  -2   0 -10   10.03    0.72
  -2   0 -10    9.69    0.72
  -2   0 -10   10.51    0.64
   2   0  10    9.89    0.71
   3   0  10   66.77    3.66
   3   0  10   62.18    3.63
  -3   0 -10   65.28    3.58
  -3   0 -10   56.21    3.69
  -3   0 -10   61.36    3.64
   4   0  10    0.93    0.25
  -4   0 -10    1.34    0.37
  -4   0 -10    0.99    0.45
   4   0  10    0.52    0.27
   4   0  10    0.90    0.25
   5   0  10    0.57    0.24
   5   0  10    0.80    0.34
  -5   0 -10    0.39    0.25
  -5   0 -10    0.55    0.33
   5   0  10    0.42    0.27
   6   0  10   13.04    1.03
  -6   0 -10   15.12    1.13
   6   0  10   15.08    1.19
  -6   0 -10   14.50    1.17
   6   0  10   14.53    1.04
   7   0  10   36.84    2.46
   7   0  10   35.74    2.30
  -7   0 -10   35.48    2.40
   7   0  10   38.22    2.31
  -8   0 -10    3.76    0.74
  -8   0 -10    3.30    0.57
   8   0  10    2.15    0.71
   8   0  10    2.99    0.58
   8   0  10    2.45    0.51
   9   0  10    5.70    0.96
   9   0  10    5.54    1.05
   9   0  10    4.66    0.75
  -9   0 -10    3.90    0.86
   9   0  10    5.02    0.84
  10   0  10   -0.12    0.53
  10   0  10    0.86    1.02
  10   0  10   -0.33    0.62
  11   0  10    0.25    0.61
  11   0  10    0.74    0.78
  11   0  10    0.32    1.21
  13  -1 -10   -1.20    1.51
  13  -1 -10    0.20    0.76
  13  -1 -10    2.31    0.95
  13   1 -10   -0.12    0.94
  13   1 -10   -2.47    1.41
 -13   1  10    0.60    1.41
  13   1 -10    0.01    0.52
 -12  -1  10    0.06    0.60
 -12  -1  10    1.17    0.97
  12  -1 -10    0.20    1.37
  12  -1 -10    0.19    0.58
  12  -1 -10    0.95    0.75
  12   1 -10    0.96    0.39
  12   1 -10   -1.64    1.09
 -12   1  10   -1.17    1.08
  12   1 -10   -0.88    0.70
  11  -1 -10   -0.51    0.61
  11  -1 -10    0.15    0.47
  11  -1 -10   -1.39    1.00
  11   1 -10   -0.09    0.28
 -11   1  10   -1.44    0.79
 -11   1  10    0.26    1.30
  11   1 -10    0.39    0.54
  11   1 -10    0.66    0.94
 -11   1  10   -0.38    0.61
  10  -1 -10    2.95    0.65
  10  -1 -10    2.82    1.06
 -10  -1  10    4.14    0.79
  10  -1 -10    4.39    0.67
 -10  -1  10    4.53    0.70
 -10   1  10    2.88    0.89
 -10   1  10    2.72    0.58
 -10   1  10    3.88    0.95
  10   1 -10    3.70    0.97
  10   1 -10    3.73    0.65
  10   1 -10    3.28    0.43
  -9  -1  10    7.40    0.96
   9  -1 -10    9.29    1.41
   9  -1 -10    6.23    0.70
   9  -1 -10    6.52    0.87
  -9  -1  10    6.92    0.69
   9   1 -10    7.26    0.54
   9   1 -10    7.31    0.85
   9   1 -10    7.08    1.04
  -9   1  10    6.20    0.95
  -9   1  10    8.62    1.19
   8  -1 -10    6.69    0.78
  -8  -1  10    5.38    0.86
   8  -1 -10    8.73    1.22
  -8  -1  10    7.12    0.62
  -8  -1  10    7.23    0.85
  -8   1  10    5.91    0.76
   8   1 -10    7.13    0.48
  -8   1  10    7.99    1.00
   8   1 -10    7.06    1.11
   8   1 -10    6.53    0.76
  -8   1  10    6.36    1.01
  -7  -1  10   24.27    1.68
  -7  -1  10   24.18    1.73
   7  -1 -10   22.73    1.70
  -7  -1  10   25.40    1.56
   7   1 -10   25.29    1.46
  -7   1  10   25.38    1.86
  -7   1  10   27.73    1.69
   7   1 -10   25.43    1.67
  -7   1  10   25.57    1.81
  -6  -1  10    0.06    0.16
  -6  -1  10    0.11    0.30
   6  -1 -10    0.21    0.26
   6  -1 -10   -0.34    0.46
  -6  -1  10   -0.14    0.37
   6   1 -10    0.04    0.42
  -6   1  10    0.67    0.49
  -6   1  10    0.24    0.42
   6   1 -10    0.02    0.24
   5  -1 -10    0.27    0.26
  -5  -1  10    0.65    0.26
   5  -1 -10    0.05    0.28
  -5  -1  10    0.33    0.30
  -5  -1  10    0.25    0.15
   5  -1 -10    0.58    0.42
  -5   1  10    0.49    0.34
  -5   1  10   -0.08    0.38
  -5   1  10    0.17    0.25
   5   1 -10    0.41    0.36
   5   1 -10    0.17    0.22
   5   1 -10    0.18    0.29
   4  -1 -10    3.60    0.54
  -4  -1  10    3.82    0.53
   4  -1 -10    4.21    0.72
  -4  -1  10    3.72    0.41
  -4  -1  10    3.78    0.33
   4  -1 -10    4.37    0.51
  -4   1  10    3.78    0.57
   4   1 -10    4.23    0.43
   4   1 -10    4.17    0.49
  -4   1  10    4.03    0.49
  -4   1  10    3.61    0.30
  -4   1  10    4.70    0.70
  -3  -1  10   48.10    2.64
   3  -1 -10   41.46    2.61
   3  -1 -10   46.66    2.75
  -3  -1  10   43.24    2.50
  -3  -1  10   44.06    2.50
   3  -1 -10   44.97    2.66
  -3   1  10   39.67    2.68
  -3   1  10   41.71    2.60
   3   1 -10   39.77    2.57
  -3   1  10   43.14    2.63
   3   1 -10   42.38    2.56
  -2  -1  10    0.59    0.14
  -2  -1  10    0.59    0.24
  -2  -1  10    0.47    0.25
   2  -1 -10    0.61    0.25
  -2  -1  10    0.30    0.15
   2  -1 -10    0.25    0.22
  -2  -1  10    0.44    0.12
   2  -1 -10    0.69    0.23
   2   1 -10    0.44    0.19
  -2   1  10    0.29    0.19
   2   1 -10    0.58    0.22
  -2   1  10    0.22    0.22
  -2   1  10    0.19    0.31
  -2   1  10    0.83    0.33
  -1  -1  10   35.97    2.32
  -1  -1  10   39.34    2.24
   1  -1 -10   38.81    2.39
  -1  -1  10   40.09    2.27
   1  -1 -10   39.26    2.35
   1  -1 -10   44.69    2.33
   1  -1 -10   35.84    2.42
  -1  -1  10   39.24    2.30
  -1   1  10   40.27    2.36
   1   1 -10   38.06    2.31
   1   1 -10   40.19    2.31
  -1   1  10   41.13    2.36
  -1   1  10   35.23    2.39
   0  -1  10   25.08    1.55
   0  -1 -10   24.03    1.59
   0  -1 -10   29.57    1.71
   0  -1 -10   27.94    1.64
   0  -1  10   24.83    1.49
   0  -1  10   25.63    1.52
   0  -1  10   25.04    1.55
   0  -1 -10   26.38    1.56
   0   1 -10   26.52    1.54
   0   1 -10   25.23    1.55
   0   1 -10   24.13    1.59
   0   1  10   25.77    1.58
   0   1  10   24.50    1.59
   0   1  10   24.23    1.63
   1  -1  10    1.65    0.22
  -1  -1 -10    2.81    0.37
   1  -1  10    2.04    0.31
  -1  -1 -10    2.05    0.27
   1  -1  10    2.26    0.26
   1  -1  10    1.80    0.28
  -1  -1 -10    2.16    0.38
  -1  -1 -10    2.64    0.40
   1   1  10    2.09    0.34
  -1   1 -10    2.08    0.29
   1   1  10    2.27    0.34
  -1   1 -10    2.22    0.30
  -1   1 -10    2.08    0.33
   1   1  10    1.93    0.34
   2  -1  10    4.31    0.45
  -2  -1 -10    4.75    0.50
   2  -1  10    5.16    0.42
  -2  -1 -10    4.25    0.48
   2  -1  10    4.62    0.45
   2  -1  10    4.64    0.38
  -2  -1 -10    4.39    0.47
  -2  -1 -10    4.52    0.58
  -2   1 -10    4.36    0.43
   2   1  10    5.13    0.47
   2   1  10    3.90    0.51
  -2   1 -10    4.11    0.50
  -2   1 -10    5.75    0.43
   2   1  10    5.12    0.47
   3  -1  10   79.43    4.57
  -3  -1 -10   84.73    4.65
   3  -1  10   77.91    4.63
  -3  -1 -10   78.25    4.70
   3  -1  10   81.92    4.64
   3  -1  10   81.07    4.59
  -3  -1 -10   77.17    4.57
   3   1  10   77.86    4.61
   3   1  10   82.85    4.66
  -3   1 -10   79.55    4.64
   3   1  10   71.50    4.62
  -3   1 -10   82.40    4.59
   4  -1  10   12.08    0.88
   4  -1  10   13.89    0.90
  -4  -1 -10   12.17    0.96
   4  -1  10   12.28    0.97
  -4  -1 -10   13.25    0.87
  -4  -1 -10   13.31    1.06
   4  -1  10   13.34    0.94
  -4   1 -10   12.68    0.97
   4   1  10   13.21    0.91
   4   1  10   12.60    0.93
  -4   1 -10   12.86    0.93
   4   1  10   13.22    0.98
   5  -1  10   19.90    1.33
  -5  -1 -10   18.48    1.25
  -5  -1 -10   18.05    1.41
  -5  -1 -10   19.54    1.34
   5  -1  10   19.72    1.27
   5  -1  10   20.44    1.28
   5  -1  10   20.57    1.42
  -5   1 -10   18.80    1.35
  -5   1 -10   20.86    1.29
   5   1  10   18.93    1.38
   5   1  10   18.55    1.29
   6  -1  10    0.46    0.24
   6  -1  10    0.27    0.26
   6  -1  10    0.20    0.40
  -6  -1 -10    0.73    0.42
   6  -1  10    0.16    0.30
  -6   1 -10    0.35    0.30
  -6   1 -10    0.56    0.38
   6   1  10    0.21    0.26
   6   1  10   -0.12    0.26
   6   1  10    0.11    0.36
   7  -1  10    0.38    0.50
  -7  -1 -10    1.65    0.54
  -7  -1 -10    0.05    0.38
   7  -1  10    0.06    0.31
   7  -1  10    0.03    0.30
   7   1  10    0.27    0.40
  -7   1 -10    0.49    0.37
  -7   1 -10    0.39    0.44
   7   1  10    0.22    0.43
   8  -1  10   21.44    1.59
  -8  -1 -10   20.30    1.60
   8  -1  10   22.45    1.87
  -8  -1 -10   21.46    1.75
   8  -1  10   23.21    1.57
  -8   1 -10   23.90    1.71
   8   1  10   18.99    1.55
  -8   1 -10   19.89    1.56
   8   1  10   19.58    2.22
   8   1  10   24.36    1.59
   9  -1  10    0.16    0.52
   9  -1  10   -0.24    0.51
   9  -1  10   -0.46    0.44
  -9  -1 -10   -0.68    0.76
   9  -1  10   -0.11    0.83
   9   1  10    0.46    0.74
   9   1  10    0.20    0.56
  -9   1 -10   -0.21    0.67
  10  -1  10    1.36    0.69
  10  -1  10    2.84    0.66
  10  -1  10    2.89    0.70
  10  -1  10    1.44    1.11
  10   1  10    3.11    1.15
 -10   1 -10    1.88    0.99
  10   1  10    0.87    0.69
  11  -1  10    0.27    0.84
  11  -1  10    0.34    0.71
  11  -1  10   -0.53    1.25
  11   1  10    0.47    0.89
  11   1  10    2.11    1.44
  13  -2 -10    2.88    1.02
  13  -2 -10    2.53    1.87
 -13  -2  10    3.88    1.25
  13  -2 -10    2.42    1.12
  13   2 -10    3.27    1.09
  13   2 -10    6.93    1.64
 -13   2  10   -0.61    1.46
 -12  -2  10    2.13    1.24
 -12  -2  10    0.09    0.78
  12  -2 -10    0.92    0.70
  12  -2 -10   -0.56    0.87
  12  -2 -10   -0.19    1.40
  12   2 -10    0.86    0.80
  12   2 -10   -0.23    0.37
 -12   2  10    0.74    1.27
  12   2 -10    1.84    1.17
  11  -2 -10    6.79    1.18
 -11  -2  10    7.52    0.87
  11  -2 -10    6.45    1.53
 -11  -2  10   10.60    1.30
  11   2 -10    7.13    1.18
  11   2 -10    5.95    1.20
 -11   2  10    6.26    1.27
 -10  -2  10    5.90    0.83
 -10  -2  10    5.85    1.07
  10  -2 -10    6.67    0.98
 -10   2  10    5.31    1.05
 -10   2  10    3.50    1.04
 -10   2  10    4.77    0.80
  10   2 -10    5.71    0.94
  10   2 -10    7.51    1.39
   9  -2 -10    0.71    0.82
  -9  -2  10    0.29    0.48
  -9  -2  10   -0.26    0.26
   9  -2 -10   -0.21    0.41
  -9  -2  10   -0.04    0.45
   9   2 -10   -0.48    0.39
  -9   2  10    0.34    0.55
   9   2 -10    1.03    0.77
  -9   2  10   -0.58    0.65
  -9   2  10    0.98    0.76
  -8  -2  10    0.72    0.42
   8  -2 -10    1.84    0.46
  -8  -2  10    1.14    0.40
   8  -2 -10    0.79    0.77
  -8  -2  10    1.43    0.26
   8   2 -10    0.70    0.37
   8   2 -10    2.37    0.66
  -8   2  10    1.63    0.69
  -8   2  10    0.97    0.66
  -7  -2  10   -0.16    0.33
  -7  -2  10    0.68    0.17
  -7  -2  10    0.39    0.29
   7  -2 -10    0.30    0.33
   7  -2 -10    0.73    0.63
  -7   2  10    1.13    0.37
  -7   2  10    0.58    0.53
   7   2 -10    0.17    0.48
   7   2 -10    0.45    0.32
  -7   2  10    1.01    0.59
   6  -2 -10    0.03    0.30
  -6  -2  10   -0.19    0.27
   6  -2 -10    0.22    0.51
  -6   2  10   -0.09    0.48
   6   2 -10   -0.26    0.37
   6   2 -10    0.51    0.21
   6   2 -10   -0.07    0.24
  -6   2  10    0.14    0.33
  -6   2  10    0.23    0.42
  -6   2  10    0.12    0.15
   5  -2 -10   19.88    1.51
   5  -2 -10   20.43    1.35
  -5  -2  10   17.05    1.25
   5  -2 -10   14.85    1.50
  -5   2  10   19.66    1.19
   5   2 -10   19.05    1.24
  -5   2  10   21.69    1.56
  -5   2  10   19.90    1.44
   5   2 -10   16.68    1.17
   5   2 -10   19.72    1.29
   5   2 -10   18.24    1.37
  -5   2  10   19.71    1.35
   4  -2 -10    7.46    0.71
   4  -2 -10    8.48    0.78
  -4  -2  10    6.67    0.64
   4   2 -10    7.86    0.65
  -4   2  10    9.76    0.97
   4   2 -10    7.77    0.56
   4   2 -10    8.87    0.80
   4   2 -10    7.44    0.60
  -4   2  10    7.46    0.81
  -4   2  10    7.12    0.72
  -4   2  10    7.29    0.61
   3  -2 -10    5.30    0.66
   3  -2 -10    4.88    0.58
  -3  -2  10    5.58    0.52
   3  -2 -10    4.72    0.53
  -3   2  10    5.20    0.74
   3   2 -10    5.31    0.60
   3   2 -10    5.43    0.42
   3   2 -10    5.60    0.48
   3   2 -10    5.11    0.45
  -3   2  10    5.01    0.66
  -3   2  10    6.70    0.83
  -3   2  10    5.49    0.58
   2  -2 -10   15.34    1.12
   2  -2 -10   13.96    1.03
   2  -2 -10   14.92    1.06
  -2   2  10   13.13    1.23
   2   2 -10   15.46    0.95
   2   2 -10   15.40    0.95
  -2   2  10   15.05    1.07
  -2   2  10   15.53    1.11
  -2   2  10   15.85    1.17
   1  -2 -10   15.38    1.18
   1  -2 -10   16.50    1.11
   1  -2 -10   16.87    1.13
  -1  -2  10   15.25    1.11
  -1   2  10   14.52    1.32
   1   2 -10   17.14    1.03
  -1   2  10   16.22    1.15
  -1   2  10   16.17    1.14
  -1   2  10   17.90    1.23
   1   2 -10   17.70    1.05
   1   2 -10   17.15    1.01
   0  -2 -10   -0.12    0.16
   0  -2 -10    0.03    0.24
   0  -2 -10   -0.03    0.30
   0  -2  10   -0.08    0.20
   0  -2 -10   -0.10    0.19
   0   2  10   -0.21    0.21
   0   2 -10    0.00    0.14
   0   2  10    0.08    0.24
   0   2 -10    0.01    0.13
   0   2 -10    0.12    0.12
   0   2 -10   -0.07    0.19
   0   2  10   -0.01    0.29
  -1  -2 -10   34.73    2.07
   1  -2  10   33.55    1.92
  -1  -2 -10   32.55    2.11
   1  -2  10   30.99    2.02
  -1  -2 -10   35.47    2.02
  -1  -2 -10   36.72    1.99
   1   2  10   29.53    1.98
   1   2  10   36.08    2.03
  -1   2 -10   31.06    1.92
   1   2  10   27.14    2.02
  -1   2 -10   31.91    1.96
  -1   2 -10   30.30    1.90
  -2  -2 -10   82.97    4.94
  -2  -2 -10   78.47    4.81
   2  -2  10   82.10    4.88
  -2  -2 -10   82.98    4.89
   2   2  10   84.64    4.93
   2   2  10   83.33    4.88
  -2   2 -10   80.18    4.76
  -2   2 -10   88.86    4.82
   2   2  10   85.11    4.84
   3  -2  10   10.17    0.82
   3  -2  10   10.22    0.70
   3  -2  10    9.62    0.84
  -3  -2 -10   10.87    0.96
  -3  -2 -10   11.52    0.89
  -3   2 -10   10.20    0.72
   3   2  10   11.15    0.83
   3   2  10    9.71    0.87
   3   2  10   10.27    0.80
  -3   2 -10   10.80    0.80
   4  -2  10    0.10    0.18
  -4  -2 -10   -0.01    0.24
   4  -2  10    0.18    0.28
   4  -2  10   -0.10    0.28
   4  -2  10   -0.13    0.20
  -4  -2 -10   -0.17    0.29
  -4  -2 -10    0.27    0.34
   4   2  10    0.04    0.28
   4   2  10   -0.28    0.19
  -4   2 -10   -0.23    0.19
   4   2  10    0.22    0.24
  -4   2 -10    0.20    0.27
   5  -2  10   11.31    0.90
  -5  -2 -10    9.82    0.91
   5  -2  10    9.92    0.78
   5  -2  10   10.59    0.74
  -5  -2 -10    9.15    0.76
   5  -2  10   11.62    1.00
  -5  -2 -10   11.21    1.05
   5   2  10    8.79    0.90
   5   2  10    9.72    0.82
  -5   2 -10   10.86    0.86
  -5   2 -10    8.51    0.77
   6  -2  10   15.48    1.16
  -6  -2 -10   16.38    1.39
   6  -2  10   18.58    1.30
   6  -2  10   15.78    1.11
  -6  -2 -10   16.75    1.14
  -6   2 -10   14.66    1.23
   6   2  10   16.37    1.31
   6   2  10   16.80    1.19
  -6   2 -10   16.91    1.17
   7  -2  10    2.64    0.56
   7  -2  10    3.46    0.56
  -7  -2 -10    2.45    0.59
  -7  -2 -10    1.64    0.69
   7  -2  10    3.57    0.75
  -7   2 -10    2.48    0.47
   7   2  10    3.00    0.72
   7   2  10    2.30    0.47
   7   2  10    3.29    0.55
  -7   2 -10    2.80    0.55
   8  -2  10    2.89    0.83
  -8  -2 -10    3.13    0.65
   8  -2  10    2.55    0.60
   8  -2  10    2.59    0.43
   8  -2  10    2.24    0.56
  -8  -2 -10    2.48    0.83
  -8   2 -10    0.98    0.54
   8   2  10    2.73    0.71
   8   2  10    1.09    0.49
  -8   2 -10    1.78    0.62
   8   2  10    1.74    0.49
   9  -2  10   -1.09    0.88
   9  -2  10    0.71    0.59
   9   2  10    0.41    0.84
   9   2  10   -0.01    0.54
  -9   2 -10   -0.03    0.74
  10  -2  10    0.87    0.77
  10  -2  10    2.73    0.67
  10  -2  10    2.62    0.83
  10   2  10    2.40    1.08
 -10   2 -10    0.53    1.04
  10   2  10    1.24    0.67
  11  -2  10    0.54    0.90
  11  -2  10    1.39    0.96
  11  -2  10    0.72    1.66
  11   2  10   -1.14    0.88
  11   2  10    2.09    1.47
  12  -3 -10   10.53    2.17
  12  -3 -10    9.40    1.39
  12   3 -10   13.49    2.35
 -12   3  10   11.68    1.85
  12   3 -10   12.80    1.77
  11  -3 -10   14.01    1.66
 -11   3  10   16.03    2.37
  11   3 -10   14.06    1.63
 -10  -3  10    0.44    0.68
  10  -3 -10    2.15    0.78
  10  -3 -10    0.53    1.04
  10   3 -10    1.65    0.87
 -10   3  10   -0.39    0.85
  10   3 -10    0.07    0.54
 -10   3  10   -0.62    1.10
   9  -3 -10    0.54    0.61
   9  -3 -10    0.48    0.99
  -9  -3  10    0.91    0.50
   9   3 -10    2.65    0.78
  -9   3  10    0.70    0.64
  -9   3  10    1.61    0.95
  -9   3  10    1.65    0.89
   9   3 -10    1.31    0.49
   8  -3 -10   -0.67    0.44
   8  -3 -10    0.29    0.75
  -8   3  10    0.09    0.25
  -8   3  10   -1.07    0.78
   8   3 -10   -0.09    0.34
   8   3 -10    0.35    0.58
  -8   3  10   -0.89    0.65
   7  -3 -10    0.08    0.74
  -7  -3  10    0.42    0.31
   7  -3 -10    0.47    0.44
  -7   3  10    0.56    0.25
   7   3 -10    0.43    0.31
  -7   3  10    0.77    0.66
   7   3 -10    0.79    0.34
   7   3 -10    0.14    0.50
  -7   3  10   -0.10    0.55
   6  -3 -10   21.76    1.49
   6  -3 -10   16.30    1.73
  -6  -3  10   20.51    1.31
  -6   3  10   18.01    1.63
  -6   3  10   21.33    1.36
  -6   3  10   22.44    1.75
   6   3 -10   20.94    1.52
   6   3 -10   21.01    1.39
   6   3 -10   20.23    1.35
   5  -3 -10    1.39    0.40
   5  -3 -10    1.51    0.64
   5   3 -10    1.37    0.33
  -5   3  10    1.46    0.50
   5   3 -10    1.38    0.28
  -5   3  10    1.03    0.33
   5   3 -10    1.45    0.42
  -5   3  10    1.74    0.47
   4  -3 -10    1.73    0.58
   4  -3 -10    1.52    0.50
   4  -3 -10    1.97    0.43
   4  -3 -10    1.69    0.40
  -4   3  10    1.95    0.47
  -4   3  10    2.50    0.40
  -4   3  10    2.12    0.63
   4   3 -10    2.65    0.43
  -4   3  10    1.62    0.58
  -4   3  10    1.48    0.51
   4   3 -10    2.21    0.36
   4   3 -10    2.12    0.35
   3  -3 -10    3.72    0.53
   3  -3 -10    2.52    0.51
   3  -3 -10    3.13    0.50
  -3   3  10    3.31    0.50
  -3   3  10    2.95    0.61
  -3   3  10    2.83    0.48
  -3   3  10    2.66    0.52
  -3   3  10    2.83    0.68
   3   3 -10    3.06    0.43
   2  -3 -10   11.62    1.00
   2  -3 -10    9.61    0.84
   2  -3 -10   10.73    0.87
  -2   3  10   11.52    0.91
  -2   3  10   11.89    1.19
  -2   3  10   10.31    0.96
   2   3 -10   10.59    0.80
  -2   3  10   11.16    1.03
   1  -3 -10   36.13    2.21
   1  -3 -10   34.26    2.09
   1  -3 -10   33.05    2.10
  -1   3  10   31.27    2.14
  -1   3  10   33.20    2.35
  -1   3  10   30.52    2.11
  -1   3  10   34.17    2.19
   1   3 -10   36.98    2.08
   0  -3 -10   17.72    1.29
   0  -3 -10   22.03    1.32
   0  -3 -10   20.85    1.41
   0  -3  10   19.08    1.43
   0  -3 -10   18.61    1.46
   0   3  10   19.26    1.34
   0   3  10   17.31    1.62
   0   3  10   19.45    1.35
   0   3  10   19.04    1.40
   0   3 -10   19.95    1.28
  -1  -3 -10    1.41    0.44
  -1  -3 -10    2.02    0.48
  -1  -3 -10    1.42    0.32
  -1  -3 -10    1.99    0.35
   1  -3  10    1.75    0.42
   1   3  10    1.83    0.34
   1   3  10    2.00    0.47
  -1   3 -10    1.81    0.36
  -1   3 -10    1.91    0.32
   1   3  10    1.43    0.37
  -1   3 -10    1.94    0.24
  -2  -3 -10    9.21    1.02
  -2  -3 -10   10.61    0.83
  -2  -3 -10   10.32    0.99
   2  -3  10   11.17    1.00
   2   3  10    9.67    0.92
  -2   3 -10   10.43    0.71
   2   3  10   12.46    0.91
   2   3  10    9.62    0.85
  -2   3 -10   12.56    0.84
  -3  -3 -10   12.95    1.11
   3  -3  10   12.68    1.16
  -3  -3 -10   14.02    1.00
  -3  -3 -10   14.29    1.20
  -3   3 -10   12.87    0.90
   3   3  10   13.64    1.03
  -3   3 -10   14.21    0.95
   3   3  10   15.23    1.07
   3   3  10   12.99    1.07
   4  -3  10    5.58    0.80
  -4  -3 -10    5.98    0.78
  -4  -3 -10    5.05    0.84
  -4  -3 -10    6.42    0.60
   4  -3  10    6.14    0.81
   4   3  10    5.61    0.68
  -4   3 -10    7.48    0.65
   4   3  10    6.49    0.73
  -4   3 -10    5.49    0.58
   5  -3  10    1.23    0.52
  -5  -3 -10    1.75    0.58
  -5  -3 -10    1.49    0.38
  -5  -3 -10    1.15    0.47
   5  -3  10    1.29    0.48
   5   3  10    1.74    0.40
  -5   3 -10    2.00    0.41
   5   3  10    1.66    0.44
  -5   3 -10    0.77    0.32
  -6  -3 -10    0.78    0.34
   6  -3  10   -0.42    0.46
  -6  -3 -10    0.83    0.57
   6  -3  10   -0.45    0.57
   6   3  10    0.11    0.35
   6   3  10    0.27    0.42
  -6   3 -10    0.10    0.34
   6   3  10    0.40    0.37
  -6   3 -10    0.77    0.43
  -7  -3 -10   -0.20    0.34
  -7  -3 -10    0.94    0.61
   7  -3  10    0.52    0.39
  -7  -3 -10   -0.50    0.75
   7  -3  10    0.05    0.28
   7  -3  10   -0.23    0.74
   7  -3  10    0.12    0.53
  -7   3 -10   -0.18    0.40
   7   3  10   -0.65    0.48
  -7   3 -10    0.68    0.52
   7   3  10   -0.35    0.53
   7   3  10   -0.03    0.40
   8  -3  10    5.05    0.69
  -8  -3 -10    5.02    0.87
   8  -3  10    5.36    0.69
   8  -3  10    4.32    0.90
  -8   3 -10    4.49    0.74
  -8   3 -10    6.39    1.11
   8   3  10    5.75    0.94
   8   3  10    3.86    0.70
   9  -3  10    3.40    0.89
   9  -3  10    5.17    1.35
   9  -3  10    4.87    0.76
   9   3  10    2.75    1.07
  -9   3 -10    5.22    1.02
   9   3  10    3.46    0.79
  10  -3  10    0.80    0.93
  10  -3  10    1.27    1.57
  10   3  10    3.28    1.24
  10   3  10    1.74    0.82
  11  -4 -10    1.16    1.64
  11  -4 -10   -0.86    0.91
  11   4 -10    0.81    0.81
 -11   4  10    1.11    1.33
  11   4 -10    3.51    1.31
  10  -4 -10    0.66    1.41
  10  -4 -10   -1.18    0.73
  10   4 -10    1.99    1.02
  10   4 -10   -0.14    0.57
 -10   4  10   -1.19    1.42
 -10   4  10   -0.40    1.13
  -9  -4  10   -0.45    0.54
   9  -4 -10    0.09    0.69
   9   4 -10    0.75    0.51
   9   4 -10    1.63    0.83
  -9   4  10   -0.70    0.95
  -9   4  10    0.07    0.53
  -9   4  10   -0.16    1.16
   8  -4 -10    0.72    0.58
   8  -4 -10    0.36    0.97
  -8   4  10   -0.03    0.82
   8   4 -10   -0.67    0.37
  -8   4  10    0.72    0.38
   8   4 -10    0.07    0.81
  -8   4  10   -1.30    1.00
  -8   4  10    0.92    0.76
   8   4 -10   -0.26    0.52
   7  -4 -10   19.24    1.51
   7  -4 -10   21.54    2.05
   7   4 -10   18.82    1.33
  -7   4  10   18.82    1.86
  -7   4  10   19.42    1.36
   7   4 -10   16.65    1.54
   7   4 -10   18.91    1.43
  -7   4  10   16.45    1.75
  -7   4  10   17.83    1.66
   6  -4 -10   10.56    1.53
   6  -4 -10   11.50    1.08
   6  -4 -10   11.63    1.05
  -6   4  10    9.19    0.97
  -6   4  10   10.30    1.39
  -6   4  10   11.86    1.87
   6   4 -10    9.44    1.10
   6   4 -10   12.01    0.86
  -6   4  10    8.42    1.39
   5  -4 -10    2.61    0.53
   5  -4 -10    2.51    0.55
  -5   4  10    3.82    0.81
  -5   4  10    3.34    0.90
   5   4 -10    3.69    0.45
  -5   4  10    2.45    0.73
  -5   4  10    3.59    0.61
  -5   4  10    3.43    0.63
   4  -4 -10    0.70    0.34
   4  -4 -10    0.93    0.41
  -4   4  10    1.97    0.52
  -4   4  10    0.70    0.74
  -4   4  10    0.43    0.56
  -4   4  10    0.22    0.51
  -4   4  10    0.72    0.42
   3  -4 -10    1.16    0.48
   3  -4 -10    0.78    0.36
   3  -4 -10    1.23    0.41
  -3   4  10    1.26    0.41
  -3   4  10    1.01    0.49
   3   4 -10    0.34    0.38
  -3   4  10    0.30    0.65
  -3   4  10    0.87    0.49
  -3   4  10    0.81    0.52
   2  -4 -10   26.88    1.73
   2  -4 -10   27.00    1.78
   2   4 -10   25.40    1.75
  -2   4  10   27.64    1.91
  -2   4  10   25.35    1.86
  -2   4  10   27.35    1.83
   1  -4 -10   18.15    1.20
   1  -4 -10   16.88    1.49
   1  -4 -10   15.80    1.21
  -1   4  10   15.34    1.30
  -1   4  10   16.37    1.58
   1   4 -10   18.00    1.22
  -1   4  10   16.55    1.33
  -1   4  10   17.12    1.30
   0  -4 -10   10.83    0.89
   0  -4 -10   10.51    0.91
   0   4  10   10.45    1.42
   0   4 -10   11.60    0.92
   0   4  10   11.30    1.04
   0   4  10   13.81    1.04
   0   4  10    9.61    0.98
   1  -4  10    7.71    1.03
  -1  -4 -10    6.45    0.99
  -1  -4 -10    7.11    0.74
   1   4  10    8.59    0.86
   1   4  10    7.78    0.83
   1   4  10    7.96    0.83
  -1   4 -10    7.55    0.75
   1   4  10    6.09    1.06
   2  -4  10    2.80    0.64
  -2  -4 -10    2.61    0.44
  -2  -4 -10    2.32    0.58
  -2   4 -10    3.25    0.36
   2   4  10    2.17    0.48
   2   4  10    2.61    0.53
  -2   4 -10    3.57    0.52
   2   4  10    2.50    0.47
  -3  -4 -10   -0.56    0.49
   3  -4  10    0.19    0.53
  -3  -4 -10    0.01    0.31
  -3   4 -10    0.20    0.23
   3   4  10   -0.21    0.34
   3   4  10    0.51    0.42
  -3   4 -10   -0.16    0.33
   3   4  10    0.85    0.39
   4  -4  10    0.38    0.61
  -4  -4 -10    0.33    0.28
  -4  -4 -10    1.75    0.61
   4   4  10    0.42    0.41
  -4   4 -10    0.33    0.31
  -4   4 -10    0.42    0.33
   4   4  10    1.46    0.50
   5  -4  10    2.39    0.71
   5  -4  10    3.55    0.72
   5  -4  10    2.97    0.44
  -5  -4 -10    1.99    0.45
  -5  -4 -10    2.81    0.67
  -5   4 -10    2.66    0.44
   5   4  10    2.72    0.58
   5   4  10    2.03    0.50
  -5   4 -10    2.90    0.48
   5   4  10    1.89    0.57
  -6  -4 -10    1.14    0.44
   6  -4  10    1.45    0.81
   6  -4  10    1.46    0.43
   6  -4  10    2.49    0.76
  -6   4 -10    0.33    0.46
   6   4  10   -0.06    0.42
   6   4  10    0.68    0.57
  -6   4 -10    1.09    0.49
  -7  -4 -10    5.77    0.96
   7  -4  10    5.69    1.11
   7  -4  10    9.24    1.66
  -7   4 -10    5.92    1.06
   7   4  10    5.19    0.88
   7   4  10    6.43    0.95
  -7   4 -10    4.29    0.75
   8  -4  10    3.61    1.17
  -8  -4 -10    6.94    1.24
  -8  -4 -10    5.25    0.75
   8  -4  10    5.32    1.50
   8   4  10    5.49    0.90
   8   4  10    5.36    1.04
   9  -4  10    5.07    1.34
   9   4  10    4.20    1.20
   9   4  10    3.32    0.86
  10  -5 -10    1.20    1.00
  10  -5 -10    0.76    0.74
  10  -5 -10    3.51    2.05
  10   5 -10   -1.03    0.72
 -10   5  10    0.68    1.53
   9  -5 -10    0.66    0.86
   9  -5 -10    1.36    1.72
   9  -5 -10    0.32    0.75
  -9   5  10   -1.04    1.65
  -9   5  10    1.47    1.34
  -9   5  10    2.56    0.78
   9   5 -10   -0.02    0.91
   8  -5 -10    0.70    1.32
   8  -5 -10   -0.13    0.68
   8  -5 -10    0.16    0.52
   8   5 -10    1.04    0.77
  -8   5  10   -0.82    1.33
   8   5 -10   -0.30    0.52
  -8   5  10    0.03    0.61
  -8   5  10    0.07    1.06
  -8   5  10   -0.48    1.21
   7  -5 -10    3.26    0.72
   7  -5 -10    5.29    1.29
   7   5 -10    2.86    0.77
  -7   5  10    3.90    1.14
  -7   5  10    3.85    1.20
   7   5 -10    3.10    0.54
  -7   5  10    4.11    0.71
  -7   5  10    3.08    1.07
   6  -5 -10    0.55    0.44
   6  -5 -10    1.14    0.54
  -6   5  10    1.99    0.93
  -6   5  10   -1.11    0.97
   6   5 -10   -0.40    0.58
  -6   5  10    1.07    0.92
  -6   5  10   -0.61    0.88
   6   5 -10    0.68    0.36
  -6   5  10    0.55    0.55
   5  -5 -10    2.40    0.63
   5  -5 -10    1.98    0.54
   5   5 -10    3.16    0.51
  -5   5  10    2.11    0.70
  -5   5  10    0.49    0.99
  -5   5  10    2.43    0.73
  -5   5  10    2.49    0.88
   5   5 -10    1.40    0.58
  -5   5  10    2.19    0.80
   4  -5 -10    8.71    0.87
   4  -5 -10    8.64    0.89
   4   5 -10    9.96    1.05
  -4   5  10    8.34    1.30
  -4   5  10    9.19    1.64
  -4   5  10   10.10    1.39
  -4   5  10   10.22    1.31
   3  -5 -10    3.91    0.67
   3  -5 -10    3.88    0.68
  -3   5  10    3.63    0.84
  -3   5  10    4.32    0.81
  -3   5  10    4.62    0.75
   3   5 -10    5.54    0.77
   2  -5 -10   -0.16    0.36
   2  -5 -10   -0.21    0.33
  -2   5  10    0.02    0.53
  -2   5  10   -0.44    0.51
   2   5 -10   -0.63    0.43
  -2   5  10    0.79    0.55
  -2   5  10   -0.92    0.80
   1  -5 -10   13.29    1.19
  -1  -5  10   17.92    1.05
   1   5 -10   15.44    1.28
  -1   5  10   15.45    1.37
  -1   5  10   15.45    1.37
  -1   5  10   12.60    1.74
  -1   5  10   16.56    1.36
   0  -5 -10   -0.09    0.28
   0   5  10   -0.82    0.82
   0   5  10   -0.13    0.47
   0   5  10   -0.31    0.45
   0   5  10   -0.98    0.47
   0   5 -10   -0.10    0.39
  -1  -5 -10    3.01    0.57
  -1  -5 -10    2.35    0.81
   1   5  10    3.67    0.65
   1   5  10    2.20    0.58
   1   5  10    2.43    0.63
  -1   5 -10    2.53    0.54
  -2  -5 -10   -0.53    0.67
  -2  -5 -10    0.51    0.33
   2   5  10    0.36    0.52
   2   5  10   -0.22    0.50
   2   5  10   -0.13    1.00
   2   5  10    0.22    0.45
  -2   5 -10    0.70    0.49
   3  -5  10    0.83    0.75
  -3  -5 -10    0.99    0.41
  -3  -5 -10    0.93    0.83
  -3  -5 -10    0.50    0.70
   3   5  10    1.49    0.51
   3   5  10    0.97    0.58
   3   5  10    0.77    0.50
  -3   5 -10    1.25    0.33
  -3   5 -10    1.30    0.52
  -4  -5 -10   -0.46    0.69
  -4  -5 -10    0.15    0.35
   4   5  10   -0.42    0.65
  -4   5 -10   -0.22    0.37
   4   5  10   -0.47    0.46
   4   5  10    0.37    0.47
   5  -5  10    1.09    0.52
  -5  -5 -10    0.18    0.40
   5  -5  10   -0.54    0.84
  -5  -5 -10    0.08    0.82
   5   5  10    0.80    0.53
   5   5  10    0.16    0.57
  -6  -5 -10    0.21    0.43
   6  -5  10   -1.26    0.97
   6   5  10   -0.48    0.66
  -6   5 -10   -0.18    0.61
   6   5  10    0.64    0.62
   7  -5  10   -1.29    1.13
   7   5  10    0.09    0.81
   7   5  10   -0.78    0.59
   8  -5  10    1.53    1.53
  -8  -5 -10    0.32    0.59
   8   5  10    0.70    1.17
   8   5  10   -0.59    0.81
   8  -6 -10    1.72    0.93
   8  -6 -10    1.74    0.67
  -8   6  10    4.84    1.69
   8   6 -10    2.65    0.80
  -8   6  10    4.15    1.66
   7  -6 -10   -0.08    0.54
   7  -6 -10    0.48    0.79
   7   6 -10   -0.17    0.55
  -7   6  10    1.57    1.44
  -7   6  10    3.02    1.34
   6  -6 -10   15.49    1.35
   6  -6 -10   14.86    1.47
  -6   6  10   13.83    2.12
   6   6 -10   14.15    1.16
  -6   6  10   13.85    2.41
  -6   6  10   12.92    2.23
   6   6 -10   10.12    1.49
   5  -6 -10    0.02    0.48
   5  -6 -10    0.28    0.52
  -5   6  10    0.67    1.03
  -5   6  10   -0.88    1.08
   4  -6 -10    2.03    0.60
   4  -6 -10    2.51    0.57
  -4   6  10    2.69    0.92
   4   6 -10    1.68    0.76
  -4   6  10    2.60    1.35
  -4   6  10    1.41    0.97
   3  -6 -10   47.24    3.05
  -3   6  10   46.37    3.25
  -3   6  10   40.70    3.59
  -3   6  10   47.45    3.20
   3   6 -10   51.34    3.20
   2  -6 -10    1.73    0.54
  -2  -6  10    1.18    0.41
  -2   6  10    0.39    0.74
  -2   6  10    0.80    0.70
  -2   6  10    1.01    1.25
   2   6 -10    0.14    0.64
  -1  -6  10   -0.20    0.32
   1  -6 -10   -0.17    0.41
  -1   6  10   -1.29    0.78
   1   6 -10   -0.19    0.66
  -1   6  10   -0.08    0.64
  -1   6  10   -0.56    0.70
  -1   6  10   -1.25    1.18
   0  -6 -10    1.35    0.47
   0  -6  10    1.94    0.37
   0   6  10    2.11    0.73
   0   6  10    1.13    0.61
   0   6  10   -1.76    1.18
  -1  -6 -10    1.87    0.73
  -1  -6 -10    2.34    0.57
   1   6  10    3.06    0.70
   1   6  10    2.62    1.29
   1   6  10    2.94    0.73
  -2  -6 -10   -0.26    0.39
  -2  -6 -10    0.71    0.72
   2   6  10    0.16    0.63
   2   6  10    2.21    1.57
   2   6  10    0.32    0.60
  -3  -6 -10    2.54    0.57
   3   6  10    2.34    0.75
   3   6  10    2.17    0.71
  -3   6 -10    3.28    0.50
   3   6  10    6.66    1.80
  -4  -6 -10    0.35    0.62
   4   6  10   -0.54    0.67
   4   6  10   -0.47    0.62
  -4   6 -10    0.03    0.59
  -5  -6 -10    2.63    0.65
   5   6  10    3.22    0.85
   5   6  10    2.43    0.80
  -6  -6 -10   -0.14    0.55
   6  -6  10   -1.86    1.88
   6   6  10    1.09    0.85
   6   6  10   -0.58    0.88
   4  -7 -10   -0.07    0.59
  -4   7  10   -0.35    1.16
   3  -7 -10    0.04    0.62
  -3   7  10    0.71    1.06
  -3   7  10   -0.25    1.06
   2  -7 -10    0.96    0.69
  -2   7  10    1.44    1.02
  -2   7  10    1.23    1.04
  -1  -7  10    4.12    0.69
   1  -7 -10    3.64    0.84
  -1   7  10    4.55    1.04
  -1   7  10    7.52    1.20
   0  -7 -10    2.08    0.68
   0   7  10    4.08    0.97
   0   7  10    3.01    0.95
  -1  -7 -10    0.52    0.54
   1   7  10   -0.70    0.82
   1   7  10   -1.63    0.84
  -2  -7 -10    1.94    0.67
   2   7  10    0.61    0.84
   2   7  10    2.82    0.85
  13   0 -11    0.31    1.54
  13   0 -11   -1.04    0.97
 -13   0  11   -0.44    1.18
  13   0 -11    1.39    0.97
  12   0 -11    0.11    0.46
 -12   0  11    0.32    0.94
  12   0 -11    1.16    1.23
  12   0 -11    0.14    0.66
 -12   0  11    0.44    0.77
 -11   0  11    1.68    0.76
  11   0 -11    0.01    0.36
  11   0 -11    0.17    0.53
 -11   0  11   -0.19    0.50
  11   0 -11   -0.45    0.89
  10   0 -11    0.22    0.29
  10   0 -11   -0.17    0.40
 -10   0  11    0.34    0.70
  10   0 -11   -0.60    0.77
   9   0 -11   -0.65    0.73
  -9   0  11    0.69    0.40
   9   0 -11    0.15    0.37
  -9   0  11    0.10    0.52
   8   0 -11    0.37    0.60
  -8   0  11    0.68    0.46
   8   0 -11   -0.27    0.39
  -7   0  11    0.19    0.45
  -7   0  11   -0.04    0.26
   7   0 -11    0.07    0.49
  -7   0  11   -0.22    0.37
   7   0 -11    0.09    0.33
   6   0 -11    0.23    0.29
   6   0 -11    0.05    0.45
  -6   0  11    0.03    0.39
   6   0 -11   -0.02    0.31
  -6   0  11   -0.01    0.33
  -6   0  11    0.06    0.25
  -5   0  11    0.17    0.32
  -5   0  11   -0.15    0.20
   5   0 -11    0.27    0.25
  -5   0  11   -0.43    0.35
   5   0 -11   -0.44    0.38
   5   0 -11   -0.28    0.22
  -4   0  11   -0.44    0.33
  -4   0  11   -0.15    0.18
   4   0 -11   -0.15    0.17
   4   0 -11   -0.01    0.33
   4   0 -11   -0.17    0.25
  -4   0  11   -0.05    0.25
  -3   0  11    0.33    0.35
  -3   0  11   -0.05    0.29
   3   0 -11    0.37    0.35
  -3   0  11    0.00    0.19
   3   0 -11   -0.04    0.19
   3   0 -11   -0.11    0.23
  -3   0  11   -0.02    0.18
   2   0 -11   -0.09    0.16
  -2   0  11   -0.02    0.30
  -2   0  11    0.08    0.19
  -2   0  11   -0.17    0.16
  -2   0  11    0.02    0.26
   2   0 -11    0.10    0.20
  -1   0  11   -0.12    0.15
  -1   0  11   -0.07    0.23
  -1   0  11    0.06    0.32
   1   0 -11    0.08    0.15
   1   0 -11   -0.27    0.22
  -1   0  11   -0.25    0.15
   1   0 -11   -0.13    0.18
   1   0 -11   -0.05    0.19
   0   0  11    0.92    0.28
   0   0 -11    0.61    0.22
   0   0 -11    0.57    0.27
   0   0 -11    0.47    0.18
   0   0 -11    1.19    0.23
   0   0  11    0.84    0.19
   0   0  11    1.01    0.22
  -1   0 -11   -0.41    0.21
   1   0  11    0.15    0.16
  -1   0 -11   -0.06    0.15
  -1   0 -11   -0.20    0.16
   1   0  11   -0.04    0.17
  -1   0 -11   -0.23    0.18
   1   0  11    0.14    0.20
  -2   0 -11    0.02    0.21
  -2   0 -11    0.20    0.20
   2   0  11    0.11    0.17
   2   0  11   -0.01    0.21
   2   0  11   -0.08    0.16
  -2   0 -11    0.20    0.18
  -2   0 -11   -0.27    0.24
  -3   0 -11   -0.03    0.21
  -3   0 -11    0.01    0.18
   3   0  11    0.16    0.18
  -3   0 -11    0.12    0.29
   3   0  11    0.10    0.18
   3   0  11    0.18    0.23
  -4   0 -11   -0.11    0.23
  -4   0 -11    0.32    0.33
   4   0  11    0.03    0.19
   4   0  11   -0.04    0.25
   4   0  11   -0.11    0.21
   5   0  11   -0.20    0.21
   5   0  11    0.13    0.33
   5   0  11   -0.11    0.20
  -5   0 -11   -0.18    0.25
  -5   0 -11    0.44    0.37
   6   0  11    0.10    0.28
   6   0  11    0.12    0.39
  -6   0 -11    0.25    0.37
  -6   0 -11   -0.45    0.37
   6   0  11   -0.22    0.24
   7   0  11    0.36    0.35
   7   0  11   -0.82    0.47
  -7   0 -11    0.23    0.53
   8   0  11   -0.74    0.38
  -8   0 -11    0.05    0.50
   8   0  11   -0.37    0.41
  -8   0 -11    0.41    0.60
   8   0  11    0.36    0.61
   9   0  11   -0.66    0.84
   9   0  11    0.32    0.58
   9   0  11    0.42    0.48
  -9   0 -11   -0.76    0.76
  10   0  11   -0.23    0.52
  10   0  11    0.44    0.69
  10   0  11    0.54    1.18
  11   0  11    0.30    0.67
  11   0  11    1.45    1.40
  11   0  11   -0.79    0.89
  13  -1 -11    2.28    1.11
  13  -1 -11   -0.41    1.68
 -13  -1  11   -1.24    1.14
 -13   1  11    1.93    1.38
  13   1 -11    1.14    1.49
  13   1 -11    0.87    0.99
 -12  -1  11    1.28    0.69
  12  -1 -11    1.06    1.34
  12  -1 -11    1.38    0.77
  12  -1 -11   -0.87    0.54
 -12  -1  11   -1.58    0.95
 -12   1  11    0.47    1.07
  12   1 -11    0.60    0.37
  12   1 -11    0.53    1.21
  12   1 -11   -0.51    0.67
  11  -1 -11    1.74    1.06
  11  -1 -11    2.28    0.74
  11  -1 -11    1.27    0.47
  11   1 -11    0.73    0.98
  11   1 -11    0.87    0.32
 -11   1  11    2.52    0.96
 -11   1  11    1.84    0.66
  11   1 -11    1.22    0.66
 -10  -1  11    7.20    1.12
  10  -1 -11   10.33    1.66
 -10  -1  11    7.80    1.21
  10  -1 -11    8.50    1.04
 -10  -1  11    8.40    0.85
  10   1 -11    8.45    0.63
 -10   1  11    9.65    1.33
 -10   1  11    9.68    1.00
  10   1 -11    7.53    1.02
 -10   1  11    7.04    1.11
  10   1 -11    7.42    1.21
  -9  -1  11    5.39    0.64
  -9  -1  11    5.54    0.94
  -9  -1  11    5.81    1.03
   9  -1 -11    5.47    1.00
  -9   1  11    4.99    0.87
   9   1 -11    5.54    0.82
  -9   1  11    5.40    0.87
   8  -1 -11    1.09    0.67
  -8  -1  11    0.65    0.42
  -8  -1  11    1.09    0.28
  -8  -1  11    0.57    0.49
   8  -1 -11    0.45    0.41
  -8   1  11    1.49    0.61
  -8   1  11    1.49    0.42
  -8   1  11    0.20    0.55
   8   1 -11    0.86    0.41
   8   1 -11    1.66    0.64
   7  -1 -11    0.01    0.53
  -7  -1  11    0.06    0.22
   7  -1 -11   -0.14    0.30
  -7  -1  11   -0.21    0.37
  -7  -1  11   -0.04    0.35
   7   1 -11   -0.27    0.30
  -7   1  11    0.55    0.48
  -7   1  11    0.35    0.47
   7   1 -11    0.73    0.53
  -7   1  11   -0.06    0.33
   6  -1 -11    0.73    0.53
  -6  -1  11    0.40    0.20
   6  -1 -11    0.58    0.31
  -6  -1  11    0.43    0.31
  -6  -1  11    0.11    0.39
  -6   1  11    0.75    0.34
   6   1 -11    0.79    0.33
  -6   1  11    0.02    0.49
  -6   1  11    0.83    0.45
   6   1 -11    0.27    0.45
  -5  -1  11    1.38    0.29
  -5  -1  11    1.30    0.39
   5  -1 -11    0.53    0.44
  -5  -1  11    1.39    0.21
   5  -1 -11    1.08    0.31
  -5   1  11    1.20    0.36
  -5   1  11    0.61    0.38
   5   1 -11    1.54    0.35
   5   1 -11    2.10    0.42
  -5   1  11    1.06    0.45
   5   1 -11    2.50    0.49
  -4  -1  11    1.64    0.39
   4  -1 -11    0.88    0.33
   4  -1 -11    1.35    0.35
  -4  -1  11    1.56    0.27
  -4  -1  11    1.53    0.22
   4  -1 -11    2.32    0.55
   4   1 -11    1.57    0.33
  -4   1  11    1.20    0.37
   4   1 -11    1.33    0.41
  -4   1  11    1.46    0.20
  -4   1  11    1.92    0.37
  -4   1  11    1.22    0.48
   4   1 -11    1.98    0.33
   3  -1 -11    4.24    0.48
   3  -1 -11    3.04    0.57
   3  -1 -11    3.57    0.52
  -3  -1  11    4.19    0.55
  -3  -1  11    4.22    0.58
  -3  -1  11    4.04    0.36
  -3  -1  11    4.23    0.35
   3   1 -11    4.13    0.44
   3   1 -11    3.55    0.55
  -3   1  11    4.21    0.66
   3   1 -11    3.96    0.47
  -3   1  11    4.99    0.73
  -3   1  11    3.69    0.53
  -3   1  11    3.87    0.49
  -2  -1  11    9.54    0.72
  -2  -1  11    8.79    0.62
  -2  -1  11    8.44    0.60
   2  -1 -11    8.63    0.72
   2  -1 -11    9.20    0.78
  -2  -1  11    7.70    0.75
  -2  -1  11    8.38    0.57
   2   1 -11    9.15    0.67
  -2   1  11    8.87    0.71
   2   1 -11    9.73    0.69
  -2   1  11    8.69    0.74
  -2   1  11    8.81    0.81
  -2   1  11   10.78    0.93
   1  -1 -11   66.66    3.81
  -1  -1  11   64.67    3.73
   1  -1 -11   62.01    3.85
   1  -1 -11   64.68    3.76
   1  -1 -11   62.30    3.72
  -1  -1  11   63.22    3.65
  -1  -1  11   62.29    3.70
  -1  -1  11   65.17    3.68
   1   1 -11   65.02    3.78
   1   1 -11   62.65    3.72
  -1   1  11   62.84    3.75
   1   1 -11   66.56    3.73
  -1   1  11   63.19    3.77
  -1   1  11   64.26    3.81
   0  -1  11    3.37    0.35
   0  -1 -11    3.39    0.38
   0  -1 -11    3.63    0.43
   0  -1  11    3.28    0.38
   0  -1 -11    3.83    0.56
   0  -1  11    3.21    0.33
   0  -1 -11    3.54    0.47
   0  -1  11    3.31    0.28
   0   1  11    3.22    0.42
   0   1 -11    3.30    0.36
   0   1  11    3.55    0.50
   0   1  11    3.19    0.41
   0   1 -11    3.37    0.44
   0   1 -11    2.72    0.36
  -1  -1 -11    3.97    0.56
  -1  -1 -11    3.96    0.49
   1  -1  11    3.60    0.41
   1  -1  11    3.29    0.38
   1  -1  11    3.70    0.37
   1  -1  11    3.77    0.32
  -1  -1 -11    4.87    0.49
   1   1  11    4.00    0.46
  -1   1 -11    3.60    0.46
  -1   1 -11    3.63    0.39
   1   1  11    3.93    0.44
   1   1  11    3.86    0.52
  -1   1 -11    3.26    0.39
  -2  -1 -11    0.24    0.21
   2  -1  11    0.08    0.14
   2  -1  11    0.15    0.18
  -2  -1 -11   -0.24    0.20
  -2  -1 -11    0.09    0.28
   2  -1  11   -0.25    0.16
  -2  -1 -11   -0.12    0.21
   2  -1  11    0.13    0.21
   2   1  11   -0.01    0.18
  -2   1 -11   -0.15    0.25
   2   1  11   -0.05    0.19
   2   1  11   -0.14    0.22
  -2   1 -11    0.27    0.20
  -2   1 -11    0.15    0.20
   3  -1  11    0.22    0.19
   3  -1  11   -0.13    0.22
   3  -1  11    0.23    0.16
   3  -1  11    0.00    0.17
  -3  -1 -11    0.35    0.32
  -3  -1 -11    0.26    0.26
  -3  -1 -11   -0.16    0.20
  -3   1 -11    0.34    0.21
   3   1  11   -0.05    0.22
  -3   1 -11    0.00    0.26
   3   1  11   -0.13    0.23
   3   1  11    0.18    0.23
  -4  -1 -11    2.01    0.36
   4  -1  11    1.23    0.27
   4  -1  11    1.74    0.33
   4  -1  11    1.33    0.27
  -4  -1 -11    1.45    0.29
   4  -1  11    0.89    0.36
  -4   1 -11    1.44    0.35
   4   1  11    1.69    0.31
  -4   1 -11    1.10    0.27
   4   1  11    1.30    0.35
   4   1  11    1.13    0.28
   5  -1  11   10.59    0.77
  -5  -1 -11   10.20    0.75
   5  -1  11    9.94    0.82
   5  -1  11    9.51    0.76
  -5  -1 -11    8.18    0.96
   5  -1  11   10.71    0.94
  -5   1 -11    9.46    0.89
  -5   1 -11    9.51    0.80
   5   1  11    9.06    0.78
   5   1  11    9.77    0.80
   5   1  11    9.36    0.87
   6  -1  11    2.03    0.38
   6  -1  11    1.89    0.35
  -6  -1 -11    1.62    0.54
   6  -1  11    1.85    0.52
   6  -1  11    1.58    0.38
   6   1  11    0.99    0.38
  -6   1 -11    1.50    0.37
   6   1  11    1.61    0.36
  -6   1 -11    1.80    0.46
   6   1  11    1.58    0.49
   7  -1  11   10.47    0.95
  -7  -1 -11   12.63    1.05
   7  -1  11   10.22    1.22
  -7  -1 -11   10.00    1.19
   7  -1  11   11.45    1.01
   7  -1  11   10.83    0.92
  -7   1 -11   11.26    1.13
  -7   1 -11   11.90    0.99
   7   1  11    9.25    0.95
   7   1  11   10.97    0.99
   7   1  11   12.21    1.21
   8  -1  11    0.12    0.68
  -8  -1 -11    0.87    0.66
   8  -1  11   -0.28    0.40
  -8  -1 -11    0.28    0.55
   8   1  11   -0.77    0.58
  -8   1 -11   -0.02    0.60
  -8   1 -11    0.35    0.48
   8   1  11   -0.50    0.45
   8   1  11    0.51    0.44
   9  -1  11    2.85    0.98
   9  -1  11    2.88    0.68
   9  -1  11    2.17    0.62
   9  -1  11    2.40    0.56
   9   1  11    3.36    0.64
   9   1  11    4.41    1.02
  -9   1 -11    3.35    0.92
  10  -1  11    3.85    1.21
  10  -1  11    3.28    0.80
  10  -1  11    2.75    0.77
 -10   1 -11    2.36    1.27
  10   1  11    1.29    0.81
  10   1  11    1.92    1.05
  11  -1  11   -1.25    1.49
  11  -1  11   -0.58    0.90
  11  -1  11    1.10    0.88
  11   1  11    1.23    1.36
  11   1  11    0.56    0.87
 -13  -2  11    1.64    1.13
  13  -2 -11    1.69    1.91
  13  -2 -11   -0.11    0.95
 -13   2  11    5.51    1.61
  13   2 -11    1.51    0.96
  13   2 -11   -1.34    1.58
  12  -2 -11    2.53    0.94
  12  -2 -11    6.00    1.68
  12   2 -11    3.98    0.91
  12   2 -11    2.99    1.41
  12   2 -11    3.91    0.65
 -12   2  11    6.51    1.46
  11  -2 -11   -0.26    0.75
 -11  -2  11    1.25    0.47
 -11  -2  11    0.66    0.70
  11  -2 -11    0.82    1.29
  11   2 -11    1.25    0.32
 -11   2  11    1.75    1.05
  11   2 -11   -0.02    0.67
  11   2 -11    0.40    1.02
 -10  -2  11    0.72    0.58
  10  -2 -11    0.20    0.61
  10  -2 -11    0.08    1.04
 -10  -2  11    0.36    0.36
 -10  -2  11    0.99    0.60
  10   2 -11    1.30    0.59
 -10   2  11    0.00    0.62
 -10   2  11    1.72    0.86
  10   2 -11    0.73    0.83
 -10   2  11    0.82    0.97
  -9  -2  11    0.71    0.29
   9  -2 -11    0.72    0.90
  -9  -2  11    0.90    0.46
   9  -2 -11    1.25    0.51
  -9  -2  11    0.80    0.54
  -9   2  11    0.34    0.68
   9   2 -11    0.55    0.41
  -9   2  11    2.23    0.86
   9   2 -11    1.09    0.72
  -9   2  11    1.81    0.56
   8  -2 -11   13.22    1.16
   8  -2 -11    9.11    1.50
  -8  -2  11   14.67    1.02
  -8  -2  11   12.97    0.85
  -8   2  11   11.76    1.35
  -8   2  11    9.11    1.44
   8   2 -11   12.73    1.08
   8   2 -11   14.59    1.37
   7  -2 -11    3.78    0.82
  -7  -2  11    2.91    0.47
  -7  -2  11    2.66    0.46
  -7  -2  11    2.54    0.32
   7  -2 -11    2.75    0.56
  -7   2  11    2.53    0.66
   7   2 -11    2.92    0.39
   7   2 -11    3.13    0.66
  -7   2  11    3.59    0.80
  -7   2  11    3.09    0.53
   7   2 -11    2.05    0.44
   6  -2 -11    6.08    0.73
  -6  -2  11    6.11    0.68
   6  -2 -11    6.09    1.04
   6   2 -11    6.11    0.64
  -6   2  11    6.54    0.88
   6   2 -11    5.20    0.48
   6   2 -11    6.87    0.88
  -6   2  11    6.82    0.49
  -6   2  11    6.20    0.75
  -6   2  11    4.53    0.80
  -5  -2  11    3.19    0.46
   5  -2 -11    3.77    0.76
   5  -2 -11    3.58    0.59
   5  -2 -11    3.19    0.50
   5   2 -11    3.53    0.47
   5   2 -11    4.22    0.72
  -5   2  11    3.35    0.37
   5   2 -11    3.39    0.47
  -5   2  11    2.72    0.46
   5   2 -11    3.21    0.34
  -5   2  11    3.20    0.65
   4  -2 -11    5.28    0.62
  -4  -2  11    4.59    0.57
   4  -2 -11    4.28    0.75
  -4  -2  11    4.70    0.59
  -4   2  11    5.32    0.73
   4   2 -11    5.21    0.41
  -4   2  11    5.68    0.51
   4   2 -11    5.13    0.52
   4   2 -11    4.49    0.68
  -4   2  11    5.01    0.84
  -4   2  11    5.16    0.69
   4   2 -11    6.11    0.55
  -3  -2  11   25.21    1.54
  -3  -2  11   24.32    1.52
   3  -2 -11   22.87    1.67
   3  -2 -11   24.67    1.62
   3  -2 -11   25.54    1.59
  -3   2  11   23.01    1.64
   3   2 -11   24.67    1.47
   3   2 -11   23.76    1.51
  -3   2  11   25.69    1.78
  -3   2  11   26.52    1.63
   3   2 -11   22.93    1.52
  -3   2  11   24.56    1.74
  -2  -2  11   -0.02    0.22
   2  -2 -11   -0.23    0.21
   2  -2 -11    0.26    0.28
   2  -2 -11   -0.14    0.22
   2   2 -11    0.02    0.15
  -2   2  11   -0.19    0.32
   2   2 -11    0.11    0.18
  -2   2  11    0.29    0.29
  -2   2  11   -0.48    0.38
  -2   2  11   -0.21    0.21
   2   2 -11   -0.20    0.11
   1  -2 -11    0.80    0.34
   1  -2 -11    0.82    0.29
  -1  -2  11    1.04    0.27
   1  -2 -11    1.24    0.28
   1   2 -11    0.94    0.21
   1   2 -11    1.17    0.22
  -1   2  11    1.13    0.32
  -1   2  11    1.29    0.39
  -1   2  11    1.17    0.52
  -1   2  11    0.89    0.28
   1   2 -11    1.21    0.21
   0  -2 -11   -0.15    0.19
   0  -2  11   -0.42    0.25
   0  -2  11   -0.25    0.22
   0  -2 -11   -0.11    0.22
   0  -2 -11   -0.31    0.30
   0  -2 -11    0.38    0.31
   0   2  11   -0.19    0.27
   0   2  11   -0.01    0.25
   0   2 -11    0.01    0.21
   0   2 -11   -0.12    0.17
   0   2  11    0.18    0.22
   0   2 -11    0.01    0.14
  -1  -2 -11   -0.11    0.25
  -1  -2 -11    0.24    0.23
  -1  -2 -11    0.24    0.24
   1  -2  11    0.24    0.22
  -1  -2 -11   -0.05    0.32
   1  -2  11    0.18    0.17
  -1   2 -11    0.10    0.21
   1   2  11    0.07    0.26
   1   2  11    0.30    0.31
   1   2  11    0.12    0.31
  -1   2 -11    0.45    0.16
  -1   2 -11    0.30    0.19
   2  -2  11    9.23    0.72
   2  -2  11    9.35    0.79
  -2  -2 -11    8.48    0.86
  -2  -2 -11   11.39    0.75
  -2   2 -11    9.37    0.66
   2   2  11    9.86    0.83
  -2   2 -11    9.69    0.76
   2   2  11    7.48    0.76
   2   2  11    9.20    0.76
  -3  -2 -11    3.09    0.43
  -3  -2 -11    2.85    0.50
   3  -2  11    3.08    0.51
  -3  -2 -11    2.90    0.53
   3  -2  11    3.19    0.45
   3   2  11    2.99    0.48
   3   2  11    2.73    0.48
  -3   2 -11    3.35    0.50
  -3   2 -11    3.28    0.39
   3   2  11    2.78    0.48
   4  -2  11    2.04    0.43
  -4  -2 -11    2.26    0.42
   4  -2  11    1.50    0.29
  -4  -2 -11    1.65    0.35
   4  -2  11    1.47    0.26
  -4  -2 -11    1.59    0.47
   4  -2  11    1.70    0.42
  -4   2 -11    1.82    0.37
  -4   2 -11    1.34    0.30
   4   2  11    2.81    0.44
   4   2  11    1.49    0.34
   4   2  11    1.10    0.39
   5  -2  11    1.10    0.45
   5  -2  11    0.40    0.24
  -5  -2 -11    0.73    0.32
   5  -2  11    0.75    0.35
   5  -2  11    0.22    0.28
  -5  -2 -11    0.32    0.37
  -5  -2 -11    0.44    0.46
  -5   2 -11    0.99    0.36
   5   2  11    0.61    0.39
  -5   2 -11    0.94    0.30
   5   2  11    1.06    0.31
  -6  -2 -11   15.13    1.03
   6  -2  11   12.32    1.30
   6  -2  11   14.15    0.99
  -6  -2 -11   14.02    1.35
   6  -2  11   14.33    1.06
  -6   2 -11   11.70    1.16
   6   2  11   14.86    1.14
   6   2  11   12.68    1.19
  -6   2 -11   14.16    1.06
  -7  -2 -11    0.07    0.61
   7  -2  11   -0.05    0.39
   7  -2  11   -0.06    0.59
  -7  -2 -11   -0.44    0.48
   7  -2  11   -0.57    0.39
  -7   2 -11    0.46    0.84
   7   2  11    0.21    0.56
   7   2  11   -0.02    0.38
  -7   2 -11   -0.92    0.42
   7   2  11    0.44    0.41
  -8  -2 -11   -0.65    0.69
   8  -2  11    0.94    0.76
   8  -2  11    1.97    0.55
   8  -2  11    1.68    0.45
   8  -2  11    0.50    0.50
  -8  -2 -11    1.04    0.95
   8   2  11    0.61    0.46
  -8   2 -11    1.64    0.69
   8   2  11    1.24    0.72
  -8   2 -11    0.81    0.58
   9  -2  11    4.94    0.90
   9  -2  11    3.54    1.09
   9  -2  11    3.12    0.79
  -9   2 -11    4.08    0.95
   9   2  11    3.45    0.97
   9   2  11    3.30    0.76
  10  -2  11   -0.49    0.69
  10  -2  11    1.67    0.80
  10  -2  11    1.47    1.37
  10   2  11   -0.69    1.10
  10   2  11    0.60    0.70
 -10   2 -11    1.96    1.20
  12  -3 -11   11.75    2.23
  12  -3 -11   18.09    2.02
  12   3 -11   14.53    1.80
  12   3 -11   13.03    2.45
 -12   3  11   21.45    2.72
  11  -3 -11    1.69    0.85
  11  -3 -11    0.54    1.43
  11   3 -11   -0.20    1.08
 -11   3  11    1.19    1.21
  11   3 -11    1.73    0.80
  10  -3 -11   -0.55    1.14
  10  -3 -11    0.13    0.69
 -10   3  11   -1.17    0.85
 -10   3  11    0.82    1.14
  10   3 -11    0.50    0.61
  10   3 -11    0.13    0.85
  -9  -3  11    3.06    0.59
   9  -3 -11    2.36    0.72
  -9   3  11    1.69    0.90
  -9   3  11    2.34    1.09
   9   3 -11    2.83    0.61
   9   3 -11    1.52    0.78
  -9   3  11    0.99    0.74
   8  -3 -11   12.75    1.78
   8  -3 -11   14.48    1.36
   8   3 -11   15.63    1.17
  -8   3  11   18.46    1.78
  -8   3  11   16.22    1.08
   8   3 -11   14.22    1.49
  -8   3  11   16.66    1.64
   8   3 -11   15.35    1.26
   7  -3 -11    0.55    0.72
   7  -3 -11   -0.19    0.43
  -7  -3  11    0.34    0.34
  -7   3  11   -0.36    0.61
   7   3 -11    0.63    0.54
  -7   3  11    1.18    0.75
   7   3 -11    0.35    0.32
   6  -3 -11    4.51    0.89
  -6  -3  11    4.44    0.53
   6  -3 -11    3.42    0.59
  -6   3  11    4.81    0.77
   6   3 -11    4.33    0.51
   6   3 -11    3.55    0.63
   6   3 -11    3.95    0.52
  -6   3  11    2.51    0.81
  -6   3  11    4.34    0.54
   5  -3 -11    2.34    0.49
   5  -3 -11    1.57    0.78
   5  -3 -11    2.36    0.50
  -5   3  11    2.65    0.62
  -5   3  11    3.55    0.78
  -5   3  11    3.10    0.73
   5   3 -11    3.19    0.44
   5   3 -11    2.63    0.38
  -5   3  11    3.31    0.44
   5   3 -11    2.29    0.49
   4  -3 -11    1.46    0.42
   4  -3 -11    1.38    0.41
   4  -3 -11    1.83    0.45
  -4   3  11    1.98    0.57
  -4   3  11    2.33    0.43
  -4   3  11    1.19    0.83
  -4   3  11    1.14    0.57
   4   3 -11    1.97    0.35
  -4   3  11    1.97    0.48
   4   3 -11    1.68    0.28
   4   3 -11    2.57    0.43
   3  -3 -11    0.61    0.33
   3  -3 -11    0.35    0.29
   3  -3 -11    0.23    0.38
  -3   3  11    0.38    0.56
  -3   3  11    1.44    0.52
   3   3 -11    1.02    0.25
  -3   3  11    0.90    0.37
   3   3 -11    1.02    0.26
   3   3 -11    0.66    0.22
  -3   3  11    0.77    0.44
   2  -3 -11   74.45    4.51
   2  -3 -11   72.20    4.52
  -2   3  11   88.37    4.76
  -2   3  11   75.55    4.56
   2   3 -11   81.41    4.47
  -2   3  11   73.10    4.57
  -2   3  11   71.56    4.61
  -1  -3  11   -0.15    0.32
   1  -3 -11    0.18    0.26
   1  -3 -11    0.10    0.26
  -1   3  11    0.10    0.33
  -1   3  11   -0.58    0.32
  -1   3  11    0.19    0.58
  -1   3  11    0.13    0.31
   1   3 -11    0.02    0.19
   0  -3 -11    0.54    0.45
   0  -3  11    0.39    0.35
   0  -3 -11    0.34    0.28
   0  -3 -11    0.42    0.29
   0   3  11   -0.04    0.57
   0   3 -11    0.42    0.21
   0   3 -11    0.49    0.14
   0   3  11    0.72    0.34
   0   3  11    0.44    0.35
   0   3  11    0.47    0.33
   1  -3  11    0.61    0.37
  -1  -3 -11    0.37    0.30
  -1  -3 -11    0.35    0.37
  -1  -3 -11    0.35    0.43
  -1  -3 -11    0.61    0.30
   1   3  11    0.39    0.33
  -1   3 -11    0.88    0.22
  -1   3 -11    0.62    0.17
   1   3  11    0.48    0.34
   1   3  11    1.18    0.40
  -1   3 -11    0.68    0.25
   2  -3  11   34.44    2.31
  -2  -3 -11   33.12    2.35
  -2  -3 -11   34.07    2.29
  -2  -3 -11   35.01    2.18
  -2   3 -11   37.19    2.13
   2   3  11   35.39    2.19
   2   3  11   34.21    2.25
  -2   3 -11   35.30    2.07
   2   3  11   36.97    2.23
  -3  -3 -11   22.25    1.45
   3  -3  11   22.88    1.63
  -3  -3 -11   22.55    1.58
  -3  -3 -11   20.69    1.62
  -3   3 -11   21.12    1.35
   3   3  11   22.79    1.54
   3   3  11   21.14    1.47
  -3   3 -11   20.98    1.41
   4  -3  11    0.51    0.41
  -4  -3 -11    1.09    0.46
   4  -3  11    0.73    0.46
  -4  -3 -11    1.08    0.50
  -4  -3 -11    0.26    0.28
  -4   3 -11    0.53    0.24
   4   3  11    0.89    0.40
  -4   3 -11    0.51    0.32
   4   3  11    0.46    0.32
  -5  -3 -11    5.73    0.86
   5  -3  11    5.78    0.93
  -5  -3 -11    6.28    0.67
  -5   3 -11    6.36    0.64
   5   3  11    5.19    0.90
  -5   3 -11    6.61    0.76
  -6  -3 -11    0.77    0.37
   6  -3  11    0.93    0.56
  -6  -3 -11    1.46    0.73
  -6  -3 -11    1.58    0.64
   6  -3  11    0.99    0.64
  -6   3 -11    1.52    0.42
  -6   3 -11    2.05    0.51
   6   3  11    0.69    0.48
   6   3  11    1.19    0.55
   6   3  11    0.92    0.40
  -7  -3 -11    7.03    1.16
  -7  -3 -11    3.84    0.66
   7  -3  11    3.87    0.92
   7  -3  11    4.20    0.84
  -7   3 -11    4.23    0.73
  -7   3 -11    4.08    0.61
   7   3  11    4.88    0.86
   7   3  11    5.20    0.80
   8  -3  11    2.30    1.01
   8  -3  11    0.57    0.66
   8  -3  11   -0.09    0.53
   8   3  11    0.36    0.47
  -8   3 -11    1.22    0.72
   8   3  11    0.13    0.78
   9  -3  11    1.07    0.68
   9  -3  11    4.75    1.40
   9  -3  11    1.97    0.86
  -9   3 -11    2.44    1.29
   9   3  11    1.27    0.69
   9   3  11    0.69    0.88
  10  -3  11    0.66    1.04
  10   3  11    0.08    0.91
  10   3  11    1.80    1.30
  11  -4 -11    2.24    1.11
  11  -4 -11    2.78    1.87
  11   4 -11    2.93    1.00
  11   4 -11    1.40    1.29
 -11   4  11    0.95    1.40
  10  -4 -11    2.24    1.47
  10   4 -11    2.97    0.79
 -10   4  11    3.10    1.30
  -9  -4  11   -0.99    0.52
   9  -4 -11    1.72    1.30
   9  -4 -11    0.31    0.70
   9   4 -11   -0.56    0.63
   9   4 -11   -0.41    0.83
  -9   4  11    0.91    1.02
   9   4 -11   -0.29    0.49
  -9   4  11    0.24    0.45
   8  -4 -11    1.08    0.62
   8  -4 -11    0.72    1.12
  -8   4  11    0.42    0.85
   8   4 -11    1.59    0.74
  -8   4  11    0.31    1.04
   8   4 -11    0.96    0.45
   8   4 -11    0.40    0.53
   7  -4 -11    1.95    0.58
   7  -4 -11    0.85    1.02
   7   4 -11    2.54    0.46
  -7   4  11    2.33    0.49
  -7   4  11    2.90    1.01
  -7   4  11    2.50    0.84
  -7   4  11    1.54    0.77
   7   4 -11    1.12    0.55
   6  -4 -11    3.62    0.98
   6  -4 -11    3.41    0.63
   6  -4 -11    1.96    0.56
  -6   4  11    3.26    0.80
  -6   4  11    2.97    0.53
  -6   4  11    4.05    1.01
  -6   4  11    3.16    0.96
  -6   4  11    3.89    0.86
   6   4 -11    2.60    0.43
   5  -4 -11    0.22    0.40
   5  -4 -11    0.22    0.42
  -5   4  11   -1.09    0.80
   5   4 -11    0.17    0.25
  -5   4  11   -0.30    0.54
  -5   4  11   -0.24    0.39
  -5   4  11    0.05    0.51
   4  -4 -11    0.13    0.35
   4  -4 -11   -0.20    0.25
  -4   4  11    0.22    0.69
  -4   4  11    0.08    0.42
  -4   4  11   -0.91    0.53
  -4   4  11   -0.92    0.50
   3  -4 -11    0.76    0.37
   3  -4 -11    0.38    0.35
  -3   4  11    1.05    0.56
  -3   4  11    0.75    0.49
  -3   4  11    0.59    0.54
  -3   4  11    0.16    0.43
   3   4 -11    0.85    0.36
   2  -4 -11    1.72    0.40
   2  -4 -11    2.18    0.56
   2  -4 -11    1.66    0.44
   2   4 -11    1.41    0.37
  -2   4  11    1.39    0.58
  -2   4  11    1.39    0.43
  -2   4  11    1.45    0.52
  -2   4  11    1.15    0.75
   1  -4 -11    2.28    0.61
   1  -4 -11    3.64    0.56
   1  -4 -11    1.93    0.40
  -1   4  11    2.05    0.79
  -1   4  11    2.70    0.55
  -1   4  11    2.48    0.58
   1   4 -11    3.60    0.53
  -1   4  11    3.38    0.53
   0  -4 -11   -0.45    0.46
   0  -4 -11    0.42    0.29
   0  -4 -11    0.46    0.31
   0   4  11    0.44    0.45
   0   4  11    0.71    0.40
   0   4  11    0.68    0.81
   0   4 -11    0.27    0.28
   0   4  11    0.97    0.40
   1  -4  11    5.87    1.00
  -1  -4 -11    5.95    0.66
  -1   4 -11    6.94    0.70
   1   4  11    6.11    0.79
   1   4  11    6.38    0.86
   1   4  11    6.27    0.81
   1   4  11    5.58    1.53
   2  -4  11   37.24    2.58
  -2  -4 -11   39.79    2.50
  -2  -4 -11   33.01    2.33
   2   4  11   35.67    2.41
   2   4  11   38.01    2.38
  -2   4 -11   40.93    2.39
   2   4  11   37.75    2.43
  -2   4 -11   37.47    2.21
  -3  -4 -11    1.29    0.61
  -3  -4 -11    2.04    0.42
   3  -4  11    1.06    0.69
   3   4  11    1.21    0.45
   3   4  11    0.75    0.46
  -3   4 -11    1.79    0.43
   3   4  11    1.53    0.48
  -3   4 -11    1.56    0.30
  -4  -4 -11    1.33    0.63
  -4  -4 -11    0.35    0.74
  -4  -4 -11    0.21    0.34
   4  -4  11   -0.07    0.61
   4   4  11   -0.40    0.46
  -4   4 -11    0.31    0.34
   4   4  11    0.14    0.42
   4   4  11    0.05    0.41
  -4   4 -11   -0.03    0.31
  -5  -4 -11   -1.00    0.79
  -5  -4 -11   -0.26    0.38
   5  -4  11    1.16    0.67
   5   4  11   -0.11    0.41
  -5   4 -11    0.51    0.43
  -5   4 -11   -0.69    0.33
   5   4  11   -0.13    0.46
   6  -4  11    0.03    0.72
   6  -4  11    1.68    0.92
  -6  -4 -11   -0.15    0.35
  -6  -4 -11    0.64    0.74
   6  -4  11   -0.51    0.40
  -6   4 -11    0.16    0.49
   6   4  11   -0.22    0.54
   6   4  11   -0.53    0.45
  -6   4 -11    0.40    0.42
   7  -4  11    4.72    1.14
  -7  -4 -11    4.70    0.73
   7  -4  11    5.75    1.29
  -7  -4 -11    5.09    1.10
   7   4  11    6.80    0.99
   7   4  11    4.12    0.88
  -7   4 -11    4.82    0.72
  -7   4 -11    6.58    1.15
   8  -4  11   -0.48    1.02
   8   4  11    1.03    0.92
   8   4  11    0.04    0.61
   9  -4  11    0.38    1.26
   9   4  11   -1.02    1.09
   9   4  11   -1.13    0.76
  10  -5 -11    0.29    0.72
  10  -5 -11    2.25    1.06
  10  -5 -11   -2.31    1.98
  10   5 -11    1.60    1.22
  10   5 -11   -0.18    0.82
 -10   5  11    1.81    1.58
   9  -5 -11   -0.67    1.72
   9  -5 -11   -0.55    0.85
   9  -5 -11    0.46    0.66
  -9   5  11    0.18    0.72
   9   5 -11   -1.03    1.14
  -9   5  11    2.28    1.45
   8  -5 -11   -0.82    2.25
   8  -5 -11   -0.04    0.72
   8  -5 -11    0.63    0.55
  -8   5  11    1.63    1.20
  -8   5  11   -1.36    1.38
  -8   5  11   -0.89    0.67
   8   5 -11   -0.91    0.47
   8   5 -11   -1.26    0.74
  -8   5  11    0.96    1.28
   7  -5 -11    2.71    0.66
   7  -5 -11    1.12    0.68
  -7   5  11   -0.19    1.00
   7   5 -11    1.45    0.49
   7   5 -11    2.52    0.71
  -7   5  11    2.88    0.71
  -7   5  11    0.25    0.97
  -7   5  11    1.71    1.23
   6  -5 -11    3.32    0.77
   6  -5 -11    2.12    0.53
   6   5 -11    1.02    0.62
  -6   5  11    4.29    0.77
   6   5 -11    2.69    0.49
  -6   5  11   -0.31    1.14
  -6   5  11    2.93    0.99
  -6   5  11    3.92    1.09
   5  -5 -11    6.76    0.94
   5  -5 -11    6.28    0.82
  -5   5  11    9.10    1.35
  -5   5  11    6.17    1.09
  -5   5  11    6.72    1.14
  -5   5  11    6.98    1.13
  -5   5  11    4.31    1.23
   5   5 -11    7.05    0.97
   4  -5 -11    0.08    0.42
   4  -5 -11    0.40    0.39
  -4   5  11    1.19    0.76
  -4   5  11    0.25    0.79
  -4   5  11    1.08    1.05
   4   5 -11    0.59    0.52
  -4   5  11    1.77    0.75
  -4   5  11    1.34    0.73
   3  -5 -11   -0.07    0.36
   3  -5 -11    0.59    0.41
  -3   5  11   -0.86    0.92
  -3   5  11    1.82    0.97
   3   5 -11   -0.11    0.44
  -3   5  11    0.32    0.57
  -3   5  11    0.80    0.63
  -3   5  11    1.19    0.65
   2  -5 -11    1.12    0.42
   2  -5 -11    0.55    0.36
   2  -5 -11    0.94    0.60
   2   5 -11    0.41    0.46
  -2   5  11    0.39    0.77
  -2   5  11    1.24    0.61
  -2   5  11    1.87    0.91
  -2   5  11    1.02    0.58
   1  -5 -11    0.43    0.40
   1  -5 -11    1.17    0.63
   1   5 -11    1.08    0.48
  -1   5  11    1.62    0.59
  -1   5  11    1.21    0.89
  -1   5  11    1.42    0.57
   0  -5 -11    0.81    0.39
   0  -5 -11    1.20    0.66
   0   5  11   -0.36    0.87
   0   5 -11    0.65    0.43
   0   5  11    1.79    0.66
   0   5  11    1.46    0.58
  -1  -5 -11    4.80    0.71
  -1  -5 -11    5.84    0.89
  -1   5 -11    4.55    0.70
   1   5  11    6.51    1.00
   1   5  11    5.09    0.72
   1   5  11    4.04    0.71
  -2  -5 -11    0.72    0.40
  -2  -5 -11    0.36    0.81
  -2  -5 -11    0.10    0.69
   2   5  11    0.18    1.10
  -2   5 -11    1.24    0.51
   2   5  11    1.31    0.55
   2   5  11    1.27    0.62
   2   5  11    1.45    0.50
   3  -5  11    0.81    0.82
  -3  -5 -11    0.93    0.85
  -3  -5 -11    2.88    0.52
   3   5  11    2.16    0.59
   3   5  11    2.09    0.61
   3   5  11    3.64    0.71
  -3   5 -11    2.33    0.42
  -3   5 -11    3.46    0.65
  -4  -5 -11    0.29    0.41
   4  -5  11   -1.00    0.88
  -4  -5 -11    0.15    0.78
   4   5  11    0.48    0.52
   4   5  11   -0.65    0.50
  -4   5 -11   -0.75    0.37
   5  -5  11    0.92    1.02
  -5  -5 -11   -0.13    0.41
  -5   5 -11    1.54    0.52
   5   5  11    0.39    0.58
   5   5  11   -0.42    0.55
   6  -5  11    0.88    1.10
  -6  -5 -11    0.62    1.06
   6   5  11    0.33    0.63
   6   5  11   -0.55    0.68
  -6   5 -11    0.16    0.62
  -7  -5 -11    2.45    0.66
   7  -5  11    6.42    1.39
   7   5  11    3.41    0.82
   7   5  11    3.55    0.98
   8  -6 -11   -0.20    0.62
   8  -6 -11   -1.43    0.90
  -8   6  11    3.61    2.47
  -8   6  11    0.59    1.70
   7  -6 -11    2.87    0.90
   7  -6 -11    3.31    0.82
  -7   6  11    4.02    1.54
  -7   6  11    0.36    1.39
   7   6 -11    3.14    0.74
   6  -6 -11    4.82    0.95
   6  -6 -11    4.81    1.18
  -6   6  11    8.43    1.37
   6   6 -11    6.32    0.90
   6   6 -11    4.49    1.02
  -6   6  11    4.67    1.45
  -6   6  11    2.02    1.65
   5  -6 -11    0.91    0.54
   5  -6 -11    0.81    0.63
  -5   6  11   -1.71    1.49
  -5   6  11    1.43    1.00
  -5   6  11    1.81    1.13
   5   6 -11    0.69    0.84
   4  -6 -11    3.68    0.65
   4  -6 -11    4.01    0.78
   4   6 -11    5.11    0.97
  -4   6  11    2.45    1.56
  -4   6  11    4.96    1.10
  -4   6  11    5.04    1.12
   3  -6 -11    2.22    0.59
  -3   6  11    2.62    0.92
  -3   6  11    3.93    0.97
  -3   6  11    2.32    1.37
   3   6 -11    4.47    0.82
   2  -6 -11    0.13    0.41
  -2   6  11   -0.50    0.71
  -2   6  11   -0.56    0.76
  -2   6  11    0.31    1.31
   1  -6 -11   -0.38    0.41
  -1   6  11    2.76    1.33
  -1   6  11    0.15    0.70
  -1   6  11    0.36    0.77
   0  -6 -11    0.17    0.46
   0   6  11    0.63    0.71
   0   6  11   -0.50    1.28
   0   6  11    0.32    0.65
  -1  -6 -11    1.54    0.56
  -1  -6 -11    2.24    0.88
   1   6  11    3.04    0.75
   1   6  11    2.60    0.74
   1   6  11    2.48    1.45
  -2  -6 -11    0.51    0.47
   2   6  11    5.50    1.72
   2   6  11    1.07    0.69
   2   6  11   -0.64    0.63
   3   6  11    5.15    1.90
   3   6  11    0.86    0.72
   3   6  11    1.56    0.71
  -3   6 -11    2.68    0.68
  -4  -6 -11    3.53    0.75
   4   6  11    2.72    0.83
   4   6  11    3.01    0.85
  -5  -6 -11    0.44    0.63
   5   6  11    1.11    0.79
   5   6  11    0.61    0.83
   3  -7 -11    0.06    0.66
  -3   7  11    0.61    1.16
  -3   7  11    1.02    1.11
   2  -7 -11   -0.22    0.53
  -2   7  11   -0.69    1.13
  -2   7  11    0.40    0.99
   1  -7 -11    0.16    0.57
  -1   7  11   -0.73    0.87
  -1   7  11   -0.03    1.02
   0  -7 -11    0.21    0.63
   0   7  11    1.18    0.90
   0   7  11    1.39    0.97
  -1  -7 -11    0.11    0.55
   1   7  11    0.06    0.92
   1   7  11   -0.35    0.86
  13   0 -12    5.47    1.73
 -13   0  12    2.04    1.39
  13   0 -12    6.17    1.16
  12   0 -12    3.16    0.94
 -12   0  12    2.97    1.15
  12   0 -12    2.08    0.49
  12   0 -12    1.64    1.25
 -12   0  12    3.96    1.40
 -11   0  12   20.80    1.97
  11   0 -12   25.24    2.35
 -11   0  12   18.92    1.62
  10   0 -12    4.92    1.08
 -10   0  12    3.56    0.92
 -10   0  12    5.04    1.48
  10   0 -12    4.68    0.81
  -9   0  12    6.33    0.90
  -9   0  12    5.66    0.74
   9   0 -12    5.50    0.82
  -8   0  12    1.27    0.37
   8   0 -12    0.51    0.65
   8   0 -12    1.25    0.44
  -8   0  12    1.50    0.57
   7   0 -12  201.71   12.01
  -7   0  12  208.05   11.89
   7   0 -12  209.99   11.88
  -6   0  12   20.89    1.50
   6   0 -12   20.07    1.47
  -6   0  12   20.07    1.57
  -6   0  12   21.19    1.41
   6   0 -12   24.58    1.72
   6   0 -12   21.65    1.53
  -5   0  12   28.33    1.79
  -5   0  12   28.64    1.84
   5   0 -12   26.00    1.82
  -5   0  12   30.04    2.31
   5   0 -12   28.71    1.90
   5   0 -12   30.16    2.02
  -4   0  12    0.60    0.25
   4   0 -12    0.76    0.44
  -4   0  12    0.74    0.41
  -4   0  12    0.55    0.41
   4   0 -12    0.11    0.23
   4   0 -12    0.45    0.28
  -4   0  12    0.65    0.28
  -3   0  12  160.19    9.07
   3   0 -12  171.06    9.15
  -3   0  12  160.59    9.07
   3   0 -12  158.75    9.10
  -3   0  12  143.07    9.15
  -2   0  12  147.69    8.84
  -2   0  12  154.58    8.82
  -2   0  12  146.97    8.90
   2   0 -12  166.14    8.81
   2   0 -12  161.81    8.87
   2   0 -12  149.66    8.88
  -2   0  12  156.41    8.95
   1   0 -12   47.83    2.80
   1   0 -12   42.68    2.87
  -1   0  12   51.43    2.93
  -1   0  12   46.07    2.83
  -1   0  12   42.51    2.74
   1   0 -12   46.80    2.82
  -1   0  12   45.31    2.78
   1   0 -12   52.17    2.73
   0   0  12   10.69    0.80
   0   0 -12    8.61    0.72
   0   0 -12    9.39    0.76
   0   0  12    9.94    0.73
   0   0 -12    9.97    0.65
   0   0 -12    8.48    0.82
   0   0  12   10.53    0.69
  -1   0 -12    6.39    0.57
  -1   0 -12    5.53    0.56
   1   0  12    6.50    0.60
   1   0  12    6.37    0.52
  -1   0 -12    7.00    0.49
  -1   0 -12    5.78    0.64
   1   0  12    6.42    0.55
   2   0  12   19.63    1.24
  -2   0 -12   20.91    1.30
  -2   0 -12   17.92    1.35
   2   0  12   20.98    1.29
  -2   0 -12   18.90    1.30
   2   0  12   18.15    1.30
  -2   0 -12   20.88    1.19
  -3   0 -12   39.49    2.47
   3   0  12   40.24    2.43
  -3   0 -12   39.83    2.37
  -3   0 -12   41.06    2.55
   3   0  12   42.88    2.50
  -4   0 -12    3.10    0.54
  -4   0 -12    2.44    0.39
   4   0  12    2.76    0.52
   4   0  12    3.00    0.42
   5   0  12    4.65    0.56
   5   0  12    4.39    0.69
   5   0  12    4.81    0.59
  -5   0 -12    5.30    0.62
   6   0  12   10.00    0.87
   6   0  12    9.80    0.86
  -6   0 -12    9.93    0.91
   6   0  12    8.83    1.03
  -6   0 -12   11.86    1.09
  -7   0 -12   16.96    1.45
   7   0  12   15.41    1.48
  -7   0 -12   17.41    1.34
   8   0  12  104.07    5.93
  -8   0 -12  105.99    6.03
   8   0  12   83.92    5.87
   8   0  12  106.38    6.13
   9   0  12    1.86    0.59
  -9   0 -12    2.79    0.89
   9   0  12    1.75    0.62
   9   0  12    1.45    0.90
  10   0  12   -0.43    0.63
  10   0  12    1.45    1.19
  10   0  12    0.34    0.68
  11   0  12    1.92    1.55
  11   0  12   -0.79    1.06
  13  -1 -12    0.51    1.62
 -13  -1  12    1.84    1.20
  13  -1 -12   -1.66    0.92
  13   1 -12    1.85    1.48
  13   1 -12    0.75    0.95
 -13   1  12   -2.52    1.22
 -12  -1  12    2.05    0.95
  12  -1 -12   -0.19    0.82
 -12  -1  12   -0.90    0.65
  12  -1 -12   -1.62    1.28
 -12   1  12   -1.44    0.93
  12   1 -12   -0.58    1.18
  12   1 -12   -0.25    0.75
  11  -1 -12   -1.23    0.56
  11  -1 -12    0.39    1.06
 -11   1  12    0.29    0.64
  11   1 -12    1.03    0.94
  11   1 -12   -0.01    0.71
 -11   1  12   -0.91    0.83
 -10  -1  12    0.40    0.41
 -10  -1  12   -0.02    0.68
 -10  -1  12    1.10    0.67
  10  -1 -12   -0.76    0.46
  10  -1 -12    0.53    0.93
 -10   1  12    0.13    0.79
 -10   1  12   -0.39    0.82
  10   1 -12    0.93    0.54
 -10   1  12   -0.49    0.49
  10   1 -12    1.23    0.92
   9  -1 -12   -0.39    0.48
  -9  -1  12    0.29    0.32
  -9  -1  12   -0.07    0.60
  -9  -1  12   -0.40    0.46
   9   1 -12    0.10    0.48
   9   1 -12   -0.10    0.70
  -9   1  12   -0.32    0.66
  -9   1  12    0.77    0.68
  -8  -1  12   -0.26    0.41
   8  -1 -12   -0.06    0.74
  -8  -1  12   -0.09    0.25
   8  -1 -12   -0.21    0.37
   8   1 -12   -0.33    0.35
  -8   1  12    1.25    0.65
   8   1 -12   -0.01    0.58
  -8   1  12   -0.73    0.50
  -8   1  12   -0.17    0.42
   7  -1 -12   15.69    1.28
   7  -1 -12   18.80    1.59
  -7  -1  12   17.59    1.11
  -7  -1  12   17.04    1.25
  -7  -1  12   15.29    1.33
  -7   1  12   19.14    1.29
  -7   1  12   14.35    1.45
   7   1 -12   17.62    1.27
  -7   1  12   16.69    1.38
  -6  -1  12    0.18    0.19
   6  -1 -12    0.20    0.29
   6  -1 -12    0.60    0.32
   6  -1 -12    0.34    0.55
  -6  -1  12    0.99    0.40
  -6  -1  12    0.43    0.30
  -6   1  12    0.69    0.51
  -6   1  12    0.76    0.37
   6   1 -12    0.18    0.33
   6   1 -12    1.18    0.48
  -6   1  12    0.33    0.41
   5  -1 -12    4.75    0.87
   5  -1 -12    4.68    0.64
  -5  -1  12    3.79    0.40
  -5  -1  12    3.74    0.48
   5  -1 -12    4.20    0.58
   5   1 -12    4.04    0.54
  -5   1  12    3.37    0.51
  -5   1  12    3.93    0.60
  -5   1  12    4.83    0.72
   5   1 -12    4.43    0.58
   5   1 -12    3.58    0.63
  -4  -1  12    2.47    0.35
   4  -1 -12    2.03    0.40
   4  -1 -12    2.29    0.46
  -4  -1  12    1.75    0.28
   4  -1 -12    1.79    0.56
  -4  -1  12    1.77    0.45
  -4  -1  12    2.30    0.49
   4   1 -12    2.11    0.40
  -4   1  12    2.03    0.38
   4   1 -12    2.80    0.44
  -4   1  12    2.63    0.44
  -4   1  12    2.40    0.25
  -4   1  12    2.65    0.61
  -4   1  12    1.12    0.50
  -3  -1  12   17.46    1.22
  -3  -1  12   16.40    1.18
   3  -1 -12   16.35    1.21
  -3  -1  12   17.20    1.03
   3  -1 -12   16.77    1.16
  -3  -1  12   16.72    1.02
  -3   1  12   13.83    1.26
  -3   1  12   16.88    1.16
  -3   1  12   16.21    1.33
  -3   1  12   16.40    1.18
   3   1 -12   17.06    1.12
   3   1 -12   16.95    1.15
  -2  -1  12    3.03    0.33
   2  -1 -12    3.21    0.52
  -2  -1  12    3.25    0.48
   2  -1 -12    3.18    0.47
  -2  -1  12    3.50    0.47
  -2  -1  12    2.66    0.32
  -2  -1  12    3.11    0.29
   2  -1 -12    2.95    0.40
  -2   1  12    3.11    0.57
  -2   1  12    3.19    0.46
   2   1 -12    2.71    0.40
   2   1 -12    2.81    0.39
  -2   1  12    2.77    0.48
  -2   1  12    3.66    0.61
  -1  -1  12   12.67    0.80
  -1  -1  12   11.62    0.75
   1  -1 -12   12.63    0.97
   1  -1 -12   11.21    1.01
   1  -1 -12   12.13    0.90
   1  -1 -12   11.15    1.01
  -1  -1  12   11.76    0.81
  -1  -1  12   11.08    0.86
  -1   1  12   12.89    0.97
   1   1 -12   11.29    0.86
  -1   1  12   13.37    1.16
  -1   1  12   12.92    0.91
  -1   1  12   13.32    0.92
   1   1 -12   12.28    0.86
   0  -1  12    1.65    0.26
   0  -1  12    1.66    0.30
   0  -1  12    1.81    0.23
   0  -1 -12    1.99    0.44
   0  -1 -12    1.64    0.31
   0  -1  12    2.12    0.30
   0  -1 -12    1.97    0.36
   0   1  12    1.75    0.31
   0   1 -12    1.79    0.29
   0   1  12    1.63    0.37
   0   1  12    1.66    0.31
   0   1 -12    1.65    0.28
   0   1 -12    2.08    0.41
   1  -1  12    7.98    0.61
  -1  -1 -12    7.54    0.60
   1  -1  12    8.10    0.59
   1  -1  12    7.20    0.53
   1  -1  12    6.95    0.62
  -1  -1 -12    8.83    0.69
  -1  -1 -12    7.51    0.79
  -1  -1 -12    7.77    0.71
   1   1  12    8.74    0.73
  -1   1 -12    7.23    0.63
   1   1  12    7.08    0.67
  -1   1 -12    7.79    0.71
   1   1  12    7.99    0.64
  -1   1 -12    8.14    0.63
  -2  -1 -12    7.64    0.62
   2  -1  12    8.24    0.65
   2  -1  12    7.54    0.63
  -2  -1 -12    6.79    0.78
  -2  -1 -12    7.88    0.69
  -2  -1 -12    7.06    0.76
   2  -1  12    7.90    0.58
   2  -1  12    7.57    0.60
   2   1  12    8.68    0.69
   2   1  12    7.89    0.73
  -2   1 -12    8.45    0.68
  -2   1 -12    8.02    0.72
  -2   1 -12    8.08    0.63
   2   1  12    7.68    0.65
  -3  -1 -12    1.91    0.31
  -3  -1 -12    1.68    0.38
  -3  -1 -12    1.98    0.49
   3  -1  12    2.13    0.33
   3  -1  12    1.82    0.36
   3  -1  12    2.00    0.31
   3  -1  12    2.08    0.33
   3   1  12    2.12    0.36
   3   1  12    2.06    0.39
  -3   1 -12    2.31    0.38
  -3   1 -12    2.37    0.43
   3   1  12    1.83    0.35
  -4  -1 -12    9.74    0.75
  -4  -1 -12   10.88    0.95
  -4  -1 -12   10.01    0.98
   4  -1  12   10.55    0.78
   4  -1  12   10.03    0.81
   4  -1  12   10.55    0.89
   4  -1  12   10.85    0.77
   4   1  12   10.13    0.85
   4   1  12   10.81    0.80
  -4   1 -12   10.78    0.81
  -4   1 -12    9.50    0.90
   4   1  12    8.29    0.87
   5  -1  12    0.46    0.25
   5  -1  12    0.07    0.25
   5  -1  12    0.10    0.24
  -5  -1 -12    0.59    0.29
   5  -1  12    0.32    0.36
  -5  -1 -12   -0.41    0.43
  -5   1 -12    0.23    0.39
   5   1  12    0.62    0.37
  -5   1 -12    1.06    0.33
   5   1  12    0.22    0.32
   5   1  12    0.14    0.29
  -6  -1 -12    0.33    0.47
   6  -1  12    0.47    0.33
   6  -1  12    0.49    0.32
   6  -1  12    0.02    0.48
   6  -1  12    0.23    0.30
   6   1  12    0.26    0.29
  -6   1 -12    0.22    0.36
   6   1  12    0.93    0.49
   7  -1  12   24.71    1.86
  -7  -1 -12   25.54    1.87
   7  -1  12   25.49    1.62
   7  -1  12   23.87    1.69
   7  -1  12   22.15    1.64
  -7  -1 -12   24.56    1.74
  -7   1 -12   22.24    1.79
   7   1  12   23.87    1.66
   7   1  12   21.60    1.64
   7   1  12   23.33    1.82
  -7   1 -12   23.53    1.67
   8  -1  12    1.78    0.53
   8  -1  12    1.16    0.53
   8  -1  12    2.92    0.87
  -8  -1 -12    1.50    0.84
   8   1  12    2.71    0.55
  -8   1 -12    2.88    0.77
   8   1  12    3.18    0.58
   8   1  12    1.76    0.71
   9  -1  12    1.48    0.60
   9  -1  12    2.66    0.66
   9  -1  12    2.02    0.73
   9   1  12    3.24    0.68
   9   1  12    2.88    0.96
  -9   1 -12    3.93    1.02
  10  -1  12    1.36    0.75
  10  -1  12    2.06    0.79
  10  -1  12    2.66    1.21
  10   1  12    1.12    0.85
  10   1  12   -1.00    1.05
  13  -2 -12   -1.36    1.15
 -13  -2  12   -0.06    1.16
  13  -2 -12   -2.79    1.81
  13   2 -12   -0.23    1.51
 -13   2  12    0.41    1.60
  13   2 -12   -1.35    0.99
 -12  -2  12    0.19    0.84
  12  -2 -12    3.50    1.72
  12  -2 -12    2.13    1.04
  12   2 -12    2.87    1.24
  12   2 -12    1.22    0.80
  12   2 -12    1.19    0.39
 -12   2  12    0.02    1.30
 -11  -2  12    1.04    0.48
  11  -2 -12    3.00    1.34
 -11  -2  12    2.95    0.77
  11  -2 -12    2.93    0.86
 -11   2  12    2.04    1.11
  11   2 -12    1.68    0.69
  11   2 -12    1.83    0.33
  11   2 -12    0.88    0.99
  10  -2 -12    0.60    0.65
  10  -2 -12    0.69    0.98
 -10  -2  12   -1.05    0.53
 -10  -2  12   -0.62    0.65
 -10  -2  12   -0.40    0.32
  10   2 -12    0.14    0.78
 -10   2  12    0.58    0.73
  10   2 -12   -0.07    0.58
 -10   2  12    1.61    0.94
 -10   2  12   -0.86    0.81
  -9  -2  12   -0.03    0.42
   9  -2 -12   -0.15    0.97
  -9  -2  12    1.22    0.59
   9  -2 -12   -0.14    0.52
  -9  -2  12    0.11    0.28
  -9   2  12    1.37    0.89
   9   2 -12    1.44    0.75
   9   2 -12    0.18    0.28
   9   2 -12    0.44    0.48
  -9   2  12    0.49    0.64
  -9   2  12    0.26    0.63
   8  -2 -12    3.40    0.70
   8  -2 -12    2.79    0.94
  -8  -2  12    3.70    0.41
  -8  -2  12    3.35    0.46
  -8   2  12    1.68    0.79
   8   2 -12    3.02    0.80
   8   2 -12    2.63    0.38
  -8   2  12    2.49    0.77
   8   2 -12    3.76    0.60
   7  -2 -12    2.36    0.85
   7  -2 -12    4.31    0.67
  -7   2  12    4.17    0.77
  -7   2  12    3.64    0.60
   7   2 -12    2.99    0.70
   7   2 -12    4.28    0.37
   7   2 -12    3.86    0.61
  -7   2  12    4.45    0.81
  -6  -2  12    0.13    0.37
   6  -2 -12    1.04    0.70
   6  -2 -12   -0.18    0.32
   6   2 -12    0.26    0.28
  -6   2  12    0.36    0.39
  -6   2  12    0.56    0.65
  -6   2  12    0.32    0.16
  -6   2  12    1.17    0.49
   6   2 -12    0.61    0.45
   6   2 -12    0.31    0.14
   5  -2 -12    0.24    0.32
   5  -2 -12    1.44    0.67
   5  -2 -12    0.56    0.39
  -5  -2  12    0.93    0.38
   5   2 -12    1.65    0.33
  -5   2  12    1.02    0.47
  -5   2  12    1.11    0.42
  -5   2  12    0.77    0.22
   5   2 -12    0.80    0.29
  -5   2  12    0.38    0.56
   5   2 -12    0.70    0.15
  -5   2  12    0.56    0.55
   5   2 -12    0.87    0.45
   4  -2 -12    8.26    0.79
   4  -2 -12    7.38    0.83
   4  -2 -12    6.47    1.07
  -4  -2  12    7.82    0.72
  -4  -2  12    6.55    0.69
   4   2 -12    8.19    0.83
  -4   2  12    8.13    0.78
  -4   2  12    7.34    0.63
  -4   2  12    8.57    1.02
   4   2 -12    7.53    0.52
  -4   2  12    6.61    0.86
   4   2 -12    7.76    0.65
   4   2 -12    8.56    0.70
   3  -2 -12    1.84    0.41
  -3  -2  12    2.31    0.38
   3  -2 -12    2.75    0.44
   3  -2 -12    1.54    0.49
  -3   2  12    2.18    0.41
   3   2 -12    1.73    0.33
  -3   2  12    1.77    0.44
  -3   2  12    2.00    0.56
  -3   2  12    1.65    0.53
   3   2 -12    1.96    0.31
   3   2 -12    1.57    0.23
  -2  -2  12    0.53    0.30
   2  -2 -12    0.29    0.25
   2  -2 -12    0.04    0.26
  -2  -2  12    0.36    0.27
   2   2 -12    0.05    0.20
   2   2 -12    0.13    0.20
  -2   2  12   -0.09    0.35
  -2   2  12   -0.35    0.43
  -2   2  12    0.23    0.31
   2   2 -12    0.11    0.13
  -1  -2  12    0.42    0.28
   1  -2 -12    0.96    0.31
   1  -2 -12    0.98    0.27
   1  -2 -12    0.55    0.35
  -1   2  12    0.40    0.50
  -1   2  12    0.89    0.37
  -1   2  12    0.75    0.33
   1   2 -12    0.52    0.23
   1   2 -12    0.95    0.22
   0  -2 -12   10.88    0.77
   0  -2  12   10.64    0.82
   0  -2 -12    9.05    0.79
   0  -2 -12   10.19    0.97
   0  -2  12    7.91    0.83
   0  -2  12    9.86    0.67
   0   2 -12   11.34    0.79
   0   2 -12    9.95    0.71
   0   2  12    8.75    0.87
   0   2 -12    9.07    0.68
   0   2  12    8.78    0.81
  -1  -2 -12    0.51    0.35
   1  -2  12    0.71    0.20
  -1  -2 -12    0.50    0.29
  -1  -2 -12    0.77    0.31
   1  -2  12    0.74    0.29
   1   2  12    0.51    0.35
  -1   2 -12    0.84    0.25
   1   2  12    0.32    0.26
  -1   2 -12    0.75    0.21
   1   2  12    0.25    0.25
  -1   2 -12    0.38    0.30
  -2  -2 -12   36.35    2.26
   2  -2  12   34.12    2.20
  -2  -2 -12   33.36    2.30
  -2  -2 -12   35.38    2.14
   2  -2  12   31.60    2.12
  -2   2 -12   35.74    2.17
   2   2  12   35.15    2.20
   2   2  12   37.48    2.18
  -2   2 -12   34.66    2.09
   2   2  12   37.24    2.24
   3  -2  12    6.03    0.66
  -3  -2 -12    5.53    0.74
  -3  -2 -12    5.16    0.82
   3  -2  12    4.91    0.64
  -3  -2 -12    6.16    0.56
  -3   2 -12    6.81    0.55
  -3   2 -12    6.15    0.66
   3   2  12    5.10    0.68
   3   2  12    6.73    0.67
   3   2  12    5.52    0.63
   4  -2  12    1.62    0.41
   4  -2  12    1.32    0.29
  -4  -2 -12    1.47    0.34
  -4  -2 -12    1.18    0.49
   4  -2  12    1.82    0.43
   4  -2  12    1.20    0.26
  -4  -2 -12    1.64    0.43
  -4   2 -12    1.76    0.38
   4   2  12    0.94    0.34
   4   2  12    2.09    0.43
  -4   2 -12    1.43    0.30
   4   2  12    2.01    0.45
  -5  -2 -12    1.54    0.35
   5  -2  12    1.60    0.46
   5  -2  12    1.54    0.48
  -5  -2 -12    2.03    0.56
   5  -2  12    1.57    0.37
   5  -2  12    1.85    0.31
  -5   2 -12    1.68    0.43
   5   2  12    1.52    0.36
   5   2  12    1.26    0.43
  -5   2 -12    1.22    0.35
  -6  -2 -12    3.35    0.75
   6  -2  12    6.24    0.99
  -6  -2 -12    4.21    0.59
   6  -2  12    3.85    0.63
   6  -2  12    3.61    0.61
   6  -2  12    4.40    0.56
  -6  -2 -12    3.77    0.71
   6   2  12    4.64    0.70
   6   2  12    3.96    1.02
   6   2  12    3.45    0.60
  -6   2 -12    4.33    0.78
  -6   2 -12    2.69    0.49
   7  -2  12    0.02    0.44
   7  -2  12    0.31    0.68
   7  -2  12    0.30    0.40
  -7  -2 -12    0.34    0.58
  -7  -2 -12    0.06    0.72
   7  -2  12    0.11    0.44
   7   2  12    0.49    0.48
  -7   2 -12   -0.24    0.57
   7   2  12   -0.13    0.52
   7   2  12    0.75    0.44
   8  -2  12    0.78    0.53
   8  -2  12    0.61    0.81
   8  -2  12    0.93    0.46
  -8   2 -12    1.30    0.75
   8   2  12    0.18    0.71
   8   2  12    0.82    0.47
   9  -2  12    0.65    1.12
   9  -2  12    0.29    0.65
   9  -2  12    0.85    0.69
   9   2  12   -0.72    0.85
   9   2  12    0.32    0.64
  -9   2 -12   -0.42    0.93
  10  -2  12    0.38    0.91
  10  -2  12    0.64    1.42
  10  -2  12    1.32    0.81
  10   2  12   -0.43    0.70
  10   2  12    1.45    1.16
  12  -3 -12    1.28    1.05
  12  -3 -12    3.43    1.86
 -12   3  12    0.74    1.51
  12   3 -12    1.82    1.40
  12   3 -12    3.87    1.08
  11  -3 -12   14.06    1.76
  11  -3 -12   13.32    2.09
  11   3 -12   13.68    1.52
  11   3 -12   15.75    2.16
 -11   3  12   15.18    2.37
  10  -3 -12    1.69    0.73
  10  -3 -12    0.61    1.17
  10   3 -12    0.55    0.64
 -10   3  12    3.09    1.41
  10   3 -12    0.67    0.91
  10   3 -12    1.55    0.52
 -10   3  12    1.22    1.00
   9  -3 -12   -0.49    1.00
   9  -3 -12    0.26    0.58
  -9  -3  12    0.15    0.55
   9   3 -12    0.35    0.53
   9   3 -12    0.44    0.40
  -9   3  12    1.60    0.98
   9   3 -12    1.40    0.78
  -9   3  12    0.17    0.89
   8  -3 -12    5.69    1.08
   8  -3 -12    5.08    0.77
   8   3 -12    4.06    0.62
  -8   3  12    3.80    0.95
   8   3 -12    4.91    0.82
  -8   3  12    4.29    0.53
   8   3 -12    4.70    1.13
  -8   3  12    4.19    0.73
  -8   3  12    4.47    0.97
  -7  -3  12    1.41    0.41
   7  -3 -12    0.63    0.78
   7  -3 -12    1.25    0.53
   7   3 -12    0.46    0.38
   7   3 -12    0.45    0.28
  -7   3  12    1.49    0.76
  -7   3  12    0.90    0.78
  -7   3  12    0.99    0.28
   7   3 -12    0.63    0.55
  -6  -3  12    1.04    0.31
   6  -3 -12    0.66    0.76
   6  -3 -12    1.37    0.49
   6   3 -12    1.53    0.37
   6   3 -12    1.71    0.51
  -6   3  12   -0.31    0.74
  -6   3  12    0.66    0.30
   6   3 -12    1.04    0.28
  -6   3  12    1.02    0.65
   5  -3 -12    6.25    0.82
   5  -3 -12    6.16    1.03
   5  -3 -12    5.74    0.88
   5  -3 -12    6.62    0.74
   5   3 -12    6.68    0.63
   5   3 -12    7.22    0.60
  -5   3  12    7.22    1.10
  -5   3  12    5.72    0.67
  -5   3  12    6.59    1.00
   5   3 -12    6.26    0.69
  -5   3  12    7.71    1.27
   4  -3 -12    4.85    0.64
   4  -3 -12    7.32    0.88
   4  -3 -12    5.82    0.70
  -4   3  12    4.71    0.67
  -4   3  12    6.47    0.99
  -4   3  12    5.77    0.95
   4   3 -12    5.55    0.53
   4   3 -12    5.90    0.56
   4   3 -12    5.85    0.59
  -4   3  12    5.16    0.89
   3  -3 -12   18.65    1.31
   3  -3 -12   18.11    1.44
   3  -3 -12   17.53    1.29
   3   3 -12   18.68    1.17
  -3   3  12   18.01    1.42
   3   3 -12   18.64    1.19
   3   3 -12   18.42    1.20
  -3   3  12   17.22    1.46
  -3   3  12   19.01    1.36
  -3   3  12   17.57    1.85
   2  -3 -12   55.44    3.13
   2  -3 -12   54.56    3.25
   2  -3 -12   53.94    3.12
  -2   3  12   46.71    3.20
   2   3 -12   52.18    2.98
  -2   3  12   46.50    3.13
   2   3 -12   51.77    3.03
   2   3 -12   48.42    2.97
  -2   3  12   51.60    3.17
  -1  -3  12    8.33    0.89
   1  -3 -12    8.66    0.79
   1  -3 -12    9.35    0.78
   1  -3 -12    8.52    0.97
   1   3 -12    9.17    0.63
  -1   3  12    8.62    1.34
  -1   3  12    9.56    0.94
   1   3 -12    9.18    0.70
  -1   3  12   10.09    0.86
  -1   3  12    8.68    0.86
   0  -3 -12    4.97    0.78
   0  -3  12    5.01    0.73
   0  -3 -12    4.62    0.57
   0  -3 -12    5.51    0.83
   0  -3 -12    5.87    0.66
   0   3 -12    5.19    0.47
   0   3 -12    5.40    0.44
   0   3  12    5.69    0.71
   0   3  12    5.28    0.74
   0   3  12    5.42    0.66
   0   3 -12    6.10    0.55
  -1  -3 -12   -0.20    0.27
  -1  -3 -12    0.42    0.30
   1  -3  12    0.09    0.35
  -1  -3 -12    0.50    0.46
  -1  -3 -12    0.80    0.45
  -1   3 -12    0.53    0.17
  -1   3 -12    0.49    0.22
   1   3  12    0.79    0.33
   1   3  12   -0.07    0.38
   1   3  12   -0.19    0.33
   2  -3  12   48.44    3.11
  -2  -3 -12   48.17    3.18
  -2  -3 -12   49.52    3.12
  -2  -3 -12   47.61    2.98
   2   3  12   50.53    3.07
   2   3  12   51.14    3.01
  -2   3 -12   50.41    2.88
   3  -3  12   35.51    2.33
  -3  -3 -12   34.03    2.28
  -3  -3 -12   34.91    2.16
  -3  -3 -12   32.73    2.35
  -3   3 -12   33.18    2.07
  -3   3 -12   35.98    2.14
   3   3  12   33.53    2.17
   3   3  12   35.62    2.25
  -4  -3 -12   36.99    2.52
  -4  -3 -12   33.69    2.21
   4  -3  12   36.95    2.43
   4  -3  12   37.42    2.32
  -4   3 -12   33.59    2.17
  -4   3 -12   36.93    2.24
   4   3  12   37.07    2.35
   4   3  12   34.14    2.33
   5  -3  12    1.11    0.56
  -5  -3 -12    0.37    0.36
   5  -3  12    0.44    0.47
  -5  -3 -12    0.54    1.00
  -5   3 -12    0.50    0.39
  -5   3 -12    0.06    0.31
   5   3  12    0.38    0.41
   5   3  12    0.90    0.46
  -6  -3 -12    0.90    0.73
  -6  -3 -12    1.88    0.42
  -6  -3 -12    1.78    0.70
   6  -3  12    2.05    0.61
   6  -3  12    1.59    0.72
   6   3  12    2.25    0.51
  -6   3 -12    2.01    0.46
   6   3  12    2.56    0.64
   6   3  12    3.11    0.63
  -6   3 -12    2.07    0.55
   7  -3  12    6.61    1.11
   7  -3  12    4.75    0.89
  -7  -3 -12    4.34    0.71
  -7   3 -12    5.15    0.71
   7   3  12    6.21    1.13
  -7   3 -12    7.79    1.12
   7   3  12    5.57    0.78
   8  -3  12    0.51    1.06
   8  -3  12   -0.43    0.69
   8  -3  12   -0.04    0.52
  -8   3 -12    0.12    0.85
   8   3  12    1.29    0.81
   8   3  12    0.71    0.62
   9  -3  12    6.20    1.62
   9  -3  12    5.56    1.22
   9  -3  12    6.10    0.91
   9   3  12    5.77    1.02
   9   3  12    6.33    1.28
  11  -4 -12    5.02    1.86
  11  -4 -12    3.35    1.14
  11   4 -12    1.70    1.33
  11   4 -12    1.27    0.92
 -11   4  12   -0.71    1.44
  10  -4 -12    0.39    0.87
  10  -4 -12    1.15    1.55
 -10   4  12   -0.26    1.14
  10   4 -12    2.17    1.01
  10   4 -12    0.72    0.76
   9  -4 -12    0.77    0.77
   9  -4 -12    1.06    1.33
  -9  -4  12    1.70    0.59
   9   4 -12    1.89    0.88
  -9   4  12    2.70    1.37
   9   4 -12    0.39    0.58
  -9   4  12    0.90    0.46
   9   4 -12    0.54    0.61
  -9   4  12   -0.06    1.00
   8  -4 -12    2.15    1.35
   8  -4 -12    0.16    0.63
   8   4 -12    0.33    0.50
  -8   4  12   -0.39    1.05
   8   4 -12    0.79    0.71
  -8   4  12    1.74    0.44
   8   4 -12    0.88    0.62
  -8   4  12    0.28    0.91
   7  -4 -12    6.51    1.00
   7  -4 -12    2.79    1.17
   7  -4 -12    3.28    0.67
  -7   4  12    5.45    0.99
  -7   4  12    4.15    0.86
  -7   4  12    4.30    0.61
  -7   4  12    3.51    1.10
  -7   4  12    1.88    1.04
   7   4 -12    3.78    0.58
   6  -4 -12    0.04    0.91
   6  -4 -12   -0.51    0.37
   6  -4 -12   -0.17    0.47
  -6   4  12    0.68    0.56
  -6   4  12    0.39    0.71
   6   4 -12   -0.11    0.34
  -6   4  12    0.05    0.66
   6   4 -12    0.04    0.42
  -6   4  12    0.27    0.40
   5  -4 -12    2.16    0.51
   5  -4 -12    3.03    0.55
  -5   4  12    3.52    0.60
  -5   4  12    1.62    0.79
   5   4 -12    2.34    0.40
  -5   4  12    3.06    0.69
   5   4 -12    1.98    0.55
  -5   4  12    0.82    0.88
   4  -4 -12    1.05    0.59
   4  -4 -12    0.45    0.39
   4  -4 -12    0.59    0.42
  -4   4  12    1.24    0.61
  -4   4  12    1.08    0.90
  -4   4  12    1.83    0.57
  -4   4  12    0.87    0.47
  -4   4  12    0.47    0.81
   3  -4 -12    0.92    0.42
   3  -4 -12    0.54    0.31
   3  -4 -12   -0.04    0.50
  -3   4  12    0.01    0.43
  -3   4  12    1.15    0.80
  -3   4  12    0.47    0.48
  -3   4  12    0.21    0.58
  -3   4  12    0.29    0.46
   3   4 -12   -0.07    0.30
   2  -4 -12    8.94    0.87
   2  -4 -12   10.20    0.88
   2  -4 -12   10.40    1.14
   2   4 -12    9.65    0.82
  -2   4  12    7.00    1.16
  -2   4  12    8.95    0.99
  -2   4  12    9.95    1.08
  -2   4  12    9.36    1.03
   1  -4 -12    0.89    0.55
   1  -4 -12    0.34    0.28
   1  -4 -12    0.85    0.35
  -1   4  12    0.11    0.44
  -1   4  12    0.33    0.46
   1   4 -12    0.76    0.32
  -1   4  12   -0.20    0.37
  -1   4  12    0.77    0.77
   0  -4 -12    0.86    0.56
   0  -4 -12    0.06    0.30
   0  -4 -12   -0.26    0.31
   0   4  12    0.30    0.39
   0   4  12    0.07    0.39
   0   4 -12    0.52    0.31
   0   4  12    0.58    0.87
   0   4  12    0.11    0.44
  -1  -4 -12    2.23    0.59
  -1  -4 -12    1.29    0.41
   1  -4  12   -0.10    0.56
   1   4  12    0.70    0.44
   1   4  12    0.85    0.39
  -1   4 -12    0.93    0.34
   1   4  12    1.43    0.47
  -1   4 -12    0.90    0.21
   1   4  12   -0.46    0.85
   2  -4  12    1.02    0.62
  -2  -4 -12    0.49    0.56
  -2  -4 -12    0.59    0.35
  -2   4 -12   -0.59    0.33
   2   4  12    0.05    0.46
   2   4  12    0.34    0.44
  -2   4 -12    0.17    0.21
   2   4  12    0.33    0.37
   3  -4  12    1.48    0.68
  -3  -4 -12    1.03    0.42
  -3  -4 -12    1.45    0.64
  -3   4 -12    0.66    0.26
   3   4  12    2.43    0.58
   3   4  12    0.42    0.40
   3   4  12    1.37    0.54
  -4  -4 -12    1.09    0.39
  -4  -4 -12   -0.14    0.72
   4  -4  12    0.16    0.65
   4   4  12    0.13    0.40
   4   4  12    0.81    0.54
   4   4  12    0.20    0.46
  -4   4 -12   -0.26    0.28
   5  -4  12    0.23    0.72
  -5  -4 -12    0.15    0.71
  -5  -4 -12    0.17    0.36
   5   4  12   -0.34    0.47
   5   4  12    0.27    0.45
  -5   4 -12   -0.10    0.42
  -6  -4 -12    0.22    0.41
  -6  -4 -12    2.18    0.90
   6  -4  12   -0.30    0.75
   6  -4  12   -0.67    0.94
   6   4  12    0.84    0.50
   6   4  12   -1.10    0.57
  -6   4 -12    0.61    0.61
   7  -4  12   -0.78    0.92
  -7  -4 -12    1.24    0.50
   7  -4  12    0.69    1.32
   7   4  12   -0.48    0.72
   7   4  12    1.45    0.62
   8  -4  12    3.33    1.25
  -8  -4 -12    2.45    0.68
   8   4  12    3.62    1.01
   8   4  12    3.14    0.77
  10  -5 -12   -0.08    0.70
  10  -5 -12   -2.88    2.10
  10  -5 -12    1.86    1.03
  10   5 -12   -0.30    0.90
   9  -5 -12    1.50    0.95
   9  -5 -12    0.26    1.84
   9  -5 -12    2.09    0.83
  -9   5  12    3.85    1.62
  -9   5  12    3.78    1.37
   9   5 -12    3.40    1.14
   8  -5 -12   -0.42    0.79
   8  -5 -12    3.05    1.51
   8  -5 -12    0.90    0.56
  -8   5  12    3.47    1.51
   8   5 -12   -0.44    0.72
   8   5 -12    1.19    0.58
  -8   5  12    0.81    0.71
  -8   5  12   -0.82    1.13
  -8   5  12    1.95    1.39
   7  -5 -12    3.40    0.77
   7  -5 -12    1.87    0.78
   7   5 -12    2.13    0.71
  -7   5  12    2.43    1.25
   7   5 -12    2.03    0.55
  -7   5  12    0.23    1.35
  -7   5  12    2.29    1.14
   6  -5 -12    2.61    0.60
   6  -5 -12    2.76    0.74
  -6   5  12    2.87    1.05
   6   5 -12    3.30    0.52
  -6   5  12   -0.14    1.27
  -6   5  12    3.81    1.09
  -6   5  12    5.28    0.83
   6   5 -12    3.75    0.73
   5  -5 -12    2.60    0.70
   5  -5 -12    2.14    0.55
  -5   5  12    3.20    0.91
  -5   5  12    2.36    0.94
  -5   5  12    2.75    0.71
   5   5 -12    3.17    0.66
  -5   5  12   -0.17    1.24
   4  -5 -12    0.61    0.54
   4  -5 -12    0.82    0.49
   4   5 -12    1.22    0.53
  -4   5  12    1.04    0.71
  -4   5  12    0.54    1.12
  -4   5  12    0.64    0.78
  -4   5  12    2.38    0.78
  -4   5  12   -0.14    0.70
   3  -5 -12   10.52    1.02
   3  -5 -12   10.57    1.01
  -3   5  12    9.74    1.31
  -3   5  12   11.53    1.38
  -3   5  12    8.84    1.36
  -3   5  12    9.29    1.42
   3   5 -12    9.80    1.03
  -3   5  12   11.68    1.30
   2  -5 -12    0.55    0.43
   2  -5 -12    0.12    0.41
   2  -5 -12    0.08    0.62
  -2   5  12    0.38    0.78
  -2   5  12    0.80    0.62
  -2   5  12   -0.42    0.60
   2   5 -12   -0.23    0.42
  -2   5  12   -0.26    0.57
  -2   5  12    1.39    0.97
   1  -5 -12    0.07    0.36
  -1   5  12    0.89    0.92
   1   5 -12    0.38    0.45
  -1   5  12   -0.35    0.55
  -1   5  12    0.48    0.58
  -1   5  12    1.08    0.68
   0  -5 -12   14.49    1.49
   0  -5 -12   14.32    1.14
   0   5  12   12.50    1.29
   0   5  12   13.87    1.29
   0   5 -12   13.44    1.21
   0   5  12   12.91    1.36
   0   5  12    9.90    1.85
  -1  -5 -12    2.37    0.80
  -1  -5 -12    2.05    0.50
   1   5  12    2.39    0.67
   1   5  12    2.47    0.59
   1   5  12    2.34    0.63
  -1   5 -12    2.72    0.58
  -2  -5 -12    4.22    0.81
  -2  -5 -12    2.37    0.54
   2   5  12    3.95    0.81
   2   5  12    3.13    0.68
   2   5  12    3.27    1.32
   2   5  12    2.69    0.62
  -2   5 -12    3.00    0.63
  -3  -5 -12    2.32    0.49
   3  -5  12    2.86    1.01
  -3  -5 -12   -0.37    0.94
   3   5  12    2.26    0.59
  -3   5 -12    1.74    0.40
   3   5  12    0.66    0.61
   4  -5  12    0.75    0.93
  -4  -5 -12    0.75    0.45
  -4   5 -12   -0.22    0.39
   4   5  12    1.76    0.58
   4   5  12    1.38    0.58
  -5  -5 -12    0.27    0.42
  -5  -5 -12   -0.56    1.07
   5  -5  12    1.43    1.08
   5   5  12    1.49    0.66
   5   5  12    0.85    0.71
  -5   5 -12   -0.15    0.51
  -6  -5 -12    0.38    1.21
  -6  -5 -12    0.52    0.54
   6  -5  12    1.67    1.18
  -6   5 -12   -0.39    0.65
   6   5  12    1.26    0.66
   6   5  12    1.05    0.81
   7  -5  12    0.26    1.34
  -7  -5 -12   -0.20    0.60
   7   5  12    0.13    0.99
   7   5  12    0.21    0.71
   7  -6 -12   -0.34    0.56
   7  -6 -12    1.03    0.83
  -7   6  12    0.67    1.42
  -7   6  12    0.62    1.49
   6  -6 -12   14.36    1.37
   6  -6 -12   14.02    1.50
  -6   6  12   13.68    1.84
  -6   6  12   13.64    2.77
  -6   6  12   11.58    1.72
   6   6 -12   14.18    1.76
   5   6 -12    3.12    0.94
  -5   6  12    1.11    1.66
  -5   6  12    2.47    1.13
  -5   6  12    6.21    1.23
   4  -6 -12   -0.45    0.57
   4  -6 -12    1.71    0.45
  -4   6  12    0.57    0.95
   4   6 -12    0.36    0.74
  -4   6  12    1.28    1.06
   3  -6 -12    6.55    0.94
   3   6 -12    8.68    1.30
  -3   6  12    8.91    1.22
  -3   6  12    7.88    1.21
  -3   6  12    7.31    1.78
   2  -6 -12    1.02    0.58
  -2   6  12    0.12    1.46
  -2   6  12    0.96    0.82
  -2   6  12    1.27    0.85
   1  -6 -12    1.45    0.50
  -1   6  12    1.33    0.76
  -1   6  12    3.56    1.50
  -1   6  12    3.10    0.87
   0  -6 -12    0.75    0.83
   0  -6 -12    0.66    0.51
   0   6  12   -0.36    0.66
   0   6  12   -0.31    0.72
   0   6  12    0.03    1.47
  -1  -6 -12   12.57    1.67
  -1  -6 -12   11.20    1.09
   1   6  12    9.61    1.32
   1   6  12   11.90    1.38
   1   6  12    8.17    1.84
   2   6  12    0.69    0.64
   2   6  12    4.42    1.98
   2   6  12   -0.19    0.67
  -3  -6 -12    0.33    0.56
   3   6  12    0.54    0.70
   3   6  12   -0.22    0.68
   3   6  12    4.78    2.24
  -4  -6 -12   14.37    1.26
   4   6  12   11.67    1.54
   4   6  12   11.86    1.58
  -5  -6 -12    0.53    0.59
   5   6  12   -0.73    0.87
   5   6  12   -0.09    1.35
   2  -7 -12   -0.38    0.62
  -2   7  12    0.87    1.17
  -2   7  12   -1.07    1.08
   1  -7 -12    1.35    0.68
  -1   7  12    3.38    1.20
  -1   7  12    0.92    1.03
   0  -7 -12    0.19    0.65
  13   0 -13    1.79    1.04
  13   0 -13    2.23    1.62
 -13   0  13    1.17    1.25
  12   0 -13    1.34    1.33
  12   0 -13    0.88    0.70
 -12   0  13   -1.22    0.97
  11   0 -13   -0.26    1.07
 -11   0  13   -0.04    0.54
 -11   0  13   -0.66    0.81
  11   0 -13    0.51    0.61
 -10   0  13   -1.47    0.80
  10   0 -13   -0.52    0.52
  10   0 -13   -0.25    0.86
   9   0 -13    0.11    0.79
  -9   0  13   -0.33    0.58
  -9   0  13    0.47    0.40
  -8   0  13   -0.29    0.37
   8   0 -13   -0.11    0.35
  -8   0  13   -0.32    0.46
   8   0 -13   -0.04    0.63
  -7   0  13    0.02    0.34
   7   0 -13   -0.61    0.31
   7   0 -13   -0.29    0.55
  -7   0  13   -0.25    0.43
  -6   0  13   -0.03    0.27
   6   0 -13    0.00    0.28
   6   0 -13   -0.38    0.35
   6   0 -13    0.30    0.55
  -6   0  13   -0.09    0.37
  -6   0  13   -0.10    0.44
   5   0 -13    0.10    0.47
  -5   0  13    0.13    0.32
   5   0 -13   -0.11    0.25
  -5   0  13    0.20    0.27
   5   0 -13   -0.06    0.34
   4   0 -13   -0.09    0.24
  -4   0  13   -0.69    0.39
  -4   0  13   -0.18    0.23
  -4   0  13   -0.08    0.27
   4   0 -13    0.48    0.46
   4   0 -13   -0.38    0.29
  -3   0  13    0.64    0.41
   3   0 -13    0.18    0.25
  -3   0  13    0.36    0.35
   3   0 -13    0.31    0.28
  -3   0  13   -0.03    0.24
  -3   0  13    0.06    0.21
  -2   0  13    0.35    0.31
   2   0 -13   -0.14    0.22
   2   0 -13   -0.08    0.20
  -2   0  13   -0.30    0.20
  -2   0  13   -0.26    0.20
  -2   0  13    0.15    0.11
  -2   0  13   -0.25    0.35
   2   0 -13    0.00    0.24
  -1   0  13    0.13    0.20
   1   0 -13    0.11    0.23
  -1   0  13   -0.06    0.36
  -1   0  13    0.24    0.27
   1   0 -13    0.06    0.17
   1   0 -13    0.10    0.25
   1   0 -13    0.06    0.29
  -1   0  13    0.07    0.17
   0   0 -13    0.22    0.22
   0   0 -13   -0.13    0.22
   0   0  13    0.71    0.28
   0   0  13    0.85    0.24
   0   0 -13    0.20    0.19
   0   0  13    0.70    0.21
   0   0 -13    0.29    0.30
   1   0  13    0.13    0.18
  -1   0 -13    0.13    0.19
  -1   0 -13    0.34    0.23
   1   0  13   -0.35    0.19
  -1   0 -13    0.19    0.28
   1   0  13    0.29    0.26
  -1   0 -13   -0.17    0.26
  -2   0 -13   -0.02    0.23
   2   0  13   -0.06    0.18
  -2   0 -13   -0.06    0.28
   2   0  13    0.20    0.23
   2   0  13    0.15    0.26
  -2   0 -13   -0.05    0.27
  -2   0 -13   -0.05    0.20
  -3   0 -13   -0.11    0.25
  -3   0 -13    0.42    0.30
  -3   0 -13    0.23    0.28
   3   0  13   -0.13    0.22
   3   0  13   -0.13    0.21
   3   0  13    0.09    0.27
  -4   0 -13   -0.01    0.36
   4   0  13    0.06    0.27
   4   0  13    0.06    0.30
   4   0  13    0.11    0.24
  -4   0 -13    0.05    0.35
   5   0  13    0.04    0.27
   5   0  13    0.40    0.38
   5   0  13    0.08    0.27
  -5   0 -13    0.61    0.34
  -5   0 -13   -0.22    0.44
   6   0  13    0.05    0.31
  -6   0 -13   -0.03    0.52
  -6   0 -13   -0.07    0.37
   6   0  13   -0.23    0.43
   6   0  13    0.75    0.33
  -7   0 -13   -0.69    0.60
   7   0  13   -0.05    0.54
   7   0  13    0.17    0.42
  -7   0 -13   -0.13    0.48
   7   0  13    0.81    0.49
  -8   0 -13    0.79    0.80
   8   0  13    0.00    0.51
   8   0  13    0.05    0.52
   8   0  13   -0.13    0.43
   9   0  13   -1.52    0.87
  -9   0 -13    1.97    1.24
   9   0  13    0.81    0.58
   9   0  13    1.42    0.68
  10   0  13    0.69    0.77
  10   0  13   -0.47    0.71
  10   0  13    1.96    1.35
  13  -1 -13    0.43    0.97
 -13  -1  13    1.46    1.18
  13  -1 -13    2.78    1.93
  13   1 -13    2.04    1.71
  13   1 -13    0.63    0.89
 -13   1  13    3.14    1.36
  12  -1 -13    1.01    1.50
  12  -1 -13   -0.23    0.82
 -12  -1  13    1.05    0.96
  12   1 -13    2.82    1.34
  12   1 -13    1.76    0.87
 -12   1  13    0.94    1.09
  11  -1 -13    6.49    1.45
  11  -1 -13    7.96    1.22
  11   1 -13    8.22    1.21
 -11   1  13    7.82    1.27
  11   1 -13    8.03    1.48
  10  -1 -13    4.03    0.75
 -10  -1  13    4.58    0.80
  10  -1 -13    5.29    1.27
 -10  -1  13    7.01    1.25
 -10  -1  13    4.61    0.59
 -10   1  13    5.03    1.08
  10   1 -13    5.78    0.94
 -10   1  13    4.79    1.05
  10   1 -13    3.87    1.00
 -10   1  13    3.76    0.73
  -9  -1  13    7.25    1.02
  -9  -1  13    9.30    0.76
  -9  -1  13    6.20    1.18
   9  -1 -13    7.86    0.99
   9  -1 -13    6.11    1.15
   9   1 -13    5.92    1.09
  -9   1  13    9.12    1.44
   9   1 -13    9.09    0.97
   8  -1 -13    0.02    0.37
   8  -1 -13    0.26    0.73
  -8  -1  13   -0.25    0.26
  -8  -1  13   -0.23    0.41
  -8   1  13    0.03    0.53
   8   1 -13    0.25    0.62
   8   1 -13   -0.05    0.34
  -8   1  13   -0.06    0.43
  -8   1  13   -0.08    0.66
  -7  -1  13    5.56    0.72
   7  -1 -13    4.70    0.89
  -7  -1  13    6.19    0.88
  -7  -1  13    5.61    0.54
   7  -1 -13    5.60    0.75
  -7   1  13    6.59    0.93
  -7   1  13    5.24    0.77
  -7   1  13    6.42    0.99
   7   1 -13    6.91    1.04
   7   1 -13    5.06    0.71
  -6  -1  13    8.59    0.77
   6  -1 -13    9.41    0.89
  -6  -1  13    9.53    0.67
   6  -1 -13    8.91    0.94
  -6  -1  13    7.84    0.93
  -6   1  13    8.68    0.86
   6   1 -13    9.31    1.09
  -6   1  13    8.94    0.97
  -6   1  13    8.76    1.10
   6   1 -13    7.91    0.88
   6   1 -13    9.28    0.83
  -5  -1  13    0.81    0.41
   5  -1 -13    0.21    0.52
   5  -1 -13    0.05    0.37
   5  -1 -13    0.33    0.34
  -5  -1  13    0.32    0.20
  -5  -1  13    0.12    0.25
  -5   1  13    0.17    0.51
   5   1 -13    0.45    0.47
  -5   1  13    0.70    0.37
   5   1 -13    0.25    0.29
  -5   1  13   -0.04    0.49
   5   1 -13    0.54    0.36
  -4  -1  13   -0.13    0.37
   4  -1 -13    0.45    0.31
  -4  -1  13    0.82    0.23
  -4  -1  13    0.34    0.18
   4  -1 -13    0.20    0.51
  -4  -1  13    0.64    0.40
   4  -1 -13    0.55    0.32
  -4   1  13    0.86    0.51
  -4   1  13    0.87    0.34
  -4   1  13    0.91    0.34
   4   1 -13    0.28    0.44
  -4   1  13    0.56    0.14
   4   1 -13    0.64    0.24
   4   1 -13    0.66    0.33
  -4   1  13    0.88    0.48
   3  -1 -13    1.13    0.33
  -3  -1  13    0.91    0.23
  -3  -1  13    1.00    0.21
   3  -1 -13    0.42    0.35
   3  -1 -13    0.80    0.30
  -3  -1  13    0.55    0.40
  -3  -1  13    1.26    0.22
  -3  -1  13    1.51    0.38
   3   1 -13    0.91    0.28
  -3   1  13    0.68    0.32
  -3   1  13    0.79    0.57
  -3   1  13    1.69    0.37
   3   1 -13    1.09    0.32
  -3   1  13    1.09    0.43
  -2  -1  13    0.31    0.26
   2  -1 -13    0.03    0.28
  -2  -1  13    0.26    0.18
  -2  -1  13    0.22    0.15
  -2  -1  13   -0.09    0.33
   2  -1 -13   -0.06    0.24
   2  -1 -13    0.03    0.20
  -2  -1  13    0.02    0.17
   2   1 -13    0.33    0.25
  -2   1  13    0.34    0.26
  -2   1  13    0.35    0.27
   2   1 -13    0.26    0.25
  -2   1  13   -0.14    0.39
  -2   1  13    0.42    0.37
   1  -1 -13   17.83    1.28
   1  -1 -13   17.33    1.15
  -1  -1  13   16.32    1.05
  -1  -1  13   14.48    1.10
  -1  -1  13   16.91    1.04
   1  -1 -13   15.74    1.07
  -1  -1  13   16.10    0.99
   1  -1 -13   18.18    1.22
   1   1 -13   16.66    1.11
  -1   1  13   16.41    1.13
   1   1 -13   14.71    1.09
  -1   1  13   17.14    1.15
  -1   1  13   16.40    1.21
  -1   1  13   13.73    1.36
   0  -1 -13    0.23    0.23
   0  -1  13    0.67    0.21
   0  -1  13    0.53    0.42
   0  -1 -13    0.06    0.32
   0  -1  13    0.62    0.15
   0  -1  13    0.97    0.27
   0  -1 -13    0.85    0.32
   0  -1 -13    0.56    0.25
   0  -1  13    0.62    0.21
   0   1 -13    0.60    0.31
   0   1 -13    0.57    0.23
   0   1  13    0.80    0.30
   0   1  13    0.55    0.26
   0   1  13    0.85    0.35
   0   1 -13    0.68    0.26
  -1  -1 -13   12.36    0.94
   1  -1  13   10.51    0.80
   1  -1  13   10.66    0.73
   1  -1  13   10.80    0.83
   1  -1  13   11.77    0.79
  -1  -1 -13   11.28    0.79
  -1  -1 -13   10.55    0.87
  -1  -1 -13   13.52    1.03
   1   1  13   10.51    0.84
  -1   1 -13    9.87    0.82
  -1   1 -13   12.69    0.91
   1   1  13   11.14    0.91
  -1   1 -13   10.99    0.82
   1   1  13   10.57    0.87
  -2  -1 -13    1.94    0.53
  -2  -1 -13    2.17    0.40
   2  -1  13    2.02    0.36
   2  -1  13    1.78    0.35
  -2  -1 -13    1.88    0.35
   2  -1  13    2.01    0.32
  -2  -1 -13    2.44    0.34
   2  -1  13    2.10    0.36
  -2   1 -13    1.60    0.40
   2   1  13    1.67    0.38
   2   1  13    2.75    0.49
  -2   1 -13    1.94    0.36
  -2   1 -13    2.27    0.35
   2   1  13    1.70    0.35
   3  -1  13    0.06    0.21
  -3  -1 -13   -0.23    0.28
   3  -1  13    0.05    0.22
  -3  -1 -13   -0.07    0.22
   3  -1  13    0.22    0.27
   3  -1  13    0.12    0.19
   3   1  13    0.20    0.29
  -3   1 -13   -0.25    0.31
   3   1  13   -0.04    0.21
   3   1  13   -0.20    0.26
  -3   1 -13    0.32    0.27
   4  -1  13   17.99    1.28
   4  -1  13   18.46    1.19
   4  -1  13   18.07    1.16
  -4  -1 -13   15.49    1.13
   4  -1  13   18.59    1.24
  -4  -1 -13   16.48    1.38
  -4   1 -13   16.53    1.30
  -4   1 -13   18.43    1.22
   4   1  13   16.91    1.28
   4   1  13   17.11    1.26
   4   1  13   17.63    1.20
   5  -1  13    3.64    0.57
   5  -1  13    2.66    0.55
   5  -1  13    4.02    0.61
   5  -1  13    3.15    0.53
  -5  -1 -13    2.77    0.62
  -5  -1 -13    3.14    0.45
   5   1  13    3.04    0.55
  -5   1 -13    4.10    0.63
  -5   1 -13    3.54    0.59
   5   1  13    4.55    0.62
   5   1  13    2.94    0.47
  -6  -1 -13    0.22    0.55
   6  -1  13   -0.61    0.46
   6  -1  13    1.09    0.36
   6  -1  13   -0.16    0.34
   6  -1  13    0.23    0.30
   6   1  13    0.35    0.44
   6   1  13    0.25    0.48
  -6   1 -13    0.12    0.40
   6   1  13    0.43    0.35
  -6   1 -13    0.25    0.52
  -7  -1 -13    3.24    0.92
   7  -1  13    1.94    0.55
   7  -1  13    4.11    0.68
   7  -1  13    3.45    0.80
  -7  -1 -13    2.57    0.63
   7  -1  13    2.74    0.54
   7   1  13    4.73    0.78
  -7   1 -13    4.35    0.76
   7   1  13    2.30    0.59
   8  -1  13   17.77    1.48
  -8  -1 -13   18.24    1.88
   8  -1  13   18.31    1.53
   8  -1  13   19.21    1.90
   8  -1  13   17.26    1.53
  -8   1 -13   19.12    1.74
   8   1  13   19.40    1.51
   8   1  13   16.41    1.73
   9  -1  13    0.92    1.04
   9  -1  13    0.37    0.53
   9  -1  13    0.78    0.63
  -9   1 -13   -0.34    0.93
   9   1  13    0.20    0.60
   9   1  13    1.13    0.90
  10  -1  13    2.24    0.83
  10  -1  13   -0.14    1.35
  10  -1  13    0.88    0.79
  10   1  13   -0.66    1.18
  10   1  13    2.98    0.94
  13  -2 -13   -0.32    1.87
  13   2 -13    0.65    1.13
 -12  -2  13    7.02    1.09
  12  -2 -13    6.10    1.13
  12   2 -13    5.44    1.01
  12   2 -13    5.37    1.46
 -12   2  13    7.60    1.44
 -11  -2  13   10.68    1.09
  11  -2 -13   10.48    1.77
  11  -2 -13   11.60    1.45
 -11  -2  13   12.49    1.37
 -11   2  13   12.84    1.95
  11   2 -13   11.32    1.90
  11   2 -13   10.18    1.38
  10  -2 -13    0.71    0.73
  10  -2 -13    2.61    1.20
 -10  -2  13    1.30    0.56
 -10  -2  13    1.58    0.39
 -10   2  13    1.61    1.10
 -10   2  13    1.73    0.92
  10   2 -13    1.14    0.60
  10   2 -13    1.25    0.91
  -9  -2  13    1.90    0.65
   9  -2 -13    2.65    0.64
  -9  -2  13    1.38    0.33
   9  -2 -13    2.61    1.00
  -9  -2  13    1.08    0.43
  -9   2  13    3.02    0.92
   9   2 -13    2.01    0.57
  -9   2  13    3.36    0.79
   9   2 -13    0.99    0.70
  -9   2  13    0.29    0.77
   8  -2 -13   12.62    1.27
  -8  -2  13   13.00    0.98
  -8  -2  13   13.60    0.88
  -8   2  13   15.53    1.36
  -8   2  13   11.15    1.68
  -8   2  13   11.85    1.52
   8   2 -13   13.97    1.17
   8   2 -13   14.99    1.46
   7  -2 -13    0.13    0.45
   7  -2 -13    1.42    0.65
  -7  -2  13   -0.36    0.43
  -7   2  13    1.13    0.57
   7   2 -13    0.29    0.36
  -7   2  13    0.04    0.69
   7   2 -13    0.45    0.54
  -6  -2  13   10.11    0.93
   6  -2 -13    9.06    1.01
   6  -2 -13    7.78    1.28
   6  -2 -13   10.55    0.97
  -6   2  13    9.06    1.08
   6   2 -13    9.85    0.85
  -6   2  13    9.86    0.65
  -6   2  13    9.31    0.98
   6   2 -13    7.87    1.04
   5  -2 -13    9.16    0.88
  -5  -2  13   10.57    0.97
   5  -2 -13    9.57    1.24
  -5  -2  13    8.15    0.82
  -5   2  13    7.68    0.98
   5   2 -13    8.57    0.57
  -5   2  13    8.57    0.66
  -5   2  13   10.75    1.18
  -5   2  13    8.71    1.21
  -5   2  13    9.21    0.87
   5   2 -13    9.06    0.78
   5   2 -13    9.39    0.83
   5   2 -13    8.15    0.96
   4  -2 -13   25.73    1.74
  -4  -2  13   26.12    1.70
  -4  -2  13   24.92    1.66
   4  -2 -13   23.11    1.68
   4  -2 -13   28.16    1.83
  -4   2  13   25.36    1.79
   4   2 -13   21.48    1.74
  -4   2  13   26.47    1.97
  -4   2  13   24.81    1.91
  -4   2  13   28.99    1.77
   4   2 -13   25.75    1.64
   4   2 -13   25.63    1.66
   4   2 -13   26.64    1.51
  -4   2  13   25.51    1.61
   3  -2 -13   11.05    0.86
   3  -2 -13   10.41    0.91
  -3  -2  13    9.22    0.78
   3  -2 -13   10.54    1.01
  -3  -2  13    8.61    0.85
  -3   2  13   11.78    0.99
   3   2 -13   10.51    0.79
  -3   2  13   12.43    0.93
  -3   2  13    7.67    1.10
  -3   2  13   11.07    1.07
   3   2 -13   11.38    0.84
  -2  -2  13    0.94    0.32
   2  -2 -13    1.04    0.40
   2  -2 -13    0.25    0.28
  -2  -2  13    1.01    0.34
   2  -2 -13    0.74    0.32
  -2  -2  13    1.14    0.25
   2   2 -13    0.84    0.27
  -2   2  13    0.45    0.33
  -2   2  13    1.13    0.50
  -2   2  13    1.19    0.30
   2   2 -13    0.86    0.26
   1  -2 -13    8.88    0.76
   1  -2 -13   10.41    0.94
   1  -2 -13    8.34    0.81
  -1  -2  13   10.24    0.68
  -1  -2  13    8.55    0.78
  -1  -2  13    8.95    0.81
  -1   2  13   11.28    0.88
  -1   2  13    9.56    0.84
   1   2 -13    9.95    0.71
   1   2 -13    9.68    0.74
  -1   2  13    9.25    0.92
   0  -2 -13    4.52    0.81
   0  -2 -13    5.03    0.59
   0  -2  13    4.16    0.55
   0  -2 -13    5.35    0.72
   0  -2  13    4.57    0.42
   0  -2  13    4.71    0.67
   0  -2 -13    4.40    0.50
   0   2 -13    4.79    0.58
   0   2  13    4.56    0.62
   0   2  13    3.97    0.68
   0   2 -13    4.50    0.48
   0   2 -13    5.50    0.47
   0   2  13    3.34    0.74
   0   2  13    4.19    0.57
  -1  -2 -13    0.38    0.37
  -1  -2 -13    0.98    0.46
  -1  -2 -13    1.11    0.31
  -1  -2 -13    1.09    0.32
   1  -2  13    0.64    0.29
   1   2  13    1.18    0.40
  -1   2 -13    1.26    0.35
   1   2  13    1.16    0.31
   1   2  13    1.47    0.38
  -1   2 -13    1.52    0.25
  -1   2 -13    1.25    0.30
   2  -2  13    2.85    0.39
  -2  -2 -13    2.07    0.46
   2  -2  13    3.23    0.53
  -2  -2 -13    1.65    0.38
  -2  -2 -13    2.49    0.57
   2   2  13    3.49    0.57
  -2   2 -13    2.54    0.45
   2   2  13    2.57    0.50
  -2   2 -13    2.55    0.39
   2   2  13    1.88    0.38
  -3  -2 -13    0.43    0.39
  -3  -2 -13    0.16    0.27
   3  -2  13    0.07    0.28
   3  -2  13    0.11    0.27
   3   2  13   -0.43    0.30
  -3   2 -13   -0.18    0.25
   3   2  13    0.09    0.29
  -3   2 -13    0.23    0.30
   3   2  13    0.11    0.33
  -4  -2 -13    3.82    0.70
  -4  -2 -13    3.95    0.48
   4  -2  13    2.92    0.54
   4  -2  13    3.87    0.58
   4  -2  13    3.07    0.45
   4   2  13    2.79    0.47
   4   2  13    3.72    0.65
  -4   2 -13    3.57    0.51
  -4   2 -13    3.14    0.54
  -5  -2 -13    0.33    0.54
  -5  -2 -13   -0.38    0.42
   5  -2  13    0.61    0.46
   5  -2  13   -0.14    0.36
   5  -2  13    0.53    0.32
  -5  -2 -13   -0.19    0.32
   5  -2  13    0.64    0.30
   5   2  13    0.41    0.41
   5   2  13    0.38    0.46
  -5   2 -13    0.94    0.34
  -5   2 -13    0.45    0.43
   5   2  13    0.72    0.47
   6  -2  13    1.16    0.37
   6  -2  13    1.16    0.49
   6  -2  13    1.56    0.64
   6  -2  13    0.55    0.41
  -6  -2 -13    0.76    0.59
  -6  -2 -13    2.18    0.69
  -6  -2 -13    1.00    0.39
   6   2  13    0.84    0.50
  -6   2 -13    2.01    0.57
  -6   2 -13    1.86    0.43
   6   2  13    0.99    0.42
   6   2  13    2.22    0.49
   7  -2  13    7.05    0.78
   7  -2  13    6.03    0.95
  -7  -2 -13    6.47    1.10
   7  -2  13    7.96    1.33
   7  -2  13    4.88    0.86
  -7  -2 -13    4.80    0.92
   7   2  13    6.77    0.86
  -7   2 -13    9.40    0.99
   7   2  13    8.62    1.14
  -7   2 -13    7.51    1.12
   8  -2  13   -0.48    0.49
   8  -2  13    0.33    0.89
   8  -2  13    0.60    0.58
   8  -2  13   -0.82    0.54
  -8   2 -13   -0.82    0.76
   8   2  13   -0.57    0.74
   8   2  13   -0.06    0.47
   9  -2  13    0.66    0.79
   9  -2  13    0.45    0.78
   9  -2  13    3.07    1.32
   9   2  13    0.75    0.71
   9   2  13   -0.25    0.98
  -9   2 -13   -0.19    1.06
  10  -2  13    0.00    1.09
  10  -2  13    0.97    1.65
  10  -2  13    0.60    0.92
  10   2  13   -1.42    0.79
  10   2  13    0.94    1.30
  12  -3 -13    2.12    1.08
  12   3 -13    1.20    0.99
  12   3 -13   -0.60    1.34
 -12   3  13   -0.23    1.58
  11  -3 -13    0.88    1.60
  11  -3 -13    1.60    0.92
  11   3 -13    1.50    0.82
 -11   3  13   -0.82    1.13
  11   3 -13    0.06    1.15
  10  -3 -13    0.13    1.23
  10  -3 -13    0.86    0.86
  10   3 -13   -0.20    0.56
 -10   3  13   -1.94    0.90
  10   3 -13   -1.60    0.88
  10   3 -13    0.02    0.42
   9  -3 -13    2.99    0.82
  -9  -3  13    3.24    0.67
   9  -3 -13    4.72    1.32
  -9   3  13    1.17    1.11
   9   3 -13    3.03    0.62
  -9   3  13    0.98    0.90
   9   3 -13    2.29    0.43
   9   3 -13    3.02    0.82
   8  -3 -13   11.34    1.98
   8  -3 -13    9.91    1.24
  -8   3  13   10.49    0.84
  -8   3  13   12.08    1.32
   8   3 -13    9.66    1.39
  -8   3  13   12.88    1.57
  -8   3  13   13.41    1.60
   8   3 -13   11.11    0.87
   8   3 -13   11.73    1.11
   7  -3 -13    6.43    1.08
   7  -3 -13    5.15    1.11
  -7  -3  13    6.24    0.73
   7   3 -13    6.04    0.61
  -7   3  13    6.25    0.63
  -7   3  13    7.67    1.14
  -7   3  13    6.51    1.12
   7   3 -13    6.86    0.82
   7   3 -13    8.31    1.08
   6  -3 -13    7.95    0.92
   6  -3 -13    5.71    1.04
   6   3 -13    6.52    1.00
  -6   3  13    7.04    1.30
   6   3 -13    6.47    0.72
  -6   3  13    8.62    1.38
   6   3 -13    6.27    0.58
  -6   3  13    6.17    0.65
  -6   3  13    6.62    1.10
   5  -3 -13    0.34    0.37
   5  -3 -13   -0.66    0.42
   5  -3 -13    0.25    0.41
   5   3 -13   -0.28    0.32
  -5   3  13   -0.07    0.75
   5   3 -13   -0.22    0.21
  -5   3  13   -0.43    0.47
  -5   3  13   -0.11    0.58
  -5   3  13    0.25    0.30
   5   3 -13    0.30    0.30
   4  -3 -13   17.69    1.40
   4  -3 -13   15.98    1.22
   4  -3 -13   16.41    1.25
   4   3 -13   16.77    1.06
   4   3 -13   15.44    1.13
   4   3 -13   15.77    1.11
  -4   3  13   14.83    1.19
  -4   3  13   16.96    1.68
  -4   3  13   14.52    1.47
  -4   3  13   16.36    1.38
   3  -3 -13   -0.45    0.46
   3  -3 -13    0.44    0.27
   3  -3 -13    0.21    0.36
   3   3 -13    0.67    0.23
   3   3 -13    0.19    0.23
   3   3 -13    0.11    0.25
  -3   3  13    0.16    0.67
  -3   3  13    0.17    0.42
  -3   3  13    0.31    0.52
   2  -3 -13    1.14    0.33
   2  -3 -13    1.03    0.41
   2  -3 -13    0.96    0.51
   2   3 -13    0.81    0.26
  -2   3  13    1.79    0.56
  -2   3  13    0.95    0.64
  -2   3  13    0.56    0.43
   2   3 -13    1.02    0.26
   2   3 -13    0.86    0.28
   1  -3 -13  125.96    6.85
  -1  -3  13  116.17    6.75
   1  -3 -13  116.79    6.71
   1  -3 -13  106.95    6.69
   1   3 -13  123.74    6.64
   1   3 -13  116.05    6.58
  -1   3  13  102.77    6.90
   1   3 -13  112.60    6.58
  -1   3  13  118.88    6.80
  -1   3  13  112.62    6.73
   0  -3 -13    2.02    0.52
   0  -3 -13    1.56    0.38
   0  -3 -13    1.02    0.63
   0  -3 -13    1.38    0.37
   0  -3  13    1.70    0.49
   0   3  13    1.82    0.47
   0   3  13    1.17    0.41
   0   3 -13    1.72    0.29
   0   3 -13    2.05    0.33
   0   3  13    0.60    0.73
   0   3 -13    1.17    0.33
  -1  -3 -13    3.43    0.58
  -1  -3 -13    2.23    0.42
  -1  -3 -13    2.02    0.63
  -1  -3 -13    2.42    0.46
   1  -3  13    2.10    0.51
  -1   3 -13    3.01    0.43
   1   3  13    2.43    0.50
  -1   3 -13    2.45    0.30
   1   3  13    1.98    0.43
   2  -3  13   13.76    1.20
  -2  -3 -13   13.57    1.36
  -2  -3 -13   13.93    1.02
  -2  -3 -13   12.86    1.22
   2   3  13   12.76    1.14
   2   3  13   14.33    1.11
  -2   3 -13   13.48    1.01
  -2   3 -13   14.32    0.92
  -3  -3 -13   26.57    1.99
   3  -3  13   26.14    1.91
  -3  -3 -13   24.52    1.71
   3  -3  13   26.88    1.73
   3   3  13   26.67    1.83
   3   3  13   26.81    1.77
  -3   3 -13   26.87    1.72
   4  -3  13    1.71    0.51
  -4  -3 -13    1.62    0.64
  -4  -3 -13    1.80    0.40
   4   3  13    1.28    0.43
  -4   3 -13    0.80    0.33
  -4   3 -13    2.16    0.49
   4   3  13    1.25    0.66
   5  -3  13    3.07    0.71
  -5  -3 -13    1.79    0.86
  -5  -3 -13    1.97    0.45
  -5  -3 -13    4.29    0.80
   5  -3  13    2.34    0.63
   5   3  13    2.51    0.53
   5   3  13    1.93    0.59
   5   3  13    2.44    0.60
  -5   3 -13    1.53    0.43
  -5   3 -13    3.69    0.60
   6  -3  13    0.34    0.56
  -6  -3 -13    0.40    0.76
  -6  -3 -13    0.19    0.37
   6  -3  13   -0.24    0.67
   6   3  13    0.88    0.56
  -6   3 -13   -0.59    0.45
  -6   3 -13   -0.25    0.51
   6   3  13    1.05    0.46
   7  -3  13    4.59    1.05
   7  -3  13    4.17    0.85
  -7  -3 -13    2.96    0.55
  -7   3 -13    3.23    0.73
   7   3  13    3.91    0.74
  -7   3 -13    4.61    0.85
   7   3  13    5.16    0.90
   8  -3  13    2.71    0.89
   8  -3  13    1.65    1.21
   8   3  13    3.21    0.73
   8   3  13    3.60    1.08
  -8   3 -13    3.12    1.13
   9  -3  13   16.04    2.15
   9   3  13   18.39    1.76
   9   3  13   18.04    2.21
  11  -4 -13   -0.42    1.90
  11  -4 -13   -0.25    1.04
  11   4 -13    0.74    0.94
  11   4 -13    1.66    1.38
 -11   4  13    2.14    1.67
  10  -4 -13    2.39    0.91
  10  -4 -13    0.09    1.62
  10   4 -13    5.23    1.32
  10   4 -13    3.53    0.87
   9  -4 -13    1.67    0.86
   9  -4 -13    2.78    1.54
  -9   4  13    2.33    1.15
   9   4 -13    0.18    0.86
  -9   4  13    2.29    0.50
   9   4 -13    1.78    0.68
   8  -4 -13    2.96    0.66
   8  -4 -13    5.95    1.55
   8  -4 -13    3.20    0.82
  -8   4  13    4.65    1.22
  -8   4  13    4.15    1.14
   8   4 -13    4.93    0.71
   8   4 -13    4.80    0.91
  -8   4  13    1.79    1.14
  -8   4  13    4.93    0.80
   8   4 -13    3.38    0.59
   7  -4 -13    6.66    1.08
   7  -4 -13    5.51    0.90
   7  -4 -13    5.59    1.29
  -7   4  13    6.78    1.37
  -7   4  13    6.08    1.23
   7   4 -13    7.62    0.86
  -7   4  13    5.82    1.11
   7   4 -13    7.00    0.82
  -7   4  13    7.53    0.87
   6  -4 -13    2.93    0.66
   6  -4 -13    2.76    0.64
   6   4 -13    3.84    0.65
  -6   4  13    3.02    1.04
  -6   4  13    2.60    1.00
   6   4 -13    2.67    0.49
  -6   4  13    3.01    0.60
  -6   4  13    3.48    0.90
  -6   4  13    3.31    0.71
   5  -4 -13   -0.11    0.44
   5  -4 -13    0.42    0.38
  -5   4  13    0.28    0.57
   5   4 -13    0.57    0.32
  -5   4  13    0.41    0.46
   5   4 -13    0.75    0.34
  -5   4  13    0.67    0.92
  -5   4  13   -0.42    0.69
   4  -4 -13    0.69    0.36
   4  -4 -13    0.56    0.48
   4  -4 -13   -0.24    0.53
  -4   4  13    1.00    0.65
  -4   4  13    0.63    0.85
   4   4 -13   -0.14    0.55
  -4   4  13    0.39    0.52
  -4   4  13    1.04    0.89
   3  -4 -13    1.33    0.58
   3  -4 -13    0.85    0.41
   3  -4 -13    0.10    0.39
  -3   4  13   -0.43    0.77
   3   4 -13    0.34    0.29
  -3   4  13    0.92    0.56
  -3   4  13    0.71    0.54
  -3   4  13   -0.05    0.45
   2  -4 -13   29.29    2.10
   2  -4 -13   23.96    1.85
   2  -4 -13   30.61    1.89
  -2   4  13   33.09    2.41
  -2   4  13   27.89    2.00
  -2   4  13   23.82    2.11
   2   4 -13   29.40    1.83
   1  -4 -13    1.01    0.37
   1  -4 -13   -0.01    0.32
   1  -4 -13    0.92    0.61
  -1   4  13    1.14    0.85
  -1   4  13    0.67    0.50
   1   4 -13    1.06    0.33
  -1   4  13    1.36    0.52
  -1   4  13    0.74    0.61
   0  -4  13    0.88    0.57
   0  -4 -13    0.98    0.35
   0  -4 -13    0.63    0.36
   0  -4 -13    2.92    0.69
   0   4 -13    0.86    0.34
   0   4  13    0.92    0.48
   0   4  13    0.86    0.48
   0   4  13    0.55    0.92
  -1  -4 -13    8.35    1.05
   1  -4  13    6.60    0.99
  -1  -4 -13    6.64    0.76
   1   4  13    5.46    0.93
   1   4  13    6.34    1.18
  -1   4 -13    6.46    0.74
  -1   4 -13    6.88    0.53
   1   4  13    6.22    0.91
   2  -4  13   -0.87    0.53
  -2  -4 -13   -0.61    0.80
  -2  -4 -13    0.11    0.30
  -2  -4 -13    0.46    0.57
   2   4  13   -0.19    0.47
   2   4  13    0.19    0.38
   2   4  13    0.42    0.52
  -2   4 -13   -0.07    0.24
   3  -4  13    7.80    1.26
  -3  -4 -13    7.61    0.78
  -3  -4 -13    9.22    1.35
   3   4  13    7.47    1.02
   3   4  13    7.69    0.92
   3   4  13    7.70    0.98
  -3   4 -13    7.32    0.68
  -4  -4 -13    1.73    0.76
   4  -4  13    0.47    0.69
  -4  -4 -13    1.24    0.94
  -4  -4 -13    0.77    0.37
   4   4  13   -0.21    0.44
  -4   4 -13    0.20    0.43
   4   4  13    0.47    0.51
   4   4  13   -1.15    0.61
  -4   4 -13    1.05    0.36
   5  -4  13    1.21    0.79
  -5  -4 -13    0.80    0.43
  -5  -4 -13   -0.06    0.80
  -5   4 -13    1.42    0.53
   5   4  13   -0.11    0.56
   5   4  13   -0.18    0.47
  -5   4 -13    0.43    0.41
  -6  -4 -13    4.40    1.08
   6  -4  13    4.55    1.13
  -6  -4 -13    2.63    0.54
   6  -4  13    5.00    1.16
  -6   4 -13    3.35    0.65
  -6   4 -13    5.06    0.78
   6   4  13    3.30    0.76
   6   4  13    3.21    0.67
   7  -4  13    1.07    1.10
  -7  -4 -13    0.22    0.46
   7   4  13    0.58    0.60
   7   4  13    0.80    0.82
  -8  -4 -13   -0.37    0.62
   8  -4  13   -2.13    1.10
   8   4  13    0.31    1.04
   8   4  13    0.15    0.79
   9  -5 -13    0.43    0.65
   9  -5 -13    0.86    0.97
   9  -5 -13    2.46    2.04
   9   5 -13   -0.72    0.82
  -9   5  13    1.09    1.42
  -9   5  13    3.22    1.64
   8  -5 -13    3.41    0.86
   8  -5 -13    1.27    0.74
  -8   5  13    2.91    0.77
  -8   5  13    0.71    1.20
   8   5 -13    1.61    0.75
  -8   5  13    3.60    1.52
   8   5 -13    2.60    0.75
  -8   5  13    4.94    1.60
   7  -5 -13   -0.10    0.65
   7  -5 -13    1.51    0.56
  -7   5  13    0.68    1.16
   7   5 -13    2.12    0.57
  -7   5  13    2.71    0.78
  -7   5  13   -0.88    1.40
  -7   5  13    1.43    1.08
   7   5 -13    0.40    0.66
   6  -5 -13    1.55    0.47
   6  -5 -13    2.01    0.70
   6   5 -13    1.10    0.63
   6   5 -13    2.14    0.48
  -6   5  13    0.10    0.71
  -6   5  13    1.14    1.05
  -6   5  13    0.96    1.00
  -6   5  13   -1.76    1.33
   5  -5 -13   10.50    1.04
   5  -5 -13   11.94    1.19
  -5   5  13    8.69    1.29
  -5   5  13   10.52    1.69
  -5   5  13    9.06    1.35
   5   5 -13    8.87    1.08
  -5   5  13    9.60    1.64
   4  -5 -13    0.57    0.52
  -4   5  13    0.51    0.80
  -4   5  13    2.33    1.24
   4   5 -13    0.83    0.48
  -4   5  13   -0.17    0.68
  -4   5  13    0.18    0.74
   3  -5 -13    2.50    0.61
   3  -5 -13    2.36    0.60
   3  -5 -13    0.71    0.81
   3   5 -13    3.46    0.61
  -3   5  13    3.32    0.80
  -3   5  13    2.75    0.76
  -3   5  13    1.76    0.77
  -3   5  13    3.29    0.86
  -3   5  13    0.40    1.16
   2  -5 -13    0.23    0.70
   2  -5 -13   -0.23    0.44
   2  -5 -13    0.13    0.39
  -2   5  13    0.70    1.07
  -2   5  13   -0.09    0.60
  -2   5  13    0.46    0.66
  -2   5  13    0.38    0.62
  -2   5  13    0.92    0.82
   2   5 -13   -0.75    0.40
   1  -5 -13    2.29    0.55
   1  -5 -13    2.14    0.81
  -1   5  13    2.01    1.12
  -1   5  13    3.04    0.74
   1   5 -13    2.71    0.54
  -1   5  13    3.94    0.82
  -1   5  13    1.95    0.67
   0  -5 -13   11.73    1.08
   0  -5 -13   11.36    1.56
   0   5  13   13.37    1.41
   0   5  13   11.27    1.27
   0   5 -13   12.65    1.15
   0   5  13   10.61    1.23
   0   5  13   11.48    2.00
  -1  -5 -13    2.78    0.56
  -1  -5 -13    1.84    0.85
   1   5  13    2.73    0.77
   1   5  13    3.67    0.69
  -1   5 -13    2.15    0.56
   1   5  13    2.92    0.68
   1   5  13    1.85    1.37
   2  -5  13   -0.32    0.83
  -2  -5 -13    1.34    0.42
   2   5  13   -0.18    0.57
   2   5  13    0.48    0.51
  -2   5 -13    0.56    0.30
   2   5  13    0.58    1.45
  -2   5 -13    1.27    0.59
  -3  -5 -13    0.07    0.39
   3  -5  13    0.02    0.92
  -3  -5 -13    1.67    1.08
  -3   5 -13    0.35    0.36
   3   5  13    0.32    0.58
   3   5  13    0.20    0.59
  -4  -5 -13    0.07    1.02
  -4  -5 -13    0.47    0.43
   4  -5  13   -0.16    1.05
  -4   5 -13    0.01    0.43
   4   5  13    0.51    0.65
   4   5  13    0.46    0.62
  -5  -5 -13    0.74    1.20
  -5  -5 -13    4.14    1.04
   5  -5  13    4.05    1.21
   5   5  13    3.45    0.81
   5   5  13    3.77    0.91
  -5   5 -13    3.69    0.64
   6  -5  13    1.79    1.25
  -6  -5 -13    0.02    0.58
   6   5  13   -0.75    0.75
   6   5  13    1.54    0.75
   7  -6 -13    0.80    0.60
   7  -6 -13    1.50    0.92
  -7   6  13    1.48    1.52
  -7   6  13    4.55    1.55
   6  -6 -13    0.75    0.64
   6  -6 -13    1.00    0.78
  -6   6  13    0.78    1.26
  -6   6  13   -1.09    1.23
   6   6 -13    2.22    1.04
   5  -6 -13    2.47    0.77
   5  -6 -13    1.47    0.66
   5   6 -13    1.04    0.86
  -5   6  13    4.85    1.78
  -5   6  13    3.99    1.20
  -5   6  13    3.76    1.15
   4  -6 -13   -0.39    0.63
   4   6 -13   -1.15    0.74
  -4   6  13    1.52    1.02
  -4   6  13   -2.48    1.71
  -4   6  13    0.15    0.98
   3  -6 -13   21.33    1.68
  -3   6  13   19.53    2.01
  -3   6  13   17.32    2.99
   3   6 -13   19.77    2.28
  -3   6  13   21.17    2.04
   2  -6 -13    2.20    0.60
  -2   6  13    2.05    0.93
  -2   6  13    0.27    1.62
  -2   6  13    3.12    0.94
   1  -6 -13   13.02    1.29
  -1   6  13   12.07    2.02
  -1   6  13   16.40    1.67
  -1   6  13   17.78    1.72
   0  -6 -13    3.58    0.71
   0  -6 -13    3.73    1.01
   0   6  13    3.29    0.87
   0   6  13    3.60    0.87
   0   6  13    6.55    1.72
   1   6  13   -1.15    1.70
   1   6  13    1.58    0.79
   1   6  13    1.49    0.74
  -2  -6 -13    6.82    0.97
   2   6  13   11.15    2.19
   2   6  13    6.64    1.03
   2   6  13    6.04    1.01
  -3  -6 -13    0.86    0.62
   3   6  13    0.58    0.76
   3   6  13    1.21    0.80
  -4  -6 -13    6.98    0.96
   4   6  13    7.68    1.14
   4   6  13    5.82    1.14
  13   0 -14    0.54    0.91
  13   0 -14    2.03    1.68
 -13   0  14    0.30    1.22
  12   0 -14   -0.22    0.78
  12   0 -14   -1.43    1.28
 -12   0  14   -1.24    0.90
 -11   0  14    2.12    0.66
 -11   0  14   -0.67    0.80
  11   0 -14    0.09    1.04
  11   0 -14    0.49    0.68
  10   0 -14    2.24    1.00
 -10   0  14    2.06    0.79
  10   0 -14    1.81    0.58
 -10   0  14   -0.31    0.93
   9   0 -14    2.73    0.59
   9   0 -14    3.49    0.95
  -9   0  14    2.38    0.74
  -9   0  14    1.65    0.48
   8   0 -14    0.76    0.70
  -8   0  14    1.03    0.53
  -8   0  14    0.14    0.37
   8   0 -14    0.76    0.43
  -7   0  14  144.94    7.94
   7   0 -14  128.38    8.01
   7   0 -14  131.43    8.17
  -7   0  14  145.27    8.03
   6   0 -14   39.62    2.55
  -6   0  14   33.19    2.46
  -6   0  14   37.11    2.26
   6   0 -14   35.31    2.32
   6   0 -14   37.76    2.41
  -6   0  14   34.69    2.30
   5   0 -14    9.17    0.91
   5   0 -14    7.59    0.81
  -5   0  14    8.54    1.06
  -5   0  14   10.81    0.81
  -5   0  14   10.03    1.02
  -5   0  14    9.12    0.83
  -4   0  14   33.18    2.03
  -4   0  14   35.69    2.04
   4   0 -14   30.13    2.06
  -4   0  14   30.62    2.18
   3   0 -14   15.55    1.14
  -3   0  14   14.91    1.04
  -3   0  14   14.11    1.04
  -3   0  14   16.21    1.20
   3   0 -14   14.26    1.07
  -3   0  14   14.24    0.89
  -2   0  14    1.16    0.36
   2   0 -14    1.20    0.26
  -2   0  14    1.02    0.30
   2   0 -14    0.59    0.36
  -2   0  14    1.27    0.27
  -2   0  14    0.96    0.17
   2   0 -14    1.10    0.32
  -1   0  14    5.38    0.56
   1   0 -14    5.46    0.64
   1   0 -14    6.43    0.50
   1   0 -14    4.52    0.69
   1   0 -14    6.19    0.60
  -1   0  14    6.55    0.55
  -1   0  14    6.54    0.67
   0   0  14    0.43    0.44
   0   0  14    0.09    0.19
   0   0  14    0.40    0.30
   0   0  14    0.41    0.23
   0   0 -14    0.56    0.23
   0   0 -14    0.00    0.32
   0   0 -14    0.01    0.28
   0   0 -14    0.02    0.22
   1   0  14   11.92    0.82
  -1   0 -14   10.66    0.99
  -1   0 -14   11.37    0.89
   1   0  14   11.46    0.87
  -1   0 -14   11.28    0.97
   1   0  14   11.31    0.91
  -1   0 -14   12.04    0.77
  -2   0 -14    0.62    0.31
   2   0  14    0.72    0.24
  -2   0 -14    0.43    0.30
  -2   0 -14    1.02    0.38
   2   0  14    1.04    0.34
  -2   0 -14    1.20    0.22
   2   0  14    0.57    0.27
   3   0  14   17.56    1.21
  -3   0 -14   20.22    1.19
  -3   0 -14   17.56    1.28
  -3   0 -14   17.94    1.38
   3   0  14   17.86    1.30
   4   0  14   61.91    3.47
  -4   0 -14   60.25    3.49
   4   0  14   57.16    3.42
  -4   0 -14   53.57    4.01
   4   0  14   54.62    3.49
   5   0  14    1.29    0.45
   5   0  14    1.24    0.37
  -5   0 -14    1.62    0.47
  -5   0 -14    1.94    0.60
   6   0  14    5.37    0.95
   6   0  14    7.21    0.77
  -6   0 -14    5.88    0.88
  -6   0 -14    7.67    0.93
  -7   0 -14    0.88    0.74
  -7   0 -14    1.63    0.95
   7   0  14    1.09    0.47
   7   0  14    1.31    0.47
   7   0  14    1.66    0.67
   8   0  14   14.62    1.26
  -8   0 -14   13.90    1.75
   8   0  14   10.86    1.28
   8   0  14    9.17    1.62
   8   0  14   13.46    1.32
   9   0  14   26.52    2.03
   9   0  14   26.58    2.03
   9   0  14   23.18    2.42
  10   0  14   -0.19    0.73
  10   0  14    0.29    1.34
  10   0  14   -0.94    0.79
 -13  -1  14    2.79    1.27
  13  -1 -14   -0.82    1.75
  13  -1 -14    1.24    1.07
  13   1 -14    0.66    1.62
  13   1 -14    1.55    1.08
 -13   1  14    1.77    1.35
  12  -1 -14    1.93    1.46
 -12  -1  14    2.56    0.75
 -12  -1  14    3.13    1.04
  12  -1 -14    3.39    0.90
 -12   1  14    2.22    1.19
  12   1 -14    3.26    1.39
  12   1 -14    2.79    1.01
  11  -1 -14    6.59    1.47
  11  -1 -14    3.40    0.90
  11   1 -14    5.63    1.20
  11   1 -14    4.63    0.86
 -11   1  14    6.25    1.10
 -10  -1  14   22.19    1.55
 -10  -1  14   21.70    1.78
  10  -1 -14   24.80    2.34
  10  -1 -14   22.77    1.80
 -10   1  14   22.08    1.99
  10   1 -14   21.53    1.80
 -10   1  14   22.43    1.76
  -9  -1  14   15.30    1.04
   9  -1 -14   13.53    1.28
  -9  -1  14   12.59    1.48
   9  -1 -14   14.28    1.79
  -9  -1  14   12.81    1.25
  -9   1  14   13.99    1.26
  -9   1  14   13.78    1.62
  -9   1  14   10.06    1.43
   9   1 -14   11.40    1.57
   8  -1 -14    0.76    0.81
  -8  -1  14    0.31    0.30
  -8  -1  14    0.53    0.42
  -8   1  14    0.12    0.60
  -8   1  14    0.33    0.50
   8   1 -14    0.83    0.41
   8   1 -14    0.90    0.74
  -8   1  14   -0.62    0.67
   7  -1 -14   -0.25    0.62
   7  -1 -14    0.32    0.38
  -7  -1  14   -0.35    0.32
  -7  -1  14    0.46    0.55
  -7  -1  14    0.31    0.25
  -7   1  14   -0.33    0.52
  -7   1  14   -0.35    0.39
   7   1 -14   -0.10    0.33
  -7   1  14    0.82    0.63
   7   1 -14    0.03    0.57
  -6  -1  14  108.59    6.32
  -6  -1  14  107.32    6.46
   6  -1 -14  114.32    6.53
  -6  -1  14  112.14    6.27
   6  -1 -14  111.76    6.45
   6   1 -14  104.34    6.45
  -6   1  14  120.43    6.43
   6   1 -14  107.67    6.41
  -6   1  14  107.83    6.46
   6   1 -14  116.43    6.56
  -6   1  14   92.97    6.52
   5  -1 -14    2.79    0.71
  -5  -1  14    2.40    0.36
  -5  -1  14    2.78    0.60
   5  -1 -14    2.65    0.52
  -5  -1  14    2.32    0.30
  -5  -1  14    2.06    0.54
   5  -1 -14    1.69    0.48
  -5   1  14    2.26    0.64
   5   1 -14    1.92    0.40
  -5   1  14    2.83    0.73
   5   1 -14    3.39    0.65
  -5   1  14    2.01    0.47
  -5   1  14    2.19    0.42
  -4  -1  14   45.07    2.53
   4  -1 -14   42.03    2.67
  -4  -1  14   43.88    2.53
  -4  -1  14   49.27    2.74
  -4  -1  14   36.51    2.69
   4  -1 -14   45.29    2.77
  -4   1  14   34.83    2.81
  -4   1  14   44.07    2.82
  -4   1  14   42.16    2.49
   4   1 -14   46.18    2.69
   4   1 -14   42.60    2.63
  -4   1  14   43.65    2.68
  -3  -1  14    2.67    0.46
   3  -1 -14    2.24    0.42
  -3  -1  14    2.00    0.31
  -3  -1  14    2.43    0.36
  -3  -1  14    2.54    0.34
   3  -1 -14    1.67    0.47
   3  -1 -14    2.95    0.44
   3   1 -14    2.44    0.39
  -3   1  14    2.80    0.56
  -3   1  14    1.78    0.41
  -3   1  14    2.65    0.48
   3   1 -14    2.19    0.41
  -3   1  14    3.18    0.64
  -2  -1  14   15.71    1.02
  -2  -1  14   14.50    1.03
   2  -1 -14   16.19    1.23
   2  -1 -14   16.08    1.14
  -2  -1  14   15.17    0.98
   2  -1 -14   15.57    1.08
  -2  -1  14   15.95    1.14
   2   1 -14   16.61    1.01
   2   1 -14   16.09    1.13
   2   1 -14   16.57    1.12
  -2   1  14   15.88    1.15
  -2   1  14   15.68    1.27
  -2   1  14   16.95    1.17
  -1  -1  14   26.50    1.75
  -1  -1  14   27.53    1.69
   1  -1 -14   28.42    1.88
   1  -1 -14   30.03    1.96
  -1  -1  14   27.72    1.65
   1  -1 -14   28.80    1.73
  -1  -1  14   28.51    1.71
  -1  -1  14   29.63    1.90
   1  -1 -14   29.09    1.80
  -1   1  14   25.46    1.85
   1   1 -14   27.89    1.77
   1   1 -14   27.82    1.75
  -1   1  14   28.76    1.78
  -1   1  14   26.71    2.01
  -1   1  14   26.20    1.80
   0  -1  14    0.13    0.18
   0  -1 -14    0.29    0.29
   0  -1  14    0.12    0.26
   0  -1 -14    0.19    0.24
   0  -1  14    0.37    0.15
   0  -1 -14   -0.04    0.23
   0  -1 -14    0.24    0.40
   0  -1  14    0.59    0.22
   0   1  14    0.33    0.35
   0   1 -14    0.15    0.23
   0   1 -14    0.59    0.31
   0   1  14    0.35    0.26
   0   1  14   -0.52    0.46
   0   1 -14    0.08    0.25
   0   1  14    0.65    0.28
   1  -1  14    0.19    0.20
   1  -1  14   -0.03    0.20
  -1  -1 -14    0.06    0.22
  -1  -1 -14    0.20    0.37
   1  -1  14    0.15    0.26
  -1  -1 -14    0.17    0.28
   1  -1  14    0.10    0.15
  -1  -1 -14    0.65    0.30
   1   1  14   -0.16    0.45
  -1   1 -14   -0.07    0.33
   1   1  14    0.17    0.22
   1   1  14   -0.17    0.30
  -1   1 -14   -0.04    0.23
  -1   1 -14    0.42    0.25
   2  -1  14    2.18    0.38
  -2  -1 -14    2.02    0.33
  -2  -1 -14    2.38    0.43
  -2  -1 -14    2.05    0.38
   2  -1  14    1.52    0.32
   2  -1  14    2.35    0.35
   2  -1  14    2.35    0.35
  -2  -1 -14    2.86    0.56
  -2   1 -14    2.05    0.40
   2   1  14    2.14    0.41
   2   1  14    2.98    0.53
  -2   1 -14    2.15    0.40
   2   1  14    2.43    0.37
  -2   1 -14    2.13    0.46
  -3  -1 -14    0.29    0.24
   3  -1  14    0.63    0.32
   3  -1  14    0.17    0.24
  -3  -1 -14    0.49    0.42
   3  -1  14    0.44    0.24
   3  -1  14    0.37    0.27
   3   1  14    0.11    0.26
  -3   1 -14    0.59    0.32
  -3   1 -14    0.40    0.36
   3   1  14    0.65    0.33
   3   1  14    0.87    0.36
   4  -1  14   17.18    1.42
  -4  -1 -14   20.30    1.30
   4  -1  14   21.38    1.33
   4  -1  14   19.81    1.36
   4  -1  14   20.96    1.41
  -4  -1 -14   18.79    1.55
   4   1  14   21.48    1.38
   4   1  14   18.82    1.46
  -4   1 -14   20.89    1.39
   4   1  14   21.71    1.45
  -4   1 -14   20.60    1.50
  -5  -1 -14    0.59    0.33
   5  -1  14    0.34    0.35
   5  -1  14    0.67    0.45
   5  -1  14    0.70    0.30
  -5  -1 -14    0.51    0.50
   5  -1  14    0.09    0.30
  -5   1 -14   -0.19    0.35
   5   1  14    0.17    0.40
   5   1  14    0.34    0.33
  -5   1 -14    0.63    0.49
   6  -1  14    2.14    0.46
  -6  -1 -14    1.68    0.72
   6  -1  14    2.06    0.43
   6  -1  14    1.17    0.59
  -6  -1 -14    1.57    0.54
   6  -1  14    0.79    0.40
   6   1  14    1.94    0.47
   6   1  14    1.52    0.56
  -6   1 -14    1.88    0.66
   6   1  14    2.62    0.56
  -6   1 -14    1.45    0.49
  -7  -1 -14    3.76    0.89
   7  -1  14    3.31    0.61
   7  -1  14    2.95    0.58
   7  -1  14    2.46    0.53
   7  -1  14    4.78    0.87
   7   1  14    2.78    0.61
   7   1  14    3.80    0.68
   7   1  14    3.35    0.80
  -7   1 -14    4.89    0.88
  -7   1 -14    2.19    0.64
   8  -1  14   13.82    1.42
   8  -1  14   14.73    1.39
   8  -1  14   13.49    1.81
   8  -1  14   14.99    1.40
   8   1  14   17.80    1.45
   8   1  14   17.97    1.73
  -8   1 -14   18.99    1.81
   9  -1  14   11.85    1.32
   9  -1  14   10.67    1.37
   9  -1  14    9.10    1.54
   9  -1  14    8.14    1.06
   9   1  14    8.42    1.32
  -9   1 -14   11.34    2.02
   9   1  14    8.13    1.38
  10  -1  14    2.76    0.98
  10  -1  14    3.20    1.55
  10  -1  14    0.71    1.17
  10   1  14   -0.02    1.32
  10   1  14    2.05    0.91
  12  -2 -14    2.12    1.73
  12   2 -14    3.13    1.38
  11  -2 -14    2.86    1.43
  11  -2 -14    0.87    0.74
 -11  -2  14    0.71    0.62
  11   2 -14    0.90    0.76
  11   2 -14    1.40    1.15
 -11   2  14    0.90    1.05
 -10  -2  14    3.93    0.60
  10  -2 -14    4.35    0.89
 -10  -2  14    3.43    0.61
  10  -2 -14    2.35    1.17
  10   2 -14    2.12    1.01
  10   2 -14    3.59    0.74
 -10   2  14    3.92    1.04
  -9  -2  14    0.29    0.37
  -9  -2  14    0.55    0.28
   9  -2 -14    0.48    0.60
   9  -2 -14   -0.53    0.86
  -9  -2  14   -0.47    0.61
  -9   2  14    0.66    0.75
   9   2 -14    1.77    0.81
  -9   2  14   -0.76    0.95
   9   2 -14    0.24    0.49
   8  -2 -14    2.34    0.62
  -8  -2  14    2.67    0.67
  -8   2  14    3.32    0.90
   8   2 -14    2.99    1.26
   8   2 -14    3.32    0.59
  -8   2  14    3.13    0.80
  -8   2  14    2.84    0.68
  -7  -2  14   -0.32    0.48
   7  -2 -14    0.01    0.67
   7  -2 -14    0.63    0.49
   7   2 -14    0.44    0.58
   7   2 -14   -0.17    0.36
  -7   2  14    0.03    0.75
  -7   2  14    0.49    0.56
  -6  -2  14    3.88    0.74
   6  -2 -14    3.98    0.66
   6  -2 -14    3.41    0.87
   6   2 -14    4.63    0.64
  -6   2  14    4.23    0.70
  -6   2  14    3.06    0.83
  -6   2  14    5.19    0.40
   6   2 -14    5.48    0.92
  -6   2  14    6.03    1.00
   6   2 -14    4.86    0.68
  -6   2  14    3.62    0.73
  -5  -2  14   22.32    1.52
   5  -2 -14   22.50    1.57
  -5  -2  14   23.77    1.60
   5  -2 -14   22.80    1.66
   5  -2 -14   19.91    1.84
  -5   2  14   22.16    1.83
  -5   2  14   24.12    1.88
  -5   2  14   21.61    1.57
   5   2 -14   18.08    1.61
  -5   2  14   22.04    1.36
  -5   2  14   21.13    1.62
   5   2 -14   21.85    1.53
   5   2 -14   22.19    1.49
   4  -2 -14    6.04    0.64
   4  -2 -14    5.23    0.78
   4  -2 -14    4.94    0.71
  -4   2  14    5.05    0.92
  -4   2  14    6.13    0.80
   4   2 -14    4.48    0.58
   4   2 -14    5.57    0.63
  -4   2  14    5.64    0.56
  -4   2  14    3.51    0.81
  -4   2  14    5.37    0.74
   3  -2 -14    1.75    0.41
   3  -2 -14    2.19    0.39
  -3  -2  14    1.86    0.46
   3  -2 -14    1.56    0.45
  -3  -2  14    1.91    0.35
  -3   2  14    1.63    0.46
   3   2 -14    1.90    0.36
  -3   2  14    2.14    0.53
  -3   2  14    2.22    0.63
  -3   2  14    1.87    0.44
   3   2 -14    1.93    0.37
  -2  -2  14    4.16    0.56
   2  -2 -14    3.94    0.66
  -2  -2  14    4.04    0.45
  -2  -2  14    3.42    0.52
   2  -2 -14    3.35    0.56
   2  -2 -14    3.26    0.48
  -2   2  14    2.60    0.48
   2   2 -14    3.15    0.47
   2   2 -14    3.88    0.49
  -2   2  14    3.49    0.54
  -2   2  14    4.33    0.75
   1  -2 -14    6.17    0.77
   1  -2 -14    5.04    0.54
  -1  -2  14    5.09    0.68
   1  -2 -14    4.96    0.62
  -1  -2  14    5.04    0.47
  -1  -2  14    4.47    0.58
  -1   2  14    4.68    0.84
   1   2 -14    4.29    0.53
  -1   2  14    5.60    0.69
  -1   2  14    4.83    0.67
  -1   2  14    4.81    0.74
   1   2 -14    5.44    0.51
   0  -2  14   52.05    3.23
   0  -2 -14   61.57    3.54
   0  -2 -14   51.52    3.32
   0  -2  14   53.35    3.32
   0  -2 -14   56.69    3.42
   0  -2 -14   54.39    3.28
   0   2  14   58.03    3.36
   0   2  14   53.53    3.31
   0   2 -14   57.11    3.33
   0   2  14   60.74    3.60
   0   2  14   51.27    3.37
   0   2 -14   55.65    3.24
   0   2 -14   52.39    3.24
  -1  -2 -14   -0.65    0.34
  -1  -2 -14   -0.06    0.27
   1  -2  14    0.05    0.27
   1  -2  14    0.39    0.25
  -1  -2 -14    0.28    0.31
  -1  -2 -14    0.48    0.46
  -1   2 -14    0.01    0.27
   1   2  14    0.16    0.33
   1   2  14    0.37    0.32
  -1   2 -14    0.24    0.26
   1   2  14   -0.16    0.26
  -1   2 -14    0.20    0.24
  -2  -2 -14    7.60    0.82
  -2  -2 -14    6.92    0.62
   2  -2  14    5.84    0.68
   2  -2  14    5.79    0.64
  -2  -2 -14    5.97    0.89
   2   2  14    6.80    0.76
   2   2  14    5.95    0.76
  -2   2 -14    5.74    0.67
   2   2  14    6.05    0.67
  -2   2 -14    6.22    0.63
  -3  -2 -14    6.23    0.96
   3  -2  14    6.01    0.70
   3  -2  14    5.50    0.71
  -3  -2 -14    7.00    0.61
  -3  -2 -14    7.04    0.97
   3   2  14    5.38    0.69
   3   2  14    6.58    0.80
   3   2  14    4.66    0.75
  -3   2 -14    7.79    0.65
  -3   2 -14    6.67    0.74
   4  -2  14    1.86    0.52
  -4  -2 -14    2.19    0.39
   4  -2  14    2.17    0.35
  -4  -2 -14    2.50    0.74
   4  -2  14    1.36    0.40
   4   2  14    2.48    0.54
  -4   2 -14    2.29    0.39
  -4   2 -14    1.98    0.53
   4   2  14    2.06    0.47
  -5  -2 -14   13.12    1.36
   5  -2  14   12.00    0.93
   5  -2  14   13.86    1.22
   5  -2  14   13.05    0.96
   5  -2  14   12.32    1.13
  -5  -2 -14   10.75    0.94
   5   2  14   13.21    1.04
  -5   2 -14   12.21    1.01
   5   2  14   11.85    1.18
  -5   2 -14   13.06    1.18
   5   2  14   10.63    1.29
  -6  -2 -14    0.47    0.71
   6  -2  14    0.86    0.38
  -6  -2 -14    0.68    0.40
   6  -2  14    0.31    0.62
  -6  -2 -14   -0.42    0.61
   6  -2  14    0.04    0.38
   6  -2  14   -0.39    0.39
   6   2  14    0.26    0.41
   6   2  14    1.56    0.61
  -6   2 -14    0.51    0.46
   6   2  14   -0.30    0.51
  -6   2 -14    1.07    0.63
   7  -2  14    1.15    0.86
   7  -2  14    1.21    0.48
   7  -2  14   -0.58    0.48
   7  -2  14   -0.36    0.50
   7   2  14   -0.09    0.62
   7   2  14    0.16    0.53
  -7   2 -14    0.09    0.74
   8  -2  14    1.14    0.61
   8  -2  14    0.12    0.95
   8  -2  14    0.38    0.69
   8  -2  14   -0.05    0.54
   8   2  14    0.85    0.65
   8   2  14    0.55    0.81
  -8   2 -14   -0.45    0.89
   9  -2  14   -0.07    1.31
   9  -2  14   -0.58    0.76
   9  -2  14   -0.23    0.81
   9   2  14    0.16    0.75
   9   2  14   -0.99    1.04
  12  -3 -14    9.16    2.19
  12  -3 -14    7.24    1.44
  12   3 -14    7.73    1.24
  12   3 -14    8.61    1.79
 -12   3  14   12.91    2.86
  11  -3 -14    0.57    0.95
  11  -3 -14    1.15    1.58
  11   3 -14    1.26    0.85
 -11   3  14   -0.90    1.25
  11   3 -14    0.67    1.25
  10  -3 -14    1.69    1.37
  10  -3 -14    0.02    0.71
 -10   3  14    2.09    1.14
  10   3 -14    0.89    0.70
  10   3 -14    0.65    1.01
   9  -3 -14   -0.37    0.64
   9  -3 -14   -0.62    1.12
  -9   3  14   -1.85    1.14
   9   3 -14    0.32    0.88
   9   3 -14    0.04    0.53
  -9   3  14    0.82    0.93
   9   3 -14    0.51    0.29
  -8  -3  14    2.92    0.54
   8  -3 -14    1.39    0.61
   8  -3 -14    3.48    1.03
  -8   3  14    2.21    0.73
  -8   3  14    1.69    0.32
  -8   3  14    0.28    0.98
  -8   3  14    1.63    0.87
   8   3 -14    1.98    0.52
   8   3 -14    2.54    0.76
   8   3 -14    2.20    0.33
  -7  -3  14    1.78    0.45
   7  -3 -14    0.23    0.98
   7  -3 -14    1.54    0.58
   7   3 -14    1.41    0.46
  -7   3  14   -0.95    0.91
   7   3 -14    1.15    0.65
   7   3 -14    1.25    0.26
  -7   3  14    0.98    0.30
  -7   3  14    0.27    0.73
  -7   3  14    0.30    0.88
  -7   3  14    1.39    0.69
   6  -3 -14    1.37    0.44
   6  -3 -14    1.40    0.91
   6   3 -14    1.64    0.27
  -6   3  14    1.05    0.34
   6   3 -14    2.14    0.66
  -6   3  14    0.64    0.83
  -6   3  14    1.52    0.77
   6   3 -14    1.34    0.43
  -6   3  14    0.24    0.81
   5  -3 -14    3.13    0.57
   5  -3 -14    4.51    0.66
   5   3 -14    3.02    0.39
   5   3 -14    3.91    0.52
  -5   3  14    2.83    0.72
  -5   3  14    3.65    0.62
  -5   3  14    3.76    0.85
   5   3 -14    3.62    0.68
  -5   3  14    1.97    0.86
   4  -3 -14    9.22    0.99
   4  -3 -14   11.38    0.94
   4  -3 -14    9.80    1.16
  -4   3  14    8.32    1.23
  -4   3  14   12.07    0.97
   4   3 -14   10.12    0.88
  -4   3  14   11.57    1.14
   4   3 -14    9.92    0.86
   4   3 -14   11.71    0.77
  -4   3  14   12.61    1.31
   3  -3 -14    1.34    0.61
   3  -3 -14    1.27    0.36
   3  -3 -14    1.73    0.47
  -3   3  14    2.14    0.53
   3   3 -14    2.10    0.39
   3   3 -14    1.98    0.31
  -3   3  14    2.18    0.83
  -3   3  14    1.69    0.63
   3   3 -14    1.27    0.33
   2  -3 -14    2.55    0.62
   2  -3 -14    2.08    0.47
   2  -3 -14    2.61    0.45
  -2   3  14    2.17    0.56
  -2   3  14    1.70    0.75
   2   3 -14    2.54    0.37
   2   3 -14    2.57    0.38
   2   3 -14    2.84    0.38
  -2   3  14    2.39    0.55
   1  -3 -14   84.43    4.89
  -1  -3  14   76.89    4.78
   1  -3 -14   87.69    4.75
   1  -3 -14   77.57    4.73
  -1   3  14   75.90    4.76
  -1   3  14   79.72    4.84
   1   3 -14   76.84    4.61
   1   3 -14   80.81    4.61
   0  -3 -14   16.82    1.24
   0  -3 -14   17.35    1.48
   0  -3  14   15.77    1.35
   0  -3 -14   19.10    1.47
   0  -3 -14   18.48    1.30
   0   3 -14   17.07    1.12
   0   3  14   16.78    1.31
   0   3  14   16.35    1.38
   0   3 -14   17.01    1.14
   0   3  14   21.16    1.85
   1  -3  14    2.26    0.55
  -1  -3 -14    2.40    0.57
  -1  -3 -14    1.36    0.40
  -1  -3 -14    1.58    0.67
  -1  -3 -14    1.79    0.41
  -1   3 -14    2.38    0.39
  -1   3 -14    1.76    0.40
  -1   3 -14    1.99    0.36
   1   3  14    1.90    0.51
   1   3  14    1.46    0.39
  -2  -3 -14    0.47    0.56
   2  -3  14    0.26    0.47
  -2  -3 -14    0.37    0.33
  -2  -3 -14   -0.36    0.88
   2   3  14    0.33    0.36
   2   3  14    0.04    0.41
  -2   3 -14    0.58    0.25
  -2   3 -14    0.23    0.31
   3  -3  14   27.73    2.00
  -3  -3 -14   25.86    2.08
  -3  -3 -14   32.14    1.82
   3  -3  14   25.52    1.80
  -3   3 -14   26.25    1.72
   3   3  14   26.67    1.84
  -3   3 -14   28.11    1.82
  -4  -3 -14    0.69    0.39
   4  -3  14    0.61    0.51
  -4  -3 -14    0.62    0.58
   4  -3  14    0.34    0.54
  -4  -3 -14    1.34    0.74
   4   3  14    0.06    0.44
  -4   3 -14    0.48    0.33
   4   3  14    0.08    0.47
  -4   3 -14   -0.09    0.47
   4   3  14    0.32    0.39
   5  -3  14    0.75    0.58
  -5  -3 -14   -0.82    0.82
   5  -3  14    0.50    0.62
  -5  -3 -14    0.97    0.73
  -5   3 -14    0.55    0.41
   5   3  14   -0.01    0.39
   5   3  14    0.14    0.49
  -5   3 -14    0.81    0.55
   5   3  14    0.44    0.56
  -6  -3 -14   -0.26    0.39
   6  -3  14   -0.48    0.73
   6  -3  14    0.45    0.61
   6   3  14    0.66    0.49
  -6   3 -14    1.40    0.65
   6   3  14   -0.11    0.60
   7  -3  14    1.01    0.78
   7  -3  14   -0.20    0.97
  -7  -3 -14    0.56    0.46
  -7   3 -14    0.62    0.79
   7   3  14    0.71    0.56
   7   3  14    1.31    0.76
   8  -3  14   -0.44    0.90
   8   3  14   -0.60    0.87
   8   3  14   -0.97    0.70
   9   3  14    7.45    1.50
  11  -4 -14    2.69    1.22
  11  -4 -14    0.57    2.10
  11   4 -14    4.29    1.02
  11   4 -14    2.80    1.40
  10  -4 -14    4.87    1.84
  10  -4 -14    4.41    1.14
  10   4 -14    5.41    0.98
  10   4 -14    4.87    1.27
 -10   4  14    6.42    1.56
   9  -4 -14    4.76    1.04
   9  -4 -14    3.70    1.65
   9   4 -14    4.91    1.06
   9   4 -14    5.05    1.14
   9   4 -14    4.93    0.70
  -9   4  14    4.63    1.29
   8  -4 -14    5.36    0.90
   8  -4 -14    7.96    1.28
   8  -4 -14    3.67    1.47
   8   4 -14    6.18    0.80
  -8   4  14    4.85    1.20
  -8   4  14    4.44    1.41
  -8   4  14    5.65    0.84
  -8   4  14    6.96    1.48
   8   4 -14    4.55    0.98
   8   4 -14    5.32    0.81
   7  -4 -14    0.04    0.41
   7  -4 -14   -0.84    0.62
  -7   4  14    1.87    0.48
   7   4 -14    0.73    0.47
  -7   4  14    1.02    0.85
   7   4 -14    0.22    0.40
  -7   4  14   -0.29    1.13
  -7   4  14    1.41    1.11
   6  -4 -14    0.37    0.54
   6  -4 -14    1.55    0.60
   6   4 -14    1.09    0.46
  -6   4  14    2.07    0.88
  -6   4  14    0.15    0.47
   6   4 -14    1.39    0.41
  -6   4  14    0.18    0.73
  -6   4  14    1.07    1.09
  -6   4  14    1.41    0.78
   5  -4 -14    0.22    0.40
   5  -4 -14   -0.37    0.48
  -5   4  14   -0.41    0.48
  -5   4  14    1.09    0.79
  -5   4  14    1.45    1.13
   5   4 -14    0.31    0.31
  -5   4  14   -0.26    0.64
  -5   4  14    0.00    0.66
   5   4 -14    0.08    0.33
   4  -4 -14    2.73    0.68
   4  -4 -14    2.90    0.55
  -4   4  14    2.93    0.69
  -4   4  14    3.24    0.82
  -4   4  14    2.14    1.01
  -4   4  14    2.36    0.68
   4   4 -14    4.35    0.55
   4   4 -14    3.79    0.60
   3  -4 -14   -0.32    0.31
   3  -4 -14    0.38    0.44
  -3   4  14    0.79    0.63
  -3   4  14   -0.12    0.51
  -3   4  14   -1.67    0.87
  -3   4  14    0.75    0.53
   3   4 -14   -0.19    0.28
  -3   4  14    0.11    0.53
   2  -4 -14    0.89    0.37
   2  -4 -14   -0.32    0.60
   2  -4 -14    1.15    0.44
  -2   4  14    0.97    0.60
   2   4 -14    1.57    0.35
  -2   4  14    0.10    0.61
  -2   4  14    1.94    0.98
  -2   4  14    1.13    0.56
   1  -4 -14    7.18    1.17
   1  -4 -14    8.22    0.80
   1  -4 -14    8.88    0.88
  -1   4  14    7.12    1.22
  -1   4  14    6.98    1.19
  -1   4  14    9.33    1.06
   1   4 -14    6.04    0.72
  -1   4  14    7.07    1.03
   0  -4 -14    7.40    0.78
   0  -4 -14    6.96    0.84
   0  -4  14    7.50    0.98
   0   4  14    5.79    1.28
   0   4  14    6.50    1.02
   0   4 -14    7.77    0.75
   0   4  14    7.79    0.98
   0   4  14    7.67    0.94
   0   4 -14    7.27    0.60
  -1  -4 -14    5.21    0.65
   1  -4  14    5.52    0.91
  -1  -4 -14    4.23    0.93
   1   4  14    4.09    0.70
  -1   4 -14    4.23    0.48
   1   4  14    6.74    1.29
   1   4  14    3.67    0.61
   1   4  14    3.89    0.70
  -2  -4 -14    0.42    0.81
  -2  -4 -14    1.01    0.44
   2  -4  14    0.29    0.77
   2   4  14   -0.98    0.50
   2   4  14    0.44    0.44
   2   4  14    0.66    0.55
   3  -4  14    3.66    0.82
  -3  -4 -14    2.39    0.83
  -3  -4 -14    3.83    0.96
  -3  -4 -14    2.83    0.51
   3   4  14    2.37    0.64
  -3   4 -14    3.17    0.43
   3   4  14    2.61    0.62
   3   4  14    2.96    0.67
  -4  -4 -14    3.05    0.95
  -4  -4 -14    1.86    0.45
   4  -4  14    1.76    0.81
  -4   4 -14    0.75    0.40
   4   4  14    1.92    0.61
  -4   4 -14    1.36    0.51
   4   4  14    0.79    0.53
   5  -4  14    0.55    0.87
  -5  -4 -14    0.89    0.42
  -5  -4 -14   -1.35    0.90
  -5   4 -14   -0.60    0.57
  -5   4 -14    0.44    0.50
   5   4  14   -0.24    0.60
   5   4  14    0.49    0.54
   6  -4  14    0.16    0.97
  -6  -4 -14   -0.45    0.42
  -6   4 -14    0.44    0.62
   6   4  14   -0.05    0.54
   6   4  14    0.58    0.69
   7  -4  14    0.44    1.19
  -7  -4 -14    1.89    0.70
   7   4  14    3.58    0.73
   7   4  14    1.40    0.91
   9  -5 -14    5.47    1.23
   9  -5 -14    3.89    1.02
  -9   5  14    5.17    1.83
   9   5 -14    6.31    1.02
  -9   5  14    7.23    1.70
   8  -5 -14    2.45    0.88
   8  -5 -14    0.87    0.67
  -8   5  14    0.01    1.39
   8   5 -14    2.03    0.69
  -8   5  14    0.57    1.31
   7  -5 -14   -0.09    0.47
   7  -5 -14    1.06    0.78
  -7   5  14   -2.27    1.07
  -7   5  14    1.56    0.76
  -7   5  14    2.02    1.27
   7   5 -14   -0.12    0.58
  -7   5  14   -3.00    1.55
   7   5 -14    0.05    0.64
   6  -5 -14    3.41    0.91
   6  -5 -14    6.42    0.88
   6   5 -14    6.12    0.82
   6   5 -14    6.37    0.86
  -6   5  14    4.76    1.54
  -6   5  14    7.41    1.36
  -6   5  14    8.87    1.31
  -6   5  14    4.73    1.20
   5  -5 -14   10.50    1.25
   5  -5 -14    9.20    1.05
  -5   5  14   12.95    1.83
   5   5 -14    8.70    1.11
  -5   5  14   12.59    1.45
  -5   5  14   12.58    1.84
  -5   5  14   12.65    1.67
   4  -5 -14   -0.33    0.41
   4  -5 -14   -0.06    0.53
  -4   5  14    1.83    0.88
  -4   5  14    0.49    0.73
  -4   5  14   -0.18    0.80
   4   5 -14    0.52    0.49
  -4   5  14    1.65    1.24
   3  -5 -14   -0.48    0.47
   3  -5 -14    0.61    0.45
  -3   5  14    0.01    0.82
  -3   5  14   -0.49    1.24
  -3   5  14    1.43    0.74
   3   5 -14   -0.18    0.44
  -3   5  14    0.43    0.75
   2  -5 -14    6.24    0.84
   2  -5 -14    5.99    1.04
   2   5 -14    9.01    0.92
  -2   5  14    7.00    1.41
  -2   5  14    8.21    1.06
  -2   5  14    5.85    1.01
   1  -5 -14    1.63    0.48
  -1   5  14    2.14    0.66
  -1   5  14    2.62    1.25
  -1   5  14    1.86    0.73
   0  -5 -14    1.83    0.48
   0   5  14    2.57    0.76
   0   5  14    2.52    1.30
   0   5  14    2.59    0.65
   0   5 -14    2.13    0.56
  -1  -5 -14    1.76    0.47
  -1  -5 -14    0.65    0.98
   1   5  14    1.95    0.59
   1   5  14    0.32    1.40
  -1   5 -14    0.28    0.53
   1   5  14    1.44    0.67
  -2  -5 -14    2.98    1.00
   2  -5  14    0.74    0.94
  -2  -5 -14    1.50    0.47
   2   5  14    1.32    1.61
   2   5  14    1.83    0.63
  -2   5 -14    1.81    0.39
   2   5  14    1.59    0.67
   3  -5  14    0.49    1.02
  -3  -5 -14    1.49    0.45
   3   5  14   -0.25    0.59
   3   5  14   -1.72    1.54
   3   5  14    0.73    0.65
  -3   5 -14    0.51    0.43
  -4  -5 -14    2.69    1.29
   4  -5  14    3.66    1.24
  -4  -5 -14    6.08    0.77
   4   5  14    3.78    0.76
   4   5  14    4.75    0.87
  -4   5 -14    5.22    0.89
   5  -5  14    0.91    1.16
  -5  -5 -14    0.42    0.57
  -5   5 -14    1.60    0.66
   5   5  14    0.57    0.81
   5   5  14    1.77    0.73
   6  -5  14    2.06    1.44
  -6  -5 -14    0.53    0.54
   6   5  14    1.26    0.79
   6   5  14   -0.52    0.94
   7  -6 -14    2.27    0.99
   6  -6 -14    1.44    0.67
   6  -6 -14    1.77    0.91
  -6   6  14    0.90    1.33
  -6   6  14    2.13    1.41
   5  -6 -14    3.23    0.87
   5  -6 -14    2.33    0.76
  -5   6  14    3.47    1.27
   5   6 -14    2.61    0.94
  -5   6  14    3.24    1.27
  -4   6  14    2.15    1.06
  -4   6  14    5.02    2.02
   4   6 -14    2.34    1.14
   3  -6 -14    5.43    0.98
  -3   6  14    7.58    1.98
  -3   6  14    6.11    1.18
  -3   6  14    8.10    1.25
  -2   6  14   -0.13    0.87
  -2   6  14   -0.01    1.74
  -1   6  14    3.30    0.99
  -1   6  14    1.62    1.77
  -1   6  14    1.60    0.82
   0  -6 -14   13.32    1.56
   0   6  14   16.34    1.69
   0   6  14   20.55    1.76
  -1  -6 -14    0.11    0.59
   1   6  14   -0.35    0.73
   1   6  14   -0.60    1.85
   1   6  14    0.54    0.80
  -2  -6 -14    3.01    0.69
   2   6  14    5.20    0.94
   2   6  14    1.60    0.81
  -3  -6 -14    0.32    0.56
   3   6  14    0.61    0.85
   3   6  14   -0.20    0.79
  13   0 -15    2.53    2.12
  13   0 -15   -1.22    0.97
 -13   0  15    0.19    1.26
  12   0 -15   -1.11    0.76
  12   0 -15   -0.53    1.34
 -12   0  15    0.44    0.99
  11   0 -15    1.64    1.30
 -11   0  15    0.20    0.82
  11   0 -15   -0.82    0.76
 -11   0  15    0.35    0.64
  10   0 -15   -0.24    0.99
  10   0 -15    0.19    0.53
 -10   0  15   -0.61    0.61
 -10   0  15    0.18    0.73
   9   0 -15    0.02    0.47
  -9   0  15    1.15    0.74
  -9   0  15    0.19    0.40
   9   0 -15    0.63    0.85
  -9   0  15   -0.55    0.59
   8   0 -15    1.01    0.84
   8   0 -15    0.15    0.39
  -8   0  15    0.23    0.48
  -8   0  15    0.71    0.41
   7   0 -15   -0.35    0.66
  -7   0  15   -0.25    0.35
  -7   0  15   -0.22    0.43
   7   0 -15    0.14    0.46
   7   0 -15    0.29    0.38
   6   0 -15   -0.75    0.55
   6   0 -15    0.16    0.35
  -6   0  15   -0.13    0.59
  -6   0  15    0.15    0.37
   6   0 -15   -0.36    0.33
  -6   0  15    0.23    0.36
   5   0 -15    0.65    0.43
  -5   0  15    0.33    0.57
   5   0 -15    0.26    0.50
  -5   0  15    0.00    0.30
  -5   0  15    0.01    0.45
   5   0 -15    0.68    0.39
  -5   0  15    0.60    0.30
  -4   0  15    0.09    0.45
  -4   0  15   -0.74    0.44
  -4   0  15    0.07    0.28
   4   0 -15    0.03    0.32
  -4   0  15   -0.19    0.27
   4   0 -15   -0.24    0.29
  -3   0  15   -0.13    0.24
  -3   0  15    0.16    0.12
   3   0 -15   -0.57    0.31
  -3   0  15    0.23    0.39
  -3   0  15    0.10    0.50
   3   0 -15    0.05    0.27
   3   0 -15    0.16    0.31
  -3   0  15   -0.03    0.25
  -2   0  15   -0.38    0.46
  -2   0  15    0.10    0.35
  -2   0  15   -0.27    0.20
  -2   0  15    0.03    0.13
   2   0 -15    0.01    0.26
  -2   0  15    0.21    0.27
   2   0 -15    0.04    0.22
   1   0 -15   -0.19    0.33
  -1   0  15    0.44    0.48
  -1   0  15    0.65    0.28
  -1   0  15    0.16    0.33
   1   0 -15   -0.07    0.24
   1   0 -15    0.03    0.35
  -1   0  15    0.21    0.21
   1   0 -15    0.00    0.22
   0   0  15   -0.55    0.47
   0   0  15    0.01    0.30
   0   0  15    0.09    0.20
   0   0 -15    0.15    0.26
   0   0 -15    0.71    0.41
   0   0 -15   -0.18    0.25
   0   0  15    0.18    0.26
   0   0 -15    0.02    0.23
  -1   0 -15   -0.22    0.19
   1   0  15   -0.04    0.25
   1   0  15   -0.13    0.21
  -1   0 -15    0.20    0.26
   1   0  15   -0.02    0.28
  -1   0 -15   -0.24    0.33
  -1   0 -15    0.24    0.27
  -2   0 -15   -0.55    0.37
   2   0  15   -0.15    0.25
  -2   0 -15    0.18    0.22
   2   0  15   -0.08    0.20
  -2   0 -15    0.01    0.29
   2   0  15   -0.45    0.28
  -2   0 -15    0.00    0.27
   3   0  15    0.11    0.31
   3   0  15   -0.16    0.31
  -3   0 -15   -0.37    0.32
   3   0  15    0.03    0.24
  -3   0 -15    0.15    0.44
  -3   0 -15    0.08    0.23
  -4   0 -15   -0.64    0.42
   4   0  15    0.23    0.33
   4   0  15   -0.19    0.24
   4   0  15    0.10    0.37
  -4   0 -15   -0.34    0.36
   5   0  15   -0.49    0.38
   5   0  15   -0.40    0.37
  -5   0 -15   -0.18    0.42
  -5   0 -15   -0.84    0.48
   5   0  15   -0.04    0.32
   6   0  15   -0.65    0.51
  -6   0 -15   -0.02    0.65
  -6   0 -15   -0.87    0.53
   7   0  15   -0.27    0.41
   7   0  15    0.61    0.50
  -7   0 -15   -1.00    0.75
   7   0  15   -0.77    0.51
   7   0  15   -0.24    0.69
   8   0  15   -0.38    0.49
  -8   0 -15   -0.55    1.04
   8   0  15   -0.05    0.73
   8   0  15   -0.67    0.86
   8   0  15    0.39    0.63
   9   0  15   -0.54    0.76
   9   0  15   -0.01    1.07
   9   0  15   -0.31    0.66
 -13  -1  15    3.09    1.31
  13  -1 -15    2.57    2.14
  13   1 -15    2.31    1.10
 -13   1  15    2.01    1.53
  12  -1 -15    1.75    1.49
  12  -1 -15    0.60    0.83
 -12  -1  15    0.01    0.94
  12   1 -15    0.17    1.36
  12   1 -15    1.27    0.92
 -12   1  15    0.38    1.20
  11  -1 -15   -0.25    1.26
  11  -1 -15    0.41    0.67
  11   1 -15   -0.27    1.10
 -11   1  15    0.71    0.96
  11   1 -15    1.84    0.79
 -10  -1  15    0.68    0.62
  10  -1 -15    0.94    1.04
 -10  -1  15    0.50    0.44
  10  -1 -15    0.36    0.57
  10   1 -15    1.15    0.63
  10   1 -15    1.16    0.89
 -10   1  15   -0.57    0.78
   9  -1 -15    2.23    0.96
  -9  -1  15    2.48    0.61
  -9  -1  15    1.85    0.80
  -9  -1  15    3.06    0.46
   9  -1 -15    1.67    0.66
  -9   1  15    1.95    0.62
   9   1 -15    2.35    0.66
   9   1 -15    3.81    0.90
  -9   1  15    1.85    0.82
  -8  -1  15    0.13    0.63
  -8  -1  15    0.38    0.30
  -8  -1  15    0.23    0.42
   8  -1 -15    0.46    0.84
   8  -1 -15    0.34    0.42
  -8   1  15   -0.65    0.58
   8   1 -15    1.10    0.43
   8   1 -15    0.38    0.69
  -8   1  15    0.48    0.72
  -7  -1  15   21.42    1.41
  -7  -1  15   20.26    1.31
   7  -1 -15   19.61    1.86
   7  -1 -15   20.26    1.54
  -7   1  15   16.88    1.71
  -7   1  15   20.02    1.62
   7   1 -15   20.11    1.58
  -7   1  15   20.13    1.51
   7   1 -15   21.07    1.51
  -6  -1  15   20.37    1.57
  -6  -1  15   19.81    1.36
  -6  -1  15   21.03    1.30
   6  -1 -15   20.78    1.80
   6  -1 -15   20.12    1.51
   6  -1 -15   22.10    1.98
  -6  -1  15   20.37    1.68
  -6   1  15   20.27    1.53
  -6   1  15   20.03    1.47
   6   1 -15   20.39    1.54
   6   1 -15   17.26    1.66
  -6   1  15   21.08    1.79
   6   1 -15   20.80    1.47
   5  -1 -15   -0.03    0.34
  -5  -1  15    0.29    0.26
  -5  -1  15    0.49    0.50
  -5  -1  15   -0.33    0.48
  -5  -1  15   -0.06    0.21
   5  -1 -15    0.08    0.55
   5  -1 -15   -0.04    0.41
  -5   1  15    0.21    0.57
  -5   1  15   -0.39    0.39
   5   1 -15    0.07    0.35
  -5   1  15    1.01    0.65
   5   1 -15   -0.05    0.52
   5   1 -15    0.21    0.30
  -5   1  15   -0.04    0.34
  -4  -1  15    1.00    0.24
  -4  -1  15    1.06    0.25
  -4  -1  15    0.22    0.50
  -4  -1  15    0.66    0.43
   4  -1 -15    1.33    0.40
   4  -1 -15    0.88    0.46
   4   1 -15    1.40    0.63
  -4   1  15    0.92    0.19
  -4   1  15    1.11    0.54
   4   1 -15    0.53    0.33
  -4   1  15    0.55    0.35
  -4   1  15    1.33    0.63
  -4   1  15    0.48    0.41
   3  -1 -15    6.72    0.64
  -3  -1  15    6.53    0.52
  -3  -1  15    5.55    0.89
  -3  -1  15    6.45    0.55
   3  -1 -15    7.10    0.84
  -3  -1  15    7.12    0.57
   3  -1 -15    6.59    0.73
  -3  -1  15    7.48    0.76
   3   1 -15    6.76    0.72
   3   1 -15    6.22    0.69
  -3   1  15    8.18    0.93
  -3   1  15    6.62    0.72
  -3   1  15    5.91    0.99
  -2  -1  15    0.07    0.16
   2  -1 -15    0.25    0.24
  -2  -1  15    0.30    0.44
   2  -1 -15   -0.07    0.28
  -2  -1  15    0.12    0.22
  -2  -1  15    0.25    0.21
   2  -1 -15    0.04    0.35
  -2  -1  15    0.33    0.33
   2   1 -15    0.00    0.28
  -2   1  15   -0.23    0.48
   2   1 -15   -0.25    0.20
   2   1 -15   -0.11    0.25
  -2   1  15    0.10    0.29
  -2   1  15   -0.23    0.36
  -1  -1  15    4.21    0.37
   1  -1 -15    3.61    0.46
   1  -1 -15    4.63    0.74
  -1  -1  15    4.02    0.45
  -1  -1  15    4.27    0.79
   1  -1 -15    5.19    0.71
  -1  -1  15    4.26    0.55
  -1  -1  15    3.92    0.44
   1  -1 -15    3.92    0.56
   1   1 -15    4.48    0.54
  -1   1  15    3.91    0.77
  -1   1  15    4.16    0.54
   1   1 -15    3.58    0.55
  -1   1  15    3.83    0.69
   0  -1  15    0.95    0.24
   0  -1  15    0.86    0.52
   0  -1 -15    0.97    0.43
   0  -1 -15    1.21    0.29
   0  -1  15    1.19    0.22
   0  -1 -15    0.90    0.33
   0  -1  15    1.31    0.29
   0  -1  15    1.03    0.32
   0  -1 -15    0.40    0.41
   0   1  15    0.72    0.31
   0   1  15    0.94    0.42
   0   1 -15    1.00    0.40
   0   1  15    0.42    0.58
   0   1 -15    1.17    0.35
   0   1  15    1.08    0.33
   0   1 -15    1.00    0.33
   1  -1  15    0.53    0.24
  -1  -1 -15    0.43    0.39
   1  -1  15    0.34    0.23
   1  -1  15    0.38    0.20
  -1  -1 -15    0.41    0.31
  -1  -1 -15    0.80    0.29
  -1  -1 -15    0.19    0.43
   1  -1  15    0.06    0.25
  -1   1 -15    0.71    0.29
  -1   1 -15    0.21    0.30
   1   1  15    0.26    0.31
  -1   1 -15    0.37    0.37
   1   1  15    0.18    0.29
   1   1  15    0.34    0.25
   2  -1  15   10.57    0.78
  -2  -1 -15   11.41    1.05
   2  -1  15    8.80    0.79
  -2  -1 -15   11.78    1.04
  -2  -1 -15    9.45    0.86
   2  -1  15    9.53    0.72
  -2  -1 -15   10.15    0.74
   2  -1  15    9.14    0.83
  -2   1 -15    9.04    0.91
   2   1  15    8.60    0.87
  -2   1 -15   10.41    0.84
   2   1  15    9.87    0.91
   2   1  15   10.27    0.81
  -2   1 -15    9.35    0.85
  -3  -1 -15   -0.13    0.45
   3  -1  15   -0.10    0.25
  -3  -1 -15    0.23    0.25
   3  -1  15    0.42    0.24
   3  -1  15   -0.19    0.24
   3  -1  15    0.21    0.34
  -3   1 -15    0.48    0.34
  -3   1 -15   -0.40    0.38
   3   1  15   -0.51    0.33
   3   1  15    0.41    0.30
   3   1  15   -0.01    0.34
  -4  -1 -15    0.52    0.51
   4  -1  15    0.26    0.32
   4  -1  15    0.25    0.32
  -4  -1 -15    0.07    0.32
   4  -1  15    0.96    0.31
   4  -1  15    0.80    0.42
   4   1  15    0.40    0.35
  -4   1 -15    0.06    0.45
   4   1  15    0.29    0.37
   4   1  15    0.50    0.40
  -4   1 -15    0.72    0.42
   5  -1  15    0.31    0.33
  -5  -1 -15    0.29    0.34
   5  -1  15    0.40    0.39
  -5  -1 -15    0.05    0.57
   5  -1  15    0.27    0.46
   5  -1  15    0.64    0.38
   5   1  15    0.27    0.46
  -5   1 -15    0.73    0.45
   5   1  15    0.53    0.38
   6  -1  15    4.01    0.67
   6  -1  15    3.58    0.57
   6  -1  15    3.24    0.75
   6  -1  15    3.47    0.56
  -6  -1 -15    3.11    0.81
  -6   1 -15    4.66    0.80
  -6   1 -15    4.12    0.65
   6   1  15    3.07    0.84
   6   1  15    3.73    0.69
   6   1  15    3.47    0.63
   7  -1  15    0.51    0.51
   7  -1  15    1.08    0.78
   7   1  15   -0.49    0.60
  -7   1 -15    0.72    0.82
   7   1  15   -0.16    0.64
   7   1  15   -0.15    0.53
   8  -1  15    5.90    0.91
   8  -1  15    7.13    1.21
   8  -1  15    5.20    0.82
   8  -1  15    5.43    0.86
  -8   1 -15    6.39    1.18
   8   1  15    5.60    0.84
   9  -1  15    3.05    1.13
   9  -1  15    4.27    0.98
   9  -1  15    3.41    0.84
   9  -1  15    4.90    1.42
   9   1  15    2.52    1.24
   9   1  15    4.24    0.89
  -9   1 -15    3.14    1.68
  12  -2 -15    2.29    1.76
  12  -2 -15    1.16    1.15
 -12  -2  15    2.29    0.95
 -12   2  15    2.61    1.36
  12   2 -15   -0.94    1.40
  12   2 -15    0.73    0.92
  11  -2 -15    2.28    1.37
 -11  -2  15    2.63    0.65
  11  -2 -15    0.94    0.82
  11   2 -15    2.93    0.82
 -11   2  15    0.87    1.18
  11   2 -15    3.30    1.28
  10  -2 -15    4.16    0.91
 -10  -2  15    4.65    0.62
  10  -2 -15    6.32    1.45
  10   2 -15    3.94    0.85
  10   2 -15    6.33    1.22
 -10   2  15    6.26    1.15
   9  -2 -15    6.68    1.31
  -9  -2  15    4.83    0.83
   9  -2 -15    5.74    0.96
   9   2 -15    2.91    0.92
  -9   2  15    4.76    0.84
  -9   2  15    4.65    1.06
   8  -2 -15    3.98    1.21
  -8  -2  15    4.82    0.80
   8  -2 -15    4.50    0.87
  -8   2  15    4.69    0.95
   8   2 -15    4.65    0.91
   8   2 -15    5.11    0.84
  -8   2  15    4.42    0.83
  -8   2  15    5.10    1.12
   7  -2 -15   -0.03    0.47
   7  -2 -15    0.47    0.78
  -7   2  15    0.20    0.87
  -7   2  15   -0.69    0.77
   7   2 -15    0.19    0.64
   7   2 -15    0.75    0.41
  -6  -2  15    6.45    0.99
   6  -2 -15    5.49    1.08
   6  -2 -15    6.26    0.85
  -6  -2  15    7.45    0.85
   6   2 -15    7.18    0.77
  -6   2  15    6.78    1.11
  -6   2  15    5.93    0.48
   6   2 -15    6.61    0.84
  -6   2  15    6.61    1.00
  -6   2  15    5.73    0.99
   6   2 -15    8.61    1.10
  -5  -2  15    6.36    0.86
   5  -2 -15    5.21    0.78
  -5  -2  15    4.84    0.79
   5  -2 -15    4.02    0.64
  -5   2  15    5.31    0.51
  -5   2  15    6.22    0.82
   5   2 -15    5.34    0.68
   5   2 -15    5.51    0.84
  -5   2  15    8.03    1.26
  -5   2  15    6.00    0.89
  -5   2  15    5.08    0.94
   4  -2 -15   -0.11    0.33
   4  -2 -15   -0.10    0.29
  -4  -2  15    0.16    0.41
  -4  -2  15   -0.21    0.41
  -4   2  15    0.30    0.28
  -4   2  15   -0.05    0.67
   4   2 -15    0.22    0.30
  -4   2  15    0.29    0.58
  -4   2  15   -0.14    0.41
   4   2 -15    0.40    0.33
  -4   2  15    0.25    0.37
   3  -2 -15    0.19    0.34
   3  -2 -15    0.55    0.31
  -3  -2  15    0.85    0.30
   3  -2 -15    0.47    0.42
  -3  -2  15    0.24    0.48
   3   2 -15    0.22    0.33
  -3   2  15    0.26    0.38
   3   2 -15    0.38    0.32
  -3   2  15    0.15    0.59
  -3   2  15    0.20    0.47
  -3   2  15    0.79    0.42
   2  -2 -15   17.68    1.27
   2  -2 -15   18.21    1.36
  -2  -2  15   16.78    1.21
  -2  -2  15   17.63    1.14
   2  -2 -15   16.54    1.20
  -2   2  15   17.75    1.30
   2   2 -15   16.58    1.18
  -2   2  15   16.24    1.28
   2   2 -15   16.64    1.19
  -2   2  15   17.02    1.39
  -1  -2  15   23.00    1.51
   1  -2 -15   18.15    1.50
   1  -2 -15   22.52    1.63
   1  -2 -15   20.30    1.45
  -1  -2  15   21.97    1.40
  -1   2  15   22.76    1.53
   1   2 -15   22.73    1.45
  -1   2  15   25.13    1.59
   1   2 -15   22.58    1.45
  -1   2  15   22.74    1.63
   0  -2 -15    0.39    0.35
   0  -2 -15    0.71    0.48
   0  -2  15    0.32    0.32
   0  -2  15    0.81    0.40
   0  -2 -15    0.46    0.40
   0  -2  15    0.88    0.45
   0  -2 -15    0.59    0.29
   0   2 -15    0.18    0.25
   0   2 -15    0.74    0.30
   0   2  15    0.33    0.65
   0   2 -15    0.31    0.35
   0   2  15    0.45    0.32
   0   2  15    0.84    0.42
   0   2  15    1.00    0.36
   1  -2  15    6.26    0.71
  -1  -2 -15    6.67    0.75
   1  -2  15    6.71    0.63
  -1  -2 -15    5.75    0.64
  -1  -2 -15    7.46    1.02
  -1  -2 -15    7.54    0.97
  -1   2 -15    5.67    0.62
  -1   2 -15    6.30    0.67
   1   2  15    7.26    0.83
   1   2  15    6.50    0.72
   1   2  15    7.74    0.78
  -1   2 -15    6.46    0.71
  -2  -2 -15    2.16    0.79
   2  -2  15    1.30    0.36
   2  -2  15    1.56    0.37
  -2  -2 -15    0.74    0.33
  -2  -2 -15    1.54    0.58
   2   2  15    1.04    0.34
  -2   2 -15    0.90    0.43
   2   2  15    1.03    0.47
   2   2  15    0.81    0.42
   3  -2  15    3.02    0.49
   3  -2  15    2.60    0.51
  -3  -2 -15    2.33    0.41
  -3  -2 -15    3.20    0.71
   3   2  15    1.64    0.40
  -3   2 -15    2.58    0.42
  -3   2 -15    2.18    0.52
   3   2  15    2.35    0.52
   4  -2  15   10.90    1.08
   4  -2  15   11.12    1.09
   4  -2  15   12.40    0.84
  -4  -2 -15    8.46    1.28
  -4  -2 -15   11.10    0.87
  -4  -2 -15    9.44    1.26
   4   2  15   11.30    0.97
  -4   2 -15   11.88    0.96
   4   2  15   10.65    1.07
   4   2  15   12.31    1.12
  -4   2 -15   11.52    1.08
  -5  -2 -15   -0.11    0.35
  -5  -2 -15    0.33    0.58
   5  -2  15   -0.24    0.34
  -5  -2 -15    0.62    0.67
   5  -2  15    1.07    0.55
   5  -2  15    0.01    0.31
   5  -2  15   -0.29    0.36
  -5   2 -15   -0.16    0.51
   5   2  15    0.55    0.38
   5   2  15   -0.01    0.51
   5   2  15    0.36    0.50
  -5   2 -15    0.61    0.44
   6  -2  15    6.84    0.96
  -6  -2 -15    6.85    0.76
   6  -2  15    7.26    0.82
  -6  -2 -15    4.46    0.99
   6  -2  15    7.34    0.82
   6  -2  15    8.12    1.02
  -6   2 -15    6.19    0.98
   6   2  15    5.66    0.88
   6   2  15    6.18    0.89
  -6   2 -15    8.04    1.59
   7  -2  15   -0.01    0.52
   7  -2  15    1.38    0.95
   7  -2  15    0.08    0.57
  -7   2 -15   -0.71    0.78
   7   2  15    1.66    0.76
   7   2  15    0.22    0.58
   8  -2  15    0.73    0.74
   8  -2  15    2.44    1.09
   8  -2  15    0.64    0.66
   8   2  15   -0.24    0.83
   8   2  15   -0.66    0.65
  -8   2 -15    0.93    1.04
   9  -2  15   -0.91    0.77
   9  -2  15   -0.63    0.86
   9   2  15    0.39    0.83
   9   2  15   -0.69    1.16
  11  -3 -15   -1.24    2.09
  11  -3 -15    1.10    1.65
 -11   3  15    2.55    1.38
  11   3 -15    2.14    0.91
  11   3 -15    1.09    1.27
  10  -3 -15    0.01    1.44
  10  -3 -15    0.74    0.88
  10   3 -15    1.17    0.74
 -10   3  15    1.66    1.23
  10   3 -15    0.94    1.04
   9  -3 -15    3.66    1.58
   9  -3 -15    6.64    1.08
   9   3 -15    8.93    1.48
  -9   3  15    5.56    1.23
  -8  -3  15    0.49    0.54
   8  -3 -15   -0.53    0.57
   8  -3 -15   -1.40    0.94
  -8   3  15   -1.23    1.02
  -8   3  15    0.30    1.02
   8   3 -15    0.64    0.76
   8   3 -15   -0.13    0.49
  -8   3  15    0.18    0.88
   7  -3 -15    0.19    1.59
  -7  -3  15    0.87    0.93
   7  -3 -15    2.02    0.67
  -7   3  15    1.06    0.78
  -7   3  15    1.72    0.34
   7   3 -15    2.04    0.75
   7   3 -15    1.56    0.52
  -7   3  15   -0.05    0.97
  -7   3  15    2.94    1.04
   7   3 -15    2.18    0.32
  -7   3  15    0.49    0.72
   6  -3 -15   -0.35    0.47
   6  -3 -15   -0.31    0.61
   6  -3 -15    0.14    0.40
  -6   3  15    0.04    0.29
  -6   3  15    0.98    0.57
   6   3 -15   -0.41    0.42
   6   3 -15    0.59    0.36
   6   3 -15    0.50    0.61
   6   3 -15   -0.04    0.18
  -6   3  15    0.00    0.61
  -6   3  15   -0.17    0.95
  -6   3  15   -0.59    0.93
   5  -3 -15    6.32    0.79
   5  -3 -15    6.21    1.01
  -5   3  15    6.36    0.72
   5   3 -15    6.21    0.71
   5   3 -15    6.14    0.79
  -5   3  15    7.06    1.13
   5   3 -15    6.89    0.52
  -5   3  15    6.52    1.11
   4  -3 -15    0.12    0.40
   4  -3 -15   -0.33    0.31
   4   3 -15   -0.21    0.18
   4   3 -15   -0.23    0.34
  -4   3  15   -0.14    0.47
   4   3 -15    0.00    0.28
  -4   3  15   -0.32    0.58
  -4   3  15   -0.68    0.79
  -4   3  15    0.93    0.42
   3  -3 -15    2.26    0.73
   3  -3 -15    5.08    0.75
   3  -3 -15    4.04    0.60
  -3   3  15    5.67    0.86
   3   3 -15    2.99    0.42
   3   3 -15    4.35    0.60
  -3   3  15    2.16    0.86
   3   3 -15    4.50    0.55
  -3   3  15    6.03    1.00
   2  -3 -15    4.22    0.76
   2  -3 -15    4.82    0.74
   2  -3 -15    4.89    0.62
  -2   3  15    3.98    0.70
  -2   3  15    3.80    0.62
   2   3 -15    4.14    0.54
  -2   3  15    4.12    1.01
   2   3 -15    4.36    0.55
  -1  -3  15    5.48    0.75
   1  -3 -15    6.80    1.00
   1  -3 -15    4.92    0.64
   1  -3 -15    4.97    0.75
  -1   3  15    5.16    1.14
  -1   3  15    6.85    0.85
   1   3 -15    5.49    0.59
   1   3 -15    5.54    0.56
  -1   3  15    6.15    0.92
   0  -3 -15    2.17    0.47
   0  -3 -15    1.97    0.70
   0  -3 -15    1.26    0.61
   0  -3 -15    1.63    0.40
   0  -3  15    1.70    0.50
   0   3 -15    2.24    0.37
   0   3  15    1.87    0.57
   0   3  15    2.76    0.95
   0   3 -15    2.67    0.43
   0   3  15    2.39    0.52
  -1  -3 -15    2.71    0.49
  -1  -3 -15    3.32    0.55
  -1  -3 -15    3.24    0.80
   1  -3  15    3.04    0.60
  -1   3 -15    3.25    0.56
  -1   3 -15    3.16    0.47
   1   3  15    2.04    0.50
   1   3  15    2.83    0.60
   1   3  15    0.89    0.86
   2  -3  15    6.48    0.75
   2  -3  15    6.66    0.97
  -2  -3 -15    5.09    0.93
  -2  -3 -15    5.47    0.65
   2   3  15    5.78    0.81
   2   3  15    6.44    0.97
  -2   3 -15    6.52    0.73
  -2   3 -15    6.03    0.64
  -3  -3 -15   38.29    2.83
  -3  -3 -15   43.16    2.74
  -3  -3 -15   33.94    2.47
   3  -3  15   40.97    2.90
   3   3  15   41.82    2.66
   3   3  15   41.20    2.66
  -3   3 -15   41.74    2.55
   3   3  15   41.66    2.57
  -3   3 -15   40.17    2.45
  -4  -3 -15    1.08    0.40
   4  -3  15    1.84    0.65
   4  -3  15    1.53    0.61
  -4  -3 -15    1.14    0.85
  -4  -3 -15    0.73    0.68
   4   3  15    1.98    0.47
  -4   3 -15    1.38    0.51
  -4   3 -15    1.35    0.45
   4   3  15    1.99    0.59
   4   3  15    1.02    0.50
  -5  -3 -15    0.78    0.77
   5  -3  15    0.65    0.58
  -5  -3 -15    0.30    0.40
   5  -3  15    0.30    0.64
   5   3  15   -0.26    0.52
  -5   3 -15    1.10    0.58
   5   3  15    0.39    0.50
  -5   3 -15   -0.13    0.46
   6  -3  15    3.50    0.84
  -6  -3 -15    1.99    0.54
   6  -3  15    1.73    0.86
   6   3  15    1.93    0.72
   6   3  15    1.91    0.65
  -6   3 -15    3.38    0.65
  -6   3 -15    2.59    0.79
   7  -3  15    6.32    1.11
   7  -3  15    4.18    1.25
  -7  -3 -15    4.83    0.80
   7   3  15    4.92    0.84
   7   3  15    4.79    1.00
   8  -3  15    0.41    0.92
   8   3  15   -1.28    0.93
   8   3  15    0.66    0.73
  10  -4 -15   -1.77    1.69
  10  -4 -15    0.46    0.94
  10   4 -15   -0.60    0.79
 -10   4  15   -0.82    1.38
  10   4 -15    0.08    1.15
 -10   4  15   -1.41    1.74
   9  -4 -15   -0.57    0.86
   9  -4 -15    1.85    1.61
  -9   4  15   -0.31    1.12
   9   4 -15   -0.88    0.99
  -9   4  15    1.67    1.48
   8  -4 -15    4.79    1.52
   8  -4 -15    5.75    1.02
   8  -4 -15    3.36    0.77
  -8   4  15    3.09    1.11
   8   4 -15    3.74    0.54
  -8   4  15    1.93    1.65
  -8   4  15    3.17    1.30
  -8   4  15    4.97    0.80
   8   4 -15    2.28    0.68
   7  -4 -15    0.57    0.47
   7  -4 -15   -0.27    0.64
   7   4 -15   -0.10    0.35
  -7   4  15   -1.88    1.17
   7   4 -15    0.85    0.51
  -7   4  15   -0.01    1.01
  -7   4  15   -0.47    0.90
  -7   4  15    1.20    0.50
   6  -4 -15    7.38    1.07
   6  -4 -15    6.55    0.87
  -6   4  15    5.99    0.97
  -6   4  15    6.53    1.47
   6   4 -15    7.69    0.88
   6   4 -15    8.82    0.75
  -6   4  15    6.37    1.20
  -6   4  15    7.26    1.15
   5  -4 -15   -0.69    0.65
   5  -4 -15    0.04    0.57
   5  -4 -15   -0.14    0.36
   5   4 -15    0.11    0.32
  -5   4  15   -0.35    0.51
  -5   4  15    1.35    1.11
   5   4 -15   -0.14    0.47
  -5   4  15    0.06    0.82
  -5   4  15   -0.78    0.69
   5   4 -15    0.92    0.40
   4  -4 -15    7.89    0.87
   4  -4 -15    7.47    1.27
   4  -4 -15    7.93    1.02
   4   4 -15   10.39    0.78
   4   4 -15    7.65    0.87
  -4   4  15    8.06    1.36
  -4   4  15    9.04    1.23
  -4   4  15    9.22    1.11
  -4   4  15    7.05    1.34
   3  -4 -15    0.33    0.57
   3  -4 -15    0.58    0.43
  -3   4  15    0.29    0.57
  -3   4  15   -0.84    0.91
   3   4 -15    1.45    0.35
  -3   4  15    0.84    0.57
  -3   4  15    0.78    0.68
   2  -4 -15    0.77    0.40
  -2   4  15    0.40    0.54
  -2   4  15    0.99    1.00
   2   4 -15   -0.03    0.29
  -2   4  15   -0.23    0.50
  -2   4  15    0.40    0.58
   1  -4 -15    4.38    0.64
  -1   4  15    7.27    1.11
  -1   4  15    4.54    0.76
  -1   4  15    5.04    1.12
  -1   4  15    6.29    1.01
   1   4 -15    4.37    0.61
   0  -4 -15    4.72    0.76
   0  -4 -15    5.41    0.71
   0  -4  15    5.62    0.93
   0   4  15    6.08    0.93
   0   4 -15    5.52    0.57
   0   4  15    5.42    0.81
   0   4  15    6.00    0.85
   0   4  15    4.07    1.18
   1  -4  15    1.50    0.70
  -1  -4 -15    0.49    0.40
  -1  -4 -15    0.74    0.71
  -1  -4 -15    1.00    0.75
  -1   4 -15    0.10    0.28
   1   4  15    0.01    0.50
   1   4  15   -0.59    0.53
   1   4  15    0.36    0.45
   1   4  15    2.49    1.20
  -2  -4 -15    1.06    0.85
   2  -4  15    0.07    0.64
  -2  -4 -15    1.24    0.82
  -2  -4 -15   -0.70    0.33
   2   4  15   -0.03    0.44
   2   4  15    0.18    0.51
  -2   4 -15   -0.31    0.32
   2   4  15    1.92    0.70
  -3  -4 -15   -0.57    0.87
   3  -4  15    0.83    0.76
  -3  -4 -15    0.40    0.39
  -3   4 -15    1.18    0.40
   3   4  15   -1.01    0.56
   3   4  15    1.17    0.50
  -4  -4 -15    8.51    1.30
  -4  -4 -15    7.76    0.87
   4  -4  15    9.38    1.29
  -4   4 -15    9.02    0.89
  -4   4 -15    7.60    1.00
   4   4  15    7.78    1.09
   4   4  15   11.20    1.23
  -5  -4 -15    1.15    0.47
   5  -4  15    2.13    0.93
  -5   4 -15   -0.39    0.59
   5   4  15    0.66    0.61
   5   4  15   -0.20    0.72
  -5   4 -15    0.87    0.54
   6  -4  15    0.83    1.00
  -6  -4 -15   -0.79    0.45
   6   4  15   -0.09    0.73
   6   4  15    0.60    0.68
   7  -4  15   -0.99    1.17
  -7  -4 -15    0.38    0.59
   7   4  15   -0.37    0.68
   7   4  15    0.39    0.92
   9  -5 -15    0.09    1.11
   9  -5 -15    0.44    0.66
   9   5 -15    1.15    0.86
  -9   5  15    2.77    2.15
   8  -5 -15    2.12    0.75
   8  -5 -15    1.84    0.93
   8   5 -15    2.79    0.78
  -8   5  15    0.35    1.28
  -8   5  15    3.90    1.46
   7  -5 -15    1.04    0.84
   7  -5 -15   -0.33    0.76
   7   5 -15   -0.26    0.61
  -7   5  15   -1.04    1.23
   7   5 -15   -0.04    0.61
  -7   5  15    0.78    0.76
  -7   5  15    1.02    1.22
   6  -5 -15    8.82    1.04
   6  -5 -15    7.47    1.06
  -6   5  15    7.13    1.48
  -6   5  15   10.69    1.43
  -6   5  15   12.10    1.89
  -6   5  15    5.74    1.82
   6   5 -15    9.79    1.08
   6   5 -15    8.23    1.01
   5  -5 -15   -0.11    0.67
   5  -5 -15    0.53    0.48
  -5   5  15    2.09    0.82
  -5   5  15    1.60    1.65
   5   5 -15   -0.47    0.50
  -5   5  15   -0.07    1.04
  -5   5  15   -0.40    0.84
   4  -5 -15   -0.37    0.59
   4  -5 -15    0.94    0.52
  -4   5  15    1.46    0.90
  -4   5  15    2.34    1.45
  -4   5  15    1.35    0.87
  -4   5  15   -0.03    0.85
   4   5 -15    1.03    0.50
   3  -5 -15   -0.51    0.55
   3  -5 -15   -0.14    0.42
   3  -5 -15    0.03    0.84
  -3   5  15    0.80    0.81
   3   5 -15    0.73    0.47
  -3   5  15   -0.05    0.72
  -3   5  15    1.45    1.41
  -2   5  15    1.17    0.69
   2   5 -15    0.97    0.46
  -2   5  15    0.82    1.28
  -2   5  15    1.33    0.80
   1  -5 -15    0.44    0.40
   1  -5 -15   -0.24    0.89
   1   5 -15   -0.27    0.46
  -1   5  15   -0.03    0.69
  -1   5  15    3.09    1.32
  -1   5  15    0.45    0.72
   0  -5 -15    1.31    0.98
   0  -5 -15    2.45    0.62
   0   5  15    0.81    0.70
   0   5  15    2.01    0.67
   0   5 -15    1.50    0.52
   0   5  15    0.75    1.38
  -1  -5 -15    1.10    0.52
  -1  -5 -15    0.08    1.01
   1   5  15    1.25    0.64
   1   5  15    2.89    1.62
  -1   5 -15    0.03    0.54
   1   5  15    1.02    0.75
   2  -5  15    0.23    0.96
  -2  -5 -15    0.38    1.10
  -2  -5 -15    0.28    0.47
  -2   5 -15    0.51    0.40
   2   5  15   -0.26    0.63
   2   5  15    0.35    0.69
   2   5  15    1.86    1.75
  -3  -5 -15    4.82    0.77
  -3  -5 -15    5.26    1.27
   3  -5  15    3.62    1.27
  -3   5 -15    4.70    0.60
   3   5  15    4.10    0.88
   3   5  15    0.79    1.97
   3   5  15    3.15    0.77
   4  -5  15    5.65    1.42
   4   5  15    3.40    0.84
  -4   5 -15    4.98    0.68
   4   5  15    4.61    0.90
   5  -5  15    4.59    1.35
  -5  -5 -15    1.33    0.62
   5   5  15    2.31    0.94
   5   5  15    2.03    0.79
   6  -6 -15    1.35    0.94
   6  -6 -15    0.02    0.63
  -6   6  15   -0.74    1.29
  -6   6  15    0.69    2.13
   5  -6 -15    3.37    0.94
   5  -6 -15    2.27    0.81
  -5   6  15    3.18    1.26
  -5   6  15    3.10    1.38
   4  -6 -15   -1.61    0.74
   4  -6 -15    0.57    0.62
  -4   6  15    2.10    1.13
  -4   6  15    2.71    2.18
  -4   6  15    0.53    1.06
   3  -6 -15    1.93    0.74
   3  -6 -15    1.78    0.68
  -3   6  15    2.33    1.08
  -3   6  15    1.50    1.01
  -3   6  15    0.82    1.99
   2  -6 -15   -0.53    0.49
  -2   6  15    1.43    0.97
  -2   6  15    1.22    0.97
  -2   6  15   -0.34    1.95
   1  -6 -15    0.48    0.60
  -1   6  15    0.73    0.90
  -1   6  15   -1.93    1.98
  -1   6  15    0.17    0.88
   0  -6 -15   -0.06    0.59
   0   6  15    2.18    1.95
   0   6  15   -0.97    0.86
   0   6  15    1.93    0.86
  -1  -6 -15    0.61    0.62
   1   6  15    1.57    3.73
   1   6  15    1.81    0.88
   1   6  15    0.71    0.88
  -2  -6 -15    0.25    0.56
   2   6  15   -0.96    0.82
   2   6  15   -0.69    0.87
  -3  -6 -15    0.17    0.52
  12   0 -16   -0.39    0.96
  12   0 -16    0.73    1.48
 -12   0  16   -1.14    1.00
  11   0 -16    1.00    1.18
 -11   0  16    0.26    0.86
  11   0 -16    1.45    0.84
 -11   0  16   -0.33    0.65
 -10   0  16   -0.38    0.70
  10   0 -16    0.26    0.65
  10   0 -16    1.89    1.07
 -10   0  16    0.49    0.57
   9   0 -16   14.50    1.74
  -9   0  16   13.07    1.35
   9   0 -16   12.05    1.28
  -9   0  16   11.48    1.61
  -8   0  16    4.35    0.70
   8   0 -16    4.09    1.03
  -7   0  16    0.05    0.40
   7   0 -16   -0.05    0.40
  -7   0  16   -0.09    0.40
   7   0 -16    0.55    0.51
   7   0 -16    0.15    0.67
  -6   0  16    4.89    0.87
  -6   0  16    4.65    0.71
   6   0 -16    6.59    0.81
   6   0 -16    3.66    0.78
  -5   0  16   13.18    1.30
  -5   0  16   14.02    1.02
   5   0 -16   10.88    1.40
  -5   0  16   10.18    1.32
   5   0 -16   13.71    1.11
  -5   0  16   13.39    1.05
  -4   0  16    0.42    0.51
  -4   0  16    0.38    0.32
  -4   0  16    0.19    0.31
   4   0 -16    0.08    0.35
  -4   0  16    0.33    0.52
   4   0 -16   -0.08    0.32
   3   0 -16    1.30    0.31
  -3   0  16    0.78    0.17
  -3   0  16    0.78    0.50
  -3   0  16    0.79    0.31
  -3   0  16    0.91    0.56
   3   0 -16    0.80    0.40
  -3   0  16    1.36    0.33
   3   0 -16    0.84    0.36
   2   0 -16   10.41    0.96
  -2   0  16   10.75    0.87
   2   0 -16   10.20    0.89
  -2   0  16   10.86    1.00
   2   0 -16   10.89    0.79
  -2   0  16   11.37    1.16
  -2   0  16   10.25    0.71
  -2   0  16   11.36    0.80
  -1   0  16    8.75    1.02
  -1   0  16    6.23    0.52
   1   0 -16    7.03    0.73
   1   0 -16    6.30    0.55
  -1   0  16    6.47    0.77
  -1   0  16    5.19    0.64
   1   0 -16    5.73    0.67
  -1   0  16    7.15    0.59
   0   0 -16    8.17    0.78
   0   0  16    8.62    0.69
   0   0  16    6.81    1.08
   0   0  16    9.78    0.78
   0   0  16    8.47    0.84
   0   0 -16    9.61    0.67
   0   0 -16    8.02    0.95
  -1   0 -16    0.37    0.31
  -1   0 -16   -0.16    0.22
   1   0  16    0.13    0.34
   1   0  16    0.16    0.23
  -1   0 -16    0.14    0.40
  -1   0 -16   -0.51    0.36
   1   0  16   -0.06    0.26
  -2   0 -16    4.51    0.80
  -2   0 -16    5.62    0.71
   2   0  16    5.22    0.56
  -2   0 -16    6.29    0.73
   2   0  16    6.21    0.71
  -3   0 -16    6.13    0.85
   3   0  16    8.62    0.72
   3   0  16    8.58    0.83
  -3   0 -16    6.78    0.62
   3   0  16    8.53    0.80
  -4   0 -16   -0.45    0.50
   4   0  16    0.14    0.28
  -4   0 -16    0.05    0.44
   4   0  16    0.35    0.39
   4   0  16    0.40    0.40
   5   0  16    0.23    0.33
  -5   0 -16    0.49    0.58
  -5   0 -16   -0.78    0.49
   5   0  16   -0.11    0.46
   5   0  16    0.10    0.42
   6   0  16    3.75    0.58
   6   0  16    3.08    0.63
   6   0  16    3.17    0.73
  -6   0 -16    3.70    0.87
   6   0  16    4.74    0.70
  -7   0 -16    1.78    0.92
   7   0  16    1.70    0.56
   7   0  16    2.26    0.66
   7   0  16    3.20    0.66
   7   0  16    1.99    0.93
   8   0  16   58.80    3.91
   8   0  16   61.25    4.19
  -8   0 -16   67.50    5.45
   8   0  16   61.88    3.89
   9   0  16    1.17    1.14
   9   0  16    2.44    0.90
   9   0  16    1.35    0.80
 -12  -1  16   -0.62    0.96
  12  -1 -16    0.07    0.87
  12  -1 -16    1.85    1.68
 -12   1  16    1.08    1.14
  12   1 -16   -0.82    0.98
  12   1 -16    3.06    1.49
 -11  -1  16   -0.01    0.87
  11  -1 -16    0.56    1.36
  11  -1 -16   -1.41    0.73
  11   1 -16   -0.69    0.69
 -11   1  16    0.74    0.95
  11   1 -16    1.18    1.17
 -10  -1  16    2.37    0.50
 -10  -1  16    1.58    0.66
  10  -1 -16    2.38    1.21
  10  -1 -16    1.31    0.65
  10   1 -16    3.15    0.75
  10   1 -16    0.83    1.04
 -10   1  16    1.98    0.72
 -10   1  16    2.45    0.89
   9  -1 -16   -0.42    0.87
  -9  -1  16    0.70    0.48
  -9  -1  16    0.86    0.39
   9  -1 -16    0.69    0.60
  -9  -1  16    0.15    0.81
  -9   1  16   -0.80    0.73
   9   1 -16    1.51    0.92
  -9   1  16    3.02    0.96
   9   1 -16    0.28    0.52
  -9   1  16   -0.11    0.63
   8  -1 -16    0.85    0.54
   8  -1 -16    1.94    0.93
  -8  -1  16    1.22    0.35
  -8  -1  16    0.63    0.67
  -8  -1  16    1.24    0.45
   8   1 -16    1.12    0.49
   8   1 -16   -0.35    0.67
  -8   1  16    2.63    0.83
  -7  -1  16    3.81    0.53
  -7  -1  16    6.13    0.71
   7  -1 -16    2.58    0.88
   7  -1 -16    5.87    1.10
   7   1 -16    4.83    0.71
  -7   1  16    3.49    0.95
   7   1 -16    4.30    0.65
  -7   1  16    5.59    0.86
  -7   1  16    5.48    0.87
   7   1 -16    4.77    0.92
  -7   1  16    4.42    0.99
  -6  -1  16   21.56    1.78
  -6  -1  16   20.84    1.42
  -6  -1  16   21.46    1.38
   6  -1 -16   20.77    1.61
   6  -1 -16   21.61    1.95
  -6   1  16   22.80    1.58
  -6   1  16   22.30    1.91
   6   1 -16   23.77    1.65
   6   1 -16   21.68    1.81
  -6   1  16   22.13    1.62
   6   1 -16   19.77    1.52
  -5  -1  16   -0.06    0.51
  -5  -1  16   -0.29    0.54
  -5  -1  16   -0.14    0.21
   5  -1 -16    0.57    0.37
  -5  -1  16    0.52    0.25
   5  -1 -16   -0.56    0.43
   5   1 -16    0.92    0.57
  -5   1  16    0.61    0.62
  -5   1  16    0.70    0.41
   5   1 -16    0.05    0.29
   5   1 -16    0.03    0.40
  -5   1  16    0.08    0.38
   4  -1 -16    0.60    0.31
  -4  -1  16    0.08    0.22
  -4  -1  16   -0.16    0.20
   4  -1 -16   -0.05    0.31
   4  -1 -16   -0.69    0.39
  -4  -1  16    0.06    0.56
  -4  -1  16   -0.08    0.43
  -4   1  16   -0.58    0.35
   4   1 -16   -0.50    0.33
  -4   1  16    0.08    0.65
  -4   1  16   -0.38    0.50
  -4   1  16    0.26    0.38
   4   1 -16    0.31    0.31
  -3  -1  16    1.51    0.46
  -3  -1  16    1.20    0.61
   3  -1 -16    1.94    0.53
  -3  -1  16    1.66    0.31
   3  -1 -16    1.46    0.37
   3  -1 -16    1.26    0.38
  -3  -1  16    1.63    0.24
  -3  -1  16    1.07    0.27
  -3   1  16    1.53    0.44
  -3   1  16    2.48    0.63
   3   1 -16    2.01    0.34
   3   1 -16    1.61    0.39
  -3   1  16    1.73    0.42
  -3   1  16    1.90    0.66
   3   1 -16    1.86    0.56
  -2  -1  16   41.89    2.62
   2  -1 -16   47.84    2.86
  -2  -1  16   42.26    2.57
  -2  -1  16   44.82    2.62
  -2  -1  16   44.84    2.83
  -2  -1  16   42.59    2.72
   2  -1 -16   49.86    2.68
   2  -1 -16   44.04    2.75
  -2   1  16   44.44    2.75
  -2   1  16   40.89    2.93
   2   1 -16   39.72    2.69
  -2   1  16   46.63    2.84
   2   1 -16   45.42    2.57
  -2   1  16   43.89    2.70
   1  -1 -16    3.42    0.51
   1  -1 -16    4.52    0.73
  -1  -1  16    2.93    0.44
  -1  -1  16    3.76    0.68
  -1  -1  16    3.35    0.35
  -1  -1  16    3.00    0.55
  -1  -1  16    2.66    0.42
   1  -1 -16    2.88    0.44
  -1   1  16    1.97    0.70
  -1   1  16    4.32    0.72
  -1   1  16    3.95    0.60
   1   1 -16    3.33    0.52
  -1   1  16    2.91    0.51
   0  -1 -16    1.00    0.32
   0  -1  16    0.78    0.27
   0  -1  16    0.88    0.26
   0  -1 -16   -0.06    0.78
   0  -1  16    0.69    0.34
   0  -1  16    0.77    0.20
   0  -1 -16    0.79    0.31
   0  -1  16    1.02    0.60
   0  -1 -16   -0.30    0.37
   0   1 -16    0.70    0.34
   0   1  16    0.00    0.61
   0   1  16    0.42    0.35
   0   1  16    0.68    0.31
   0   1 -16    0.16    0.30
   0   1 -16    0.13    0.41
   0   1  16    0.66    0.39
   1  -1  16    4.84    0.51
  -1  -1 -16    4.43    0.72
  -1  -1 -16    4.75    0.64
   1  -1  16    4.19    0.41
  -1  -1 -16    4.74    0.52
   1  -1  16    3.30    0.57
  -1  -1 -16    4.40    0.81
   1  -1  16    3.67    0.51
  -1   1 -16    5.05    0.63
  -1   1 -16    4.21    0.69
   1   1  16    3.70    0.54
  -1   1 -16    3.76    0.52
   1   1  16    4.49    0.69
   1   1  16    4.04    0.63
   2  -1  16    0.38    0.24
  -2  -1 -16    0.37    0.32
  -2  -1 -16    0.77    0.27
   2  -1  16    0.16    0.26
   2  -1  16    0.36    0.34
   2  -1  16    0.13    0.27
  -2  -1 -16    0.44    0.49
   2   1  16    0.31    0.37
  -2   1 -16    0.93    0.38
  -2   1 -16    0.33    0.32
   2   1  16    0.56    0.29
  -2   1 -16    1.07    0.43
   2   1  16    0.29    0.37
   3  -1  16    0.05    0.29
  -3  -1 -16   -0.19    0.28
   3  -1  16    0.34    0.26
   3  -1  16   -0.06    0.33
  -3  -1 -16   -0.53    0.48
   3  -1  16    0.33    0.30
   3   1  16    0.42    0.30
  -3   1 -16   -0.11    0.36
   3   1  16   -0.11    0.36
   3   1  16    0.09    0.38
  -3   1 -16   -0.08    0.42
  -4  -1 -16    0.29    0.31
   4  -1  16    0.15    0.32
   4  -1  16   -0.44    0.30
   4  -1  16   -0.19    0.43
  -4  -1 -16   -0.45    0.57
   4  -1  16    0.21    0.31
  -4   1 -16   -0.14    0.42
   4   1  16    0.14    0.41
   4   1  16    0.45    0.36
  -4   1 -16    0.13    0.48
   5  -1  16    0.91    0.43
  -5  -1 -16   -0.40    0.57
   5  -1  16    0.56    0.40
  -5  -1 -16   -0.87    0.65
   5  -1  16    0.77    0.53
   5  -1  16   -0.06    0.36
   5   1  16    0.35    0.37
   5   1  16    0.67    0.51
   5   1  16    0.18    0.49
  -5   1 -16    0.53    0.50
  -5   1 -16    0.99    0.59
   6  -1  16    0.76    0.50
   6  -1  16    0.28    0.63
   6  -1  16    0.10    0.43
   6  -1  16    0.18    0.43
  -6  -1 -16   -0.35    0.71
  -6   1 -16    0.51    0.59
  -6   1 -16    0.27    0.74
   6   1  16   -0.49    0.43
   6   1  16    0.26    0.62
   6   1  16    0.09    0.59
   7  -1  16    0.23    0.52
   7  -1  16    2.23    0.85
  -7  -1 -16    0.73    0.92
   7   1  16    0.08    0.78
  -7   1 -16    0.57    0.93
   7   1  16    0.20    0.54
   8  -1  16    4.36    0.84
   8  -1  16    7.18    1.22
   8  -1  16    4.38    1.50
   8  -1  16    4.08    0.85
   8   1  16    5.93    1.14
   8   1  16    6.91    0.98
  -8   1 -16    5.74    1.31
   9  -1  16    5.47    1.57
   9  -1  16    3.92    0.96
   9  -1  16    4.12    0.97
   9   1  16    4.78    1.38
   9   1  16    3.23    1.03
  12  -2 -16    0.28    1.02
  12  -2 -16   -0.15    1.99
  12   2 -16    1.75    1.46
 -12   2  16   -0.29    1.46
  12   2 -16   -0.66    0.88
  11  -2 -16    6.06    1.71
  11  -2 -16    3.98    0.96
  11   2 -16    3.94    0.91
 -11   2  16    3.72    1.36
  11   2 -16    4.70    1.32
  10  -2 -16    3.89    0.89
  10  -2 -16    4.15    1.43
 -10   2  16    5.45    1.18
  10   2 -16    3.37    0.78
  10   2 -16    1.18    1.02
   9  -2 -16   -0.23    0.69
  -9  -2  16    0.45    0.73
   9  -2 -16    0.79    1.20
  -9   2  16   -0.27    0.80
   9   2 -16   -0.12    0.83
   9   2 -16    1.19    0.53
  -9   2  16    1.02    0.80
   8  -2 -16   -0.01    0.55
  -8  -2  16   -0.49    0.64
   8  -2 -16    0.61    0.95
  -8   2  16   -0.05    0.97
  -8   2  16   -0.27    0.69
   8   2 -16   -0.02    0.47
   8   2 -16    0.38    0.74
  -8   2  16    2.19    0.73
  -7  -2  16    2.96    0.77
   7  -2 -16    3.22    0.69
   7  -2 -16    4.57    0.94
   7  -2 -16    2.51    1.09
  -7   2  16    3.95    0.89
   7   2 -16    5.41    1.18
   7   2 -16    3.65    0.58
  -7   2  16    3.55    0.73
  -7   2  16    3.31    1.10
  -7   2  16    4.10    1.12
  -6  -2  16   14.88    1.35
  -6  -2  16   13.91    1.26
   6  -2 -16   11.35    1.71
  -6   2  16   15.92    1.41
   6   2 -16   13.97    1.19
  -6   2  16   15.05    1.71
   6   2 -16   16.25    1.29
   6   2 -16   13.50    1.45
  -6   2  16   15.83    1.70
  -6   2  16   14.68    0.90
   5  -2 -16    1.80    0.50
   5  -2 -16    0.92    0.43
  -5  -2  16    1.37    0.52
  -5  -2  16    0.80    0.47
  -5   2  16    0.15    0.47
   5   2 -16    1.04    0.45
  -5   2  16    1.48    0.54
  -5   2  16    1.49    0.79
   5   2 -16    0.95    0.36
  -5   2  16    1.08    0.69
  -5   2  16    1.17    0.26
  -4  -2  16    4.68    0.79
   4  -2 -16    4.05    0.63
   4  -2 -16    3.07    0.53
  -4  -2  16    4.75    0.70
  -4   2  16    3.83    0.65
   4   2 -16    3.98    0.67
  -4   2  16    4.84    0.87
  -4   2  16    3.17    0.55
  -4   2  16    2.99    0.86
   4   2 -16    4.23    0.57
  -4   2  16    3.14    0.60
  -3  -2  16   -0.41    0.47
   3  -2 -16    0.62    0.39
   3  -2 -16    0.57    0.36
   3   2 -16    0.47    0.37
   3   2 -16    0.68    0.35
  -3   2  16    0.23    0.64
  -3   2  16    0.80    0.41
  -3   2  16    0.31    0.42
  -3   2  16    1.10    0.57
  -2  -2  16    0.29    0.48
  -2  -2  16    0.21    0.33
   2  -2 -16    0.03    0.24
   2  -2 -16   -0.63    0.32
  -2   2  16   -0.25    0.65
  -2   2  16    0.28    0.36
  -2   2  16    0.52    0.46
   2   2 -16   -0.17    0.30
   2   2 -16   -0.26    0.32
  -2   2  16    0.77    0.36
  -1  -2  16   61.43    3.79
   1  -2 -16   58.75    3.76
   1  -2 -16   63.38    3.84
  -1   2  16   66.85    3.83
   1   2 -16   65.15    3.75
  -1   2  16   63.96    3.87
  -1   2  16   59.92    3.90
   1   2 -16   68.09    3.78
   0  -2 -16    0.22    0.28
   0  -2 -16    0.24    0.34
   0  -2 -16    0.76    0.55
   0  -2  16   -0.86    0.48
   0  -2  16   -0.20    0.25
   0  -2  16   -0.07    0.32
   0   2  16    0.11    0.38
   0   2  16    0.36    0.76
   0   2 -16    0.05    0.26
   0   2  16   -0.32    0.41
   0   2 -16   -0.22    0.35
   0   2  16   -0.37    0.30
   0   2 -16   -0.03    0.30
  -1  -2 -16    6.80    1.03
  -1  -2 -16    5.27    0.61
   1  -2  16    5.70    0.68
   1  -2  16    5.13    0.61
   1  -2  16    5.45    0.78
  -1  -2 -16    5.24    0.75
   1   2  16    4.48    0.67
  -1   2 -16    5.61    0.67
  -1   2 -16    4.50    0.75
  -1   2 -16    6.45    0.64
   1   2  16    5.72    0.73
   1   2  16    4.54    0.80
   2  -2  16    1.16    0.38
  -2  -2 -16    1.31    0.69
  -2  -2 -16    1.58    0.39
   2  -2  16    1.56    0.41
   2   2  16    1.44    0.50
  -2   2 -16    0.94    0.39
  -2   2 -16    1.09    0.44
   2   2  16    1.79    0.42
  -3  -2 -16   -0.46    0.61
  -3  -2 -16    0.12    0.29
   3  -2  16    0.24    0.36
  -3  -2 -16   -0.43    0.51
   3  -2  16   -0.05    0.37
   3   2  16    0.27    0.42
  -3   2 -16    0.05    0.36
   3   2  16    0.12    0.36
  -3   2 -16    0.54    0.47
   4  -2  16    5.13    0.57
  -4  -2 -16    6.95    1.11
  -4  -2 -16    4.94    0.93
  -4  -2 -16    4.84    0.61
   4  -2  16    4.59    0.79
   4  -2  16    5.07    0.88
  -4   2 -16    4.58    0.76
   4   2  16    5.07    0.74
  -4   2 -16    4.27    0.72
   4   2  16    5.00    0.75
   5  -2  16    2.53    0.42
  -5  -2 -16    1.44    0.84
  -5  -2 -16    1.67    0.42
   5  -2  16    0.76    0.53
   5  -2  16    2.55    0.63
  -5  -2 -16    1.99    0.71
   5  -2  16    1.09    0.40
  -5   2 -16    1.13    0.51
  -5   2 -16    0.07    0.61
   5   2  16    1.28    0.60
   5   2  16    1.53    0.51
   5   2  16    1.76    0.61
   6  -2  16   -0.42    0.51
  -6  -2 -16   -0.05    0.41
   6  -2  16    0.26    0.70
   6  -2  16   -0.10    0.42
   6  -2  16   -0.31    0.44
   6   2  16    0.24    0.48
  -6   2 -16    1.25    0.68
   6   2  16   -0.37    0.61
  -6   2 -16    1.18    0.73
   7  -2  16    1.21    0.62
   7  -2  16    1.11    0.99
   7  -2  16    0.10    0.65
   7   2  16    0.04    0.79
  -7   2 -16    0.23    0.90
   7   2  16    1.10    0.66
   8  -2  16    0.40    1.27
   8  -2  16   -0.38    0.76
   8  -2  16    0.12    0.82
   8   2  16    1.19    0.98
   8   2  16    0.13    0.82
  11  -3 -16    1.14    1.08
  11  -3 -16    3.13    1.93
  11   3 -16    7.31    1.61
 -11   3  16    3.22    1.61
  11   3 -16    2.83    0.91
  10  -3 -16   -0.03    0.92
  10  -3 -16    2.37    1.55
  10   3 -16    0.83    1.16
  10   3 -16    0.37    0.75
 -10   3  16    0.36    1.21
  -9  -3  16    1.43    0.68
   9  -3 -16    0.52    0.72
   9  -3 -16    1.40    1.31
   9   3 -16   -0.12    0.64
   9   3 -16    0.96    0.98
  -9   3  16    0.89    0.96
  -9   3  16   -1.22    1.29
  -8  -3  16    2.12    0.87
   8  -3 -16    2.18    0.78
   8  -3 -16    2.17    1.26
   8   3 -16    1.70    0.59
  -8   3  16    1.33    1.02
  -8   3  16    3.92    1.27
   8   3 -16    1.99    0.86
  -8   3  16    0.85    1.24
   7  -3 -16    5.68    0.84
  -7  -3  16    6.03    0.82
   7  -3 -16    5.32    0.84
   7  -3 -16    3.95    1.21
  -7   3  16    6.98    1.13
  -7   3  16    4.55    0.94
  -7   3  16    3.51    1.30
  -7   3  16    5.58    0.58
   7   3 -16    7.32    0.90
  -7   3  16    6.19    1.22
   6  -3 -16   -0.17    0.59
   6  -3 -16    0.20    0.44
  -6   3  16   -0.09    0.33
   6   3 -16   -0.47    0.60
   6   3 -16    0.04    0.51
  -6   3  16   -0.63    0.60
   6   3 -16    0.28    0.42
  -6   3  16    0.35    0.93
  -6   3  16    0.68    0.71
  -6   3  16   -0.94    1.06
   5  -3 -16    0.17    0.51
   5  -3 -16    1.83    0.70
   5  -3 -16    0.36    0.38
  -5   3  16   -0.31    0.36
   5   3 -16   -0.66    0.33
  -5   3  16   -1.36    0.89
  -5   3  16    0.23    0.57
  -5   3  16    0.38    0.59
   4  -3 -16    3.29    0.92
   4  -3 -16    3.40    0.61
   4   3 -16    3.36    0.55
  -4   3  16    4.77    0.77
   4   3 -16    3.37    0.51
  -4   3  16    4.65    0.71
  -4   3  16    3.74    0.79
  -4   3  16    2.17    0.67
  -4   3  16    1.92    0.97
   3  -3 -16    0.87    0.45
   3  -3 -16    0.19    0.32
   3   3 -16    0.17    0.35
  -3   3  16    0.13    0.60
   3   3 -16    0.54    0.38
  -3   3  16   -0.13    0.85
   2  -3 -16    0.73    0.41
   2  -3 -16    0.33    0.38
  -2   3  16   -0.41    0.84
   2   3 -16   -0.32    0.31
  -2   3  16    0.32    0.57
  -2   3  16    0.02    0.44
   2   3 -16   -0.18    0.29
  -1  -3  16   10.05    1.07
   1  -3 -16    9.54    0.88
   1  -3 -16    9.42    0.96
  -1   3  16    8.90    1.10
   1   3 -16   10.18    0.83
  -1   3  16   10.55    1.41
   1   3 -16   10.26    0.82
  -1   3  16    9.75    1.14
   0  -3  16    5.99    0.90
   0  -3 -16    5.55    0.66
   0   3 -16    4.55    0.61
   0   3 -16    5.73    0.64
   0   3  16    5.51    0.93
   0   3  16    6.91    1.19
   1  -3  16    3.91    0.68
  -1  -3 -16    4.30    0.81
  -1  -3 -16    3.16    0.71
  -1  -3 -16    3.71    0.59
  -1  -3 -16    4.79    0.99
   1   3  16    3.13    1.05
  -1   3 -16    4.04    0.60
   1   3  16    3.45    0.81
  -1   3 -16    3.92    0.61
   1   3  16    5.54    0.81
   1   3  16    3.27    0.58
  -2  -3 -16    2.49    0.50
  -2  -3 -16    2.42    0.76
  -2  -3 -16    1.02    0.79
   2  -3  16    1.12    0.56
  -2   3 -16    2.02    0.50
   2   3  16    2.49    0.57
  -2   3 -16    1.61    0.38
   2   3  16    1.61    0.50
   2   3  16    1.29    0.54
  -3  -3 -16   13.83    1.01
   3  -3  16   12.40    1.34
  -3  -3 -16   12.04    1.44
  -3  -3 -16   12.00    1.58
  -3   3 -16   12.30    1.02
   3   3  16   13.19    1.27
   3   3  16   11.98    1.32
   3   3  16   11.67    1.12
  -3   3 -16   10.52    1.11
   4  -3  16    4.15    0.74
  -4  -3 -16    2.40    0.48
  -4  -3 -16    1.61    0.93
  -4  -3 -16    2.17    0.93
   4  -3  16    2.77    0.69
   4   3  16    3.54    0.59
  -4   3 -16    2.39    0.66
   4   3  16    4.05    0.72
   5  -3  16    0.47    0.65
  -5  -3 -16   -0.13    0.41
   5  -3  16    0.69    0.72
  -5   3 -16    0.22    0.50
   5   3  16    0.72    0.65
   5   3  16    0.34    0.48
  -5   3 -16   -0.83    0.60
  -6  -3 -16   -0.01    0.44
   6  -3  16   -0.91    0.98
   6  -3  16    0.34    0.75
   6   3  16    0.76    0.58
   6   3  16    0.35    0.68
  -6   3 -16    2.45    0.83
  -7  -3 -16    2.58    0.60
   7   3  16    3.65    1.02
   7   3  16    3.57    0.80
   8  -3  16    2.86    1.60
   8   3  16   -1.23    1.10
  10  -4 -16   -0.31    1.07
  10  -4 -16    0.55    0.67
  10  -4 -16   -0.45    1.89
  10   4 -16   -0.17    1.22
  10   4 -16    0.85    0.86
 -10   4  16    0.75    1.52
 -10   4  16    3.19    1.83
   9  -4 -16    2.06    0.96
   9  -4 -16    3.02    1.66
   9  -4 -16    0.52    0.64
   9   4 -16    1.89    0.72
  -9   4  16    1.01    1.50
  -9   4  16    1.87    1.27
   8  -4 -16   -0.05    0.47
   8  -4 -16   -0.22    0.88
   8   4 -16   -0.02    0.35
   8   4 -16    0.02    0.60
  -8   4  16   -0.15    1.24
  -8   4  16   -0.22    1.08
  -8   4  16    0.61    0.49
   7  -4 -16    9.18    1.11
   7  -4 -16   12.10    1.36
   7   4 -16    9.69    0.85
  -7   4  16   10.44    1.79
   7   4 -16   10.24    1.16
  -7   4  16   10.94    1.98
  -7   4  16   13.27    1.77
   6  -4 -16    5.48    0.89
   6  -4 -16    4.79    0.79
  -6   4  16    4.74    1.43
   6   4 -16    5.47    0.85
  -6   4  16    5.24    1.06
  -6   4  16    5.39    1.25
   6   4 -16    5.62    0.64
  -6   4  16    5.73    0.97
   5  -4 -16    0.97    0.72
   5  -4 -16   -0.24    0.36
   5  -4 -16    0.37    0.60
   5   4 -16   -0.12    0.51
  -5   4  16    0.22    0.67
  -5   4  16    0.06    0.55
  -5   4  16    0.16    0.89
   5   4 -16   -0.14    0.40
   5   4 -16    0.51    0.32
  -5   4  16    2.77    1.19
   4  -4 -16    0.17    0.77
   4  -4 -16    0.70    0.55
   4  -4 -16    0.08    0.37
   4   4 -16    0.15    0.35
  -4   4  16    0.21    0.63
  -4   4  16    1.85    1.19
   4   4 -16    0.37    0.31
   4   4 -16    1.49    0.45
  -4   4  16    0.12    0.62
  -4   4  16    1.93    0.80
   3  -4 -16    4.87    0.71
   3  -4 -16    5.84    1.03
   3  -4 -16    5.29    0.78
   3   4 -16    3.70    0.58
  -3   4  16    3.94    0.90
  -3   4  16    3.93    0.79
  -3   4  16    2.47    1.18
  -3   4  16    4.45    0.82
   2  -4 -16    8.48    1.47
   2  -4 -16    8.86    1.01
   2  -4 -16    8.84    0.89
  -2   4  16    7.07    1.17
   2   4 -16    8.82    0.81
  -2   4  16    8.27    1.13
   2   4 -16    7.72    0.79
  -2   4  16    7.19    1.21
   1  -4 -16    0.69    0.41
   1  -4 -16    0.73    0.51
   1  -4 -16   -0.80    0.75
  -1   4  16    0.04    0.64
  -1   4  16    1.50    1.09
   1   4 -16    0.22    0.34
  -1   4  16    0.10    0.53
  -1   4  16    0.74    0.66
   0  -4  16   -0.29    0.63
   0  -4 -16    0.36    0.41
   0  -4 -16    0.34    0.46
   0   4 -16    1.23    0.38
   0   4  16    1.32    0.55
   0   4  16    1.18    0.71
   0   4  16    0.86    0.59
   0   4 -16    0.58    0.35
   0   4  16    3.96    1.28
  -1  -4 -16    3.16    0.89
   1  -4  16    2.86    0.98
  -1  -4 -16    2.73    0.53
  -1  -4 -16    3.79    0.99
   1   4  16    3.28    1.35
   1   4  16    1.23    0.60
  -1   4 -16    1.99    0.63
   1   4  16    2.40    0.70
   2  -4  16    1.52    0.76
  -2  -4 -16    1.12    0.45
  -2  -4 -16    1.41    0.90
   2   4  16   -0.96    1.27
   2   4  16    2.02    0.57
   2   4  16    1.38    0.63
  -2   4 -16    1.31    0.42
  -3  -4 -16   28.88    2.40
  -3  -4 -16   26.93    1.88
   3  -4  16   29.49    2.31
  -3   4 -16   26.85    1.81
   3   4  16   26.38    1.99
   3   4  16   28.56    2.11
   4  -4  16    0.25    0.85
  -4  -4 -16    2.79    0.57
  -4   4 -16    2.18    0.64
   4   4  16    2.97    0.66
  -4   4 -16    2.15    0.55
   4   4  16    3.05    0.74
   5  -4  16    3.27    1.02
  -5  -4 -16    1.74    0.56
  -5   4 -16    2.12    0.67
   5   4  16    1.86    0.83
  -6  -4 -16    0.08    1.09
   6  -4  16    4.00    1.26
   6   4  16    2.60    0.78
   6   4  16    1.18    0.86
   8  -5 -16   -0.67    0.95
   8  -5 -16    0.32    0.57
  -8   5  16    1.36    1.44
   8   5 -16    0.97    0.77
  -8   5  16   -2.29    1.48
   7  -5 -16    1.22    0.94
   7  -5 -16   -0.08    0.58
   7   5 -16    1.08    0.69
  -7   5  16    1.83    1.24
  -7   5  16    1.41    1.35
   6  -5 -16    0.72    0.81
   6  -5 -16    1.88    0.80
  -6   5  16    1.70    1.07
  -6   5  16    2.23    1.27
  -6   5  16    4.10    2.55
  -6   5  16    1.06    0.88
   5  -5 -16    9.87    1.12
   5  -5 -16    8.65    1.37
  -5   5  16    9.52    1.64
  -5   5  16   11.59    2.06
  -5   5  16   12.08    1.97
  -5   5  16   12.18    1.78
   5   5 -16   12.49    1.12
   4  -5 -16    4.74    0.79
   4  -5 -16    5.34    0.85
  -4   5  16    6.79    1.10
   4   5 -16    4.54    0.70
  -4   5  16    4.42    1.11
  -4   5  16    4.36    1.03
  -4   5  16    6.42    1.78
   3  -5 -16    0.93    1.03
   3  -5 -16    0.18    0.39
   3  -5 -16   -0.34    0.58
  -3   5  16    0.30    0.83
  -3   5  16   -0.01    1.47
  -3   5  16    1.93    1.01
   3   5 -16    1.08    0.51
  -3   5  16    0.09    0.84
   2  -5 -16    0.16    1.05
   2  -5 -16    0.11    0.42
   2  -5 -16   -0.14    0.60
  -2   5  16   -0.14    0.70
   2   5 -16   -0.68    0.43
  -2   5  16   -1.60    1.45
  -2   5  16    1.69    0.83
   1  -5 -16    0.30    1.02
   1  -5 -16   -0.25    0.41
  -1   5  16   -1.67    1.44
   1   5 -16    0.25    0.49
  -1   5  16   -0.14    0.67
  -1   5  16    0.19    0.80
   0  -5 -16    5.99    1.35
   0  -5 -16    5.91    0.85
   0   5  16    5.45    0.98
   0   5  16    7.51    1.20
   0   5  16    3.76    1.70
  -1  -5 -16    0.07    0.46
  -1  -5 -16   -0.43    1.16
  -1   5 -16    0.87    0.47
   1   5  16    4.60    1.84
   1   5  16   -0.12    0.75
  -2  -5 -16   -0.11    1.32
   2  -5  16    1.56    1.11
  -2  -5 -16    0.71    0.48
   2   5  16   -0.29    1.93
  -2   5 -16    3.26    0.51
   2   5  16    2.04    0.77
   2   5  16    1.59    0.70
   3  -5  16    8.26    1.55
   3   5  16   10.18    1.43
   3   5  16   13.49    1.41
  -3   5 -16    9.26    1.11
  -4  -5 -16    6.00    0.96
   4  -5  16    7.63    1.54
   4   5  16    8.61    1.40
   4   5  16    8.19    1.39
   5  -5  16    6.81    1.73
  -5  -5 -16    7.21    1.00
   5   5  16   10.95    1.77
   5  -6 -16    1.23    0.98
   5  -6 -16    1.24    0.80
  -5   6  16    2.75    1.48
  -5   6  16    1.27    1.34
   4  -6 -16    1.60    0.71
   4  -6 -16    0.51    0.86
  -4   6  16    4.38    1.26
  -4   6  16    2.83    1.21
   3  -6 -16    0.86    0.71
   3  -6 -16   -0.11    0.79
  -3   6  16    4.93    3.35
  -3   6  16    1.97    1.12
  -3   6  16   -1.87    1.01
   2  -6 -16    0.66    0.58
  -2   6  16    1.38    1.14
  -2   6  16    2.25    1.06
  -2   6  16   -0.48    2.29
   1  -6 -16   -1.02    0.57
  -1   6  16    0.99    1.03
  -1   6  16   -0.34    0.93
  -1   6  16    0.03    2.83
   0  -6 -16    1.16    0.74
   0   6  16    0.01    0.89
   0   6  16    0.69    1.00
  -1  -6 -16    0.47    0.54
   1   6  16   -0.58    1.02
   1   6  16   -0.48    0.82
 -12   0  17    1.43    1.12
  12   0 -17   -1.50    1.52
  12   0 -17   -0.67    0.78
  11   0 -17    1.21    1.39
 -11   0  17    1.35    0.94
 -11   0  17    1.62    0.76
 -10   0  17    0.44    0.74
 -10   0  17   -0.15    0.60
  10   0 -17    0.21    0.64
  10   0 -17   -0.95    0.98
  -9   0  17    0.43    0.58
  -9   0  17    0.19    0.60
   9   0 -17    0.43    0.46
   9   0 -17    0.45    0.95
   8   0 -17    0.69    0.82
  -8   0  17    0.18    0.76
   8   0 -17    0.46    0.48
  -8   0  17    0.63    0.44
  -8   0  17    0.05    0.46
  -7   0  17    0.76    0.47
  -7   0  17    0.03    0.45
   7   0 -17   -0.76    0.52
   7   0 -17   -0.10    0.67
  -7   0  17    0.26    0.79
   7   0 -17   -0.28    0.40
   6   0 -17    0.00    0.35
  -6   0  17    0.18    0.63
  -6   0  17    0.15    0.37
   6   0 -17    0.21    0.70
  -6   0  17    0.22    0.39
  -5   0  17    0.00    0.55
   5   0 -17   -0.17    0.32
  -5   0  17    0.00    0.39
  -5   0  17    0.35    0.33
   5   0 -17   -0.19    0.46
   4   0 -17    0.06    0.42
  -4   0  17   -0.50    0.32
  -4   0  17   -0.01    0.29
  -4   0  17   -0.72    0.61
   4   0 -17    0.09    0.33
  -4   0  17   -0.22    0.47
   3   0 -17   -0.38    0.43
   3   0 -17    0.06    0.32
  -3   0  17    0.08    0.59
  -3   0  17   -0.03    0.14
  -3   0  17    0.12    0.31
   3   0 -17    0.16    0.27
  -3   0  17    0.03    0.25
  -3   0  17    0.41    0.44
  -2   0  17   -0.65    0.29
  -2   0  17   -0.90    0.52
  -2   0  17   -0.01    0.25
  -2   0  17    0.34    0.39
  -2   0  17   -0.10    0.16
   2   0 -17    0.25    0.38
   2   0 -17   -0.05    0.30
   2   0 -17   -0.23    0.42
  -1   0  17    0.08    0.17
  -1   0  17    0.07    0.58
  -1   0  17    0.04    0.25
  -1   0  17   -0.33    0.36
   1   0 -17   -0.17    0.29
   1   0 -17    0.02    0.28
   1   0 -17    0.29    0.35
  -1   0  17   -0.40    0.29
   0   0  17    0.55    0.31
   0   0 -17    0.25    0.40
   0   0 -17   -0.21    0.26
   0   0  17    0.23    0.24
   0   0 -17   -0.43    0.46
   0   0  17    0.50    0.36
   0   0 -17   -0.29    0.26
   0   0  17    1.14    0.63
   1   0  17    0.10    0.34
  -1   0 -17   -0.41    0.36
  -1   0 -17   -0.29    0.44
  -1   0 -17   -0.14    0.23
   1   0  17    0.11    0.23
  -1   0 -17    0.23    0.34
  -2   0 -17   -0.09    0.48
   2   0  17    0.06    0.25
  -2   0 -17    0.45    0.36
  -2   0 -17    0.26    0.37
   2   0  17    0.02    0.36
   2   0  17    0.22    0.33
  -3   0 -17   -0.69    0.48
   3   0  17    0.44    0.36
   3   0  17   -0.02    0.28
   3   0  17    0.56    0.41
  -3   0 -17    0.43    0.41
  -4   0 -17   -0.42    0.49
   4   0  17    0.12    0.42
   4   0  17    0.09    0.42
  -4   0 -17   -0.33    0.55
   4   0  17    0.15    0.31
  -5   0 -17   -0.27    0.53
  -5   0 -17   -0.90    0.62
   5   0  17   -0.01    0.36
   5   0  17   -0.62    0.49
   6   0  17    0.00    0.42
   6   0  17   -0.79    0.60
   6   0  17    0.42    0.55
  -6   0 -17   -0.23    0.77
   6   0  17    0.59    0.49
   7   0  17    0.58    0.84
   7   0  17    0.62    0.61
  -7   0 -17   -0.05    1.00
   7   0  17   -1.28    0.69
   7   0  17    0.13    0.54
   8   0  17   -0.85    0.65
   8   0  17    0.88    0.71
   8   0  17   -1.08    0.98
  12  -1 -17    0.65    1.08
  12  -1 -17    3.10    1.67
 -12  -1  17    2.29    0.99
  12   1 -17    2.35    1.10
  12   1 -17    0.30    1.44
 -12   1  17   -0.61    1.26
  11  -1 -17    1.85    0.77
  11  -1 -17    1.41    1.50
 -11  -1  17   -0.13    0.77
  11   1 -17    1.47    0.90
 -11   1  17    1.62    1.12
  11   1 -17    2.05    1.33
 -10  -1  17   19.93    1.42
 -10  -1  17   19.21    1.60
  10  -1 -17   19.61    2.37
  10  -1 -17   20.66    1.79
 -10   1  17   18.90    1.95
  10   1 -17   18.36    1.72
 -10   1  17   19.11    1.76
  10   1 -17   15.08    2.10
  -9  -1  17    0.50    0.39
   9  -1 -17    1.13    1.06
  -9  -1  17    0.15    0.48
   9  -1 -17   -0.40    0.58
   9   1 -17    0.05    0.88
   9   1 -17   -0.18    0.49
  -9   1  17    0.08    0.75
  -9   1  17   -0.39    0.65
   8  -1 -17    1.11    0.91
  -8  -1  17    0.47    0.34
   8  -1 -17    0.47    0.57
  -8  -1  17    0.91    0.43
  -8  -1  17   -0.16    0.78
   8   1 -17    1.09    0.81
  -8   1  17   -0.12    0.63
  -8   1  17    1.28    0.67
  -8   1  17    1.51    0.86
   7  -1 -17    2.32    0.58
   7  -1 -17    1.14    0.53
   7  -1 -17    0.23    0.81
  -7  -1  17    0.77    0.38
  -7  -1  17    0.48    0.73
  -7  -1  17    2.24    0.72
  -7  -1  17    1.48    0.34
  -7   1  17    1.17    0.90
  -7   1  17    1.42    0.54
   7   1 -17    0.80    0.57
   7   1 -17    1.31    0.77
   7   1 -17    0.86    0.46
  -7   1  17    1.21    0.90
   6  -1 -17   38.98    2.52
   6  -1 -17   36.19    2.86
   6  -1 -17   39.26    2.61
  -6  -1  17   37.05    2.29
  -6  -1  17   35.59    2.25
  -6  -1  17   34.96    2.60
  -6   1  17   39.88    2.78
   6   1 -17   33.43    2.43
   6   1 -17   37.27    2.52
  -6   1  17   37.28    2.46
  -6   1  17   37.32    2.48
   6   1 -17   44.46    2.74
   5  -1 -17   26.27    1.98
  -5  -1  17   28.76    2.07
  -5  -1  17   30.24    2.12
  -5  -1  17   29.74    1.78
  -5  -1  17   28.43    1.78
   5  -1 -17   28.94    2.12
  -5   1  17   27.25    1.96
   5   1 -17   29.36    2.04
  -5   1  17   28.82    2.22
  -5   1  17   29.39    1.99
   5   1 -17   32.18    1.97
  -4  -1  17    9.25    0.70
   4  -1 -17    8.77    0.93
   4  -1 -17    8.13    1.01
  -4  -1  17    8.60    0.67
  -4  -1  17    9.29    0.99
   4  -1 -17    9.19    0.80
  -4  -1  17    9.01    1.15
  -4   1  17    8.20    0.89
  -4   1  17    9.39    0.92
  -4   1  17    8.60    1.12
   4   1 -17    9.08    0.90
   4   1 -17    7.65    0.92
   3  -1 -17    4.40    0.70
  -3  -1  17    4.87    0.53
  -3  -1  17    5.26    0.47
  -3  -1  17    4.19    0.51
   3  -1 -17    6.03    0.85
  -3  -1  17    4.53    0.74
   3  -1 -17    4.69    0.58
  -3  -1  17    5.38    0.83
  -3   1  17    5.64    0.73
   3   1 -17    6.30    0.55
  -3   1  17    5.25    0.74
   3   1 -17    5.67    0.69
   3   1 -17    5.48    0.76
  -3   1  17    6.87    0.96
   2  -1 -17   17.06    1.14
   2  -1 -17   14.29    1.24
  -2  -1  17   14.98    1.40
  -2  -1  17   15.83    1.11
   2  -1 -17   17.65    1.38
  -2  -1  17   16.05    1.23
  -2  -1  17   15.70    1.03
  -2  -1  17   16.67    1.10
  -2   1  17   16.90    1.36
   2   1 -17   17.66    1.26
  -2   1  17   16.42    1.21
   2   1 -17   17.09    1.21
  -2   1  17   16.81    1.26
  -1  -1  17   13.48    0.95
  -1  -1  17   13.95    0.89
   1  -1 -17   12.96    1.10
   1  -1 -17   13.42    0.99
  -1  -1  17   14.23    0.98
  -1  -1  17   12.36    1.04
  -1  -1  17   13.69    1.32
   1  -1 -17   13.60    1.20
   1   1 -17   12.25    1.04
  -1   1  17   14.85    1.20
  -1   1  17   14.67    1.11
   1   1 -17   15.47    1.11
  -1   1  17   14.08    1.02
   0  -1  17   19.61    1.26
   0  -1 -17   20.74    1.33
   0  -1  17   19.11    1.39
   0  -1 -17   21.93    1.54
   0  -1 -17   21.75    1.45
   0  -1  17   19.95    1.32
   0  -1 -17   20.14    1.66
   0  -1  17   20.15    1.34
   0   1  17   23.12    1.48
   0   1  17   18.37    1.36
   0   1 -17   21.02    1.55
   0   1 -17   18.87    1.38
   0   1 -17   20.42    1.43
   0   1  17   19.16    1.48
  -1  -1 -17    1.36    0.40
   1  -1  17    0.52    0.27
   1  -1  17    0.27    0.35
  -1  -1 -17    1.50    0.45
  -1  -1 -17    0.62    0.51
  -1  -1 -17    0.39    0.31
   1  -1  17    0.73    0.30
   1  -1  17    0.60    0.23
   1   1  17    0.65    0.41
   1   1  17    1.33    0.40
  -1   1 -17    0.95    0.36
  -1   1 -17    1.09    0.51
   1   1  17    0.52    0.31
  -1   1 -17    0.66    0.34
   2  -1  17   -0.15    0.23
   2  -1  17    0.65    0.30
  -2  -1 -17   -0.24    0.24
  -2  -1 -17   -0.05    0.51
  -2  -1 -17    0.05    0.34
   2  -1  17   -0.50    0.32
   2  -1  17    0.49    0.29
  -2   1 -17   -0.13    0.34
  -2   1 -17   -0.40    0.37
   2   1  17    0.86    0.39
   2   1  17    0.79    0.33
   2   1  17    0.16    0.38
  -2   1 -17   -0.05    0.44
   3  -1  17    5.16    0.70
  -3  -1 -17    6.69    0.58
   3  -1  17    6.42    0.79
   3  -1  17    6.38    0.61
  -3  -1 -17    5.20    0.85
   3  -1  17    5.28    0.68
   3   1  17    5.05    0.69
  -3   1 -17    4.76    0.78
  -3   1 -17    5.64    0.80
   3   1  17    4.70    0.82
   4  -1  17    9.31    1.04
  -4  -1 -17   10.98    1.18
  -4  -1 -17   10.21    0.80
   4  -1  17   10.94    0.85
  -4  -1 -17    7.89    1.27
   4  -1  17    7.91    0.96
   4   1  17   10.83    0.90
  -4   1 -17    9.23    1.07
   4   1  17    7.70    1.02
   4   1  17   11.98    1.18
   5  -1  17    0.82    0.41
   5  -1  17    1.82    0.49
  -5  -1 -17    0.46    0.73
   5  -1  17    0.25    0.42
   5  -1  17    0.88    0.60
   5   1  17    1.10    0.56
   5   1  17    0.90    0.44
   5   1  17    0.62    0.62
  -5   1 -17    0.53    0.61
  -5   1 -17    0.47    0.69
   6  -1  17    1.68    0.77
  -6  -1 -17    0.19    0.89
   6  -1  17    0.94    0.52
   6  -1  17    0.89    0.56
   6  -1  17    2.32    0.55
   6   1  17    1.28    0.67
  -6   1 -17    2.46    0.83
   6   1  17    1.66    0.57
   6   1  17    1.42    0.75
   7  -1  17    0.23    0.58
   7  -1  17    1.55    0.91
   7  -1  17    1.38    1.01
   7  -1  17    1.30    0.61
   7   1  17    0.28    0.60
   7   1  17    0.62    0.85
  -7   1 -17    0.67    1.07
   8  -1  17    1.00    0.76
   8  -1  17   -1.45    1.11
   8  -1  17   -0.02    0.72
   8   1  17    1.05    0.78
   8   1  17    1.01    1.03
  12  -2 -17    3.45    1.97
  12   2 -17    0.39    1.64
 -12   2  17    4.26    1.52
  12   2 -17    3.59    1.13
  11  -2 -17    5.54    1.78
  11  -2 -17    4.17    1.08
  11   2 -17    4.44    1.00
 -11   2  17    5.59    1.41
  11   2 -17    4.86    1.51
  10  -2 -17    9.45    1.81
  10  -2 -17    8.93    1.54
  10   2 -17    9.37    1.58
  10   2 -17    9.94    1.34
 -10   2  17    8.01    1.40
   9  -2 -17   -0.19    0.62
   9  -2 -17    0.63    1.21
   9   2 -17    0.60    0.57
   9   2 -17   -0.48    0.89
  -9   2  17    0.12    0.92
  -8  -2  17    5.10    1.07
  -8  -2  17    5.34    0.92
   8  -2 -17    3.73    1.23
   8  -2 -17    4.12    0.84
  -8   2  17    5.76    1.01
   8   2 -17    3.97    0.74
   8   2 -17    4.70    1.04
  -8   2  17    4.95    1.24
  -8   2  17    5.79    1.21
   7  -2 -17    1.39    0.96
  -7  -2  17    0.57    0.75
   7  -2 -17    1.05    0.72
   7  -2 -17    1.80    0.70
  -7  -2  17   -0.30    0.60
  -7   2  17    1.52    1.08
   7   2 -17    0.56    0.44
  -7   2  17    1.50    0.68
   7   2 -17    0.85    0.63
   7   2 -17    1.03    0.75
  -7   2  17    0.90    1.00
  -7   2  17    1.65    0.63
   6  -2 -17   10.25    1.14
   6  -2 -17    7.66    0.91
  -6  -2  17    8.92    1.17
  -6   2  17    9.17    1.36
   6   2 -17    9.91    0.96
   6   2 -17   10.56    1.29
   6   2 -17   11.82    1.11
  -6   2  17    8.74    1.14
  -6   2  17    8.89    1.20
  -6   2  17    9.53    1.51
  -5  -2  17    0.07    0.54
  -5  -2  17    0.06    0.49
   5  -2 -17    0.25    0.35
  -5   2  17    0.28    0.25
  -5   2  17    1.20    0.74
   5   2 -17    0.04    0.35
  -5   2  17   -0.53    0.44
   5   2 -17    0.52    0.46
  -5   2  17    0.49    0.82
   4  -2 -17    0.62    0.49
   4  -2 -17    0.60    0.33
  -4  -2  17    0.83    0.44
  -4  -2  17    0.20    0.57
   4   2 -17    0.59    0.41
  -4   2  17    1.12    0.79
  -4   2  17    0.96    0.68
  -4   2  17    0.19    0.44
   4   2 -17    0.68    0.40
  -3  -2  17    0.18    0.35
   3  -2 -17    0.27    0.39
  -3  -2  17    0.14    0.53
   3  -2 -17    0.86    0.34
  -3   2  17   -0.19    0.75
   3   2 -17    0.37    0.34
  -3   2  17    0.68    0.59
  -3   2  17    0.80    0.45
   3   2 -17   -0.09    0.49
  -3   2  17    0.61    0.45
  -2  -2  17    4.75    0.61
  -2  -2  17    5.63    0.93
   2  -2 -17    4.63    0.74
  -2  -2  17    5.13    0.70
   2  -2 -17    5.31    0.62
  -2   2  17    5.57    0.93
  -2   2  17    4.32    0.97
  -2   2  17    6.44    0.81
  -2   2  17    5.98    0.80
   2   2 -17    5.54    0.69
   1  -2 -17   17.51    1.27
  -1  -2  17   16.46    1.21
  -1  -2  17   17.36    1.37
   1  -2 -17   15.39    1.15
  -1  -2  17   17.44    1.13
  -1   2  17   17.67    1.82
   1   2 -17   13.49    1.24
   1   2 -17   15.97    1.17
  -1   2  17   13.84    1.27
  -1   2  17   17.14    1.26
  -1   2  17   15.11    1.39
   0  -2 -17   11.36    1.33
   0  -2  17   13.48    1.07
   0  -2 -17   12.96    1.11
   0  -2  17   11.31    0.93
   0   2 -17   12.93    0.99
   0   2 -17   12.84    0.98
   0   2 -17   10.96    1.10
   0   2  17   12.92    1.03
   0   2  17   16.91    1.76
   0   2  17   12.23    1.20
   1  -2  17    1.69    0.44
   1  -2  17    0.90    0.35
  -1  -2 -17    1.13    0.64
  -1  -2 -17    0.72    0.35
   1  -2  17    0.48    0.59
  -1  -2 -17    1.19    0.55
   1   2  17    0.60    0.47
   1   2  17    0.70    0.40
  -1   2 -17    0.97    0.37
  -1   2 -17    1.30    0.46
  -1   2 -17    1.15    0.38
   2  -2  17    2.18    0.49
  -2  -2 -17    2.20    0.43
  -2  -2 -17    0.36    0.70
  -2  -2 -17    1.86    0.89
   2  -2  17    1.36    0.45
   2   2  17    1.46    0.54
  -2   2 -17    1.75    0.52
   2   2  17    1.41    0.55
  -2   2 -17    2.66    0.47
   2   2  17    1.28    0.54
   3  -2  17    0.12    0.41
   3  -2  17    0.70    0.40
  -3  -2 -17   -0.28    0.54
  -3  -2 -17    0.70    0.67
  -3  -2 -17   -0.03    0.29
   3   2  17    0.03    0.50
   3   2  17    0.47    0.48
  -3   2 -17    0.38    0.42
   3   2  17    0.12    0.41
  -3   2 -17   -0.32    0.47
  -4  -2 -17    6.67    1.02
   4  -2  17    5.37    0.89
   4  -2  17    6.19    0.99
  -4  -2 -17    5.56    0.67
  -4  -2 -17    7.92    1.34
   4   2  17    5.47    0.92
   4   2  17    5.65    0.90
   4   2  17    6.94    0.86
  -4   2 -17    7.06    1.03
  -4   2 -17    6.70    0.95
   5  -2  17   16.39    1.55
   5  -2  17   20.53    1.68
   5  -2  17   17.13    1.32
  -5  -2 -17   20.39    1.33
   5  -2  17   18.20    1.33
  -5   2 -17   19.32    1.51
   5   2  17   19.03    1.46
   5   2  17   18.73    1.63
  -5   2 -17   20.51    1.68
   6  -2  17    0.96    0.83
   6  -2  17    1.51    0.64
   6  -2  17    1.26    0.49
  -6  -2 -17    1.75    0.53
   6  -2  17    1.88    0.56
   6   2  17    0.94    0.76
   6   2  17    2.11    0.62
  -6   2 -17    0.48    0.85
   7  -2  17    1.88    0.82
   7  -2  17    3.09    1.16
   7  -2  17    2.75    0.70
   7   2  17    2.16    0.70
  -7   2 -17    3.13    1.35
   7   2  17    1.25    0.87
   8  -2  17    0.01    0.87
   8   2  17    0.24    1.04
   8   2  17   -0.69    0.80
  11  -3 -17    4.35    2.13
  11  -3 -17    1.93    1.32
  11   3 -17    1.95    1.47
  11   3 -17    1.81    1.08
 -11   3  17    3.01    1.54
  10  -3 -17    2.42    1.57
  10  -3 -17    3.60    1.09
 -10   3  17    0.69    1.24
  10   3 -17    3.17    0.90
 -10   3  17    0.88    1.59
  10   3 -17    2.48    1.23
   9  -3 -17   -0.13    0.73
  -9  -3  17    0.83    1.10
   9  -3 -17   -0.60    1.46
   9   3 -17    1.13    1.04
  -9   3  17   -0.22    1.37
  -9   3  17   -1.07    1.08
   9   3 -17    0.69    0.63
  -8  -3  17    1.06    0.87
   8  -3 -17    1.95    0.73
  -8  -3  17    0.86    0.69
   8  -3 -17   -0.42    1.13
   8   3 -17    1.58    0.59
  -8   3  17    0.86    0.97
   8   3 -17    0.86    0.86
  -8   3  17   -0.77    1.26
  -7  -3  17    0.01    0.59
   7  -3 -17   -1.14    0.64
   7  -3 -17   -0.08    0.46
  -7   3  17    0.43    1.02
   7   3 -17   -0.05    0.50
  -7   3  17    0.09    0.29
   7   3 -17   -0.61    0.78
  -7   3  17    0.47    1.21
  -7   3  17    0.98    0.79
   6  -3 -17    0.69    0.56
   6  -3 -17    0.44    0.45
   6  -3 -17   -0.82    0.82
  -6   3  17    0.30    0.33
   6   3 -17    0.27    0.42
   6   3 -17   -0.61    0.51
  -6   3  17    0.57    0.69
  -6   3  17   -0.60    0.85
  -6   3  17    1.93    1.16
  -6   3  17    0.38    0.69
   5  -3 -17    0.37    0.36
   5  -3 -17   -0.05    0.64
   5  -3 -17   -0.49    0.51
  -5   3  17   -0.05    0.66
   5   3 -17    0.53    0.38
   5   3 -17    1.14    0.51
  -5   3  17    0.04    1.05
  -5   3  17    0.41    0.82
  -5   3  17    0.30    0.61
  -5   3  17    1.10    0.45
   4  -3 -17   -0.20    0.31
   4  -3 -17    0.06    0.71
   4  -3 -17    0.02    0.42
  -4   3  17    0.09    1.04
  -4   3  17   -0.38    0.66
  -4   3  17    0.44    0.48
  -4   3  17    0.25    0.56
  -4   3  17   -1.31    1.00
   4   3 -17    0.00    0.36
   3  -3 -17   -0.08    0.35
   3  -3 -17   -0.81    0.40
   3  -3 -17    0.05    0.70
  -3   3  17    0.89    0.58
   3   3 -17   -0.22    0.40
  -3   3  17   -0.18    0.49
  -3   3  17    0.10    0.94
  -3   3  17   -1.20    0.95
   3   3 -17   -0.03    0.34
   2  -3 -17    4.22    0.81
   2  -3 -17    2.66    0.55
   2  -3 -17    2.84    0.51
   2   3 -17    2.65    0.46
  -2   3  17    1.42    0.97
  -2   3  17    3.62    0.66
  -2   3  17    3.04    0.69
  -2   3  17    3.12    0.81
   2   3 -17    3.37    0.51
   1  -3 -17   10.60    1.37
  -1  -3  17   12.99    1.22
   1  -3 -17   13.58    1.13
   1  -3 -17   10.67    0.96
  -1   3  17   11.52    1.47
   1   3 -17   11.82    0.94
  -1   3  17   10.77    1.14
   1   3 -17   11.19    0.94
  -1   3  17   10.68    1.21
   0  -3 -17    0.44    0.40
   0  -3 -17    0.82    0.43
   0  -3  17    0.27    0.45
   0  -3 -17    1.08    0.71
   0   3  17    0.60    1.03
   0   3  17    0.73    0.57
   0   3  17    0.41    0.44
   0   3 -17    0.20    0.36
  -1  -3 -17    0.50    0.37
  -1  -3 -17    0.03    0.43
  -1  -3 -17    0.24    0.69
  -1  -3 -17   -0.30    0.77
   1  -3  17    0.44    0.53
   1   3  17   -0.41    0.57
  -1   3 -17   -0.25    0.45
  -1   3 -17   -0.18    0.37
  -1   3 -17    0.17    0.38
   1   3  17   -0.72    0.54
   1   3  17    0.54    0.49
   1   3  17   -0.09    1.06
  -2  -3 -17    0.50    0.38
  -2  -3 -17   -0.03    0.88
  -2  -3 -17    0.51    0.74
   2  -3  17    0.44    0.61
   2   3  17   -0.10    0.55
   2   3  17   -0.20    0.57
   2   3  17    0.42    0.47
  -2   3 -17   -0.09    0.44
  -2   3 -17   -0.44    0.40
  -3  -3 -17    2.28    0.81
  -3  -3 -17    1.51    0.90
   3  -3  17    3.61    0.74
  -3  -3 -17    1.76    0.43
   3  -3  17    2.33    0.65
  -3   3 -17    1.48    0.58
   3   3  17    2.11    0.59
   3   3  17    2.70    1.30
  -3   3 -17    1.25    0.44
   3   3  17    1.75    0.64
  -4  -3 -17    0.03    0.39
   4  -3  17   -0.77    0.63
   4  -3  17    0.75    0.68
   4   3  17    0.36    0.53
  -4   3 -17    0.18    0.61
  -4   3 -17   -0.13    0.50
   4   3  17    0.91    0.51
   5  -3  17    1.45    0.84
  -5  -3 -17    0.20    0.41
   5  -3  17    0.82    0.77
  -5   3 -17    0.12    0.61
   5   3  17    0.13    0.54
  -5   3 -17   -0.03    0.70
   5   3  17   -0.43    0.66
   6  -3  17    0.36    0.84
  -6  -3 -17   -0.25    0.45
   6   3  17    1.61    0.72
   6   3  17   -0.84    0.73
  -7  -3 -17    1.09    0.56
   7  -3  17    2.14    1.02
   7   3  17    2.60    1.06
   7   3  17    2.41    0.86
  10  -4 -17   11.76    2.42
  10  -4 -17   10.36    1.44
  10  -4 -17    8.35    1.57
 -10   4  17   19.46    3.25
  10   4 -17   14.07    2.25
  10   4 -17   11.63    1.43
   9  -4 -17   10.47    1.77
   9  -4 -17    6.96    1.10
  -9   4  17    8.81    1.83
   9   4 -17    7.83    1.07
   9   4 -17    8.86    1.40
  -9   4  17    5.88    1.61
   8  -4 -17    0.40    0.56
   8  -4 -17    0.15    0.94
   8   4 -17    1.30    0.64
  -8   4  17    0.81    1.14
  -8   4  17    0.20    1.41
   7  -4 -17    2.45    0.69
   7  -4 -17    2.29    0.83
   7   4 -17    3.29    0.54
  -7   4  17    4.71    1.31
  -7   4  17    3.00    1.13
   7   4 -17    4.15    0.69
   6  -4 -17    0.72    0.49
   6  -4 -17    0.37    0.64
  -6   4  17    1.44    0.85
  -6   4  17    0.83    1.10
   6   4 -17    0.17    0.48
  -6   4  17    1.15    0.60
  -6   4  17   -0.42    1.47
   5  -4 -17   -0.25    0.59
   5  -4 -17    0.11    0.42
   5  -4 -17   -0.45    0.89
  -5   4  17    0.73    0.72
  -5   4  17    3.79    1.37
   5   4 -17    0.87    0.56
   5   4 -17    0.41    0.42
  -5   4  17    0.76    0.63
  -5   4  17    1.30    0.96
   4  -4 -17    6.44    1.07
   4  -4 -17    8.38    1.23
   4  -4 -17    6.46    0.83
  -4   4  17    4.92    0.95
   4   4 -17    4.87    0.66
  -4   4  17    9.02    1.56
  -4   4  17    7.48    0.98
   4   4 -17    6.05    0.78
  -4   4  17    4.33    1.46
   3  -4 -17    3.97    0.93
   3  -4 -17    2.71    0.58
   3  -4 -17    2.96    0.64
  -3   4  17    2.32    0.72
   3   4 -17    3.01    0.48
  -3   4  17    3.18    0.87
   3   4 -17    2.80    0.54
   2  -4 -17    0.66    0.40
   2  -4 -17    1.58    0.60
   2  -4 -17    0.48    0.91
  -2   4  17    1.33    0.66
   2   4 -17    0.45    0.38
  -2   4  17    1.42    0.94
   2   4 -17    1.14    0.46
  -2   4  17    0.90    0.74
  -2   4  17    2.32    1.19
   1  -4 -17   -1.36    0.82
   1  -4 -17    0.33    0.38
   1  -4 -17    0.94    0.56
  -1   4  17    0.31    0.65
  -1   4  17    1.10    1.23
   1   4 -17    0.09    0.36
  -1   4  17   -0.03    0.51
   1   4 -17    0.14    0.40
   0  -4  17   -0.51    0.71
   0  -4 -17    0.31    0.53
   0  -4 -17   -0.11    0.91
   0  -4 -17    0.42    0.40
   0   4 -17    0.57    0.41
   0   4  17    0.24    0.63
   0   4  17    0.50    0.50
   0   4 -17   -0.18    0.38
   0   4  17    0.72    1.29
   1  -4  17   18.87    1.81
  -1  -4 -17   18.63    1.89
  -1  -4 -17   18.19    1.37
   1   4  17   17.84    1.47
  -1   4 -17   16.76    1.27
   1   4  17   16.23    1.60
   1   4  17   17.11    2.65
   2  -4  17    1.70    0.83
  -2  -4 -17    1.03    0.44
   2   4  17   -0.40    0.56
  -2   4 -17    0.86    0.47
   2   4  17    1.02    1.57
   3  -4  17   12.53    1.70
  -3  -4 -17   11.84    1.09
   3   4  17   14.28    1.35
  -3   4 -17   13.02    1.16
   3   4  17   11.42    1.44
   4  -4  17    1.20    1.00
  -4  -4 -17    1.73    0.54
   4   4  17    2.94    0.77
   4   4  17    2.33    0.74
  -4   4 -17    3.76    0.63
   5  -4  17    5.10    1.24
  -5  -4 -17    1.73    0.56
   5   4  17    2.35    0.99
   5   4  17    2.31    0.76
   6  -4  17    2.07    1.31
  -6  -4 -17   -0.65    0.53
   6   4  17    0.41    0.87
   6   4  17    1.36    0.99
   8  -5 -17    0.87    0.68
   8  -5 -17    1.93    1.17
  -8   5  17    0.96    2.08
  -8   5  17    1.95    2.16
   7  -5 -17   -0.19    1.00
   7  -5 -17    0.78    0.60
  -7   5  17    1.15    1.58
   7   5 -17    2.17    0.75
  -7   5  17    1.54    1.26
   6  -5 -17    1.28    0.67
   6  -5 -17    1.84    0.93
  -6   5  17    2.31    1.25
  -6   5  17    0.28    1.22
  -6   5  17    1.12    1.08
   5  -5 -17    4.28    0.98
   5  -5 -17    3.98    0.98
  -5   5  17    6.21    1.31
  -5   5  17    4.04    1.19
  -5   5  17    4.63    1.06
   4  -5 -17    2.34    0.64
   4  -5 -17    1.99    0.74
  -4   5  17    3.43    1.12
  -4   5  17    0.10    1.77
   4   5 -17    2.47    0.54
  -4   5  17    1.68    1.01
  -4   5  17   -0.44    1.03
   3  -5 -17    0.52    0.67
   3  -5 -17    0.31    1.25
   3  -5 -17    0.09    0.43
   3   5 -17    0.77    0.49
  -3   5  17   -0.85    0.84
  -3   5  17    1.41    1.10
  -3   5  17    0.81    0.76
  -3   5  17    0.81    1.68
   2  -5 -17   -0.15    0.49
   2  -5 -17   -0.18    0.59
   2  -5 -17   -0.26    1.17
  -2   5  17   -0.15    0.88
  -2   5  17    0.01    0.77
   2   5 -17   -0.84    0.50
  -2   5  17   -2.54    1.54
   1  -5 -17    0.71    0.48
   1  -5 -17    3.76    1.27
  -1   5  17    0.78    0.74
  -1   5  17    1.12    1.65
  -1   5  17    0.21    0.80
   0  -5 -17    7.55    0.97
   0  -5 -17   11.68    1.83
   0   5  17    9.40    1.24
   0   5  17    7.45    1.14
   0   5  17    9.42    1.92
  -1  -5 -17    0.00    0.46
   1   5  17    0.07    0.77
   1   5  17    1.99    2.01
   1   5  17    0.08    0.59
  -2  -5 -17    0.07    0.65
   2  -5  17   -0.34    1.13
   2   5  17    1.78    0.85
   2   5  17   -1.21    0.63
  -3  -5 -17    0.27    0.52
   3  -5  17   -0.58    1.23
   3   5  17    0.03    0.70
   3   5  17    1.03    0.84
   4  -5  17    2.05    1.43
  -4  -5 -17    0.05    0.58
   4   5  17    0.44    0.82
   4   5  17    1.89    0.93
   4  -6 -17   -0.01    0.60
   4  -6 -17   -1.78    0.91
  -4   6  17   -0.38    1.22
   3  -6 -17    3.92    1.03
   3  -6 -17    5.27    0.93
  -3   6  17    3.15    1.50
  -3   6  17    6.58    1.30
   2  -6 -17    0.13    0.66
  -2   6  17    1.60    1.05
  -2   6  17   -0.13    1.17
   1  -6 -17    0.35    0.60
  -1   6  17   -0.36    0.97
  -1   6  17    0.17    1.16
   0  -6 -17    0.13    0.56
   0   6  17   -0.42    0.96
  12   0 -18    3.62    1.09
 -12   0  18    3.11    1.12
  12   0 -18    5.56    1.93
 -11   0  18    4.32    1.03
  11   0 -18    6.66    1.16
  11   0 -18    3.41    1.45
 -11   0  18    3.68    0.86
  10   0 -18   -0.80    0.63
  10   0 -18    1.13    1.15
 -10   0  18   -0.30    0.71
   9   0 -18   30.46    2.81
   9   0 -18   36.29    2.45
  -8   0  18    1.39    0.93
   8   0 -18    1.13    0.84
   8   0 -18    0.43    0.56
  -8   0  18    0.12    0.95
  -8   0  18    0.79    0.54
  -8   0  18    0.09    0.47
   7   0 -18   -1.05    0.55
   7   0 -18    0.16    0.71
  -7   0  18    1.12    0.48
  -7   0  18   -0.06    0.83
   7   0 -18   -0.71    0.77
  -7   0  18    0.82    0.80
  -7   0  18    0.42    0.47
   6   0 -18    0.29    0.44
  -6   0  18    0.63    0.40
   6   0 -18    0.30    0.78
  -6   0  18    0.16    0.41
   6   0 -18   -0.01    0.52
  -6   0  18   -0.01    0.73
  -6   0  18    0.34    0.73
  -5   0  18   21.58    1.80
  -5   0  18   19.03    1.66
   5   0 -18   21.12    1.72
  -5   0  18   22.11    1.50
   5   0 -18   23.55    1.64
  -4   0  18   -0.16    0.29
  -4   0  18   -0.40    0.34
   4   0 -18   -0.36    0.31
   4   0 -18    0.44    0.48
   4   0 -18    0.37    0.40
  -4   0  18    0.13    0.54
   3   0 -18   18.44    1.37
  -3   0  18   18.04    1.29
  -3   0  18   19.95    1.46
   3   0 -18   18.71    1.21
   3   0 -18   19.42    1.48
  -3   0  18   14.86    1.76
  -3   0  18   16.95    1.22
  -3   0  18   17.36    1.12
  -2   0  18    7.59    0.80
  -2   0  18   10.48    0.96
   2   0 -18    9.01    0.71
   2   0 -18   10.70    1.02
  -2   0  18    8.42    0.64
   2   0 -18    8.79    0.89
  -2   0  18    6.38    1.02
  -2   0  18    9.36    0.74
   1   0 -18    0.85    0.56
  -1   0  18    1.34    0.31
  -1   0  18    1.46    0.46
  -1   0  18    1.21    0.27
   1   0 -18    2.26    0.52
  -1   0  18    2.49    0.44
   1   0 -18    0.74    0.37
  -1   0  18    0.59    0.71
   0   0  18    1.52    0.29
   0   0  18    1.28    0.31
   0   0 -18    1.36    0.43
   0   0  18    0.60    0.40
   0   0 -18    1.39    0.33
   0   0 -18    1.03    0.47
   0   0 -18    0.77    0.54
   1   0  18    0.56    0.28
  -1   0 -18   -0.07    0.48
  -1   0 -18   -0.01    0.28
  -1   0 -18    0.54    0.37
   1   0  18    0.40    0.37
   1   0  18    0.40    0.38
  -1   0 -18    0.97    0.46
   1   0  18    0.11    0.26
  -2   0 -18    2.99    0.55
  -2   0 -18    3.54    0.64
  -2   0 -18    3.91    0.49
   2   0  18    3.95    0.53
   2   0  18    5.42    0.72
  -2   0 -18    3.88    0.73
   2   0  18    3.96    0.60
  -3   0 -18    2.41    0.59
   3   0  18    3.19    0.47
   3   0  18    2.65    0.57
  -3   0 -18    2.76    0.72
   4   0  18   -0.19    0.34
   4   0  18    0.02    0.47
   4   0  18    0.22    0.46
  -4   0 -18   -0.96    0.65
   4   0  18   -0.22    0.34
  -4   0 -18   -0.57    0.51
   5   0  18    0.11    0.56
   5   0  18    0.16    0.45
   5   0  18    1.00    0.46
  -5   0 -18   -1.15    0.76
  -6   0 -18   -1.24    0.91
   6   0  18    1.21    0.69
   6   0  18    1.06    0.55
   6   0  18    1.60    0.61
   7   0  18    0.35    0.63
   7   0  18    0.59    0.92
   7   0  18    0.27    0.60
   8   0  18    0.25    1.20
   8   0  18   -0.72    0.66
   8   0  18    1.77    0.81
 -12  -1  18    2.37    0.94
  12  -1 -18    1.31    1.08
  12  -1 -18   -0.08    1.79
  12   1 -18    0.90    1.69
 -12   1  18    1.64    1.41
  12   1 -18    2.23    1.15
  11  -1 -18    2.27    1.53
  11  -1 -18   -1.60    0.92
  11   1 -18   -0.29    1.24
  11   1 -18   -0.12    0.83
 -11   1  18   -0.10    0.96
 -10  -1  18    4.30    0.81
  10  -1 -18    3.22    1.41
 -10  -1  18    5.26    0.86
  10  -1 -18    4.45    1.02
  10   1 -18    3.92    0.84
 -10   1  18    3.56    1.10
  10   1 -18    4.14    1.27
   9  -1 -18    9.40    1.30
  -9  -1  18   10.16    0.91
  -9  -1  18    9.34    1.09
   9   1 -18    6.90    1.20
  -9   1  18    9.08    1.31
   9   1 -18    9.52    1.73
  -9   1  18    9.62    1.38
   8  -1 -18    2.43    1.00
   8  -1 -18    1.26    0.66
  -8  -1  18    1.45    0.46
  -8  -1  18    1.55    0.39
  -8  -1  18    1.52    0.85
  -8  -1  18    2.70    0.97
  -8   1  18    1.09    0.70
   8   1 -18    0.80    0.88
   8   1 -18    1.79    0.56
  -8   1  18    2.99    1.17
  -8   1  18    2.08    0.71
  -7  -1  18    0.56    0.36
  -7  -1  18    0.19    0.33
  -7  -1  18    1.30    0.79
   7  -1 -18    1.33    0.97
  -7  -1  18   -0.48    0.73
   7  -1 -18   -0.40    0.68
   7  -1 -18   -0.02    0.48
   7   1 -18    0.51    0.46
   7   1 -18    0.78    0.72
  -7   1  18   -0.04    0.86
   7   1 -18   -0.05    0.55
  -7   1  18    0.28    0.77
  -7   1  18   -1.65    0.87
  -6  -1  18   40.76    2.53
  -6  -1  18   43.01    2.86
  -6  -1  18   46.26    2.89
   6  -1 -18   39.52    2.85
   6  -1 -18   38.65    2.81
  -6  -1  18   42.10    2.51
  -6   1  18   37.68    2.70
  -6   1  18   47.33    3.06
  -6   1  18   42.94    2.74
   6   1 -18   44.26    2.74
   6   1 -18   39.81    2.80
   5  -1 -18    0.98    0.42
   5  -1 -18    1.71    0.54
  -5  -1  18    1.64    0.31
  -5  -1  18    2.97    0.71
  -5  -1  18    1.28    0.32
   5  -1 -18    2.11    0.62
   5   1 -18    1.90    0.51
  -5   1  18    1.85    0.54
   5   1 -18    1.99    0.55
  -5   1  18    2.03    0.71
  -5   1  18    1.58    0.52
   4  -1 -18    1.28    0.52
   4  -1 -18    1.42    0.42
   4  -1 -18    1.44    0.55
  -4  -1  18    2.27    0.57
  -4  -1  18    1.56    0.31
  -4  -1  18    1.12    0.26
  -4  -1  18    0.89    0.63
  -4   1  18    1.03    0.64
   4   1 -18    1.74    0.52
  -4   1  18    1.94    0.51
  -4   1  18    1.77    0.52
   4   1 -18    1.90    0.47
  -3  -1  18    8.58    0.67
   3  -1 -18    9.49    0.95
  -3  -1  18    9.95    0.97
  -3  -1  18   10.74    1.23
  -3  -1  18    8.52    0.73
  -3  -1  18    8.93    0.73
   3  -1 -18   11.02    1.09
   3  -1 -18    8.22    0.79
  -3   1  18    9.49    0.96
  -3   1  18    9.08    1.12
  -3   1  18    8.97    0.89
   3   1 -18    9.25    1.00
   3   1 -18    9.48    0.92
   3   1 -18    9.32    0.72
  -2  -1  18    1.88    0.27
  -2  -1  18    1.90    0.34
   2  -1 -18    1.94    0.40
  -2  -1  18    1.52    0.45
   2  -1 -18    2.02    0.55
   2  -1 -18    0.81    0.46
  -2  -1  18    1.34    0.64
  -2  -1  18    1.42    0.34
  -2   1  18    1.77    0.57
   2   1 -18    1.22    0.43
  -2   1  18    1.58    0.38
  -2   1  18    2.12    0.49
   2   1 -18    2.34    0.52
  -1  -1  18    4.17    0.53
  -1  -1  18    4.44    0.67
  -1  -1  18    3.96    0.42
   1  -1 -18    3.39    0.52
  -1  -1  18    4.01    0.53
  -1  -1  18    3.57    0.73
   1  -1 -18    4.44    0.74
   1  -1 -18    4.37    0.69
  -1   1  18    3.57    0.66
  -1   1  18    5.66    0.72
  -1   1  18    3.79    0.51
   1   1 -18    4.62    0.65
   1   1 -18    4.06    0.61
   0  -1 -18    3.23    0.74
   0  -1 -18    3.37    0.59
   0  -1  18    3.62    0.62
   0  -1  18    3.68    0.50
   0  -1  18    3.42    0.46
   0  -1  18    3.01    0.41
   0  -1 -18    3.81    0.59
   0  -1 -18    3.45    0.52
   0   1  18    3.76    0.64
   0   1 -18    3.45    0.60
   0   1  18    3.21    0.47
   0   1 -18    4.17    0.58
   0   1 -18    4.77    0.83
   0   1  18    4.21    0.71
  -1  -1 -18    8.14    0.74
   1  -1  18    7.86    0.76
   1  -1  18    9.62    0.79
   1  -1  18    9.27    0.86
  -1  -1 -18    9.11    0.93
  -1  -1 -18    7.87    1.13
   1  -1  18    8.64    0.67
  -1  -1 -18    7.92    1.02
  -1   1 -18   10.61    0.91
   1   1  18    7.38    0.81
   1   1  18    8.56    0.92
   1   1  18    9.59    0.98
  -1   1 -18    7.89    1.04
  -1   1 -18    9.77    0.89
   2  -1  18   -0.30    0.35
  -2  -1 -18   -0.11    0.59
  -2  -1 -18   -0.04    0.28
   2  -1  18   -0.25    0.28
  -2  -1 -18   -0.22    0.37
   2  -1  18    1.04    0.37
  -2  -1 -18    0.41    0.50
   2  -1  18    0.14    0.26
  -2   1 -18    0.00    0.48
  -2   1 -18   -0.44    0.41
   2   1  18    0.11    0.45
   2   1  18    0.28    0.46
  -2   1 -18   -0.21    0.36
   2   1  18   -0.13    0.34
  -3  -1 -18    0.94    0.71
  -3  -1 -18    0.72    0.64
   3  -1  18    1.64    0.37
   3  -1  18    1.04    0.41
   3  -1  18    0.85    0.49
  -3  -1 -18    0.63    0.33
   3  -1  18    1.18    0.40
   3   1  18    1.07    0.47
  -3   1 -18   -0.07    0.56
  -3   1 -18    0.18    0.50
   3   1  18    1.59    0.50
   4  -1  18    6.26    0.82
  -4  -1 -18    5.93    0.99
  -4  -1 -18    8.47    1.19
   4  -1  18    5.75    0.81
  -4  -1 -18    5.24    0.65
   4  -1  18    5.56    0.98
   4  -1  18    6.66    0.71
  -4   1 -18    5.69    0.91
   4   1  18    6.19    1.01
  -4   1 -18    6.89    1.02
   4   1  18    4.53    0.78
   4   1  18    5.93    0.76
   5  -1  18    9.25    0.91
   5  -1  18    8.87    0.99
   5  -1  18    8.15    1.20
   5  -1  18    9.17    1.01
  -5  -1 -18    7.30    1.23
  -5   1 -18    7.30    1.37
   5   1  18    8.53    1.21
   5   1  18    7.73    1.24
   5   1  18    9.00    0.98
  -6  -1 -18    3.90    1.22
   6  -1  18    4.18    0.95
   6  -1  18    4.19    0.75
  -6   1 -18    3.46    0.96
   6   1  18    3.55    0.65
   6   1  18    2.64    0.84
   7  -1  18    0.71    0.89
   7  -1  18    0.34    0.94
   7  -1  18    0.39    0.64
   7  -1  18    0.37    0.71
  -7   1 -18    1.68    1.11
   7   1  18   -0.59    0.89
   7   1  18    0.29    0.63
   8  -1  18    1.27    0.83
   8  -1  18   -0.12    0.88
   8  -1  18   -1.97    1.22
   8   1  18    2.89    1.20
   8   1  18    1.37    0.86
  11  -2 -18   -0.98    0.95
  11   2 -18    1.01    0.82
  11   2 -18    1.24    1.29
 -11   2  18    2.42    1.33
  10  -2 -18    1.89    0.88
  10  -2 -18    2.58    1.56
  10   2 -18    1.91    1.25
 -10   2  18    0.41    1.13
  -9  -2  18    1.38    1.14
   9  -2 -18   -2.25    1.21
   9  -2 -18   -1.00    0.66
  -9   2  18    1.66    0.89
   9   2 -18   -0.93    0.93
   9   2 -18    0.35    0.65
  -9   2  18    1.15    1.20
   8  -2 -18    3.28    1.22
   8  -2 -18    2.29    0.81
  -8  -2  18    3.08    1.05
  -8   2  18    1.40    0.79
  -8   2  18    2.31    1.23
   8   2 -18    3.59    1.01
  -8   2  18    4.34    0.92
   7  -2 -18   -0.47    1.00
  -7  -2  18   -0.20    0.75
   7  -2 -18   -1.40    0.64
   7  -2 -18   -0.81    0.53
  -7  -2  18   -0.38    0.70
   7   2 -18   -0.27    0.45
  -7   2  18   -1.10    0.66
  -7   2  18   -0.99    1.08
   7   2 -18   -0.59    0.56
  -7   2  18   -0.83    0.59
  -7   2  18   -0.66    1.04
   7   2 -18    0.09    0.75
  -6  -2  18    4.31    0.77
   6  -2 -18    3.87    0.76
   6  -2 -18    3.26    0.63
   6  -2 -18    3.60    0.86
  -6   2  18    2.55    1.13
  -6   2  18    3.71    0.80
   6   2 -18    4.28    0.72
  -6   2  18    4.41    0.98
   6   2 -18    4.56    0.69
  -6   2  18    2.44    0.73
   5  -2 -18   53.81    3.37
  -5  -2  18   54.43    3.38
   5  -2 -18   52.55    3.43
  -5   2  18   54.86    3.50
  -5   2  18   52.96    3.18
  -5   2  18   49.34    3.63
   5   2 -18   55.96    3.36
  -5   2  18   57.96    3.81
   5   2 -18   55.11    3.42
  -5   2  18   56.45    3.52
   4  -2 -18    3.30    0.62
  -4  -2  18    3.09    0.68
   4  -2 -18    3.76    0.60
  -4  -2  18    3.57    0.58
  -4   2  18    2.76    0.99
   4   2 -18    2.44    0.62
   4   2 -18    3.49    0.57
  -4   2  18    3.68    0.86
  -4   2  18    3.34    0.82
   3  -2 -18   22.12    1.50
  -3  -2  18   17.38    1.70
  -3  -2  18   22.42    1.52
  -3   2  18   24.30    1.82
  -3   2  18   19.20    2.07
  -3   2  18   22.68    1.64
   3   2 -18   22.27    1.52
   3   2 -18   23.10    1.62
  -2  -2  18    0.55    0.59
   2  -2 -18    0.49    0.35
  -2  -2  18    0.75    0.37
  -2  -2  18    0.23    0.35
  -2   2  18    0.01    0.54
  -2   2  18   -0.26    0.82
   2   2 -18    0.67    0.39
   2   2 -18    0.10    0.34
  -2   2  18    0.10    0.43
   1  -2 -18    1.45    0.38
  -1  -2  18    2.41    0.51
  -1  -2  18   -0.06    0.61
  -1  -2  18    0.97    0.36
   1   2 -18    1.85    0.44
  -1   2  18    1.26    0.59
  -1   2  18    1.83    0.99
   1   2 -18    1.83    0.42
  -1   2  18    1.45    0.45
   0  -2  18  104.30    6.22
   0  -2 -18  108.41    6.38
   0  -2 -18  119.09    6.62
   0  -2  18  105.94    6.38
   0  -2 -18  104.12    6.25
   0  -2  18  104.70    6.30
   0   2  18  111.80    6.68
   0   2 -18  112.31    6.27
   0   2  18   97.08    6.37
   0   2 -18  109.06    6.28
  -1  -2 -18    2.07    0.78
  -1  -2 -18    3.29    0.62
  -1  -2 -18    2.76    0.46
   1  -2  18    3.05    0.59
   1  -2  18    2.89    0.48
  -1   2 -18    3.27    0.66
   1   2  18    1.32    1.01
   1   2  18    2.60    0.63
   1   2  18    3.03    0.68
  -1   2 -18    2.40    0.48
   1   2  18    2.37    0.52
  -1   2 -18    2.69    0.50
  -2  -2 -18   -0.54    0.66
   2  -2  18    0.45    0.40
  -2  -2 -18   -0.26    0.63
  -2  -2 -18   -0.38    0.36
   2  -2  18    0.23    0.41
   2   2  18   -0.26    0.39
  -2   2 -18   -0.24    0.50
   2   2  18   -0.04    0.48
   2   2  18    0.30    0.51
   3  -2  18    0.98    0.48
  -3  -2 -18    0.01    0.79
  -3  -2 -18    1.08    0.70
  -3  -2 -18    0.17    0.36
   3  -2  18    0.11    0.48
   3   2  18    0.25    0.42
  -3   2 -18    0.12    0.53
   3   2  18    0.82    0.63
  -3   2 -18    0.02    0.46
   3   2  18    0.37    0.51
  -4  -2 -18    1.05    0.91
  -4  -2 -18   -0.15    0.38
   4  -2  18    0.51    0.48
   4  -2  18    0.01    0.57
   4   2  18   -0.40    0.41
   4   2  18   -0.04    0.70
   4   2  18   -1.06    0.53
  -5  -2 -18    2.25    0.50
   5  -2  18    3.62    0.84
   5  -2  18    3.04    0.73
   5   2  18    2.33    0.58
  -5   2 -18    1.61    1.41
   5   2  18    2.24    0.75
   6  -2  18   -0.09    0.62
   6  -2  18   -0.01    0.90
   6  -2  18    0.29    0.55
   6   2  18   -0.28    0.73
   6   2  18    0.12    0.58
  -6   2 -18    1.69    0.93
   7  -2  18   -0.18    0.80
   7  -2  18    2.32    1.76
   7  -2  18    0.89    0.80
   7   2  18   -0.67    0.64
   7   2  18    0.26    0.92
  10  -3 -18   -2.40    1.69
  10  -3 -18    1.41    1.00
 -10   3  18    2.87    1.80
  10   3 -18    0.84    1.17
  10   3 -18    0.37    0.86
   9  -3 -18   -0.38    0.92
   9  -3 -18   -2.33    1.37
   9   3 -18    1.12    1.05
   9   3 -18    0.34    0.68
  -9   3  18    0.29    1.38
  -9   3  18    1.58    1.23
   8  -3 -18    1.04    0.84
  -8  -3  18    0.52    0.97
   8  -3 -18    1.06    0.55
  -8   3  18    1.45    1.29
   8   3 -18    0.39    0.67
   8   3 -18    0.88    1.00
  -8   3  18    1.69    1.02
   7  -3 -18   15.64    1.61
   7  -3 -18   14.61    1.36
  -7  -3  18   14.00    1.34
  -7   3  18   18.75    2.21
  -7   3  18   17.11    1.76
   7   3 -18   15.02    1.33
  -7   3  18   15.32    1.04
   6  -3 -18    1.04    0.47
   6  -3 -18    0.13    0.63
   6  -3 -18    1.78    0.98
  -6   3  18    0.68    0.91
  -6   3  18    0.65    0.36
   6   3 -18    0.36    0.43
  -6   3  18    0.80    0.72
  -6   3  18    4.13    1.34
   6   3 -18    0.93    0.64
  -6   3  18    0.37    0.89
   5  -3 -18    3.37    0.71
   5  -3 -18    3.39    0.92
   5  -3 -18    3.26    0.62
   5   3 -18    2.59    0.64
   5   3 -18    3.66    0.62
  -5   3  18    3.31    0.82
  -5   3  18    2.19    0.76
  -5   3  18    2.56    0.99
  -5   3  18    1.23    1.18
  -5   3  18    2.77    0.53
   4  -3 -18   -0.57    0.80
   4  -3 -18    0.34    0.37
   4  -3 -18   -0.05    0.50
   4   3 -18    0.34    0.44
  -4   3  18    0.07    0.53
  -4   3  18    0.22    0.67
  -4   3  18    0.95    0.81
  -4   3  18   -0.10    0.59
   4   3 -18    0.65    0.50
  -4   3  18   -0.40    1.05
   3  -3 -18    1.03    0.76
   3  -3 -18    1.04    0.40
   3  -3 -18    0.87    0.52
  -3   3  18   -0.11    1.05
  -3   3  18   -0.61    0.62
   3   3 -18    0.57    0.42
   3   3 -18    1.02    0.47
  -3   3  18    0.78    0.58
  -3   3  18    0.18    0.60
   2  -3 -18    1.61    0.48
   2  -3 -18    0.28    0.46
   2  -3 -18    2.76    0.78
  -2   3  18    0.65    0.64
  -2   3  18    1.27    0.65
  -2   3  18    0.80    0.54
  -2   3  18    1.69    1.13
   2   3 -18    0.92    0.40
   2   3 -18    1.47    0.48
   1  -3 -18    0.55    0.39
   1  -3 -18    0.94    0.49
   1  -3 -18    0.86    0.70
  -1  -3  18    0.52    0.57
   1   3 -18    0.66    0.39
   1   3 -18    1.29    0.40
  -1   3  18    0.69    0.61
  -1   3  18    0.48    0.64
  -1   3  18    1.86    0.54
   0  -3  18    3.35    0.66
   0  -3 -18    2.59    0.53
   0  -3 -18    3.30    0.65
   0  -3 -18    5.39    0.95
   0   3  18    6.00    1.28
   0   3  18    1.70    0.54
   0   3  18    2.33    0.69
   0   3 -18    4.72    0.71
   0   3  18    3.56    0.77
   1  -3  18    3.70    0.75
  -1  -3 -18    3.60    1.10
  -1  -3 -18    2.78    0.88
  -1  -3 -18    2.91    0.63
  -1  -3 -18    3.34    0.55
   1   3  18    2.91    0.60
   1   3  18    5.00    1.44
   1   3  18    3.83    0.75
  -1   3 -18    4.87    0.76
  -1   3 -18    4.06    0.68
  -2  -3 -18    3.73    1.13
  -2  -3 -18    3.34    0.58
   2  -3  18    3.14    0.74
  -2  -3 -18    4.72    1.00
   2   3  18    3.57    0.74
  -2   3 -18    2.86    0.55
   2   3  18    3.54    0.63
  -2   3 -18    3.82    0.68
   3  -3  18    2.48    0.67
   3  -3  18    3.64    0.81
  -3  -3 -18    1.86    0.50
   3   3  18    2.32    0.59
   3   3  18    3.40    0.72
  -3   3 -18    3.62    0.74
  -3   3 -18    2.99    0.62
  -4  -3 -18    0.30    0.45
   4  -3  18    0.66    0.77
   4  -3  18   -0.96    0.68
   4   3  18   -0.52    0.53
   4   3  18    0.30    0.61
  -4   3 -18    0.66    0.60
  -4   3 -18   -0.26    0.69
   5  -3  18    0.44    0.84
  -5  -3 -18    0.33    0.43
   5   3  18    0.41    0.80
   5   3  18   -0.31    0.57
   6  -3  18    3.46    1.12
  -6  -3 -18    1.61    0.53
   6   3  18    2.67    0.72
   6   3  18    1.62    0.90
   7  -3  18    1.07    1.13
   9  -4 -18   15.41    1.56
   9  -4 -18   12.07    2.01
  -9   4  18   17.29    2.54
   9   4 -18   17.13    1.75
  -9   4  18   16.53    3.08
   8  -4 -18    3.56    1.08
   8  -4 -18    2.36    0.79
  -8   4  18    2.87    1.24
  -8   4  18    3.27    1.68
   8   4 -18    3.55    0.81
   7  -4 -18   16.73    1.61
   7  -4 -18   13.35    1.31
  -7   4  18   15.34    2.42
  -7   4  18   16.75    2.01
   7   4 -18   13.16    1.32
   6  -4 -18    0.18    0.46
   6  -4 -18    0.28    0.76
   6   4 -18   -1.00    0.45
  -6   4  18    0.89    0.62
  -6   4  18    0.38    1.12
  -6   4  18    1.71    0.93
   5  -4 -18   -0.08    0.68
   5   4 -18   -0.04    0.46
   5   4 -18    1.64    0.65
  -5   4  18    3.20    1.45
  -5   4  18    1.52    1.02
  -5   4  18    0.73    0.67
  -5   4  18    0.59    0.89
   4  -4 -18   18.12    1.51
   4  -4 -18   15.68    1.32
   4  -4 -18   15.79    2.17
  -4   4  18   15.93    1.52
  -4   4  18   12.67    2.01
  -4   4  18   18.47    1.85
   4   4 -18   14.34    1.44
  -4   4  18   12.26    1.60
   4   4 -18   13.69    1.22
   3  -4 -18    0.57    0.57
   3  -4 -18    0.49    0.46
   3  -4 -18    1.45    1.04
   3   4 -18    0.40    0.45
   3   4 -18    0.90    0.60
  -3   4  18   -2.32    1.27
  -3   4  18    0.95    0.66
  -3   4  18   -0.02    0.79
   2  -4 -18    2.71    0.65
   2  -4 -18    2.32    0.62
   2  -4 -18    3.07    1.08
  -2   4  18    2.99    0.76
  -2   4  18    2.85    0.87
  -2   4  18    4.43    1.45
   2   4 -18    1.83    0.50
   2   4 -18    4.10    0.62
   1  -4 -18    2.60    1.07
   1  -4 -18    3.22    0.62
   1  -4 -18    6.17    1.00
  -1   4  18    3.74    0.73
  -1   4  18    4.64    0.90
   1   4 -18    4.80    0.74
  -1   4  18    3.19    1.39
   0  -4  18   -0.47    1.09
   0  -4 -18   -0.15    0.41
   0  -4 -18   -1.90    1.03
   0  -4 -18    0.37    0.62
   0   4  18   -0.62    1.51
   0   4  18    0.02    0.58
   0   4 -18    0.42    0.43
   0   4  18    0.41    0.71
   0   4 -18    0.04    0.41
  -1  -4 -18    1.86    0.51
   1  -4  18    3.87    0.98
   1   4  18    3.77    1.72
   1   4  18    1.67    0.65
  -1   4 -18    1.58    0.50
   1   4  18    1.44    0.76
  -2  -4 -18    0.64    0.46
   2  -4  18    0.33    0.87
  -2   4 -18    0.13    0.51
   2   4  18    0.68    0.63
   2   4  18   -0.51    0.60
   3  -4  18    3.55    1.03
  -3  -4 -18    2.34    0.59
   3   4  18    2.85    0.74
   3   4  18    3.46    0.90
  -4  -4 -18    6.98    0.86
   4  -4  18    6.43    1.27
  -4   4 -18    5.69    0.93
   4   4  18    7.96    1.31
   4   4  18    8.66    1.35
   5  -4  18    2.65    1.27
  -5  -4 -18    1.42    0.72
   5   4  18    0.82    0.76
   5   4  18    0.83    0.92
   7  -5 -18   -0.27    0.57
   7  -5 -18   -0.86    1.05
  -7   5  18    2.64    1.70
  -7   5  18    0.45    1.29
   6  -5 -18    2.51    1.04
   6  -5 -18    2.14    0.67
  -6   5  18    2.31    1.41
  -6   5  18    1.02    1.19
   5  -5 -18    1.76    0.67
   5  -5 -18    1.81    0.83
  -5   5  18    3.55    1.37
  -5   5  18    4.38    1.21
   5   5 -18    2.86    0.66
  -5   5  18    4.02    1.17
   4  -5 -18    4.07    0.97
  -4   5  18    1.75    1.21
  -4   5  18    4.51    1.22
   4   5 -18    3.32    0.63
  -4   5  18    2.72    1.04
   3  -5 -18    0.35    0.53
   3  -5 -18    0.62    0.76
  -3   5  18    0.10    1.00
  -3   5  18    1.42    1.21
   3   5 -18   -0.98    0.52
  -3   5  18   -0.73    0.91
   2  -5 -18    0.54    0.70
  -2   5  18    1.23    0.96
  -2   5  18    1.04    0.89
  -1   5  18    3.74    1.04
  -1   5  18    2.97    0.86
   0  -5 -18    8.00    1.03
   0   5  18    7.16    1.04
   0   5  18    8.70    1.21
   1   5  18    9.66    1.38
   1   5  18   10.09    1.57
  -2  -5 -18    0.12    0.58
   2   5  18   -0.12    0.75
   2   5  18    0.87    0.92
  -3  -5 -18    0.15    0.55
   3  -5  18    0.98    1.44
   3   5  18   -1.07    0.82
   3   5  18    0.83    0.95
  12   0 -19    0.19    1.16
 -12   0  19   -0.15    1.06
 -11   0  19   -1.25    0.81
  11   0 -19    1.65    0.95
  10   0 -19    0.80    0.69
 -10   0  19    1.07    0.71
  10   0 -19   -0.63    1.22
   9   0 -19   -0.27    1.03
   9   0 -19   -0.74    0.58
  -9   0  19   -0.08    0.62
  -9   0  19   -0.31    1.13
  -8   0  19   -0.29    0.99
   8   0 -19   -1.47    0.70
  -8   0  19   -0.43    0.53
   8   0 -19   -1.56    0.97
   8   0 -19   -0.59    0.53
  -8   0  19    0.06    0.49
   7   0 -19    0.36    0.56
   7   0 -19   -0.19    0.61
  -7   0  19   -0.49    0.87
  -7   0  19    0.39    0.51
  -7   0  19   -0.30    0.47
   7   0 -19   -0.32    0.86
  -7   0  19   -0.24    0.90
  -6   0  19    0.01    0.42
  -6   0  19    0.89    0.81
  -6   0  19   -0.79    0.83
   6   0 -19    0.19    0.59
  -6   0  19    0.22    0.45
   5   0 -19   -0.35    0.43
  -5   0  19    0.54    0.43
   5   0 -19    0.19    0.53
  -5   0  19   -0.15    0.81
  -5   0  19   -0.11    0.33
  -5   0  19   -0.09    0.66
  -4   0  19   -0.13    0.86
   4   0 -19    0.07    0.46
  -4   0  19   -0.11    0.43
  -4   0  19    0.70    0.56
   4   0 -19    0.48    0.35
  -4   0  19    0.34    0.33
   4   0 -19    0.10    0.53
  -3   0  19    0.15    0.18
   3   0 -19    0.07    0.50
  -3   0  19   -0.65    0.47
   3   0 -19   -0.36    0.29
  -3   0  19    0.17    0.30
   3   0 -19   -0.56    0.33
  -2   0  19    0.21    0.27
   2   0 -19   -0.35    0.32
   2   0 -19    0.22    0.49
  -2   0  19   -0.03    0.47
  -2   0  19    0.22    0.19
   2   0 -19    0.09    0.30
  -1   0  19   -0.50    0.40
  -1   0  19    0.23    0.21
   1   0 -19    0.10    0.39
   1   0 -19   -0.28    0.46
   1   0 -19   -0.14    0.34
  -1   0  19    0.01    0.27
   0   0  19   -0.15    0.28
   0   0  19    0.17    0.25
   0   0  19   -0.41    0.39
   0   0 -19   -0.59    0.33
   0   0 -19    0.19    0.47
   0   0  19    0.73    0.81
   0   0 -19    0.10    0.59
   0   0  19   -0.02    0.41
  -1   0 -19    0.43    0.43
   1   0  19    0.09    0.24
  -1   0 -19   -0.59    0.52
   1   0  19    0.24    0.29
   1   0  19   -0.05    0.42
   1   0  19    0.72    0.41
   1   0  19    0.09    0.80
  -1   0 -19   -0.70    0.57
   2   0  19    0.07    0.30
  -2   0 -19    1.13    0.60
   2   0  19   -0.27    0.28
  -2   0 -19   -0.24    0.42
   2   0  19   -0.73    0.42
  -2   0 -19   -0.24    0.62
   2   0  19    0.11    0.41
  -3   0 -19    1.00    0.67
   3   0  19    0.50    0.44
   3   0  19   -0.20    0.32
  -3   0 -19    0.60    0.59
   3   0  19   -0.44    0.46
   4   0  19   -0.20    0.36
   4   0  19   -0.31    0.54
  -4   0 -19   -0.97    0.71
   5   0  19    0.02    0.45
   5   0  19   -0.41    0.66
  -5   0 -19   -0.22    0.96
   5   0  19    0.38    0.48
   5   0  19    2.00    0.63
   6   0  19    0.04    0.77
   6   0  19    0.60    0.77
  -6   0 -19    0.81    1.06
   6   0  19    0.78    0.60
   6   0  19   -0.52    0.50
   7   0  19    0.35    0.65
   7   0  19    1.42    1.07
   7   0  19   -0.51    0.65
  11  -1 -19   -0.78    1.62
  11  -1 -19    1.10    0.93
 -11   1  19    1.18    1.14
  11   1 -19    0.75    0.88
  11   1 -19    3.66    1.45
 -10  -1  19    1.54    0.85
 -10  -1  19    0.84    0.70
  10  -1 -19    0.34    1.35
  10  -1 -19    0.84    0.82
 -10   1  19    0.14    0.86
  10   1 -19    1.55    0.86
  10   1 -19    1.41    1.24
  -9  -1  19    1.49    0.47
  -9  -1  19    0.65    0.54
   9  -1 -19    2.60    1.25
   9  -1 -19    0.72    0.74
  -9  -1  19    2.54    1.22
   9   1 -19   -0.41    0.95
   9   1 -19    1.07    0.66
  -9   1  19    0.74    0.73
  -9   1  19   -1.19    0.73
  -9   1  19    1.48    1.29
   8  -1 -19   -0.03    1.07
  -8  -1  19    0.28    0.41
  -8  -1  19   -0.14    0.36
   8  -1 -19    1.05    0.68
  -8  -1  19    0.34    0.96
   8   1 -19   -0.57    0.87
   8   1 -19    0.08    0.62
  -8   1  19    0.32    0.66
  -8   1  19   -0.63    1.08
  -8   1  19    0.22    0.61
  -7  -1  19    0.97    0.35
   7  -1 -19    1.15    0.63
   7  -1 -19    1.52    1.00
  -7  -1  19    3.65    0.90
  -7  -1  19    1.56    0.89
   7  -1 -19    1.45    0.85
  -7  -1  19    1.86    0.42
  -7   1  19    0.89    1.04
  -7   1  19    1.15    0.73
  -7   1  19    1.48    0.59
   7   1 -19    1.44    0.68
   7   1 -19    1.52    0.87
  -7   1  19    2.22    1.02
  -6  -1  19   10.58    0.84
  -6  -1  19    9.39    1.42
   6  -1 -19    8.07    1.39
  -6  -1  19   10.88    0.84
   6  -1 -19   11.13    1.15
   6   1 -19    9.40    1.15
  -6   1  19   13.56    1.64
  -6   1  19   12.68    1.58
  -6   1  19   10.44    1.15
   6   1 -19    8.91    1.22
  -5  -1  19    7.54    1.15
   5  -1 -19    8.92    1.23
   5  -1 -19    7.33    0.77
   5  -1 -19    7.08    0.99
  -5  -1  19    6.97    0.64
  -5  -1  19    7.66    1.06
  -5  -1  19    6.34    0.62
  -5   1  19    7.14    1.10
   5   1 -19    5.64    0.95
  -5   1  19    6.33    0.94
  -5   1  19    6.96    0.93
   5   1 -19    6.29    1.01
  -4  -1  19   10.39    0.75
   4  -1 -19   10.67    0.90
   4  -1 -19    8.84    1.23
  -4  -1  19   11.01    1.13
  -4  -1  19   11.04    0.82
  -4   1  19   11.38    1.33
  -4   1  19    9.55    0.66
  -4   1  19    8.01    1.02
   4   1 -19   10.75    1.03
   4   1 -19    9.87    1.13
  -4   1  19   10.96    1.05
   4   1 -19   11.52    0.87
  -3  -1  19    9.20    0.94
   3  -1 -19    7.34    0.73
  -3  -1  19    7.14    0.59
   3  -1 -19    8.57    0.90
  -3  -1  19    6.91    0.66
  -3  -1  19    6.81    0.69
   3  -1 -19    8.59    1.09
  -3   1  19    8.02    1.09
   3   1 -19    5.52    0.92
  -3   1  19    6.78    0.84
   3   1 -19    7.95    0.67
  -3   1  19    6.41    0.91
   3   1 -19    7.48    0.88
  -2  -1  19    4.73    0.78
  -2  -1  19    5.14    0.46
   2  -1 -19    3.93    0.57
  -2  -1  19    3.72    0.58
  -2  -1  19    4.70    0.59
   2  -1 -19    4.80    0.82
   2  -1 -19    4.46    0.77
  -2   1  19    5.30    0.86
   2   1 -19    5.29    0.85
  -2   1  19    5.28    0.92
   2   1 -19    4.40    0.73
  -2   1  19    4.04    0.58
  -1  -1  19    3.86    0.57
  -1  -1  19    3.65    0.41
   1  -1 -19    4.39    0.74
  -1  -1  19    2.82    0.45
  -1  -1  19    3.82    0.57
   1  -1 -19    3.37    0.57
   1  -1 -19    3.36    0.49
  -1   1  19    3.44    0.52
  -1   1  19    3.18    0.66
  -1   1  19    3.20    0.56
   1   1 -19    3.80    0.67
   1   1 -19    2.68    0.53
   0  -1 -19   -0.01    0.54
   0  -1  19    0.74    0.38
   0  -1  19    0.78    0.25
   0  -1 -19    0.37    0.60
   0  -1 -19    1.27    0.36
   0  -1  19    0.47    0.35
   0  -1  19    0.78    0.32
   0   1  19   -0.06    0.44
   0   1 -19    0.51    0.51
   0   1  19    0.36    0.35
   0   1  19   -0.46    0.42
   0   1 -19    0.89    0.39
   0   1 -19    0.08    0.52
   1  -1  19    9.51    0.81
   1  -1  19    8.83    0.83
  -1  -1 -19    9.43    1.15
  -1  -1 -19    9.78    1.31
   1  -1  19    8.52    0.70
   1  -1  19    8.34    0.89
   1  -1  19    6.31    1.12
  -1  -1 -19    8.44    0.79
  -1  -1 -19    7.61    0.97
  -1   1 -19    9.46    0.95
   1   1  19    9.04    1.04
  -1   1 -19   11.48    0.99
   1   1  19   10.11    0.86
  -1   1 -19    7.11    1.07
  -2  -1 -19    0.86    0.46
  -2  -1 -19    2.22    0.82
  -2  -1 -19    2.47    0.40
  -2  -1 -19    0.76    0.68
   2  -1  19    1.62    0.50
   2  -1  19    1.35    0.40
   2  -1  19    2.84    0.47
   2  -1  19    2.29    0.45
   2   1  19    1.74    0.56
  -2   1 -19    0.86    0.50
  -2   1 -19    2.05    0.49
  -2   1 -19    2.11    0.68
  -3  -1 -19    0.36    0.76
  -3  -1 -19    0.27    0.36
   3  -1  19    1.21    0.45
  -3  -1 -19   -0.77    0.70
   3  -1  19    0.39    0.47
   3  -1  19    0.86    0.34
   3  -1  19    0.47    0.46
   3   1  19    0.81    0.55
   3   1  19    0.17    0.54
   3   1  19    0.63    0.38
   4  -1  19    0.27    0.39
   4  -1  19    0.40    0.60
   4  -1  19    0.63    0.50
  -4  -1 -19    0.07    0.41
  -4  -1 -19    1.34    0.88
   4  -1  19    0.79    0.45
  -4   1 -19   -0.26    0.76
   4   1  19    0.53    0.49
  -4   1 -19    0.21    0.58
   4   1  19    0.24    0.63
   5  -1  19    4.47    0.92
   5  -1  19    5.14    0.80
   5  -1  19    6.86    0.87
   5  -1  19    6.03    0.77
   5   1  19    4.06    0.93
  -5   1 -19    5.54    1.09
   5   1  19    5.37    0.92
   5   1  19    5.23    0.90
   6  -1  19    1.04    0.91
   6  -1  19    1.44    0.70
   6  -1  19    2.15    0.62
   6   1  19    0.60    0.61
   6   1  19    1.38    0.88
  -6   1 -19    0.76    1.05
   7  -1  19    2.30    0.79
   7  -1  19    2.69    1.20
   7  -1  19    1.39    0.78
   7   1  19    1.20    1.05
   7   1  19    1.60    0.75
  11  -2 -19    0.33    1.13
  11  -2 -19    3.92    1.93
 -11   2  19   -0.07    1.31
  11   2 -19    0.76    1.47
  11   2 -19   -1.27    0.90
 -11   2  19    1.29    1.89
 -10  -2  19   10.30    2.23
  10  -2 -19    4.56    1.80
  10  -2 -19    6.17    1.19
 -10   2  19    8.54    1.49
  10   2 -19    6.54    1.57
 -10   2  19    6.55    1.85
  10   2 -19    8.21    1.15
   9  -2 -19    1.16    0.86
  -9  -2  19    2.77    1.21
   9  -2 -19    0.28    1.35
  -9   2  19    1.92    1.47
   9   2 -19    1.10    0.72
   9   2 -19    3.91    1.25
  -9   2  19    1.99    0.92
   8  -2 -19   11.83    1.93
  -8  -2  19   16.79    1.91
   8  -2 -19   14.66    1.54
  -8  -2  19   16.91    2.39
  -8   2  19   14.56    2.22
   8   2 -19   12.94    1.39
   8   2 -19   12.48    1.89
  -8   2  19   12.61    1.61
   7  -2 -19    1.20    0.65
  -7  -2  19    1.08    0.77
   7  -2 -19    0.19    0.54
  -7  -2  19   -0.23    0.75
  -7   2  19    0.75    1.06
  -7   2  19    0.46    0.78
  -7   2  19    0.58    0.67
   6  -2 -19    3.07    0.62
  -6  -2  19    3.00    0.79
  -6  -2  19    2.86    0.76
   6  -2 -19    4.64    1.02
   6  -2 -19    3.59    0.78
  -6   2  19    2.15    0.77
   6   2 -19    1.97    0.67
  -6   2  19    3.22    0.74
   6   2 -19    3.44    0.69
  -6   2  19    2.30    1.26
   5  -2 -19   19.67    1.84
  -5  -2  19   20.54    1.57
   5  -2 -19   19.20    1.60
   5  -2 -19   18.78    1.46
  -5   2  19   19.66    1.26
   5   2 -19   18.57    1.53
  -5   2  19   18.34    1.62
  -5   2  19   21.91    1.96
  -5   2  19   19.78    2.23
  -5   2  19   17.88    1.64
   5   2 -19   21.84    1.63
  -4  -2  19    2.65    0.58
   4  -2 -19    3.09    1.13
   4  -2 -19    1.69    0.45
   4  -2 -19    1.35    0.53
   4   2 -19    1.44    0.51
  -4   2  19    1.97    0.58
   4   2 -19    0.21    0.53
  -4   2  19    1.54    1.01
  -4   2  19    1.64    0.57
  -4   2  19    1.89    0.81
  -3  -2  19   -0.42    0.39
   3  -2 -19    0.54    0.46
   3  -2 -19   -0.07    0.34
   3   2 -19   -0.24    0.38
  -3   2  19   -1.12    0.89
   3   2 -19   -0.14    0.49
  -3   2  19    0.50    0.60
  -3   2  19    0.10    0.48
  -3   2  19    0.49    0.65
   2  -2 -19    0.96    0.39
  -2  -2  19    1.62    0.43
  -2  -2  19    1.19    0.44
  -2  -2  19    1.59    0.68
   2  -2 -19    1.30    0.48
  -2   2  19    1.78    0.99
   2   2 -19    0.70    0.47
  -2   2  19    1.89    0.69
   2   2 -19    2.01    0.45
  -2   2  19    1.24    0.56
  -2   2  19    0.46    0.58
   1  -2 -19   -0.30    0.35
  -1  -2  19    0.75    0.45
   1  -2 -19   -0.13    0.34
  -1  -2  19   -0.49    0.33
  -1   2  19    1.11    0.51
  -1   2  19    0.11    0.58
  -1   2  19   -0.52    0.95
   1   2 -19   -0.16    0.43
   1   2 -19   -0.48    0.36
  -1   2  19   -0.44    0.42
   0  -2 -19   10.86    1.08
   0  -2  19    9.71    1.04
   0  -2 -19    9.47    1.34
   0  -2 -19   11.29    1.43
   0  -2  19   10.65    0.92
   0  -2 -19   11.25    0.92
   0   2  19    9.67    1.03
   0   2  19    8.92    1.15
   0   2 -19   11.21    1.01
   0   2  19    9.38    1.16
   0   2 -19   10.87    1.00
   0   2  19   13.74    1.98
  -1  -2 -19    0.23    0.67
  -1  -2 -19    0.12    0.36
   1  -2  19    0.62    0.45
   1  -2  19    0.28    0.38
   1  -2  19   -0.17    0.77
  -1  -2 -19   -0.91    0.82
  -1  -2 -19    0.41    0.48
   1   2  19    0.48    0.51
  -1   2 -19    0.46    0.39
  -1   2 -19    0.87    0.44
   1   2  19    0.77    0.41
  -1   2 -19    0.37    0.57
   1   2  19    0.23    1.10
  -2  -2 -19    0.18    0.35
  -2  -2 -19    0.23    0.71
   2  -2  19    1.45    0.48
  -2  -2 -19    1.41    0.87
   2  -2  19    1.26    0.49
   2   2  19    0.83    0.50
   2   2  19    0.66    0.59
  -2   2 -19    0.60    0.48
   2   2  19    0.10    0.61
  -2   2 -19    0.22    0.57
  -3  -2 -19   -0.79    0.92
   3  -2  19   -0.15    0.45
   3  -2  19   -0.62    0.52
   3   2  19    0.95    0.65
  -3   2 -19    0.65    0.65
   3   2  19   -0.32    0.54
  -3   2 -19    0.53    0.52
   3   2  19   -0.37    0.46
   4  -2  19    5.12    0.82
  -4  -2 -19    7.94    1.82
   4  -2  19    4.34    0.80
  -4  -2 -19    3.19    0.54
  -4   2 -19    3.54    0.72
   4   2  19    4.08    0.71
   4   2  19    3.34    0.74
  -4   2 -19    3.12    0.88
   5  -2  19    2.33    0.68
   5  -2  19    3.76    0.90
  -5  -2 -19    0.97    0.52
   5   2  19    2.49    0.61
  -5   2 -19    2.18    0.95
   5   2  19    2.00    0.79
   6  -2  19   -0.24    1.04
   6  -2  19   -0.01    0.70
   6   2  19   -0.24    0.91
   6   2  19    0.20    0.61
   7  -2  19    0.24    0.87
   7   2  19   -0.33    0.81
   7   2  19   -1.33    1.04
  10  -3 -19    2.68    1.09
  10  -3 -19    1.25    1.86
 -10   3  19   -0.33    1.33
  10   3 -19   -1.68    0.94
 -10   3  19   -1.41    1.78
  10   3 -19   -0.70    1.39
   9  -3 -19    2.54    1.65
   9  -3 -19    2.07    0.95
   9   3 -19    0.35    0.76
  -9   3  19    2.12    1.13
   9   3 -19    1.80    1.30
  -9   3  19    1.96    1.58
   8  -3 -19    6.06    0.98
   8  -3 -19    5.67    1.12
   8   3 -19    6.92    1.29
   8   3 -19    5.89    0.93
  -8   3  19    6.35    1.20
  -8   3  19    6.20    1.46
   7  -3 -19    1.65    0.84
   7  -3 -19    1.17    0.59
  -7   3  19    2.12    0.89
  -7   3  19    1.17    0.29
  -7   3  19    0.80    1.17
   7   3 -19   -0.30    0.50
   6  -3 -19    0.46    0.65
   6  -3 -19    0.37    0.45
  -6   3  19    0.40    0.38
  -6   3  19    1.51    0.79
  -6   3  19    0.40    1.09
   6   3 -19    0.56    0.51
   5  -3 -19    6.08    0.80
   5  -3 -19    6.85    1.09
   5   3 -19    6.38    0.83
  -5   3  19    5.63    0.83
  -5   3  19    5.02    0.92
   5   3 -19    6.48    1.11
  -5   3  19    4.05    1.45
  -5   3  19    6.44    1.25
   4  -3 -19    0.12    0.95
   4  -3 -19    0.87    0.43
   4  -3 -19    0.44    0.58
   4   3 -19    0.68    0.47
  -4   3  19    1.14    0.58
   4   3 -19    1.00    0.58
  -4   3  19    0.08    0.77
  -4   3  19    1.84    0.89
  -4   3  19    1.17    0.67
  -4   3  19   -0.92    1.17
   3  -3 -19    9.31    1.12
   3  -3 -19    9.74    1.58
   3  -3 -19    8.56    0.91
   3   3 -19    7.83    1.05
  -3   3  19    5.67    1.41
  -3   3  19    8.99    1.36
   3   3 -19    8.97    0.95
  -3   3  19   10.04    1.38
  -3   3  19    8.98    1.21
   2  -3 -19   -0.11    0.34
   2  -3 -19    1.71    0.84
   2  -3 -19    1.13    0.56
  -2   3  19    0.82    1.23
   2   3 -19    0.64    0.51
  -2   3  19    0.47    0.65
   2   3 -19    0.28    0.42
  -2   3  19    0.08    0.64
  -2   3  19    1.02    0.58
  -1  -3  19    3.07    0.71
   1  -3 -19    3.01    0.55
   1  -3 -19    2.56    0.88
   1  -3 -19    3.38    0.74
   1   3 -19    2.98    0.57
  -1   3  19    0.88    1.19
  -1   3  19    2.37    0.75
   1   3 -19    1.98    0.50
  -1   3  19    3.06    0.79
  -1   3  19    2.47    0.56
   0  -3  19   -0.52    0.52
   0  -3 -19    0.33    0.40
   0  -3 -19   -0.01    0.49
   0  -3 -19    2.35    0.95
   0   3  19    0.92    0.83
   0   3  19   -0.58    0.56
   0   3  19    0.18    0.44
   0   3 -19    0.54    0.46
   0   3  19    0.82    1.35
   0   3 -19   -0.17    0.43
  -1  -3 -19    0.22    1.00
  -1  -3 -19   -0.15    0.51
  -1  -3 -19    0.54    0.43
   1  -3  19    0.63    0.66
  -1   3 -19   -0.26    0.44
   1   3  19    1.03    1.52
   1   3  19   -0.14    0.57
  -1   3 -19    0.19    0.44
   1   3  19   -0.52    0.49
   2  -3  19    2.77    0.76
  -2  -3 -19    1.34    0.51
  -2   3 -19    3.26    0.70
   2   3  19    1.93    0.56
  -2   3 -19    2.48    0.57
   2   3  19    2.31    0.71
  -3  -3 -19    0.29    0.37
   3  -3  19   -0.50    0.67
   3  -3  19   -0.47    0.66
   3   3  19    0.08    0.53
  -3   3 -19    0.82    0.69
   3   3  19   -0.04    0.66
   4  -3  19    1.30    0.83
  -4  -3 -19    0.51    0.44
  -4   3 -19    0.41    0.77
   4   3  19    0.86    0.74
   4   3  19    0.83    0.67
   5  -3  19    1.14    0.94
  -5  -3 -19    0.83    0.49
   5   3  19    1.72    0.71
   5   3  19    0.93    0.89
   6  -3  19   -0.83    1.05
  -6  -3 -19    0.76    0.58
   6   3  19   -0.17    0.74
   6   3  19   -0.54    0.99
   9  -4 -19    3.98    0.95
   9  -4 -19    4.56    1.24
   9   4 -19    2.54    0.98
  -9   4  19    7.91    2.18
   8  -4 -19   -0.84    0.94
   8  -4 -19   -0.27    0.62
   8   4 -19   -0.87    0.76
  -8   4  19    0.99    1.59
  -8   4  19    1.10    1.23
   7  -4 -19    1.18    0.97
   7  -4 -19    1.91    0.95
  -7   4  19    1.70    1.41
   7   4 -19    1.12    0.67
  -7   4  19    2.16    1.15
   6  -4 -19    2.27    0.92
   6  -4 -19    2.03    0.53
  -6   4  19    3.72    1.30
  -6   4  19    1.27    0.97
   6   4 -19    2.11    0.61
  -6   4  19    1.70    1.04
   5  -4 -19    1.42    0.50
  -5   4  19    0.35    0.94
   5   4 -19    2.02    0.61
  -5   4  19    1.50    0.74
   5   4 -19    2.73    0.73
  -5   4  19    2.55    1.20
   4  -4 -19    1.35    0.75
   4  -4 -19    2.23    0.65
  -4   4  19    1.69    1.04
   4   4 -19    2.07    0.51
   4   4 -19    2.36    0.68
  -4   4  19    0.27    0.76
  -4   4  19    2.56    0.84
   3  -4 -19    1.26    0.50
   3  -4 -19    1.96    0.65
  -3   4  19   -1.30    1.98
   3   4 -19    1.17    0.50
  -3   4  19    1.37    0.94
  -3   4  19    1.11    0.78
   3   4 -19    1.85    0.61
   2  -4 -19    1.13    0.64
   2  -4 -19   -0.01    0.47
   2   4 -19   -0.15    0.57
  -2   4  19    0.88    0.92
   2   4 -19    0.16    0.45
  -2   4  19    3.05    1.50
  -2   4  19    0.09    0.66
   1  -4 -19   -0.07    0.46
   1  -4 -19   -0.24    0.56
  -1   4  19   -0.47    1.57
  -1   4  19    0.92    0.61
  -1   4  19   -0.93    0.80
   1   4 -19    0.65    0.48
   1   4 -19   -0.50    0.53
   0  -4  19    0.12    0.85
   0  -4 -19    0.52    0.68
   0  -4 -19    0.94    0.51
   0   4  19    1.26    0.76
   0   4 -19    2.04    0.52
   0   4  19    0.69    0.61
   0   4 -19   -0.42    0.48
  -1  -4 -19    7.41    0.86
   1  -4  19    6.90    1.22
  -1   4 -19    6.22    0.84
   1   4  19    8.12    1.24
   1   4  19    8.46    1.36
   2  -4  19   -0.21    0.89
  -2  -4 -19   -0.80    0.43
  -2   4 -19    0.05    0.59
   2   4  19    0.17    0.64
   2   4  19    0.09    0.83
  -3  -4 -19    0.43    0.46
   3  -4  19    0.85    0.99
  -3   4 -19   -1.25    0.73
   3   4  19    1.11    0.80
   3   4  19    0.92    0.74
   4  -4  19   12.16    2.08
  -4  -4 -19   12.27    1.65
   4   4  19    9.10    1.57
   4   4  19   13.57    1.54
   6  -5 -19    0.08    1.05
   6  -5 -19    0.83    0.64
  -6   5  19    1.40    1.28
  -6   5  19    3.29    1.60
   5  -5 -19   -0.07    0.57
   5  -5 -19    0.18    0.87
  -5   5  19   -0.61    1.07
  -5   5  19    0.15    1.27
   4  -5 -19    2.02    0.83
   4  -5 -19    0.57    0.66
  -4   5  19    0.79    1.08
  -4   5  19    0.25    1.21
  -4   5  19    0.50    1.50
   3  -5 -19    1.02    0.78
   3  -5 -19    0.81    0.59
  -3   5  19    1.70    1.09
  -3   5  19   -1.74    1.55
  -3   5  19    1.10    0.92
   2  -5 -19    1.12    0.79
  -2   5  19    2.47    0.95
  -2   5  19    2.18    1.05
   1  -5 -19   -0.42    0.87
  -1   5  19    0.04    0.99
   0  -5 -19    1.04    0.62
   0   5  19    0.56    0.96
   0   5  19   -1.47    0.81
  -1  -5 -19    3.91    0.73
   1   5  19    3.78    1.09
   1   5  19    3.05    0.92
   2  -5  19   -0.72    1.27
  -2  -5 -19   -0.78    0.51
   2   5  19    0.87    0.87
   2   5  19    1.19    1.03
  11   0 -20    1.48    1.02
 -11   0  20    0.44    0.90
  11   0 -20    0.27    1.62
 -10   0  20   -0.16    0.77
  10   0 -20    0.41    0.84
 -10   0  20    1.22    0.74
 -10   0  20    1.66    2.11
  10   0 -20    1.22    1.25
   9   0 -20    0.78    0.81
   9   0 -20    0.65    1.22
  -9   0  20    1.60    1.30
  -9   0  20    1.51    0.72
  -8   0  20    2.45    1.15
  -8   0  20    0.26    0.57
   8   0 -20    0.89    0.70
  -8   0  20    0.02    0.59
   8   0 -20   -0.10    1.07
   7   0 -20    0.52    0.68
   7   0 -20    0.17    0.76
  -7   0  20    1.44    0.94
  -7   0  20    1.05    0.52
  -7   0  20   -0.17    1.60
  -7   0  20    0.64    0.56
  -6   0  20    1.67    0.54
   6   0 -20    1.93    0.75
  -6   0  20    1.91    0.51
  -6   0  20    1.12    0.82
   6   0 -20    1.53    0.61
  -6   0  20    2.05    1.02
  -5   0  20    3.32    1.02
  -5   0  20    3.26    0.81
  -5   0  20    3.39    0.58
   5   0 -20    2.17    0.50
   5   0 -20    2.43    0.72
  -5   0  20    2.03    0.47
  -4   0  20    0.08    0.44
   4   0 -20    1.23    0.65
  -4   0  20    0.31    0.89
   4   0 -20    0.10    0.35
  -4   0  20    0.38    0.61
  -4   0  20    0.01    0.33
   4   0 -20    0.82    0.51
   3   0 -20    5.97    0.63
  -3   0  20    6.43    0.80
   3   0 -20    4.78    0.83
  -3   0  20    5.12    1.06
   3   0 -20    5.76    0.97
  -3   0  20    4.40    0.64
  -3   0  20    5.70    0.51
  -3   0  20    5.92    0.98
  -2   0  20    2.77    0.53
   2   0 -20    3.50    0.46
  -2   0  20    3.35    0.95
  -2   0  20    2.59    0.41
  -2   0  20    3.08    0.44
  -2   0  20    3.12    0.65
   2   0 -20    3.44    0.57
   2   0 -20    2.42    0.69
  -1   0  20   12.10    0.88
  -1   0  20   12.03    1.08
  -1   0  20    9.76    1.61
   1   0 -20   11.89    0.90
  -1   0  20   11.54    1.14
   1   0 -20   11.25    1.07
   1   0 -20   12.49    1.27
  -1   0  20   12.40    0.92
   0   0  20   16.85    1.20
   0   0  20   17.03    1.33
   0   0 -20   18.13    1.51
   0   0 -20   17.88    1.23
   0   0  20   19.49    1.94
   0   0 -20   15.66    1.48
   0   0  20   16.64    1.18
   0   0  20   17.21    1.39
   1   0  20    1.81    0.48
   1   0  20    0.91    0.96
   1   0  20    0.77    0.33
  -1   0 -20    0.15    0.70
   1   0  20    1.44    0.34
   1   0  20    1.07    0.48
  -1   0 -20    1.19    0.36
  -1   0 -20    1.85    0.58
  -1   0 -20    1.02    0.49
  -2   0 -20    6.09    1.01
   2   0  20    5.18    0.87
  -2   0 -20    5.35    0.92
   2   0  20    4.61    0.68
  -2   0 -20    4.36    0.78
   2   0  20    5.26    0.74
   2   0  20    5.84    0.70
  -3   0 -20    3.30    0.89
   3   0  20    2.08    0.48
   3   0  20    2.69    0.54
   3   0  20    2.71    0.67
   4   0  20    0.68    0.50
  -4   0 -20   -0.14    0.94
   4   0  20    0.27    0.64
   4   0  20   -0.16    0.47
   4   0  20   -0.58    0.82
   5   0  20    2.53    0.81
   5   0  20    3.48    0.65
   5   0  20    3.11    0.67
  -5   0 -20    2.52    1.14
  -6   0 -20    1.85    1.39
   6   0  20    0.86    0.65
   6   0  20    0.94    0.66
   6   0  20   -0.06    0.86
   6   0  20   -0.20    0.95
   7   0  20    5.70    1.35
   7   0  20    4.07    0.93
   7   0  20    3.54    0.92
  11  -1 -20    1.07    1.18
  11  -1 -20    0.77    1.83
  11   1 -20    1.46    0.94
  11   1 -20   -0.89    1.49
 -11   1  20   -0.56    1.72
 -11   1  20    0.54    1.05
 -10  -1  20    4.66    0.86
 -10  -1  20    8.98    1.71
  10  -1 -20    5.84    1.21
  10  -1 -20    5.63    1.68
  10   1 -20    7.85    1.60
 -10   1  20    8.34    1.81
  10   1 -20    5.90    1.09
 -10   1  20    5.21    1.04
  -9  -1  20    0.66    0.55
   9  -1 -20    0.50    0.79
  -9  -1  20    1.06    0.58
  -9  -1  20    2.52    1.31
   9  -1 -20   -1.22    1.23
   9   1 -20   -0.58    0.73
  -9   1  20   -0.14    1.31
  -9   1  20   -0.59    0.66
  -9   1  20   -1.42    0.83
   9   1 -20   -2.05    1.07
  -8  -1  20    7.21    0.77
   8  -1 -20    6.60    1.04
   8  -1 -20    8.39    1.54
  -8  -1  20    8.62    1.38
  -8  -1  20    8.26    0.88
   8   1 -20    7.80    1.06
   8   1 -20    3.11    1.74
  -8   1  20    8.07    1.33
   8   1 -20    5.44    1.25
  -8   1  20    6.37    0.94
  -7  -1  20    2.00    0.94
  -7  -1  20    1.77    0.41
  -7  -1  20    1.23    0.38
   7  -1 -20    2.14    0.68
  -7  -1  20   -0.60    0.92
  -7   1  20    1.43    0.67
  -7   1  20    0.55    0.68
   7   1 -20    1.12    0.65
  -7   1  20    2.03    1.05
  -6  -1  20    2.49    0.40
  -6  -1  20    1.27    0.81
   6  -1 -20    2.69    0.62
   6  -1 -20    0.44    0.84
   6  -1 -20    2.22    0.66
  -6  -1  20    1.56    0.92
  -6  -1  20    2.00    0.38
   6   1 -20    2.81    1.10
  -6   1  20    1.82    0.79
  -6   1  20    1.28    1.12
  -6   1  20    3.12    1.02
   6   1 -20    3.43    0.83
  -5  -1  20    1.31    0.36
   5  -1 -20    0.94    0.44
   5  -1 -20    0.83    0.53
  -5  -1  20    0.02    0.81
  -5  -1  20    2.48    0.72
  -5  -1  20    1.23    0.31
   5  -1 -20    2.19    0.78
   5   1 -20    1.03    0.62
  -5   1  20    1.97    0.55
  -5   1  20    0.51    1.07
   5   1 -20    1.47    0.57
  -5   1  20    1.23    0.84
   4  -1 -20   14.81    1.15
   4  -1 -20   16.46    1.33
   4  -1 -20   15.57    1.56
  -4  -1  20   15.56    1.38
  -4  -1  20   17.54    1.70
  -4  -1  20   15.45    1.06
  -4  -1  20   13.09    0.98
  -4   1  20   14.61    1.25
   4   1 -20   15.09    1.09
   4   1 -20   12.72    1.30
  -4   1  20   17.48    1.58
  -4   1  20   11.50    2.03
   4   1 -20   12.95    1.41
   3  -1 -20    0.54    0.37
  -3  -1  20    0.10    0.81
   3  -1 -20   -0.08    0.44
  -3  -1  20   -0.11    0.49
   3  -1 -20    1.55    0.74
  -3  -1  20    0.12    0.22
  -3  -1  20    0.51    0.32
  -3  -1  20    0.39    0.33
  -3   1  20   -0.82    0.47
  -3   1  20    0.31    0.61
   3   1 -20    0.05    0.47
  -3   1  20    0.62    0.41
  -2  -1  20   -0.13    0.31
   2  -1 -20   -0.27    0.43
  -2  -1  20    0.02    0.33
   2  -1 -20    0.32    0.32
  -2  -1  20    0.91    0.77
   2  -1 -20   -0.14    0.69
  -2  -1  20    0.46    0.21
  -2  -1  20   -0.56    0.44
  -2   1  20    0.34    0.35
  -2   1  20    0.85    0.52
   2   1 -20   -0.79    0.46
   2   1 -20    0.12    0.41
  -2   1  20    0.61    0.58
  -1  -1  20    0.19    0.41
  -1  -1  20    0.14    0.24
  -1  -1  20    0.47    0.35
  -1  -1  20    0.26    0.79
  -1  -1  20    0.24    0.31
   1  -1 -20    0.22    0.33
   1  -1 -20   -0.05    0.38
   1  -1 -20   -0.15    0.61
   1   1 -20   -0.27    0.43
   1   1 -20   -0.41    0.46
  -1   1  20   -0.04    0.34
  -1   1  20    1.33    0.49
  -1   1  20    0.10    0.51
   0  -1  20   32.11    2.15
   0  -1  20   34.42    2.19
   0  -1 -20   36.63    2.60
   0  -1  20   34.37    2.08
   0  -1  20   33.20    2.25
   0  -1 -20   36.90    2.33
   0  -1 -20   33.80    2.47
   0  -1 -20   34.57    2.14
   0  -1  20   32.40    2.61
   0   1  20   35.55    2.21
   0   1 -20   34.71    2.32
   0   1  20   32.98    2.36
   0   1 -20   39.74    2.32
   0   1 -20   33.26    2.45
  -1  -1 -20   -1.14    0.65
   1  -1  20    1.33    0.98
  -1  -1 -20   -0.03    0.47
  -1  -1 -20    0.19    0.35
   1  -1  20   -0.13    0.41
   1  -1  20    0.46    0.43
  -1  -1 -20    0.37    0.78
   1  -1  20   -0.15    0.27
   1  -1  20    0.15    0.33
  -1   1 -20   -0.71    0.60
  -1   1 -20    0.07    0.53
  -1   1 -20   -0.06    0.43
   1   1  20    0.37    1.09
   1   1  20   -0.37    0.52
  -2  -1 -20    0.17    0.51
   2  -1  20    0.63    0.33
   2  -1  20    0.75    0.52
  -2  -1 -20    0.25    0.36
  -2  -1 -20    1.94    0.76
   2  -1  20   -0.02    0.39
   2  -1  20    0.52    0.41
  -2  -1 -20    0.05    0.76
  -2   1 -20   -0.74    0.70
  -2   1 -20    2.60    0.65
  -2   1 -20    0.06    0.48
   2   1  20   -0.22    0.51
   2   1  20    0.34    0.54
   2   1  20    0.83    0.41
   3  -1  20    2.77    0.58
  -3  -1 -20    1.66    0.89
   3  -1  20    3.00    0.48
   3  -1  20    2.81    0.64
  -3  -1 -20    3.40    0.56
  -3   1 -20    2.58    0.81
  -3   1 -20    3.25    0.71
   3   1  20    2.70    0.58
   3   1  20    3.10    0.68
   3   1  20    2.61    0.73
  -4  -1 -20    1.26    1.09
   4  -1  20    0.23    0.46
  -4  -1 -20   -0.84    0.39
   4  -1  20    0.89    0.59
   4  -1  20    0.45    0.67
   4  -1  20   -0.03    0.42
   4   1  20    0.69    0.68
   4   1  20   -0.04    0.47
   4   1  20    0.17    0.68
  -4   1 -20    0.38    0.80
   5  -1  20    2.24    0.69
   5  -1  20    3.73    0.67
  -5  -1 -20    0.21    1.95
   5  -1  20    3.63    0.90
   5  -1  20    4.34    0.73
  -5   1 -20    3.34    1.15
   5   1  20    2.92    0.62
   5   1  20    2.08    0.82
   6  -1  20    1.77    1.07
   6  -1  20    0.93    0.67
   6  -1  20    1.22    0.67
   6   1  20   -0.48    0.88
   6   1  20    0.66    0.74
   7  -1  20    2.74    1.46
   7  -1  20    0.62    0.86
   7  -1  20    0.16    0.87
   7   1  20    1.71    0.84
   7   1  20    0.95    1.15
  11  -2 -20   -4.08    2.30
  11   2 -20    1.60    1.67
  11   2 -20   -0.04    1.01
  10  -2 -20    2.06    1.69
  10  -2 -20    0.51    1.02
 -10   2  20    0.14    1.12
  10   2 -20    1.84    0.90
 -10   2  20    0.42    1.66
  10   2 -20    1.11    1.42
  -9  -2  20    0.80    1.30
   9  -2 -20   -0.30    0.85
   9  -2 -20   -0.18    1.51
   9   2 -20   -0.46    1.16
  -9   2  20   -0.86    1.41
  -9   2  20   -0.09    0.93
   9   2 -20   -0.32    0.66
  -8  -2  20    0.71    1.02
   8  -2 -20   -0.26    0.72
  -8   2  20    0.11    0.81
   8   2 -20   -0.23    0.61
  -8   2  20   -0.68    1.33
   8   2 -20    0.06    1.03
   7  -2 -20    0.56    0.52
  -7  -2  20    0.39    0.84
   7  -2 -20    0.23    0.64
  -7  -2  20    2.34    0.89
   7   2 -20   -1.47    0.72
  -7   2  20    1.91    1.14
  -7   2  20    0.33    0.70
  -7   2  20    0.89    0.82
  -6  -2  20   20.02    1.76
  -6  -2  20   21.81    1.80
   6  -2 -20   19.92    1.76
   6  -2 -20   19.24    1.57
   6   2 -20   19.70    1.81
  -6   2  20   22.43    1.84
  -6   2  20   23.33    2.24
   6   2 -20   18.57    1.62
  -6   2  20   18.59    1.74
   5  -2 -20    0.17    0.87
  -5  -2  20   -0.43    0.72
   5  -2 -20   -0.29    0.54
  -5  -2  20   -0.18    0.56
   5  -2 -20    0.08    0.39
  -5   2  20    1.70    1.22
   5   2 -20    0.55    0.59
  -5   2  20    0.60    0.63
  -5   2  20    0.93    0.61
   5   2 -20    0.43    0.52
  -5   2  20    0.19    0.29
   4  -2 -20    1.16    0.62
  -4  -2  20    0.52    0.51
   4  -2 -20    1.21    0.73
   4  -2 -20    0.14    0.37
  -4  -2  20   -0.11    0.75
  -4   2  20    1.04    0.67
   4   2 -20   -0.19    0.62
  -4   2  20    0.66    1.07
  -4   2  20    0.86    0.77
   4   2 -20    0.50    0.48
  -4   2  20    1.66    0.65
   3  -2 -20    0.16    0.53
  -3  -2  20   -0.10    0.42
   3  -2 -20   -0.05    0.34
   3  -2 -20    0.13    0.78
  -3   2  20    0.73    0.60
  -3   2  20    0.43    0.72
  -3   2  20    0.12    0.57
   3   2 -20    0.73    0.51
   3   2 -20    1.25    0.61
  -2  -2  20    4.29    0.75
   2  -2 -20    4.41    0.75
   2  -2 -20    6.03    0.71
  -2  -2  20    5.84    0.85
   2  -2 -20    7.48    1.13
   2   2 -20    4.68    0.70
  -2   2  20    5.01    0.87
  -2   2  20    6.57    1.36
  -2   2  20    5.66    0.86
   1  -2 -20   15.43    1.67
  -1  -2  20   19.74    1.75
  -1  -2  20   16.51    1.24
   1  -2 -20   14.74    1.39
  -1  -2  20   17.45    1.34
   1  -2 -20   16.83    1.25
   1   2 -20   17.77    1.33
  -1   2  20   17.98    1.34
   1   2 -20   15.31    1.36
  -1   2  20   13.47    1.78
  -1   2  20   16.06    1.45
  -1   2  20   15.67    1.54
   0  -2  20    3.11    0.59
   0  -2 -20    1.67    0.89
   0  -2  20    1.56    0.47
   0  -2 -20    2.59    0.58
   0  -2 -20    1.45    0.46
   0  -2  20    3.26    0.88
   0   2 -20    2.37    0.59
   0   2  20    1.60    0.66
   0   2 -20    2.71    0.56
   0   2  20    3.97    1.26
   0   2  20    1.61    0.52
  -1  -2 -20    7.76    1.26
  -1  -2 -20    8.54    1.12
  -1  -2 -20    9.61    0.87
   1  -2  20    9.55    1.06
   1  -2  20    9.61    0.98
   1   2  20    8.42    0.98
  -1   2 -20    8.19    1.03
   1   2  20    8.38    1.67
   1   2  20    8.87    1.22
   1   2  20    7.88    1.16
  -1   2 -20    8.90    1.26
  -1   2 -20    9.18    1.01
  -2  -2 -20   -1.34    0.93
  -2  -2 -20   -0.06    0.36
   2  -2  20    0.21    0.53
   2  -2  20    0.76    0.97
   2  -2  20    0.56    0.54
   2   2  20    0.53    0.59
  -2   2 -20    0.39    0.66
   2   2  20    0.04    0.51
   2   2  20   -0.03    0.61
  -2   2 -20    0.11    0.57
  -3  -2 -20    2.18    1.08
  -3  -2 -20    2.40    0.46
   3  -2  20    2.69    0.66
   3  -2  20    1.20    0.66
   3   2  20    1.90    0.72
   3   2  20    1.55    0.58
  -3   2 -20    0.77    0.65
  -3   2 -20    1.87    0.78
   4  -2  20    3.16    0.86
   4  -2  20    3.67    0.79
  -4  -2 -20    5.62    0.67
   4   2  20    4.10    0.70
  -4   2 -20    4.98    1.05
   4   2  20    4.18    0.92
   5  -2  20   -0.64    0.65
   5  -2  20    0.37    0.92
  -5  -2 -20    0.23    0.44
   5   2  20   -0.01    0.61
   5   2  20    1.14    0.84
   6  -2  20    0.65    0.86
   6   2  20    0.33    0.71
   6   2  20   -0.24    0.99
  10  -3 -20   -0.62    0.69
  10  -3 -20    1.12    1.95
  10   3 -20    1.49    1.00
   9  -3 -20   -0.28    1.08
   9  -3 -20    0.56    0.68
   9   3 -20    1.13    1.36
   9   3 -20    0.02    0.78
  -9   3  20   -0.14    1.55
  -9   3  20    0.84    1.21
   8  -3 -20   -0.05    0.87
   8  -3 -20    0.44    0.49
  -8   3  20    0.44    0.88
  -8   3  20    0.93    1.44
   8   3 -20   -0.75    0.62
   7  -3 -20    0.15    0.71
   7  -3 -20   -0.35    0.46
  -7   3  20   -0.28    0.88
   7   3 -20   -0.75    0.57
  -7   3  20   -1.19    1.22
   7   3 -20   -0.45    0.85
   6  -3 -20    0.46    0.49
   6  -3 -20    0.78    0.74
   6   3 -20    1.00    0.79
  -6   3  20   -0.07    0.82
  -6   3  20    0.01    0.35
   6   3 -20    0.49    0.60
  -6   3  20   -0.87    1.06
   5  -3 -20   -0.39    0.42
   5  -3 -20    0.58    0.61
  -5   3  20    0.50    0.74
   5   3 -20    2.04    0.74
  -5   3  20   -0.16    0.49
   5   3 -20   -0.10    0.57
  -5   3  20    1.61    1.00
   4  -3 -20    0.14    0.42
   4  -3 -20   -0.09    0.59
  -4   3  20    1.27    0.91
  -4   3  20   -0.61    0.58
   4   3 -20    1.30    0.67
   4   3 -20    0.41    0.48
   3  -3 -20    4.58    0.82
   3  -3 -20    4.39    0.73
   3   3 -20    4.60    0.68
  -3   3  20    5.01    0.82
  -3   3  20    4.18    0.93
   3   3 -20    5.12    0.81
  -3   3  20    3.20    1.46
   2  -3 -20    1.08    0.49
   2  -3 -20    1.06    0.55
   2   3 -20    1.57    0.60
  -2   3  20    1.16    0.73
  -2   3  20    1.07    0.58
  -2   3  20    2.02    1.40
   2   3 -20    1.14    0.50
   1  -3 -20    0.26    0.41
   1  -3 -20    0.09    0.58
  -1  -3  20    0.04    0.66
  -1   3  20   -0.78    1.38
  -1   3  20   -0.38    0.51
  -1   3  20    0.25    0.68
   1   3 -20    0.87    0.53
   1   3 -20   -0.27    0.42
   0  -3 -20   -0.39    0.54
   0  -3 -20    0.40    0.47
   0  -3  20   -0.06    0.61
   0   3  20   -0.01    0.67
   0   3 -20   -1.03    0.52
   0   3 -20    1.32    0.53
   0   3  20   -0.26    0.54
  -1  -3 -20    8.40    1.19
  -1  -3 -20    8.61    0.89
   1  -3  20    9.43    1.35
   1   3  20   11.65    1.20
   1   3  20    9.19    1.28
  -1   3 -20    6.80    1.06
   2  -3  20    1.75    0.80
   2  -3  20    0.37    0.60
  -2  -3 -20    0.49    0.44
   2  -3  20    0.66    1.02
   2   3  20    0.75    0.74
  -2   3 -20   -1.19    0.69
  -2   3 -20   -0.32    0.61
   2   3  20    0.60    0.61
  -3  -3 -20   -0.22    0.40
   3  -3  20    0.86    0.86
   3   3  20    0.08    0.67
   3   3  20    0.50    0.69
  -3   3 -20    0.64    0.69
  -4  -3 -20    0.09    0.49
   4  -3  20    1.65    0.95
   4   3  20    0.25    0.63
   4   3  20    0.25    0.82
  -5  -3 -20    0.29    0.51
   5  -3  20    1.32    1.05
   5   3  20    1.64    0.74
   5   3  20   -1.36    0.88
   8  -4 -20    2.81    1.15
   8  -4 -20    2.48    0.73
   8   4 -20    1.55    0.82
  -8   4  20    3.59    1.30
  -8   4  20    0.44    1.71
   7  -4 -20   -1.22    0.93
   7  -4 -20    0.26    0.55
  -7   4  20   -1.30    1.08
   7   4 -20   -0.50    0.65
  -7   4  20    1.88    1.57
   6  -4 -20    1.15    0.59
   6  -4 -20    1.50    0.94
  -6   4  20    1.16    1.04
   6   4 -20    0.49    0.90
   6   4 -20    0.49    0.66
  -6   4  20    0.69    1.40
   5  -4 -20    1.05    0.56
   5  -4 -20    1.89    0.87
  -5   4  20    0.94    0.94
   5   4 -20    2.16    0.68
  -5   4  20    2.67    1.22
  -5   4  20    1.10    1.00
   5   4 -20    3.02    0.89
   4  -4 -20    5.51    0.91
   4  -4 -20    5.57    0.96
   4   4 -20    7.20    0.99
  -4   4  20    5.34    1.25
  -4   4  20    7.82    1.23
   4   4 -20    5.62    0.79
   3  -4 -20    4.44    0.89
   3  -4 -20    2.53    0.64
  -3   4  20    3.01    1.02
   3   4 -20    4.77    0.81
   3   4 -20    3.84    0.65
  -3   4  20    5.31    0.98
   2  -4 -20    0.36    0.50
   2  -4 -20   -0.08    0.73
  -2   4  20   -0.19    0.87
   2   4 -20    0.11    0.51
   2   4 -20   -0.40    0.66
  -2   4  20    0.89    0.75
   1  -4 -20    2.07    0.58
   1  -4 -20   -0.05    0.68
  -1   4  20    0.98    0.68
  -1   4  20   -0.07    0.80
   1   4 -20    0.90    0.64
   1   4 -20    2.46    0.59
   0  -4 -20    0.50    0.80
   0  -4  20    0.40    0.93
   0  -4 -20    0.54    0.52
   0   4 -20    1.68    0.66
   0   4  20    0.23    0.79
   0   4  20    0.25    0.64
   0   4 -20    0.38    0.57
   1  -4  20    2.13    1.04
  -1  -4 -20    0.32    0.47
   1   4  20    0.39    0.74
  -1   4 -20   -0.09    0.63
   1   4  20   -0.31    0.82
  -2  -4 -20    0.84    0.52
   2  -4  20    0.53    1.02
  -2   4 -20    0.90    0.74
   2   4  20    0.87    0.76
   2   4  20    2.69    0.93
  -3  -4 -20    3.59    0.76
   3  -4  20    3.44    1.21
   3   4  20    3.28    0.95
  -3   4 -20    5.80    1.09
   3   4  20    4.51    1.05
   4  -4  20    0.38    1.25
  -4  -4 -20    0.85    0.58
   4   4  20    0.07    0.99
   5  -5 -20   -0.03    0.62
   5  -5 -20    0.76    0.93
  -5   5  20    0.13    1.30
  -5   5  20    1.61    1.39
   4  -5 -20   -0.71    0.62
   4  -5 -20    0.52    0.98
  -4   5  20   -1.02    1.22
  -4   5  20    1.20    1.05
   3  -5 -20    0.25    0.55
   3  -5 -20   -0.18    0.84
  -3   5  20    0.25    1.02
  -3   5  20    0.94    1.19
   2  -5 -20    0.69    0.89
   2  -5 -20    0.57    0.64
  -2   5  20    0.42    0.94
  -2   5  20    2.80    1.16
   1  -5 -20    2.07    0.72
  -1   5  20    1.28    1.06
  -1   5  20    2.52    0.96
   0  -5 -20   -0.24    0.52
   0   5  20    1.11    0.80
   0   5  20   -0.18    1.03
  -1  -5 -20    0.78    0.64
   1   5  20   -0.91    1.23
  11   0 -21   -0.57    1.03
 -11   0  21    4.01    2.06
  11   0 -21   -1.55    2.01
 -11   0  21    0.64    0.93
 -10   0  21    1.56    1.66
  10   0 -21   -1.76    1.50
 -10   0  21    1.41    0.83
  10   0 -21   -0.61    0.91
  -9   0  21   -0.22    0.69
   9   0 -21   -0.24    0.82
  -9   0  21   -0.32    0.75
   9   0 -21   -1.09    1.19
  -9   0  21    2.16    1.42
   8   0 -21    0.46    0.68
  -8   0  21    0.38    1.16
   7   0 -21   -0.67    0.62
  -7   0  21   -0.38    0.96
  -7   0  21    0.36    0.58
  -7   0  21    0.19    0.50
  -6   0  21    0.26    0.43
  -6   0  21    0.40    0.55
   6   0 -21    0.37    0.74
   6   0 -21   -0.22    0.60
   6   0 -21    0.17    0.45
  -6   0  21   -0.78    0.83
   5   0 -21   -0.58    0.41
   5   0 -21   -0.19    0.50
  -5   0  21    0.74    1.01
   5   0 -21    0.15    0.83
  -5   0  21    1.03    0.40
  -5   0  21    0.60    0.51
  -5   0  21   -0.10    0.70
  -4   0  21   -1.72    0.98
  -4   0  21   -0.24    0.63
   4   0 -21   -0.03    0.53
  -4   0  21    0.19    0.48
   4   0 -21    1.17    0.75
   4   0 -21   -0.21    0.35
  -4   0  21    0.24    0.34
  -3   0  21    0.34    0.55
   3   0 -21    0.11    0.61
  -3   0  21   -0.50    0.93
   3   0 -21    0.07    0.36
  -3   0  21    1.29    0.52
   3   0 -21   -0.03    0.53
  -3   0  21    0.62    0.26
  -3   0  21   -0.27    0.32
  -2   0  21   -0.05    0.52
   2   0 -21    0.13    0.45
   2   0 -21    0.73    0.42
  -2   0  21    0.11    0.93
   2   0 -21    0.69    0.64
  -2   0  21    0.36    0.47
  -2   0  21    0.22    0.25
  -2   0  21   -0.09    0.32
  -1   0  21   -0.01    0.26
  -1   0  21   -0.10    0.48
   1   0 -21   -0.08    0.60
  -1   0  21    0.21    0.97
   1   0 -21   -0.04    0.35
  -1   0  21   -0.68    0.48
   1   0 -21   -0.20    0.41
  -1   0  21   -0.25    0.31
   0   0  21    0.60    1.07
   0   0  21   -0.07    0.33
   0   0  21    0.73    0.52
   0   0 -21    0.08    0.71
   0   0 -21    1.23    0.50
   0   0 -21    0.08    0.67
   0   0  21   -0.02    0.48
   0   0  21    0.13    0.30
   0   0 -21    0.07    0.34
   1   0  21    3.40    1.21
  -1   0 -21   -0.76    0.79
  -1   0 -21    0.12    0.32
   1   0  21   -0.23    0.48
   1   0  21    0.47    0.33
  -1   0 -21    0.30    0.46
   1   0  21   -0.21    0.49
   1   0  21   -0.04    0.34
  -1   0 -21    0.32    0.63
   2   0  21    0.24    0.50
  -2   0 -21    0.67    0.83
   2   0  21   -0.14    0.37
   2   0  21    0.58    0.56
  -2   0 -21    0.27    0.52
   3   0  21   -0.22    0.45
   3   0  21    0.81    0.61
  -3   0 -21   -0.53    0.88
   3   0  21   -0.33    0.39
   4   0  21    2.09    0.75
   4   0  21    0.91    0.69
  -4   0 -21    1.61    1.06
   4   0  21   -0.25    0.47
   5   0  21    0.16    0.86
  -5   0 -21   -0.17    1.21
   5   0  21   -0.27    0.51
   5   0  21    1.24    0.63
   6   0  21   -0.99    1.07
   6   0  21    0.32    0.67
   6   0  21    0.74    0.70
  11   1 -21    0.16    0.92
 -10  -1  21    5.27    0.81
 -10  -1  21    3.03    1.73
  10  -1 -21    2.46    1.03
 -10   1  21    3.96    1.12
 -10   1  21    3.50    1.76
  10   1 -21    3.89    0.96
  10   1 -21    3.34    1.60
  -9  -1  21    6.27    0.97
   9  -1 -21    5.74    1.61
   9  -1 -21    4.35    1.14
  -9  -1  21    5.65    1.44
  -9   1  21    3.07    0.97
   9   1 -21    3.51    0.98
   9   1 -21    5.18    1.50
  -9   1  21    6.43    1.64
  -8  -1  21    0.93    0.47
   8  -1 -21    0.83    0.76
  -8  -1  21   -0.37    1.08
  -8  -1  21   -0.27    0.39
  -8   1  21   -0.49    0.79
  -8   1  21    0.69    0.75
   8   1 -21   -0.76    0.64
  -8   1  21   -0.18    1.26
  -7  -1  21   -0.32    0.37
  -7  -1  21   -0.45    0.35
  -7  -1  21   -0.69    0.89
   7  -1 -21    0.14    0.65
   7   1 -21   -0.04    0.63
  -7   1  21    1.81    1.07
  -7   1  21    0.27    0.76
   7   1 -21   -0.20    0.81
  -7   1  21   -0.54    0.57
   6  -1 -21    1.69    0.73
   6  -1 -21    2.95    0.63
  -6  -1  21    3.25    0.88
  -6  -1  21    2.07    0.39
  -6  -1  21    2.52    0.43
  -6   1  21    2.26    0.66
   6   1 -21    3.03    0.77
  -6   1  21    3.08    1.11
   6   1 -21    3.60    0.93
  -6   1  21    3.10    0.72
  -5  -1  21   -0.30    0.34
  -5  -1  21    0.10    0.65
  -5  -1  21   -0.23    0.89
   5  -1 -21    0.27    0.82
   5  -1 -21    0.22    0.41
  -5  -1  21    0.10    0.28
   5  -1 -21   -0.31    0.57
   5   1 -21   -0.01    0.43
  -5   1  21   -0.41    1.25
  -5   1  21    1.72    0.90
  -5   1  21    0.19    0.55
   5   1 -21    1.37    0.68
  -4  -1  21    6.91    1.08
   4  -1 -21    6.47    0.72
  -4  -1  21    5.02    0.54
   4  -1 -21    4.14    0.90
   4  -1 -21    5.04    0.82
  -4  -1  21    8.76    1.56
  -4  -1  21    5.04    0.63
  -4   1  21    3.90    1.31
  -4   1  21    5.05    0.94
   4   1 -21    5.48    0.80
   4   1 -21    4.62    0.89
   4   1 -21    4.63    0.69
  -3  -1  21    0.23    0.24
   3  -1 -21   -0.19    0.70
  -3  -1  21    0.36    0.36
   3  -1 -21   -0.51    0.47
  -3  -1  21    0.64    0.95
  -3  -1  21   -0.38    0.53
  -3  -1  21    0.09    0.31
   3  -1 -21    0.42    0.37
  -3   1  21   -0.62    1.03
   3   1 -21    0.90    0.66
  -3   1  21   -0.18    0.39
   3   1 -21   -0.90    0.41
  -3   1  21   -0.32    0.60
  -3   1  21    0.22    0.22
   2  -1 -21   -1.48    0.68
  -2  -1  21   -0.04    0.23
   2  -1 -21   -0.03    0.48
  -2  -1  21   -0.41    0.47
   2  -1 -21   -0.35    0.34
  -2  -1  21   -0.03    0.86
  -2  -1  21    0.28    0.36
   2   1 -21   -0.64    0.60
  -2   1  21    1.13    1.11
  -2   1  21    0.12    0.56
   2   1 -21   -0.43    0.41
  -2   1  21   -0.36    0.39
  -1  -1  21    5.40    1.07
  -1  -1  21    4.75    0.66
   1  -1 -21    5.25    0.68
   1  -1 -21    4.35    0.88
  -1  -1  21    4.18    0.51
   1  -1 -21    5.42    0.85
  -1  -1  21    4.65    0.71
  -1  -1  21    5.14    0.67
  -1   1  21    3.54    0.74
   1   1 -21    4.42    0.78
   1   1 -21    4.52    0.71
  -1   1  21    1.92    1.13
   0  -1  21   26.90    1.81
   0  -1 -21   26.37    2.19
   0  -1 -21   29.17    2.28
   0  -1 -21   28.01    1.98
   0  -1  21   30.19    1.91
   0  -1  21   27.38    1.77
   0  -1 -21   24.44    1.74
   0  -1  21   23.91    2.40
   0  -1  21   26.17    1.68
   0   1 -21   28.16    2.49
   0   1 -21   28.95    2.04
   0   1  21   25.89    1.83
   0   1  21   27.53    2.64
   0   1  21   29.93    2.04
   1  -1  21    3.33    1.14
   1  -1  21    3.06    0.55
   1  -1  21    3.40    0.54
  -1  -1 -21    4.10    1.07
   1  -1  21    2.75    0.58
  -1  -1 -21    2.70    0.46
  -1  -1 -21    2.94    0.67
   1  -1  21    3.32    0.44
  -1   1 -21    2.59    0.88
   1   1  21    2.39    0.53
   1   1  21    3.50    0.70
   1   1  21    3.57    0.73
  -1   1 -21    3.68    0.68
  -1   1 -21    4.44    0.83
   2  -1  21    2.62    0.61
  -2  -1 -21    2.57    0.46
   2  -1  21    2.23    0.55
   2  -1  21    3.03    0.46
   2  -1  21    1.82    0.63
  -2  -1 -21    1.14    0.94
   2   1  21    2.90    0.74
   2   1  21    1.66    0.66
  -2   1 -21    3.17    0.93
   2   1  21    1.74    0.53
  -2   1 -21    3.83    0.77
   3  -1  21    0.37    0.42
   3  -1  21    0.58    0.86
  -3  -1 -21   -1.65    0.98
   3  -1  21   -0.06    0.45
   3  -1  21   -0.38    0.62
  -3  -1 -21    0.50    0.44
   3   1  21    0.45    0.44
  -3   1 -21    1.05    0.82
   3   1  21   -0.69    0.60
   3   1  21    0.91    0.77
   4  -1  21    3.28    0.67
  -4  -1 -21    0.66    0.45
   4  -1  21    1.90    0.57
   4  -1  21    1.47    0.62
  -4  -1 -21   -0.77    1.24
   4  -1  21    1.64    0.79
   4   1  21    1.06    0.76
   4   1  21    1.41    0.57
  -4   1 -21   -0.06    1.03
   5  -1  21    4.24    1.03
   5  -1  21    4.78    0.87
   5   1  21    3.73    0.97
   5   1  21    3.39    0.70
  -5   1 -21    3.04    1.34
   6  -1  21    0.51    0.81
   6  -1  21    0.46    0.75
   6   1  21    1.46    1.05
   6   1  21    1.52    0.84
  10  -2 -21   -0.82    1.07
  10  -2 -21    3.37    1.94
 -10   2  21    1.50    1.05
 -10   2  21    0.92    1.84
  10   2 -21   -0.83    1.47
  10   2 -21   -0.49    0.90
   9  -2 -21    4.08    1.10
  -9   2  21    4.70    1.69
   9   2 -21    4.79    1.53
   9   2 -21    4.27    0.96
  -9   2  21    3.80    1.12
  -8  -2  21    3.91    1.22
   8  -2 -21    1.60    0.88
   8  -2 -21    3.03    0.75
  -8   2  21    3.44    0.99
   8   2 -21    1.60    0.86
  -8   2  21    3.59    1.52
   7  -2 -21    0.03    0.49
   7  -2 -21    0.24    0.73
  -7  -2  21    0.57    0.86
   7   2 -21   -1.15    0.62
  -7   2  21   -1.60    1.16
  -7   2  21    0.41    0.76
   7   2 -21    1.18    0.83
  -6  -2  21    1.90    0.90
  -6  -2  21    2.59    0.78
   6  -2 -21    2.54    0.87
   6  -2 -21    2.20    0.62
  -6   2  21    1.83    0.86
  -6   2  21    2.46    1.11
  -6   2  21    3.43    0.92
   6   2 -21    2.61    0.84
  -5  -2  21   14.73    1.61
   5  -2 -21   12.39    1.43
   5  -2 -21   13.97    1.19
  -5  -2  21   15.02    1.37
  -5   2  21   14.90    1.48
   5   2 -21   13.37    1.52
  -5   2  21   12.38    1.53
   5   2 -21   14.92    1.33
  -5   2  21   15.91    1.95
   4  -2 -21    6.11    0.89
  -4  -2  21    7.55    1.10
   4  -2 -21    7.17    0.82
  -4  -2  21    6.63    0.99
  -4   2  21    7.05    1.22
  -4   2  21    8.38    1.30
   4   2 -21    6.57    1.00
   4   2 -21    5.70    1.00
  -4   2  21    9.72    1.18
   3  -2 -21    0.11    0.54
   3  -2 -21    0.00    0.37
  -3  -2  21   -0.53    0.45
  -3  -2  21   -1.01    0.79
  -3   2  21   -0.36    0.52
  -3   2  21    0.71    0.67
   3   2 -21   -0.76    0.60
   3   2 -21   -0.79    0.44
   2  -2 -21   -0.21    0.38
  -2  -2  21   -0.41    0.43
   2  -2 -21    0.92    0.55
  -2  -2  21   -1.02    0.81
  -2  -2  21    0.76    0.51
  -2   2  21   -0.80    0.42
   2   2 -21    0.78    0.47
  -2   2  21    0.61    1.29
  -2   2  21    0.26    0.67
   2   2 -21    1.63    0.70
  -1  -2  21   10.19    1.10
  -1  -2  21    8.44    1.47
   1  -2 -21    7.99    1.14
  -1  -2  21   10.31    0.96
  -1   2  21   10.73    1.28
   1   2 -21    9.94    1.16
   1   2 -21   10.07    1.01
  -1   2  21    9.52    1.10
  -1   2  21    4.70    1.86
  -1   2  21    8.61    1.29
   0  -2  21    0.17    0.52
   0  -2 -21    0.88    0.43
   0  -2 -21    0.32    0.55
   0  -2  21    0.31    0.46
   0  -2  21   -1.10    0.90
   0   2  21    0.94    0.51
   0   2  21   -0.58    0.64
   0   2 -21    1.12    0.51
   0   2  21   -0.60    0.63
   0   2 -21    1.51    0.66
   1  -2  21    0.16    0.54
   1  -2  21   -0.86    0.99
   1  -2  21   -0.05    0.49
  -1  -2 -21   -1.79    0.96
  -1  -2 -21   -0.04    0.59
   1   2  21    1.06    0.79
  -1   2 -21    0.25    0.61
   1   2  21   -0.50    0.60
  -1   2 -21   -0.99    0.70
   1   2  21   -0.61    0.44
  -2  -2 -21   -0.15    0.37
   2  -2  21    0.15    0.55
   2  -2  21    0.62    0.56
  -2  -2 -21    0.72    1.14
  -2   2 -21    1.66    0.68
  -2   2 -21    1.44    0.79
   2   2  21   -0.27    0.68
   2   2  21    0.52    0.53
   3  -2  21   -0.28    0.67
   3  -2  21    0.44    0.58
  -3  -2 -21    0.16    0.40
  -3   2 -21   -0.79    0.84
   3   2  21    0.13    0.56
   3   2  21    1.01    0.70
   4  -2  21    7.16    1.10
  -4  -2 -21    4.07    0.67
   4  -2  21    5.85    0.99
   4   2  21    5.91    0.87
   4   2  21    5.11    1.04
  -5  -2 -21    1.22    0.57
   5  -2  21    1.87    0.87
   5   2  21    2.69    1.02
   5   2  21    1.32    0.73
   9  -3 -21    4.29    1.30
   9  -3 -21    6.91    1.09
   9   3 -21    6.00    1.08
  -9   3  21    5.37    1.41
  -9   3  21    5.03    2.09
   8  -3 -21    0.29    0.80
   8  -3 -21    0.64    0.99
  -8   3  21    1.08    1.21
  -8   3  21    1.07    1.50
   8   3 -21    0.17    0.78
   7  -3 -21    1.32    0.64
   7  -3 -21    0.82    0.97
  -7   3  21    0.88    1.39
  -7   3  21   -0.68    1.04
   7   3 -21    1.67    0.76
   7   3 -21    0.57    0.97
   6  -3 -21    1.08    0.52
   6  -3 -21    0.93    0.81
   6   3 -21    0.95    0.71
  -6   3  21    0.15    1.28
   6   3 -21    2.52    0.91
  -6   3  21    0.20    0.84
   5  -3 -21   21.68    1.93
   5  -3 -21   20.04    1.68
   5   3 -21   22.93    1.98
   5   3 -21   22.19    1.77
  -5   3  21   21.74    1.62
  -5   3  21   26.62    2.45
  -5   3  21   24.43    2.02
   4  -3 -21    0.45    0.70
   4  -3 -21    1.43    0.54
  -4   3  21    0.51    0.98
  -4   3  21    2.10    0.78
   4   3 -21    2.26    0.78
   4   3 -21    0.75    0.62
  -4   3  21   -0.32    0.74
   3  -3 -21    0.45    0.47
   3  -3 -21    0.41    0.61
  -3   3  21    0.18    0.81
   3   3 -21    1.62    0.73
  -3   3  21    1.14    0.68
   3   3 -21    0.47    0.58
   2  -3 -21   -0.36    0.48
   2  -3 -21    0.72    0.59
  -2   3  21    0.18    0.65
   2   3 -21    0.36    0.69
  -2   3  21   -0.27    0.81
   2   3 -21   -0.07    0.51
  -1  -3  21    7.06    1.05
   1  -3 -21    7.41    0.89
   1  -3 -21    8.00    1.16
  -1   3  21    6.69    1.08
   1   3 -21    7.25    1.11
  -1   3  21    6.62    0.93
   1   3 -21    7.03    1.02
   0  -3 -21    1.79    0.72
   0  -3  21    2.08    0.82
   0  -3 -21    1.74    0.49
   0   3  21    1.78    0.65
   0   3 -21    3.41    0.68
   0   3  21    1.42    0.78
   0   3 -21    2.24    0.60
  -1  -3 -21    0.61    0.48
   1  -3  21    0.40    0.76
   1   3  21    1.28    0.79
  -1   3 -21    0.63    0.63
   1   3  21    1.13    0.60
  -2  -3 -21    3.76    0.67
   2  -3  21    4.81    1.03
  -2   3 -21    4.05    0.82
   2   3  21    6.26    1.00
   2   3  21    3.70    0.82
   3  -3  21   -0.85    0.90
  -3  -3 -21   -0.45    0.47
   3   3  21   -0.34    0.76
   3   3  21    1.41    0.68
   4  -3  21    1.10    1.00
  -4  -3 -21    0.11    0.45
   4   3  21    1.82    0.90
   4   3  21    0.79    0.86
   7  -4 -21    0.26    1.00
   7  -4 -21    0.05    0.60
  -7   4  21    0.71    1.62
  -7   4  21   -0.21    1.30
   7   4 -21   -0.98    1.39
   6  -4 -21    1.01    0.65
   6  -4 -21    1.22    1.00
  -6   4  21   -0.74    1.05
   6   4 -21    1.27    0.78
  -6   4  21    2.02    1.53
   5  -4 -21    4.77    0.89
   5  -4 -21    3.79    1.01
   5   4 -21    4.86    0.81
  -5   4  21    4.14    1.38
   5   4 -21    2.29    1.16
  -5   4  21    6.68    1.18
   4  -4 -21    7.74    1.00
   4  -4 -21    9.39    1.28
   4   4 -21    6.85    1.12
  -4   4  21    7.96    1.41
  -4   4  21    9.42    1.33
   4   4 -21    7.96    1.10
   3  -4 -21    1.94    0.89
   3  -4 -21    1.08    0.60
   3   4 -21    2.40    0.84
  -3   4  21    1.17    0.83
  -3   4  21    2.45    1.06
   3   4 -21    0.09    0.58
   2  -4 -21   -0.13    0.76
   2  -4 -21    0.55    0.49
  -2   4  21    2.04    1.01
   2   4 -21    2.70    0.84
  -2   4  21    1.62    0.78
   1  -4 -21   -0.89    0.52
   1  -4 -21   -0.72    0.72
   1   4 -21   -0.28    0.61
   1   4 -21    2.02    0.77
  -1   4  21   -0.50    0.66
  -1   4  21    0.26    0.84
   0  -4  21   -0.41    1.02
   0  -4 -21    1.57    0.59
   0   4  21   -0.19    0.94
   0   4 -21   -0.21    0.64
   0   4 -21    1.41    0.70
   0   4  21   -0.08    0.75
  -1  -4 -21    9.81    1.04
   1  -4  21    9.52    1.52
  -1   4 -21   10.81    1.62
   1   4  21   10.59    1.73
   1   4  21    9.00    1.49
   2  -4  21    2.69    1.19
  -2  -4 -21    1.20    0.66
   2   4  21   -0.59    0.76
   2   4  21    1.79    0.93
   3  -4  21   -0.55    1.25
  -3  -4 -21   -0.63    0.55
   3   4  21    0.02    0.96
   4  -5 -21   -0.67    1.10
   3  -5 -21    1.24    1.03
   3  -5 -21    0.47    0.71
  -3   5  21    0.28    1.43
   2  -5 -21   -0.53    1.02
   2  -5 -21   -0.14    0.60
  -2   5  21   -2.45    1.41
   1  -5 -21    0.49    0.67
  10   0 -22    1.46    1.13
  10   0 -22   -1.49    1.49
 -10   0  22    0.96    0.94
 -10   0  22    3.99    1.83
  -9   0  22   33.23    2.41
  -9   0  22   33.55    3.73
   9   0 -22   32.74    2.68
  -9   0  22   33.89    2.50
  -8   0  22   10.10    1.23
   8   0 -22    8.47    1.24
  -8   0  22    8.20    1.62
   7   0 -22    0.43    0.69
  -7   0  22    2.48    0.72
  -7   0  22    1.60    0.59
  -7   0  22    2.40    1.13
   6   0 -22    5.29    0.87
  -6   0  22    5.77    0.85
  -6   0  22    4.49    0.76
   6   0 -22    5.88    0.93
  -5   0  22    0.78    0.57
  -5   0  22    1.50    0.81
   5   0 -22    0.59    0.60
   5   0 -22    0.14    0.84
  -5   0  22   -0.01    0.42
   5   0 -22    0.28    0.40
  -4   0  22   32.17    3.28
  -4   0  22   39.82    2.73
   4   0 -22   38.23    2.80
   4   0 -22   39.96    2.38
  -4   0  22   37.01    2.48
   4   0 -22   39.24    2.59
  -4   0  22   36.69    2.37
  -3   0  22    5.09    0.74
   3   0 -22    4.47    0.76
  -3   0  22    5.71    1.26
  -3   0  22    5.29    0.60
  -3   0  22    4.65    0.67
  -3   0  22    4.95    0.88
   3   0 -22    4.71    0.99
   3   0 -22    4.96    0.69
   2   0 -22    8.76    1.05
  -2   0  22    7.53    0.81
  -2   0  22    8.15    0.72
  -2   0  22    8.68    1.16
   2   0 -22    8.33    1.44
  -2   0  22    7.30    1.33
  -2   0  22    7.28    1.00
   2   0 -22    9.31    0.82
  -1   0  22    3.83    0.59
   1   0 -22    4.29    0.94
  -1   0  22    5.70    1.03
   1   0 -22    5.08    0.57
  -1   0  22    3.37    1.24
  -1   0  22    4.33    0.68
  -1   0  22    5.75    0.77
   1   0 -22    4.31    0.73
   0   0 -22    0.49    0.64
   0   0  22    0.78    0.59
   0   0  22    0.65    0.37
   0   0  22   -0.20    0.53
   0   0 -22    0.18    0.74
   0   0 -22   -0.14    0.34
   0   0  22   -0.33    0.34
  -1   0 -22   29.50    2.63
  -1   0 -22   30.30    2.29
   1   0  22   31.87    2.08
   1   0  22   34.37    2.27
   1   0  22   35.42    2.31
   1   0  22   34.34    2.13
  -2   0 -22    7.46    1.24
   2   0  22    7.02    0.88
   2   0  22    5.67    0.87
   3   0  22   -0.89    0.45
   3   0  22    0.79    0.47
   3   0  22   -1.10    0.66
  -3   0 -22   -0.20    1.07
   3   0  22    0.11    0.81
   4   0  22    2.41    0.64
  -4   0 -22    0.69    1.21
   4   0  22    1.05    1.33
   4   0  22   -0.03    0.82
   4   0  22    1.21    0.61
   5   0  22    0.43    0.68
  -5   0 -22   -0.59    2.30
   5   0  22    0.79    1.04
   5   0  22    0.93    0.69
  10  -1 -22    0.24    1.67
 -10   1  22    1.43    1.04
  10   1 -22    1.44    1.62
 -10   1  22    4.04    2.07
  10   1 -22    1.65    1.13
   9  -1 -22    0.37    0.86
  -9  -1  22   -0.77    1.42
  -9  -1  22    0.37    0.55
   9   1 -22    0.19    0.85
  -9   1  22    0.52    0.88
  -9   1  22    1.62    1.63
   8  -1 -22    2.94    0.90
  -8  -1  22    2.34    1.20
  -8  -1  22    1.82    0.50
   8   1 -22    2.32    0.87
  -8   1  22    5.68    1.54
  -8   1  22    1.94    0.82
  -8   1  22    3.91    1.01
  -7  -1  22   -0.09    0.37
  -7  -1  22   -0.58    0.98
   7  -1 -22   -0.26    0.69
   7  -1 -22   -0.51    0.50
  -7   1  22    0.94    1.49
   7   1 -22    0.50    0.69
  -7   1  22    0.27    0.69
  -7   1  22   -0.88    0.88
   6  -1 -22   -0.26    0.71
  -6  -1  22    0.57    0.91
  -6  -1  22   -0.24    0.32
   6  -1 -22    0.17    0.51
  -6  -1  22   -0.32    0.34
  -6   1  22    1.26    0.62
  -6   1  22   -0.71    0.70
   6   1 -22    0.33    0.62
   6   1 -22    2.77    0.96
  -6   1  22   -0.74    0.96
   6   1 -22   -0.37    0.56
  -5  -1  22   -0.07    1.46
   5  -1 -22    0.50    0.42
  -5  -1  22   -0.09    0.35
  -5  -1  22   -1.08    0.72
   5  -1 -22   -0.79    0.55
   5   1 -22   -1.18    0.58
  -5   1  22    1.03    0.58
   5   1 -22    0.86    0.90
   5   1 -22    0.10    0.43
  -5   1  22    2.26    0.97
  -5   1  22   -1.22    0.68
  -4  -1  22   10.46    1.78
   4  -1 -22    9.76    1.17
   4  -1 -22    7.76    0.86
  -4  -1  22   10.74    1.23
  -4   1  22    9.83    1.28
   4   1 -22    7.85    1.38
   4   1 -22    8.99    0.82
   4   1 -22    8.31    1.17
  -4   1  22    7.10    1.17
  -4   1  22    8.03    0.99
  -3  -1  22    0.25    0.57
  -3  -1  22    0.28    0.26
  -3  -1  22    0.26    0.42
  -3  -1  22    1.32    1.03
  -3  -1  22    0.38    0.36
   3  -1 -22   -0.11    0.40
   3  -1 -22   -0.07    0.51
  -3   1  22    0.30    0.24
  -3   1  22    0.81    0.45
   3   1 -22   -0.05    0.73
   3   1 -22    0.80    0.68
  -3   1  22    1.31    0.71
  -2  -1  22    9.07    0.67
  -2  -1  22    6.25    1.22
  -2  -1  22    7.18    0.87
   2  -1 -22   10.31    1.10
  -2  -1  22    7.82    0.83
  -2  -1  22    7.90    1.02
   2   1 -22    6.72    1.18
  -2   1  22    7.62    0.95
  -2   1  22    7.13    1.02
   2   1 -22    9.85    1.32
  -1  -1  22    2.29    0.47
  -1  -1  22    0.80    1.06
   1  -1 -22    0.96    0.53
  -1  -1  22    1.24    0.32
   1  -1 -22    1.67    0.45
  -1  -1  22    0.99    0.54
  -1  -1  22    1.12    0.47
  -1   1  22    1.36    0.51
  -1   1  22    2.23    0.68
   1   1 -22    1.75    0.74
  -1   1  22    1.20    0.64
   1   1 -22    1.96    0.56
   0  -1 -22   10.00    0.93
   0  -1  22   10.24    1.01
   0  -1 -22   12.25    1.24
   0  -1  22    9.92    0.97
   0  -1  22   10.71    1.13
   0  -1  22   10.14    0.83
   0  -1  22    9.01    1.54
   0   1  22   11.07    1.29
   0   1  22   12.18    1.05
   0   1 -22   11.95    1.28
   0   1 -22   10.57    1.37
   0   1  22   12.34    1.27
  -1  -1 -22   18.30    1.26
   1  -1  22   19.40    1.26
  -1  -1 -22   17.37    2.05
   1  -1  22   15.38    1.37
   1  -1  22   17.07    1.40
  -1  -1 -22   20.81    1.64
   1  -1  22   17.33    1.51
   1   1  22   19.56    1.61
  -1   1 -22   17.99    1.71
   1   1  22   20.87    1.43
  -1   1 -22   15.31    2.07
  -1   1 -22   18.19    1.57
   2  -1  22    1.51    0.68
  -2  -1 -22    1.48    0.43
  -2  -1 -22   -0.81    1.06
   2  -1  22    0.64    0.52
   2  -1  22    1.65    0.56
   2  -1  22    1.50    0.45
  -2   1 -22    2.12    1.02
   2   1  22   -0.17    0.64
   2   1  22    1.00    0.48
   2   1  22    1.45    0.73
   3  -1  22    0.83    0.54
  -3  -1 -22   -0.20    1.15
   3  -1  22    0.43    0.47
   3  -1  22   -0.87    0.70
   3   1  22    1.40    0.54
   3   1  22    0.62    0.93
  -3   1 -22    0.58    1.08
   3   1  22   -0.18    0.70
   4  -1  22   -0.33    0.82
   4  -1  22    1.33    0.61
   4  -1  22    0.22    0.56
   4   1  22   -0.78    0.51
  -4   1 -22    3.85    1.77
   4   1  22   -0.86    0.78
   5  -1  22    1.82    0.88
   5  -1  22    0.22    0.70
   5  -1  22    1.85    1.09
   5   1  22    0.56    0.93
   5   1  22    0.36    0.73
   9  -2 -22    0.53    0.81
   9  -2 -22   -0.20    1.04
  -9   2  22   -0.84    1.62
  -9   2  22    0.91    1.08
   9   2 -22   -0.58    0.87
   8  -2 -22   -0.07    0.59
   8  -2 -22    0.03    0.83
   8   2 -22   -0.79    0.79
  -8   2  22    2.39    0.92
  -8   2  22    1.92    1.49
  -7  -2  22    2.30    1.01
   7  -2 -22    1.00    0.84
   7  -2 -22   -0.04    0.48
  -7   2  22   -2.34    1.28
  -7   2  22   -1.50    0.73
   7   2 -22    0.13    0.72
   6  -2 -22    2.30    0.85
   6  -2 -22    2.29    0.60
  -6  -2  22    2.98    0.86
  -6   2  22    2.69    0.89
  -6   2  22    2.90    1.30
   6   2 -22    2.45    0.94
   5  -2 -22   20.91    1.47
  -5  -2  22   18.74    1.91
  -5  -2  22   17.49    1.58
   5  -2 -22   15.14    1.63
  -5   2  22   21.09    1.74
  -5   2  22   17.40    2.05
   5   2 -22   16.19    1.80
  -4  -2  22    0.03    0.96
   4  -2 -22    0.38    0.46
  -4  -2  22    0.05    0.58
   4  -2 -22    0.87    0.67
  -4   2  22   -0.29    0.62
  -4   2  22    0.93    0.78
   4   2 -22   -0.08    0.74
  -4   2  22    1.03    0.90
   4   2 -22   -0.60    0.56
  -3  -2  22    1.44    0.97
   3  -2 -22    0.02    0.45
   3  -2 -22    1.22    0.66
  -3  -2  22   -0.25    0.52
  -3   2  22    0.96    0.72
  -3   2  22    1.47    0.86
   3   2 -22    0.32    0.71
  -3   2  22    0.78    0.55
   3   2 -22    0.78    0.55
  -2  -2  22    1.41    0.56
  -2  -2  22    0.24    0.50
   2  -2 -22   -0.20    0.62
   2  -2 -22    0.81    0.47
  -2  -2  22    1.10    0.95
   2   2 -22   -0.15    0.66
  -2   2  22    0.38    0.51
   2   2 -22   -0.05    0.52
  -2   2  22    0.90    0.78
  -2   2  22    0.98    0.82
   1  -2 -22    1.44    0.47
   1  -2 -22    0.56    0.59
  -1  -2  22    0.15    0.49
  -1  -2  22    0.61    0.54
   1   2 -22    0.75    0.51
  -1   2  22   -0.15    0.52
   1   2 -22    2.52    0.71
  -1   2  22   -0.31    0.72
  -1   2  22    0.08    0.70
   0  -2  22   11.37    1.18
   0  -2 -22   13.16    1.39
   0  -2 -22   12.75    1.06
   0  -2  22   10.95    1.30
   0  -2  22   11.97    1.89
   0   2 -22   12.12    1.40
   0   2  22   14.03    1.84
   0   2  22   14.17    1.53
   0   2 -22   10.96    1.67
   0   2  22   11.71    1.21
  -1  -2 -22   -0.38    0.45
   1  -2  22   -0.30    0.56
  -1  -2 -22   -0.51    0.61
   1  -2  22   -0.67    0.62
  -1  -2 -22   -1.31    1.19
  -1   2 -22    0.52    0.63
   1   2  22    0.32    0.58
  -1   2 -22    1.14    0.86
   1   2  22   -0.38    0.67
  -1   2 -22   -0.29    0.65
  -2  -2 -22    0.02    0.43
   2  -2  22    0.41    0.72
   2  -2  22    0.92    0.66
   2   2  22    0.29    0.74
  -2   2 -22   -1.07    0.93
   2   2  22   -0.35    0.58
   3  -2  22    3.31    0.87
  -3  -2 -22    2.45    0.55
   3   2  22    2.61    0.70
   3   2  22    3.85    0.85
  -4  -2 -22    0.59    0.52
   4  -2  22    0.11    0.76
   4   2  22    0.32    0.63
   4   2  22   -1.02    0.81
   5  -2  22    1.37    0.94
  -5  -2 -22    0.10    0.52
   5   2  22    2.19    1.12
   5   2  22    4.09    0.91
   8  -3 -22   13.24    1.43
   8  -3 -22   11.13    1.92
  -8   3  22   15.84    2.34
   8   3 -22   13.22    1.73
  -8   3  22   13.02    1.66
   7  -3 -22    4.71    0.88
   7  -3 -22    4.15    1.04
   7   3 -22    4.81    0.98
  -7   3  22    3.16    1.70
  -7   3  22    4.02    1.14
   6  -3 -22    2.62    0.92
   6  -3 -22    3.16    0.72
   6   3 -22    3.89    0.98
  -6   3  22    2.60    1.18
   6   3 -22    3.53    1.05
   5  -3 -22    7.93    0.99
   5  -3 -22    6.84    1.18
   5   3 -22    8.43    1.21
  -5   3  22   10.08    1.56
   5   3 -22    7.72    1.20
  -5   3  22    8.03    1.41
   4  -3 -22    8.60    1.46
   4  -3 -22    9.70    1.06
   4   3 -22    8.43    1.24
  -4   3  22    8.10    1.05
   4   3 -22   12.36    1.50
  -4   3  22    7.96    1.43
  -4   3  22    9.89    1.46
   3  -3 -22   14.86    1.57
   3  -3 -22   15.15    1.28
  -3   3  22   15.07    1.88
  -3   3  22   13.75    1.53
   3   3 -22   14.72    1.41
   3   3 -22   15.28    1.65
   2  -3 -22    2.02    0.56
   2  -3 -22    3.28    0.91
   2   3 -22    2.37    0.67
  -2   3  22    3.38    0.74
  -2   3  22    3.58    1.02
   2   3 -22    3.54    0.93
   1  -3 -22    2.11    0.75
   1  -3 -22    0.30    0.52
  -1  -3  22    0.76    0.85
  -1   3  22    0.90    0.67
  -1   3  22    0.82    0.90
   1   3 -22    2.51    0.68
   1   3 -22   -1.12    0.67
   0  -3 -22    2.03    0.58
   0  -3  22    1.02    0.82
   0  -3 -22    0.99    0.83
   0   3 -22    1.71    0.66
   0   3 -22   -0.09    0.75
   0   3  22    0.91    0.87
   0   3  22    1.08    0.67
   1  -3  22    3.58    0.97
  -1  -3 -22    3.67    0.65
  -1   3 -22    3.30    0.89
   1   3  22    3.19    0.99
   1   3  22    4.30    0.82
  -2  -3 -22    3.88    0.62
   2  -3  22    4.74    1.10
   2   3  22    2.82    0.95
   2   3  22    3.56    1.00
  -3  -3 -22   -0.37    0.45
   3   3  22    0.02    0.77
   3   3  22   -0.76    0.93
   6  -4 -22   -1.26    1.01
   6  -4 -22    0.33    0.59
  -6   4  22    2.17    1.69
  -6   4  22    1.41    1.23
   5  -4 -22    0.31    0.68
   5  -4 -22    0.39    0.98
  -5   4  22   -1.07    1.09
  -5   4  22    0.99    1.37
   5   4 -22   -0.52    0.75
   4  -4 -22    1.22    0.87
   4  -4 -22    1.50    0.76
   4   4 -22    1.52    0.76
  -4   4  22   -0.34    1.23
  -4   4  22    2.81    1.02
   3  -4 -22    1.25    0.59
   3  -4 -22    3.89    0.96
   3   4 -22    2.14    0.74
  -3   4  22    1.13    1.20
  -3   4  22    2.72    0.95
   2  -4 -22    1.09    0.54
   2  -4 -22    1.50    0.83
  -2   4  22    0.35    0.78
  -2   4  22    0.60    1.10
   2   4 -22    0.33    0.61
   1  -4 -22    0.96    0.56
   1  -4 -22    0.22    0.91
   1   4 -22    0.93    0.64
  -1   4  22   -0.02    0.98
  -1   4  22    1.05    0.72
   0  -4 -22    0.27    0.57
   0  -4  22   -1.26    1.17
   0   4  22    0.69    0.84
   0   4  22   -0.12    0.99
   1  -4  22    9.90    1.59
   1   4  22    8.13    1.42
   1   4  22    9.67    1.62
 -10   0  23    2.88    0.96
  10   0 -23    1.30    1.25
 -10   0  23   -2.48    1.95
  -9   0  23   -0.69    1.70
  -9   0  23    1.49    0.80
   9   0 -23   -1.62    0.92
  -8   0  23   -0.36    1.29
   8   0 -23    0.15    0.90
  -8   0  23    1.40    0.65
  -7   0  23   -1.24    0.85
   7   0 -23   -0.28    0.77
   7   0 -23   -0.18    0.57
  -7   0  23    1.47    1.24
   6   0 -23    0.66    0.71
  -6   0  23   -0.04    0.48
   6   0 -23    0.36    0.53
  -6   0  23    0.44    1.01
   5   0 -23    0.09    0.61
  -5   0  23    0.82    0.86
   5   0 -23    0.55    0.47
  -5   0  23    0.25    0.42
  -5   0  23    0.87    0.64
  -4   0  23    1.54    0.76
   4   0 -23   -0.14    0.59
  -4   0  23    1.39    0.64
  -4   0  23   -0.37    0.38
   4   0 -23   -0.01    0.48
  -3   0  23   -0.18    0.66
   3   0 -23   -0.43    0.44
   3   0 -23    0.41    0.55
  -3   0  23   -0.35    0.35
  -3   0  23   -0.34    0.56
  -2   0  23   -0.10    0.36
  -2   0  23   -0.04    0.35
   2   0 -23    0.07    0.47
  -2   0  23   -0.29    0.62
   2   0 -23   -0.64    0.52
  -2   0  23   -0.19    0.56
  -1   0  23   -0.28    0.32
   1   0 -23    0.02    0.55
  -1   0  23    0.11    0.59
  -1   0  23   -0.95    0.58
  -1   0  23   -0.03    0.36
   1   0 -23    0.04    0.44
   0   0  23    1.28    0.41
   0   0 -23    0.26    0.59
   0   0  23    0.01    0.37
   0   0  23   -0.28    0.62
   0   0  23   -1.33    0.64
   1   0  23    0.32    0.69
   1   0  23    0.61    0.63
  -1   0 -23   -0.46    1.07
  -1   0 -23   -0.23    0.62
  -1   0 -23   -0.13    0.63
   2   0  23   -0.41    0.44
  -2   0 -23    0.04    1.14
   2   0  23    0.19    0.70
   2   0  23   -0.76    0.44
   3   0  23   -1.08    0.49
   3   0  23    0.28    0.51
   3   0  23   -0.28    0.83
   3   0  23    1.60    0.82
  -3   0 -23    1.61    1.31
  -4   0 -23    0.22    1.52
   4   0  23   -0.07    0.65
   4   0  23   -0.60    0.61
   5   0  23   -0.05    0.75
   5   0  23    1.43    0.80
   9  -1 -23    0.25    1.01
  -9   1  23   -1.10    0.85
  -9   1  23    0.35    1.88
   9   1 -23    1.77    1.05
   8  -1 -23    8.78    1.14
   8  -1 -23    9.49    1.29
  -8  -1  23    8.82    0.94
  -8  -1  23    9.89    1.65
  -8   1  23    8.78    1.72
  -8   1  23    9.69    1.50
   8   1 -23   10.34    1.38
   7  -1 -23    1.42    0.62
  -7  -1  23    4.05    1.17
   7  -1 -23    3.17    1.01
  -7   1  23    2.58    0.80
   7   1 -23    4.00    0.89
  -7   1  23    0.39    1.31
  -7   1  23    3.24    1.03
   6  -1 -23    2.00    0.75
  -6  -1  23    1.11    0.99
   6  -1 -23    0.76    0.52
  -6   1  23    1.26    0.84
  -6   1  23    2.30    1.69
   6   1 -23    1.15    0.58
  -6   1  23    0.66    0.64
   6   1 -23    0.74    0.67
   5  -1 -23   -0.30    0.70
   5  -1 -23   -0.33    0.44
  -5  -1  23   -0.14    0.75
   5   1 -23    0.83    0.66
  -5   1  23    0.16    0.78
  -5   1  23   -0.79    0.91
  -5   1  23    0.32    0.58
   5   1 -23    0.59    0.51
   4  -1 -23    0.78    0.62
   4  -1 -23    0.46    0.47
  -4  -1  23   -0.30    0.70
  -4   1  23    2.41    0.79
  -4   1  23   -0.60    0.81
   4   1 -23   -1.06    0.54
   4   1 -23    0.38    0.50
   3  -1 -23    1.54    0.49
  -3  -1  23   -0.08    0.66
  -3  -1  23    1.57    0.48
   3  -1 -23    1.52    0.67
  -3   1  23    1.97    0.72
  -3   1  23    0.75    0.79
  -3   1  23    1.17    0.56
   3   1 -23    0.35    0.60
   3   1 -23    1.15    0.93
   2  -1 -23    0.07    0.43
  -2  -1  23    0.02    0.47
   2  -1 -23   -0.33    0.60
  -2  -1  23    0.14    0.29
  -2  -1  23   -0.40    0.60
  -2   1  23    0.22    0.46
  -2   1  23   -0.17    0.28
   2   1 -23    0.90    0.81
  -2   1  23   -0.20    0.68
   2   1 -23   -0.16    0.57
  -2   1  23   -0.24    0.71
   1  -1 -23    1.67    0.70
  -1  -1  23    1.56    0.68
  -1  -1  23    1.36    0.50
   1  -1 -23    2.74    0.54
  -1  -1  23    3.35    0.60
   1   1 -23    3.12    0.95
   1   1 -23    3.37    0.63
  -1   1  23    2.23    0.76
  -1   1  23    4.70    0.88
  -1   1  23    2.16    0.53
   0  -1 -23   -0.06    0.45
   0  -1  23    0.40    0.47
   0  -1  23   -0.05    0.35
   0  -1 -23   -0.07    0.57
   0  -1  23   -0.63    0.52
   0   1 -23    0.12    0.59
   0   1  23    0.34    0.95
   0   1  23   -0.95    0.72
   0   1  23   -0.19    0.51
  -1  -1 -23   13.51    1.41
  -1  -1 -23   10.82    0.91
   1  -1  23   10.99    1.30
   1  -1  23   13.24    0.96
   1  -1  23    9.32    1.06
  -1  -1 -23    7.30    1.50
  -1   1 -23    9.12    1.43
  -1   1 -23    9.78    1.37
   1   1  23   10.76    1.37
   1   1  23   11.43    1.13
   1   1  23   10.78    1.50
   2  -1  23   -0.29    0.55
   2  -1  23    0.33    0.45
  -2  -1 -23    0.20    0.46
   2  -1  23    0.63    0.69
  -2  -1 -23   -0.13    1.30
   2   1  23    0.35    0.68
   2   1  23   -0.06    0.50
   3  -1  23    0.71    0.63
  -3  -1 -23   -0.91    0.48
   3  -1  23   -1.13    0.80
   3  -1  23   -0.27    0.53
   3   1  23    0.90    0.59
   3   1  23    0.80    0.84
   4  -1  23    2.46    0.71
   4  -1  23   -0.74    1.48
   4  -1  23    0.77    0.72
   4   1  23   -0.13    0.89
   4   1  23    0.57    0.67
   9  -2 -23    0.98    0.75
   9  -2 -23   -1.51    1.96
   9   2 -23   -0.11    1.01
  -9   2  23    4.17    2.01
  -9   2  23    2.87    1.21
   8  -2 -23    0.31    0.63
   8  -2 -23   -0.44    0.90
  -8   2  23    0.03    0.95
   8   2 -23    0.36    0.88
  -8   2  23    1.90    1.71
   7  -2 -23    3.65    1.10
   7  -2 -23    3.93    0.77
  -7   2  23    3.29    1.53
   7   2 -23    3.86    1.02
  -7   2  23    4.31    0.91
  -6  -2  23    0.08    1.04
   6  -2 -23    0.49    0.90
   6  -2 -23    0.61    0.59
  -6   2  23    1.99    1.33
   6   2 -23    0.61    0.74
  -6   2  23    1.42    0.79
   5  -2 -23   17.15    1.78
  -5  -2  23   19.49    1.69
   5  -2 -23   18.78    1.47
   5   2 -23   17.35    1.70
  -5   2  23   18.76    2.15
  -5   2  23   18.76    1.70
   5   2 -23   16.44    1.94
   4  -2 -23    2.35    0.83
   4  -2 -23    1.83    0.54
  -4  -2  23    1.64    0.65
  -4   2  23    0.89    0.96
  -4   2  23    2.15    0.74
   4   2 -23    0.90    0.96
   4   2 -23    1.61    0.70
   3  -2 -23   -0.42    0.44
   3  -2 -23   -0.14    0.69
  -3  -2  23   -1.38    1.11
  -3  -2  23    0.74    0.59
   3   2 -23   -0.83    0.59
  -3   2  23    0.13    0.84
   3   2 -23    0.90    0.86
  -3   2  23   -0.18    0.57
   2  -2 -23    0.32    0.64
   2  -2 -23   -0.36    0.42
  -2  -2  23    1.28    0.67
  -2  -2  23    0.43    1.23
  -2   2  23   -0.28    0.56
   2   2 -23    0.18    0.59
   2   2 -23    0.46    0.88
  -2   2  23   -0.52    0.77
   1  -2 -23    1.50    0.69
   1  -2 -23    0.88    0.50
  -1  -2  23   -0.37    0.66
  -1  -2  23    0.83    0.56
   1   2 -23    1.21    0.80
  -1   2  23    1.45    0.60
   1   2 -23    0.39    0.63
  -1   2  23    1.55    0.82
   0  -2 -23   -0.51    0.47
   0  -2 -23    1.48    0.71
   0  -2  23    0.20    0.63
   0  -2  23   -0.45    0.63
   0   2  23    0.49    0.72
   0   2 -23   -0.18    0.59
   0   2  23    0.44    0.56
   1  -2  23    0.72    0.72
  -1  -2 -23    0.95    0.48
   1  -2  23    1.50    0.77
  -1  -2 -23    0.77    0.73
  -1   2 -23    1.42    0.72
   1   2  23    1.58    0.62
   1   2  23    1.33    0.84
   2  -2  23    0.18    0.79
  -2  -2 -23    2.17    0.49
   2   2  23    0.80    0.81
   2   2  23    1.68    0.68
   3  -2  23    1.67    0.84
   3   2  23    0.08    0.83
   3   2  23    1.82    0.69
   4  -2  23    0.53    0.92
  -4  -2 -23    0.30    0.52
   4   2  23   -0.39    0.72
   4   2  23    1.39    1.04
   8   3 -23   11.10    1.76
   7  -3 -23    0.26    1.00
  -7   3  23   -0.66    1.13
   7   3 -23   -0.62    0.88
  -7   3  23   -0.23    1.54
   6  -3 -23    1.71    0.67
   6  -3 -23    0.60    0.98
   6   3 -23    3.49    0.89
  -6   3  23    5.39    1.57
  -6   3  23    1.59    1.00
   5  -3 -23   -1.00    0.47
   5  -3 -23   -0.64    0.89
  -5   3  23    1.33    0.97
  -5   3  23    0.87    1.23
   5   3 -23   -0.07    1.08
   5   3 -23   -0.63    0.72
   4  -3 -23   18.17    1.89
   4  -3 -23   19.38    1.52
   4   3 -23   20.83    2.06
  -4   3  23   16.15    2.23
  -4   3  23   18.27    1.94
   3  -3 -23    5.11    0.97
   3  -3 -23    2.74    0.66
   3   3 -23    3.97    0.95
  -3   3  23    5.30    1.01
  -3   3  23    4.22    1.16
   3   3 -23    3.84    1.03
   2  -3 -23    0.85    0.54
   2  -3 -23    2.35    0.79
  -2   3  23    0.38    0.79
  -2   3  23    0.41    0.92
   2   3 -23    0.10    0.90
   2   3 -23    1.95    0.96
   1  -3 -23    1.63    0.58
   1  -3 -23    1.54    0.81
  -1  -3  23   -0.23    0.90
  -1   3  23    0.69    0.80
  -1   3  23    0.15    0.85
   1   3 -23    2.12    1.16
   1   3 -23    1.16    0.90
   0  -3 -23    1.20    0.52
   0  -3  23    0.42    0.93
   0  -3 -23   -0.09    0.82
   0   3 -23    0.69    0.71
   0   3  23    0.26    0.89
   0   3 -23    0.40    0.95
   0   3  23    1.70    0.78
   1  -3  23    0.69    0.97
  -1  -3 -23    1.75    0.56
   1   3  23    1.12    0.74
   1   3  23    0.20    0.89
   2  -3  23    6.48    1.25
  -2  -3 -23    5.61    0.86
   2   3  23    6.71    1.23
   2   3  23    9.77    1.40
   5  -4 -23    1.20    0.75
   5  -4 -23   -1.09    1.12
  -5   4  23   -0.08    1.46
  -5   4  23    0.93    1.60
   4  -4 -23    0.72    0.64
   4  -4 -23    0.76    0.97
   4   4 -23    0.99    0.82
  -4   4  23    1.85    1.09
  -4   4  23    2.64    1.36
   3  -4 -23    0.37    0.78
   3  -4 -23    3.38    1.11
  -3   4  23    1.18    0.99
  -3   4  23    2.39    1.30
   3   4 -23    1.15    0.78
   2  -4 -23    2.75    0.94
  -2   4  23   -0.65    0.91
   2   4 -23    0.45    0.79
  -2   4  23   -0.35    1.20
   1  -4 -23    1.73    0.99
  -1   4  23    0.48    1.16
  -1   4  23   -0.87    0.84
   1   4 -23    1.29    0.93
   0  -4 -23    0.58    0.63
   0  -4  23    1.05    1.28
   0   4  23    0.07    1.15
  -9   0  24    3.77    0.91
  -9   0  24    4.84    1.97
   9   0 -24    5.82    1.28
  -8   0  24   -0.16    0.68
   8   0 -24   -0.04    0.91
  -8   0  24    2.61    2.22
   8   0 -24    1.66    0.69
   7   0 -24    3.45    1.02
  -7   0  24    3.97    0.74
   7   0 -24    4.30    0.77
  -7   0  24    5.80    1.50
  -6   0  24    3.71    1.18
  -6   0  24    2.04    0.75
   6   0 -24    3.25    0.89
   6   0 -24    2.93    0.62
  -5   0  24    1.01    0.49
  -5   0  24    0.55    0.71
  -5   0  24    0.42    1.04
   5   0 -24    1.45    0.74
   5   0 -24    1.44    0.57
  -4   0  24   -0.18    0.66
   4   0 -24    0.24    0.49
  -4   0  24   -0.30    0.43
   4   0 -24    0.33    0.69
  -4   0  24    0.18    0.87
  -3   0  24   15.50    1.18
   3   0 -24   15.52    1.21
  -3   0  24   18.82    1.71
  -3   0  24   14.82    1.23
   3   0 -24   16.48    1.57
  -3   0  24   14.52    1.49
   2   0 -24    3.28    0.81
  -2   0  24    2.11    0.78
  -2   0  24    2.93    0.51
  -2   0  24    2.67    0.72
  -2   0  24    3.17    0.53
   2   0 -24    3.42    0.57
  -1   0  24    1.49    0.49
   1   0 -24    2.07    0.78
  -1   0  24    1.85    0.76
  -1   0  24    1.85    0.70
   1   0 -24    1.65    0.47
  -1   0  24    2.51    0.52
   0   0  24   10.46    1.40
   0   0  24   11.17    1.05
  -1   0 -24   21.34    2.45
   1   0  24   25.72    1.71
   1   0  24   24.65    1.75
   1   0  24   25.60    2.02
  -1   0 -24   23.09    2.06
  -2   0 -24    4.63    1.51
   2   0  24    3.21    0.62
   2   0  24    3.91    0.94
   2   0  24    4.02    0.76
   3   0  24   -1.37    0.61
   3   0  24    1.45    0.91
   3   0  24   -0.63    0.63
   4   0  24    0.12    0.75
   4   0  24   -1.17    1.12
   4   0  24    0.48    0.76
   9  -1 -24    4.09    0.86
   9  -1 -24    4.47    1.28
   9   1 -24    1.58    1.25
  -9   1  24    3.90    2.03
  -9   1  24    3.20    1.06
   8  -1 -24    1.28    0.70
   8  -1 -24    0.87    0.99
  -8   1  24    2.46    0.92
   8   1 -24    2.07    1.04
  -8   1  24    0.57    1.72
   7  -1 -24    1.56    0.91
   7  -1 -24    2.56    0.65
  -7  -1  24    3.66    1.28
  -7   1  24    2.37    0.78
  -7   1  24    1.80    1.41
   7   1 -24    1.25    0.90
  -7   1  24    2.51    1.19
   7   1 -24    1.14    0.67
   6  -1 -24    0.73    0.55
   6  -1 -24   -0.29    0.79
  -6  -1  24    0.09    0.96
  -6   1  24   -1.03    0.65
  -6   1  24   -2.10    0.94
   6   1 -24   -0.44    0.85
   6   1 -24    0.69    0.55
  -6   1  24    2.20    1.19
  -5  -1  24    0.06    0.85
   5  -1 -24   -0.36    0.46
   5  -1 -24    1.29    0.75
  -5   1  24   -0.48    1.06
   5   1 -24   -0.36    0.54
  -5   1  24    0.41    0.56
   5   1 -24   -0.08    0.77
  -5   1  24   -1.60    0.89
  -4  -1  24   -0.42    0.75
   4  -1 -24    0.32    0.49
   4  -1 -24   -0.61    0.67
   4   1 -24    1.29    0.65
  -4   1  24    0.29    0.82
  -4   1  24    0.12    0.53
   3  -1 -24   -0.55    0.65
  -3  -1  24   -0.42    0.67
  -3  -1  24    0.45    0.53
   3  -1 -24    0.18    0.47
   3   1 -24    0.26    0.70
  -3   1  24   -0.57    0.69
  -3   1  24   -0.24    0.53
  -3   1  24   -0.20    0.32
   2  -1 -24   -0.26    0.60
   2  -1 -24    1.50    0.55
  -2  -1  24    1.53    0.71
  -2  -1  24    1.80    0.61
  -2   1  24    1.42    0.38
   2   1 -24   -0.56    0.67
  -2   1  24    1.40    0.81
  -2   1  24    1.27    0.60
   1  -1 -24    2.41    0.76
  -1  -1  24    1.86    0.65
  -1  -1  24    0.31    0.66
   1  -1 -24    1.60    0.54
  -1   1  24    2.08    0.92
  -1   1  24    1.97    0.49
   1   1 -24    1.68    0.76
  -1   1  24    1.22    0.58
  -1   1  24    2.50    0.87
   0  -1 -24    6.54    0.78
   0  -1  24    9.66    1.08
   0  -1 -24    8.48    1.33
   0  -1  24    6.55    1.18
   0   1 -24    8.09    1.25
   0   1  24    6.51    1.06
   0   1  24    6.86    1.17
   0   1  24    6.73    1.05
   0   1  24    8.44    0.86
   1  -1  24    9.31    1.17
  -1  -1 -24    7.92    1.59
   1  -1  24   11.30    0.95
  -1  -1 -24   11.28    0.92
   1  -1  24    7.71    1.39
  -1  -1 -24    9.39    1.44
   1   1  24   10.08    1.58
   1   1  24   10.21    1.01
   1   1  24    8.17    1.15
   1   1  24    7.23    1.40
  -1   1 -24    9.68    1.42
   2  -1  24    5.77    1.01
   2  -1  24    3.55    0.76
   2  -1  24    4.66    0.66
  -2  -1 -24    4.49    0.74
   2   1  24    2.94    0.69
   2   1  24    2.64    0.87
   2   1  24    3.61    0.71
  -3  -1 -24   -0.55    0.53
   3  -1  24   -0.38    0.71
   3   1  24    1.24    0.66
   3   1  24   -1.01    0.95
   3   1  24   -0.47    0.56
   8  -2 -24    1.32    1.16
   8  -2 -24    2.43    0.78
  -8   2  24   -1.12    1.72
  -8   2  24    2.18    1.07
   8   2 -24    1.12    1.15
   7  -2 -24    8.50    1.11
   7  -2 -24    8.44    1.37
   7   2 -24    7.58    1.16
  -7   2  24   11.03    1.76
  -7   2  24    9.74    1.94
   7   2 -24    7.58    1.18
   6  -2 -24   -0.52    0.80
   6  -2 -24    0.92    0.58
  -6   2  24    1.14    1.41
   6   2 -24   -0.54    0.85
  -6   2  24    1.15    0.79
   5  -2 -24    1.87    0.61
   5  -2 -24    2.31    0.92
  -5   2  24    1.81    0.85
  -5   2  24    2.45    1.23
   5   2 -24    2.73    0.83
   4  -2 -24    0.26    0.80
   4  -2 -24    1.59    0.57
  -4   2  24    3.56    1.11
  -4   2  24    1.32    0.68
   4   2 -24    1.85    0.73
   3  -2 -24    0.29    0.48
   3  -2 -24    0.88    0.80
  -3   2  24    0.10    0.60
   3   2 -24   -0.44    0.65
  -3   2  24    0.29    0.95
   2  -2 -24   10.29    1.01
  -2  -2  24    9.45    1.35
   2  -2 -24    9.35    1.45
   2   2 -24    6.94    1.21
  -2   2  24    9.42    1.67
  -2   2  24    8.73    1.25
   1  -2 -24    0.10    0.76
  -1  -2  24   -0.31    0.74
   1  -2 -24   -0.73    0.48
   1   2 -24    1.44    0.80
  -1   2  24    0.21    0.81
  -1   2  24    0.91    0.65
   0  -2 -24   -0.70    0.47
   0  -2 -24    0.38    0.80
   0   2 -24    1.35    0.72
   0   2  24   -0.38    0.56
   0   2  24    0.15    0.81
   1  -2  24   -0.10    0.86
  -1  -2 -24   -0.75    0.78
  -1  -2 -24   -0.22    0.47
   1   2  24   -0.14    0.82
  -1   2 -24   -0.09    0.75
   1   2  24   -0.24    0.62
   2  -2  24    2.35    1.00
  -2  -2 -24    2.11    0.54
   2   2  24    1.59    0.78
   2   2  24    0.72    0.91
  -3  -2 -24   -0.06    0.53
   3  -2  24   -0.75    0.88
   3   2  24   -0.09    1.00
   3   2  24   -0.75    0.75
   6  -3 -24    3.27    1.17
   6  -3 -24   -0.04    0.91
  -6   3  24    0.16    1.12
  -6   3  24    1.45    1.49
   6   3 -24   -0.34    0.92
   5  -3 -24    7.21    1.00
   5  -3 -24    3.99    1.17
   5   3 -24    8.35    1.41
  -5   3  24    4.99    1.46
  -5   3  24    4.57    1.10
   4  -3 -24   -0.92    0.90
   4  -3 -24    0.00    0.57
  -4   3  24    2.72    1.19
   4   3 -24    1.52    0.75
  -4   3  24   -0.88    0.81
   3  -3 -24    0.53    0.93
   3  -3 -24    2.90    0.64
  -3   3  24    2.52    0.88
   3   3 -24    2.02    0.76
  -3   3  24    2.78    1.21
   3   3 -24    4.28    1.31
   2  -3 -24    2.69    1.01
   2  -3 -24    2.34    0.65
   2   3 -24    1.95    0.72
  -2   3  24    2.37    1.12
  -2   3  24    1.46    0.78
   2   3 -24    4.74    1.33
   1  -3 -24    0.03    0.53
   1  -3 -24    0.33    0.87
  -1   3  24   -1.44    0.91
   1   3 -24    0.98    0.81
  -1   3  24   -1.11    0.77
   0  -3 -24    0.26    0.54
   0  -3  24    1.84    1.10
   0  -3 -24   -0.16    0.90
   0   3 -24    1.69    0.84
   0   3  24    2.38    1.03
   0   3  24    0.38    0.80
  -1  -3 -24   -0.17    0.51
   1  -3  24    0.03    1.07
   1   3  24   -0.18    0.87
   1   3  24    0.02    1.06
  -8   0  25    0.90    0.72
   8   0 -25    0.19    1.13
   8   0 -25   -0.24    0.66
  -8   0  25   -1.08    1.64
   7   0 -25   -0.95    0.59
   7   0 -25    0.21    1.01
  -7   0  25   -0.06    0.60
  -6   0  25   -0.83    0.60
   6   0 -25   -1.23    0.82
   6   0 -25   -0.50    0.58
  -6   0  25    1.21    1.21
  -5   0  25    2.04    1.07
   5   0 -25   -0.25    0.53
   5   0 -25   -0.16    0.81
   4   0 -25   -1.26    0.72
   4   0 -25   -0.85    0.53
  -4   0  25    0.08    0.57
  -4   0  25    0.59    0.82
  -4   0  25   -0.34    0.90
  -3   0  25   -0.16    0.52
   3   0 -25   -0.04    0.74
  -3   0  25    0.08    0.49
  -3   0  25   -1.28    0.73
  -3   0  25   -0.66    0.82
  -2   0  25    0.41    0.45
   2   0 -25   -1.40    0.80
  -2   0  25    0.62    0.80
   2   0 -25    0.75    0.72
  -2   0  25    0.64    0.82
  -2   0  25   -0.04    0.72
  -1   0  25   -0.91    0.77
  -1   0  25   -0.29    0.48
   1   0 -25    1.01    0.81
  -1   0  25    0.27    0.79
   0   0  25    0.58    0.47
   0   0  25    0.05    0.51
   0   0 -25   -1.14    0.69
  -1   0 -25   -0.38    0.83
   1   0  25    0.42    0.59
   1   0  25    1.04    0.57
   1   0  25    0.74    0.83
   2   0  25   -0.75    0.90
   2   0  25    0.46    0.64
   3   0  25   -0.36    0.70
   3   0  25    0.88    0.69
   8  -1 -25   -0.26    1.19
   8  -1 -25    1.02    0.71
   8   1 -25    1.34    1.05
  -8   1  25   -1.32    1.75
   8   1 -25    0.70    0.73
  -8   1  25    0.86    0.89
   7  -1 -25    1.59    0.72
   7  -1 -25    2.07    1.16
  -7   1  25    1.34    1.61
   7   1 -25    1.30    0.97
  -7   1  25    0.47    0.81
   7   1 -25    2.01    0.74
   6  -1 -25    1.01    1.01
   6  -1 -25    0.25    0.62
   6   1 -25    0.75    0.87
  -6   1  25    1.82    1.38
  -6   1  25    2.31    0.73
   6   1 -25    1.08    0.68
  -6   1  25    0.11    1.19
   5  -1 -25    1.44    0.93
   5  -1 -25    0.98    0.56
  -5  -1  25    0.05    0.98
  -5   1  25   -0.86    0.98
   5   1 -25    0.11    0.86
  -5   1  25    1.14    1.15
  -5   1  25    0.88    0.62
   4  -1 -25    0.57    0.56
   4  -1 -25   -1.34    0.76
  -4  -1  25   -0.97    0.89
   4   1 -25   -0.07    0.74
  -4   1  25    0.36    0.92
  -4   1  25    0.06    0.99
   3  -1 -25   -0.88    0.70
   3  -1 -25    0.58    0.58
  -3  -1  25   -0.25    0.81
  -3   1  25   -0.68    0.53
  -3   1  25   -0.11    0.88
   3   1 -25   -0.82    0.68
  -3   1  25    0.43    0.38
   2  -1 -25    2.36    0.62
  -2  -1  25    0.17    0.79
   2  -1 -25    1.96    0.77
  -2  -1  25    1.64    0.69
  -2   1  25    0.79    0.45
  -2   1  25    0.82    0.59
   2   1 -25    1.85    0.76
  -2   1  25    0.09    0.91
  -2   1  25    1.06    0.87
   1  -1 -25    3.47    0.90
  -1  -1  25    2.88    0.76
   1  -1 -25    1.95    0.60
  -1  -1  25    1.44    0.85
  -1   1  25    3.57    0.97
  -1   1  25    2.64    0.65
  -1   1  25    0.40    0.99
  -1   1  25    3.44    0.55
   1   1 -25    4.06    0.93
   0  -1  25   -0.06    0.75
   0  -1 -25    0.08    0.47
   0  -1 -25    1.34    0.81
   0   1  25    1.32    0.60
   0   1  25   -0.13    1.16
   0   1  25   -0.35    0.84
   0   1  25   -0.69    0.48
   0   1 -25   -0.15    0.71
   1  -1  25    7.29    1.27
  -1  -1 -25    6.81    1.15
  -1  -1 -25    8.91    0.92
   1   1  25    8.43    1.11
  -1   1 -25    9.65    1.57
   1   1  25    9.87    1.62
   1   1  25   10.91    1.19
   2  -1  25    7.65    1.10
   2   1  25    8.21    1.16
   2   1  25    7.55    1.16
   2   1  25    6.23    1.19
   7  -2 -25    0.47    1.47
   7  -2 -25    2.33    0.70
   7   2 -25    2.38    1.06
  -7   2  25    2.81    1.72
  -7   2  25    2.98    1.14
   6  -2 -25    0.65    0.59
   6  -2 -25    0.59    0.95
  -6   2  25   -0.58    0.92
  -6   2  25    0.12    1.33
   6   2 -25    1.74    1.00
   5  -2 -25    0.46    0.91
   5  -2 -25    0.61    0.57
  -5   2  25   -1.14    1.24
   5   2 -25    0.30    0.81
   4  -2 -25    1.94    0.93
   4  -2 -25    2.15    0.64
   4   2 -25    1.50    0.81
  -4   2  25    3.00    1.21
  -4   2  25    0.89    0.76
   3  -2 -25   13.78    1.20
   3  -2 -25   10.61    1.55
   3   2 -25    9.47    1.45
  -3   2  25   13.28    1.94
  -3   2  25   10.48    1.43
   2  -2 -25    1.30    0.61
  -2  -2  25   -0.79    0.85
   2  -2 -25    1.72    0.87
  -2   2  25   -0.50    0.70
   2   2 -25    0.35    0.68
  -2   2  25   -1.31    0.97
   1  -2 -25   -0.51    0.52
  -1  -2  25   -0.94    0.83
   1  -2 -25    0.46    0.77
   1   2 -25    0.58    0.89
  -1   2  25   -0.75    0.67
  -1   2  25    0.32    1.02
   0  -2 -25    3.05    0.99
   0  -2  25    3.91    1.01
   0  -2 -25    3.63    0.66
   0   2  25    1.48    1.01
   0   2 -25    1.08    0.88
   0   2  25    2.69    0.79
   1  -2  25    1.17    1.02
   1   2  25    0.35    0.80
   1   2  25   -1.36    1.00
   5  -3 -25   11.89    1.96
   5   3 -25   11.54    1.74
   4  -3 -25    0.58    0.59
   4  -3 -25    0.79    1.06
   4   3 -25    0.16    0.89
  -4   3  25    0.43    0.86
  -4   3  25    1.09    1.33
   3  -3 -25    1.18    1.00
   3  -3 -25   -0.65    0.59
  -3   3  25    0.56    0.82
  -3   3  25   -1.25    1.21
   3   3 -25   -0.88    0.79
   2  -3 -25    1.87    0.69
   2  -3 -25    3.36    1.00
  -2   3  25    0.20    0.96
   2   3 -25    3.90    0.96
  -2   3  25    0.89    1.21
   1  -3 -25    1.08    0.57
  -1  -3  25    0.55    1.67
   1  -3 -25   -1.23    1.75
  -1   3  25    1.35    1.16
   1   3 -25    0.70    0.86
  -1   3  25    0.43    0.86
  -7   0  26   -1.21    0.70
   7   0 -26    2.35    1.21
   7   0 -26    0.74    0.70
   6   0 -26   -0.30    0.62
  -6   0  26    0.23    0.62
  -6   0  26   -0.76    1.52
   6   0 -26   -0.22    0.97
   5   0 -26   -0.27    0.62
  -5   0  26    0.31    1.17
  -5   0  26   -0.03    0.57
   5   0 -26    1.24    0.94
   4   0 -26    2.52    0.69
  -4   0  26    0.45    1.07
   4   0 -26    1.34    0.92
  -4   0  26    2.09    0.73
  -3   0  26    5.88    0.94
   3   0 -26    7.08    1.17
  -3   0  26    4.94    1.14
   2   0 -26    1.08    0.87
  -2   0  26    1.66    0.60
  -2   0  26    1.89    0.97
   1   0 -26    5.56    1.09
  -1   0  26    3.66    0.70
  -1   0  26    2.94    0.64
  -1   0  26    2.27    0.98
   0   0 -26    0.98    0.92
   0   0  26   -0.48    0.58
   0   0  26   -0.45    1.18
   0   0  26   -0.41    0.59
  -1   0 -26   47.09    3.57
   1   0  26   56.16    3.58
   1   0  26   50.86    3.28
   1   0  26   50.25    3.19
   7  -1 -26    1.65    1.16
   7  -1 -26   -0.31    0.62
   7   1 -26    0.50    0.78
   7   1 -26    0.66    1.16
   6  -1 -26   -0.02    0.63
   6  -1 -26    0.97    0.98
  -6   1  26   -1.29    1.47
   6   1 -26   -0.59    1.01
  -6   1  26   -0.80    0.71
   5  -1 -26    0.58    0.99
   5  -1 -26    0.31    0.56
  -5   1  26    2.13    1.25
   5   1 -26    1.06    0.94
  -5   1  26   -0.70    0.66
   4  -1 -26   -0.69    0.89
   4  -1 -26    1.30    0.64
  -4   1  26   -0.16    0.66
  -4   1  26   -1.80    1.17
  -4   1  26    0.32    1.09
   4   1 -26   -0.63    0.86
   3  -1 -26    8.21    1.01
   3  -1 -26    6.70    1.17
  -3   1  26    4.33    1.33
  -3   1  26    8.63    1.16
   3   1 -26    7.55    1.18
  -3   1  26    6.65    1.31
   2  -1 -26    0.13    0.57
   2  -1 -26   -0.25    0.95
  -2   1  26   -0.79    0.98
  -2   1  26   -0.34    1.17
  -2   1  26   -0.73    0.63
   2   1 -26    1.13    0.74
  -1  -1  26    1.37    0.80
   1  -1 -26    1.18    0.96
   1  -1 -26   -0.38    0.60
  -1   1  26    0.57    0.99
   1   1 -26    0.70    0.90
  -1   1  26    0.71    0.68
  -1   1  26   -0.78    0.55
   0  -1  26    0.34    0.80
   0  -1 -26   -0.20    0.53
   0   1  26   -1.61    0.94
   0   1  26    0.76    0.56
   0   1  26   -0.09    0.64
   0   1 -26    1.83    0.88
  -1  -1 -26    1.48    0.58
  -1  -1 -26   -0.43    1.01
   1  -1  26    2.06    0.83
  -1   1 -26    0.04    0.90
   1   1  26    1.31    1.01
   1   1  26    2.22    0.67
   1   1  26    1.15    0.72
   5  -2 -26    2.18    1.20
   5  -2 -26    1.77    0.71
   5   2 -26    0.72    1.06
  -5   2  26    3.40    1.43
  -5   2  26    1.64    0.96
   4  -2 -26    0.12    0.98
   4  -2 -26   -0.23    0.56
   4   2 -26    1.04    0.92
  -4   2  26   -1.67    1.20
  -4   2  26    0.75    0.78
   3  -2 -26    1.72    0.93
   3  -2 -26    0.83    0.64
  -3   2  26    1.16    0.84
   3   2 -26    0.56    0.86
  -3   2  26    1.64    1.20
   2  -2 -26    4.72    1.07
   2  -2 -26    4.72    0.77
   2   2 -26    4.17    1.08
  -2   2  26    3.62    1.24
  -2   2  26    5.08    0.92
   1  -2 -26    1.42    0.97
   1  -2 -26    2.51    0.64
   1   2 -26   -0.18    0.95
  -1   2  26    3.07    1.17
  -1   2  26    0.40    0.78
   0  -2  26    1.74    1.12
   0   2 -26    0.42    1.02
   5   0 -27   -0.19    1.04
  -5   0  27    1.20    0.67
   5   0 -27   -0.80    0.68
  -4   0  27   -0.12    1.48
  -4   0  27   -0.20    0.65
   4   0 -27   -1.17    0.93
  -3   0  27   -1.56    1.23
  -3   0  27    0.68    0.61
   3   0 -27   -0.30    0.98
  -2   0  27    0.68    0.60
   2   0 -27   -0.09    0.99
   1   0 -27    0.87    0.98
  -1   0  27    0.24    0.62
   0   0 -27   -1.62    1.02
   5  -1 -27    2.74    1.10
   5  -1 -27    5.04    0.83
   5   1 -27    2.99    1.12
   4  -1 -27   -0.07    0.65
   4  -1 -27   -0.70    1.01
  -4   1  27   -0.19    0.73
   4   1 -27   -1.30    0.96
  -4   1  27   -0.72    1.20
   3  -1 -27    3.51    0.77
   3  -1 -27    2.35    1.09
  -3   1  27    3.83    0.82
  -3   1  27    1.68    1.21
   3   1 -27    1.72    0.99
   2  -1 -27    3.05    1.08
   2  -1 -27    0.11    0.60
  -2   1  27   -1.18    0.72
  -2   1  27    1.04    1.12
   2   1 -27   -1.83    0.97
   1  -1 -27    2.16    1.13
   1  -1 -27    0.26    0.57
  -1   1  27   -0.16    0.77
   1   1 -27    1.10    0.97
   0   0   0    0.00    0.00
;
_shelx_hkl_checksum              13136
loop_
_space_group_symop_operation_xyz
'x, y, z'
'-x, y+1/2, -z+1/2'
'-x, -y, -z'
'x, -y-1/2, z-1/2'
loop_
_atom_site_label
_atom_site_type_symbol
_atom_site_fract_x
_atom_site_fract_y
_atom_site_fract_z
_atom_site_U_iso_or_equiv
_atom_site_adp_type
_atom_site_occupancy
_atom_site_site_symmetry_order
_atom_site_calc_flag
_atom_site_refinement_flags_posn
F2 F 0.92048(9) -0.26958(17) 0.20358(5) 0.0224(2) Uani 1 1 d .
F1 F 0.94270(9) 0.36736(17) 0.04012(5) 0.0222(2) Uani 1 1 d .
N3 N 0.44424(15) 0.6836(3) 0.07372(7) 0.0250(3) Uani 1 1 d .
N2 N 1.21929(13) 0.1565(2) 0.03203(7) 0.0202(3) Uani 1 1 d .
N4 N 0.39781(13) 0.0763(3) 0.21822(7) 0.0205(3) Uani 1 1 d .
N1 N 1.18901(15) -0.4399(3) 0.16696(7) 0.0252(3) Uani 1 1 d .
C11 C 0.48390(15) 0.5039(3) 0.10193(8) 0.0172(3) Uani 1 1 d .
C10 C 0.54116(15) 0.2852(3) 0.13753(7) 0.0153(3) Uani 1 1 d .
C9 C 0.67055(14) 0.2031(3) 0.13152(7) 0.0141(3) Uani 1 1 d .
C8 C 0.74731(14) 0.3314(3) 0.08731(7) 0.0148(3) Uani 1 1 d D
C6 C 0.87415(15) 0.2514(3) 0.08335(7) 0.0149(3) Uani 1 1 d .
C4 C 0.94325(14) 0.0414(3) 0.12087(7) 0.0135(3) Uani 1 1 d .
C3 C 1.07141(14) -0.0400(3) 0.11296(7) 0.0145(3) Uani 1 1 d .
C2 C 1.15158(15) 0.0761(3) 0.06789(7) 0.0159(3) Uani 1 1 d .
C12 C 0.46158(15) 0.1669(3) 0.18191(7) 0.0161(3) Uani 1 1 d .
C1 C 1.13504(15) -0.2612(3) 0.14495(7) 0.0172(3) Uani 1 1 d .
C5 C 0.86132(15) -0.0777(3) 0.16526(7) 0.0148(3) Uani 1 1 d .
C7 C 0.73298(15) -0.0084(3) 0.17031(7) 0.0156(3) Uani 1 1 d D
H7 H 0.6795(16) -0.112(3) 0.2043(7) 0.025(5) Uiso 1 1 d D
H8 H 0.7060(17) 0.4937(18) 0.0580(8) 0.022(5) Uiso 1 1 d D
loop_
_atom_site_aniso_label
_atom_site_aniso_U_11
_atom_site_aniso_U_22
_atom_site_aniso_U_33
_atom_site_aniso_U_23
_atom_site_aniso_U_13
_atom_site_aniso_U_12
F2 0.0217(5) 0.0212(5) 0.0258(5) 0.0122(4) 0.0085(4) 0.0069(4)
F1 0.0187(4) 0.0230(5) 0.0280(5) 0.0135(4) 0.0119(4) 0.0035(4)
N3 0.0239(7) 0.0228(7) 0.0290(7) 0.0024(6) 0.0072(6) 0.0051(6)
N2 0.0185(6) 0.0215(6) 0.0211(6) 0.0014(5) 0.0057(5) 0.0016(5)
N4 0.0184(6) 0.0224(7) 0.0218(6) 0.0017(5) 0.0069(5) 0.0032(5)
N1 0.0272(7) 0.0252(7) 0.0242(7) 0.0055(6) 0.0078(6) 0.0089(6)
C11 0.0141(6) 0.0201(7) 0.0188(6) -0.0020(6) 0.0066(5) 0.0007(5)
C10 0.0158(7) 0.0162(7) 0.0140(6) -0.0016(5) 0.0030(5) -0.0002(5)
C9 0.0150(6) 0.0144(6) 0.0128(6) -0.0022(5) 0.0029(5) -0.0003(5)
C8 0.0163(7) 0.0139(6) 0.0144(6) 0.0019(5) 0.0036(5) 0.0013(5)
C6 0.0163(7) 0.0148(7) 0.0147(6) 0.0029(5) 0.0056(5) -0.0013(5)
C4 0.0148(6) 0.0135(6) 0.0124(6) -0.0002(5) 0.0035(5) -0.0004(5)
C3 0.0154(6) 0.0141(6) 0.0136(6) 0.0011(5) 0.0026(5) 0.0003(5)
C2 0.0139(6) 0.0180(7) 0.0151(6) 0.0003(5) 0.0018(5) 0.0036(5)
C12 0.0144(6) 0.0170(7) 0.0168(6) -0.0016(5) 0.0028(5) 0.0032(5)
C1 0.0166(7) 0.0207(7) 0.0154(6) -0.0001(6) 0.0058(5) 0.0015(6)
C5 0.0177(7) 0.0128(6) 0.0136(6) 0.0040(5) 0.0026(5) 0.0008(5)
C7 0.0177(7) 0.0156(6) 0.0141(6) 0.0014(5) 0.0047(5) 0.0004(5)
loop_
_atom_type_symbol
_atom_type_description
_atom_type_scat_dispersion_real
_atom_type_scat_dispersion_imag
_atom_type_scat_source
C C 0.0033 0.0016 'International Tables Vol C Tables 4.2.6.8 and 6.1.1.4'
H H 0.0000 0.0000 'International Tables Vol C Tables 4.2.6.8 and 6.1.1.4'
N N 0.0061 0.0033 'International Tables Vol C Tables 4.2.6.8 and 6.1.1.4'
F F 0.0171 0.0103 'International Tables Vol C Tables 4.2.6.8 and 6.1.1.4'
loop_
_geom_angle_atom_site_label_1
_geom_angle_atom_site_label_2
_geom_angle_atom_site_label_3
_geom_angle
N3 C11 C10 176.76(16)
C9 C10 C12 122.41(13)
C9 C10 C11 120.49(13)
C12 C10 C11 117.01(13)
C10 C9 C8 120.19(13)
C10 C9 C7 121.11(13)
C8 C9 C7 118.68(13)
C6 C8 C9 119.25(13)
C6 C8 H8 119.2(9)
C9 C8 H8 121.6(9)
F1 C6 C8 118.72(12)
F1 C6 C4 116.21(12)
C8 C6 C4 125.04(13)
C3 C4 C6 123.03(12)
C3 C4 C5 123.95(13)
C6 C4 C5 112.99(12)
C4 C3 C1 123.34(13)
C4 C3 C2 123.87(13)
C1 C3 C2 112.65(12)
N2 C2 C3 176.18(15)
N4 C12 C10 178.64(16)
N1 C1 C3 175.94(15)
F2 C5 C7 119.00(12)
F2 C5 C4 116.47(12)
C7 C5 C4 124.53(13)
C5 C7 C9 119.48(13)
C5 C7 H7 118.9(9)
C9 C7 H7 121.7(10)
loop_
_geom_bond_atom_site_label_1
_geom_bond_atom_site_label_2
_geom_bond_distance
F2 C5 1.3410(16)
F1 C6 1.3377(16)
N3 C11 1.149(2)
N2 C2 1.1446(19)
N4 C12 1.1469(19)
N1 C1 1.149(2)
C11 C10 1.432(2)
C10 C9 1.377(2)
C10 C12 1.431(2)
C9 C8 1.436(2)
C9 C7 1.440(2)
C8 C6 1.339(2)
C8 H8 1.0827(10)
C6 C4 1.4461(19)
C4 C3 1.3750(19)
C4 C5 1.4488(19)
C3 C1 1.438(2)
C3 C2 1.439(2)
C5 C7 1.341(2)
C7 H7 1.0827(10)
loop_
_geom_torsion_atom_site_label_1
_geom_torsion_atom_site_label_2
_geom_torsion_atom_site_label_3
_geom_torsion_atom_site_label_4
_geom_torsion
C12 C10 C9 C8 -178.77(13)
C11 C10 C9 C8 -2.3(2)
C12 C10 C9 C7 -0.2(2)
C11 C10 C9 C7 176.33(13)
C10 C9 C8 C6 178.64(13)
C7 C9 C8 C6 0.0(2)
C9 C8 C6 F1 177.74(12)
C9 C8 C6 C4 -0.2(2)
F1 C6 C4 C3 -0.7(2)
C8 C6 C4 C3 177.30(14)
F1 C6 C4 C5 -178.62(12)
C8 C6 C4 C5 -0.6(2)
C6 C4 C3 C1 -174.12(13)
C5 C4 C3 C1 3.6(2)
C6 C4 C3 C2 1.2(2)
C5 C4 C3 C2 178.89(13)
C3 C4 C5 F2 4.2(2)
C6 C4 C5 F2 -177.90(11)
C3 C4 C5 C7 -176.06(14)
C6 C4 C5 C7 1.9(2)
F2 C5 C7 C9 177.61(12)
C4 C5 C7 C9 -2.1(2)
C10 C9 C7 C5 -177.50(14)
C8 C9 C7 C5 1.1(2)
