#------------------------------------------------------------------------------
#$Date: 2019-06-18 16:09:15 +0300 (Tue, 18 Jun 2019) $
#$Revision: 216076 $
#$URL: file:///home/coder/svn-repositories/cod/cif/2/02/16/2021680.cif $
#------------------------------------------------------------------------------
#
# This file is available in the Crystallography Open Database (COD),
# http://www.crystallography.net/. The original data for this entry
# were provided by IUCr Journals, http://journals.iucr.org/.
#
# The file may be used within the scientific community so long as
# proper attribution is given to the journal article from which the
# data were obtained.
#
data_2021680
loop_
_publ_author_name
'Eugenia D. Voronova'
'Alexander A. Golovanov'
'Ivan S. Odin'
'Maksim A. Anisimov'
'Pavel V. Dorovatovskii'
'Yan V. Zubavichus'
'Anna V. Vologzhanina'
_publ_section_title
;
 Peculiarities of supramolecular organization of cyclic ketones with
 vinylacetylene fragments
;
_journal_coeditor_code           JX3023
_journal_issue                   12
_journal_name_full               'Acta Crystallographica, Section C'
_journal_page_first              1674
_journal_page_last               1683
_journal_paper_doi               10.1107/S2053229618015838
_journal_volume                  74
_journal_year                    2018
_chemical_formula_iupac          'C18 H20 O2'
_chemical_formula_moiety         'C18 H20 O2'
_chemical_formula_sum            'C18 H20 O2'
_chemical_formula_weight         268.34
_chemical_name_systematic
;
6-(3-Butylprop-2-yn-1-ylidene)-2-(furan-2-ylmethylene)cyclohexanone
;
_space_group_crystal_system      triclinic
_space_group_IT_number           2
_space_group_name_Hall           '-P 1'
_space_group_name_H-M_alt        'P -1'
_atom_sites_solution_hydrogens   geom
_atom_sites_solution_primary     dual
_audit_creation_method
;
Olex2 1.2
(compiled 2018.05.29 svn.r3508 for OlexSys, GUI svn.r5506)
;
_cell_angle_alpha                84.218(3)
_cell_angle_beta                 70.882(3)
_cell_angle_gamma                66.632(3)
_cell_formula_units_Z            2
_cell_length_a                   9.2801(14)
_cell_length_b                   9.5498(14)
_cell_length_c                   9.6407(14)
_cell_measurement_reflns_used    2852
_cell_measurement_temperature    120
_cell_measurement_theta_max      34.66
_cell_measurement_theta_min      2.32
_cell_volume                     740.63(19)
_computing_cell_refinement
;
SAINT (Bruker, 2010)
;
_computing_data_collection
;
APEX (Bruker, 2010)
;
_computing_data_reduction
;
SAINT (Bruker, 2010)
;
_computing_molecular_graphics
;
OLEX2 (Dolomanov <i>et al.</i>, 2009)
;
_computing_publication_material
;
OLEX2 (Dolomanov <i>et al.</i>, 2009)
;
_computing_structure_refinement
;
SHELXL2014 (Sheldrick, 2015b)
;
_computing_structure_solution
;
SHELXT (Sheldrick, 2015a)
;
_diffrn_ambient_temperature      120
_diffrn_detector_area_resol_mean 8
_diffrn_measured_fraction_theta_full 1.000
_diffrn_measured_fraction_theta_max 0.963
_diffrn_measurement_device_type  'Bruker SMART APEX CCD area detector'
_diffrn_measurement_method       '\w and \f scans'
_diffrn_radiation_monochromator  graphite
_diffrn_radiation_type           MoK\a
_diffrn_radiation_wavelength     0.71073
_diffrn_reflns_av_R_equivalents  0.0315
_diffrn_reflns_av_unetI/netI     0.0558
_diffrn_reflns_limit_h_max       15
_diffrn_reflns_limit_h_min       -15
_diffrn_reflns_limit_k_max       15
_diffrn_reflns_limit_k_min       -15
_diffrn_reflns_limit_l_max       15
_diffrn_reflns_limit_l_min       -15
_diffrn_reflns_number            13735
_diffrn_reflns_theta_full        25.242
_diffrn_reflns_theta_max         36.053
_diffrn_reflns_theta_min         2.325
_diffrn_source                   'sealed tube'
_exptl_absorpt_coefficient_mu    0.077
_exptl_absorpt_correction_T_max  0.7471
_exptl_absorpt_correction_T_min  0.6691
_exptl_absorpt_correction_type   multi-scan
_exptl_absorpt_process_details
;
(SADABS; Bruker, 2015)
;
_exptl_crystal_colour            yellow
_exptl_crystal_density_diffrn    1.203
_exptl_crystal_density_meas      .
_exptl_crystal_description       prism
_exptl_crystal_F_000             288
_exptl_crystal_size_max          0.4
_exptl_crystal_size_mid          0.3
_exptl_crystal_size_min          0.2
_refine_diff_density_max         0.451
_refine_diff_density_min         -0.324
_refine_ls_extinction_coef       .
_refine_ls_extinction_method     none
_refine_ls_goodness_of_fit_ref   1.033
_refine_ls_hydrogen_treatment    constr
_refine_ls_matrix_type           full
_refine_ls_number_parameters     182
_refine_ls_number_reflns         6779
_refine_ls_number_restraints     0
_refine_ls_restrained_S_all      1.033
_refine_ls_R_factor_all          0.0903
_refine_ls_R_factor_gt           0.0577
_refine_ls_shift/su_max          0.001
_refine_ls_shift/su_mean         0.000
_refine_ls_structure_factor_coef Fsqd
_refine_ls_weighting_details
'w=1/[\s^2^(Fo^2^)+(0.0500P)^2^+0.1500P] where P=(Fo^2^+2Fc^2^)/3'
_refine_ls_weighting_scheme      calc
_refine_ls_wR_factor_gt          0.1249
_refine_ls_wR_factor_ref         0.1390
_reflns_number_gt                4496
_reflns_number_total             6779
_reflns_threshold_expression     'I > 2\s(I)'
_cod_data_source_file            5b.cif
_cod_data_source_block           5b
_cod_database_code               2021680
_shelx_space_group_comment
;
The symmetry employed for this shelxl refinement is uniquely defined
by the following loop, which should always be used as a source of
symmetry information in preference to the above space-group names.
They are only intended as comments.
;
_shelx_estimated_absorpt_t_min   0.970
_shelx_estimated_absorpt_t_max   0.985
_shelx_hkl_file
;
  -1   0   0  128.89    2.20
  -1   0   0  115.69    2.30
   1   0   0  130.49    2.20
   1   0   0  125.69    2.30
  -2   0   0   14.30    0.60
   2   0   0   14.80    0.60
   2   0   0   14.80    0.40
  -3   0   0   22.30    0.80
   3   0   0   21.30    0.60
  -4   0   0   44.50    1.40
   4   0   0   44.30    1.40
   4   0   0   43.50    1.00
  -5   0   0    0.60    0.30
   5   0   0    0.20    0.30
   5   0   0    1.00    0.20
  -6   0   0   20.60    1.20
   6   0   0   21.90    1.20
   6   0   0   21.40    0.60
  -7   0   0   38.50    1.70
   7   0   0   37.00    1.70
  -8   0   0   10.10    1.20
   8   0   0    9.80    1.20
  -9   0   0   12.10    1.40
   9   0   0    9.90    1.20
 -10   0   0   21.80    1.70
  10   0   0   28.80    2.00
 -11   0   0    5.60    1.20
  11   0   0    3.90    1.00
 -12   0   0    5.10    1.20
  12   0   0    4.20    1.10
 -13   0   0   -0.80    0.70
  13   0   0    1.10    0.80
  12  -1   0   -0.10    0.80
 -12   1   0    1.60    0.90
  11  -1   0    9.60    1.50
 -11   1   0    8.70    1.40
  10  -1   0   -0.70    0.60
 -10   1   0    0.50    0.60
   9  -1   0   11.60    1.40
  -9   1   0   11.60    1.30
   8  -1   0    7.50    1.10
  -8   1   0   10.50    1.20
   7  -1   0   42.90    1.90
  -7   1   0   46.10    2.00
   6  -1   0   17.70    0.70
   6  -1   0   17.90    1.10
  -6   1   0   16.50    1.10
   5  -1   0    2.90    0.50
   5  -1   0    4.80    0.40
  -5   1   0    3.10    0.50
   4  -1   0   73.89    2.10
   4  -1   0   72.09    1.70
  -4   1   0   76.19    2.10
   3  -1   0   26.40    1.00
   3  -1   0   25.40    0.80
  -3   1   0   24.00    0.90
   2  -1   0   25.00    0.80
   2  -1   0   27.30    0.80
  -2   1   0   26.90    0.80
   1  -1   0 1197.28   20.30
   1  -1   0 1189.08   21.20
  -1   1   0 1169.98   20.70
   0  -1   0  257.97    4.20
   0  -1   0  220.58    4.00
   0   1   0  229.48    4.10
  -1  -1   0    3.00    0.20
   1   1   0    3.70    0.20
   1   1   0    3.40    0.20
  -2  -1   0  384.46    6.50
   2   1   0  379.16    6.70
   2   1   0  378.96    6.70
  -3  -1   0   11.30    0.40
  -3  -1   0   10.50    0.60
   3   1   0   11.80    0.60
  -4  -1   0   15.70    0.80
  -4  -1   0   14.90    0.50
   4   1   0   14.40    0.80
  -5  -1   0    0.20    0.30
  -5  -1   0    0.60    0.20
   5   1   0    0.80    0.40
  -6  -1   0   31.40    1.40
   6   1   0   31.50    1.40
  -7  -1   0    2.30    0.60
   7   1   0    2.00    0.60
  -8  -1   0    4.70    0.80
   8   1   0    4.00    0.80
  -9  -1   0   34.30    1.90
   9   1   0   29.90    1.80
 -10  -1   0    4.90    1.00
  10   1   0    4.50    1.00
 -11  -1   0    1.10    0.80
  11   1   0    1.10    0.80
 -12  -1   0    1.10    0.80
  12   1   0    1.60    0.90
 -13  -1   0    0.30    0.70
  13   1   0    0.70    0.80
  12  -2   0   20.30    2.20
 -12   2   0   12.80    1.70
  11  -2   0    0.50    0.80
 -11   2   0    0.10    0.70
  10  -2   0   -0.50    0.60
 -10   2   0    0.30    0.60
   9  -2   0    1.40    0.80
  -9   2   0    1.00    0.60
   8  -2   0   10.70    1.30
  -8   2   0   10.30    1.30
   7  -2   0    0.90    0.50
  -7   2   0    0.10    0.40
   6  -2   0    2.90    0.60
   6  -2   0    2.60    0.40
  -6   2   0    2.90    0.60
   5  -2   0   50.49    1.60
   5  -2   0   52.49    1.90
  -5   2   0   53.29    1.90
   4  -2   0   34.20    1.20
   4  -2   0   33.10    1.40
  -4   2   0   33.50    1.30
   3  -2   0  127.49    2.80
   3  -2   0  122.09    2.80
  -3   2   0  123.39    2.80
   2  -2   0  582.14   10.20
   2  -2   0  593.34   10.40
  -2   2   0  573.24   10.20
   1  -2   0  188.08    3.70
   1  -2   0  185.38    3.50
  -1   2   0  187.88    3.50
   0  -2   0 1078.29   18.90
   0   2   0 1123.69   19.10
   0   2   0 1127.19   18.90
  -1  -2   0 1209.78   21.30
   1   2   0 1212.88   21.60
   1   2   0 1260.27   21.20
  -2  -2   0  171.38    3.40
   2   2   0  178.18    3.20
   2   2   0  178.28    3.40
  -3  -2   0   61.19    1.40
   3   2   0   60.09    1.50
   3   2   0   57.59    1.60
  -4  -2   0   41.70    1.10
   4   2   0   41.60    1.30
   4   2   0   39.30    1.40
  -5  -2   0    8.20    0.40
  -5  -2   0    6.70    0.70
   5   2   0    8.40    0.70
  -6  -2   0  131.89    3.40
  -6  -2   0  134.79    2.50
   6   2   0  129.29    3.30
  -7  -2   0    0.20    0.30
   7   2   0   -0.60    0.30
  -8  -2   0    0.70    0.40
   8   2   0    1.50    0.50
  -9  -2   0   33.40    1.90
   9   2   0   31.40    1.80
 -10  -2   0   33.00    2.00
  10   2   0   33.80    2.00
 -11  -2   0    4.60    1.00
  11   2   0    4.70    1.00
 -12  -2   0    0.30    0.60
  12   2   0    1.30    0.90
 -13  -2   0    4.20    1.20
  13   2   0    1.50    0.90
 -12   3   0    2.40    1.00
  11  -3   0    0.60    0.90
 -11   3   0    1.60    0.90
  10  -3   0    0.70    0.80
 -10   3   0    1.50    0.80
   9  -3   0    0.50    0.70
  -9   3   0    2.40    0.80
   8  -3   0    3.00    0.70
  -8   3   0    2.20    0.70
   7  -3   0   52.59    2.30
  -7   3   0   52.09    2.20
   6  -3   0    0.30    0.40
   6  -3   0    1.40    0.40
  -6   3   0    0.30    0.40
   5  -3   0   -0.20    0.30
   5  -3   0    0.50    0.30
  -5   3   0   -0.10    0.30
   4  -3   0   37.60    1.50
   4  -3   0   40.10    1.50
  -4   3   0   34.90    1.40
   3  -3   0  640.94   11.60
   3  -3   0  634.54   11.40
  -3   3   0  630.74   11.50
   2  -3   0    0.60    0.30
   2  -3   0    0.00    0.20
  -2   3   0    0.10    0.20
   1  -3   0  121.79    2.50
   1  -3   0  125.39    2.90
  -1   3   0  121.79    2.60
   0  -3   0    7.20    0.60
   0   3   0    6.50    0.30
   0   3   0    6.80    0.40
  -1  -3   0   48.10    1.50
   1   3   0   49.90    1.10
   1   3   0   49.30    1.20
  -2  -3   0    0.00    0.20
   2   3   0    0.20    0.20
   2   3   0    0.10    0.10
  -3  -3   0    7.50    0.60
   3   3   0    7.70    0.50
   3   3   0    7.90    0.60
  -4  -3   0   36.20    1.20
   4   3   0   36.70    1.20
   4   3   0   36.30    1.30
  -5  -3   0   28.00    1.00
   5   3   0   28.40    1.10
   5   3   0   28.40    1.20
  -6  -3   0   22.80    0.80
  -6  -3   0   21.80    1.20
   6   3   0   21.10    1.10
  -7  -3   0    0.30    0.40
  -7  -3   0    0.20    0.20
   7   3   0   -0.30    0.30
  -8  -3   0   14.60    1.20
   8   3   0   14.30    1.10
   9   3   0   20.60    1.40
 -10  -3   0    0.40    0.50
  10   3   0    0.90    0.60
 -11  -3   0   10.00    1.40
  11   3   0    9.40    1.30
 -12  -3   0    1.60    0.80
  12   3   0    2.50    0.90
 -13  -3   0    1.90    0.80
  13   3   0    2.80    1.10
 -14  -3   0    5.30    1.90
  11  -4   0    0.40    0.80
 -11   4   0    0.80    0.90
  10  -4   0    1.50    0.90
 -10   4   0    1.80    0.90
   9  -4   0    2.70    1.00
  -9   4   0    4.30    1.00
   8  -4   0    0.90    0.60
  -8   4   0    0.30    0.50
   7  -4   0   11.70    1.30
  -7   4   0   12.50    1.30
   6  -4   0    0.90    0.40
   6  -4   0    1.40    0.60
  -6   4   0    0.80    0.50
   5  -4   0    0.00    0.40
   5  -4   0    0.20    0.30
  -5   4   0   -0.20    0.30
   4  -4   0   45.90    1.70
   4  -4   0   45.40    1.80
  -4   4   0   45.90    1.70
   3  -4   0   24.80    1.10
   3  -4   0   25.60    1.30
  -3   4   0   24.30    1.10
   2  -4   0   21.40    1.00
   2  -4   0   23.60    1.20
  -2   4   0   22.80    1.00
   1  -4   0    3.30    0.40
   1  -4   0    2.60    0.50
  -1   4   0    2.20    0.30
   0  -4   0    9.60    0.80
   0   4   0    9.50    0.50
   0   4   0   10.10    0.50
  -1  -4   0   15.30    0.90
   1   4   0   16.40    0.70
   1   4   0   15.20    0.50
  -2  -4   0   19.70    1.00
   2   4   0   19.70    0.80
   2   4   0   20.90    0.70
  -3  -4   0  165.08    3.70
   3   4   0  161.28    3.50
   3   4   0  167.98    3.20
  -4  -4   0   36.60    1.40
   4   4   0   38.20    1.40
   4   4   0   37.10    1.20
  -5  -4   0  116.09    2.80
   5   4   0  115.59    3.00
   5   4   0  111.99    2.70
  -6  -4   0   -0.20    0.20
   6   4   0   -0.10    0.30
   6   4   0    0.10    0.40
  -7  -4   0    0.90    0.40
  -7  -4   0    2.60    0.40
   7   4   0    1.80    0.50
  -8  -4   0   18.30    1.30
   8   4   0   17.50    1.20
  -9  -4   0   43.80    2.20
   9   4   0   45.90    2.00
 -10  -4   0   36.40    2.00
  10   4   0   35.00    1.90
 -11  -4   0    7.20    1.20
  11   4   0    8.20    1.20
 -12  -4   0    0.30    0.60
  12   4   0    0.20    0.60
 -13  -4   0    0.90    0.70
  13   4   0    0.30    0.70
 -14  -4   0    8.00    1.50
  14   4   0    7.70    1.60
  10  -5   0    0.20    0.90
 -10   5   0    0.70    0.80
   9  -5   0    8.10    1.40
  -9   5   0    9.70    1.40
   8  -5   0   15.60    1.70
  -8   5   0   11.40    1.50
   7  -5   0    4.00    0.90
  -7   5   0    3.50    0.80
   6  -5   0   12.10    1.20
   6  -5   0   12.50    1.30
  -6   5   0   11.60    1.20
   5  -5   0    4.30    0.80
   5  -5   0    4.60    0.80
  -5   5   0    4.10    0.70
   4  -5   0   75.99    2.60
   4  -5   0   67.89    2.30
  -4   5   0   75.19    2.40
   3  -5   0    0.00    0.40
   3  -5   0    0.40    0.30
  -3   5   0    1.50    0.40
   2  -5   0  118.19    3.40
   2  -5   0  116.09    2.80
  -2   5   0  114.09    2.80
   1  -5   0   23.90    1.00
   1  -5   0   21.70    1.30
  -1   5   0   23.90    1.00
   0  -5   0   35.00    1.60
   0   5   0   32.10    1.00
   0   5   0   34.40    1.10
  -1  -5   0   57.09    2.00
   1   5   0   58.89    1.60
   1   5   0   57.49    1.40
  -2  -5   0   -0.30    0.30
   2   5   0    0.00    0.20
   2   5   0    0.10    0.20
  -3  -5   0  179.78    4.20
   3   5   0  181.88    3.50
   3   5   0  183.08    3.90
  -4  -5   0   17.30    1.10
   4   5   0   17.30    0.80
   4   5   0   17.20    0.90
  -5  -5   0   31.90    1.40
   5   5   0   29.70    1.30
   5   5   0   29.70    1.10
  -6  -5   0  128.29    3.20
   6   5   0  127.59    3.10
   6   5   0  130.79    3.50
  -7  -5   0    3.60    0.60
   7   5   0    2.50    0.60
   7   5   0    3.60    0.60
  -8  -5   0   13.70    1.20
   8   5   0   15.40    1.10
  -9  -5   0   16.80    1.40
   9   5   0   15.90    1.20
 -10  -5   0   29.30    1.90
  10   5   0   25.20    1.60
 -11  -5   0   10.40    1.40
  11   5   0    9.40    1.20
 -12  -5   0    0.20    0.70
  12   5   0    0.10    0.60
 -13  -5   0    0.90    0.80
  13   5   0   -0.30    0.70
 -14  -5   0    0.60    0.80
  14   5   0   -0.70    0.70
  10  -6   0    7.70    1.50
   9  -6   0   20.00    2.10
   8  -6   0    4.00    1.10
  -8   6   0    2.80    0.80
   7  -6   0    9.70    1.40
  -7   6   0   10.20    1.30
   6  -6   0    0.80    0.60
  -6   6   0    0.30    0.50
   5  -6   0    3.60    0.80
   5  -6   0    3.90    0.80
  -5   6   0    4.70    0.80
   4  -6   0    0.30    0.50
   4  -6   0    0.70    0.60
  -4   6   0    1.00    0.50
   3  -6   0   27.90    1.70
   3  -6   0   26.80    1.40
  -3   6   0   24.80    1.30
   2  -6   0   59.39    2.40
   2  -6   0   59.29    1.90
  -2   6   0   63.39    2.00
   1  -6   0   22.30    1.50
  -1   6   0   19.90    1.00
  -1   6   0   22.20    0.90
   0  -6   0    1.70    0.60
   0   6   0    2.20    0.40
   0   6   0    3.10    0.40
  -1  -6   0   56.49    2.20
   1   6   0   55.99    1.40
   1   6   0   56.29    1.70
  -2  -6   0   72.39    2.50
   2   6   0   71.69    1.70
   2   6   0   71.49    2.00
  -3  -6   0    5.80    0.80
   3   6   0    7.80    0.50
   3   6   0    8.80    0.70
  -4  -6   0   31.30    1.60
   4   6   0   32.70    1.10
   4   6   0   28.50    1.30
  -5  -6   0    3.20    0.60
   5   6   0    3.00    0.50
   5   6   0    2.10    0.50
  -6  -6   0   66.19    2.30
   6   6   0   66.39    2.00
   6   6   0   66.29    2.30
  -7  -6   0    0.80    0.50
   7   6   0    0.90    0.40
   7   6   0    0.60    0.50
  -8  -6   0    3.30    0.60
   8   6   0    2.80    0.70
   8   6   0    3.20    0.60
  -9  -6   0   24.00    1.60
   9   6   0   22.80    1.40
 -10  -6   0   10.00    1.30
  10   6   0    9.90    1.10
 -11  -6   0    0.90    0.70
  11   6   0    0.90    0.60
 -12  -6   0   -0.60    0.50
  12   6   0   -0.40    0.50
 -13  -6   0   -0.50    0.60
  13   6   0    0.80    0.70
 -14  -6   0    4.90    1.30
  14   6   0    4.70    1.20
   9  -7   0    2.30    1.20
   8  -7   0    1.00    0.90
   7  -7   0    4.30    1.10
  -7   7   0    3.00    0.90
   6  -7   0    0.30    0.60
  -6   7   0    0.80    0.50
   5  -7   0    1.10    0.60
   5  -7   0    0.20    0.60
  -5   7   0    1.50    0.50
   4  -7   0   10.70    1.10
   4  -7   0    7.30    1.20
  -4   7   0    8.20    1.00
   3  -7   0  122.29    3.30
   3  -7   0  118.29    3.90
  -3   7   0  123.29    3.30
   2  -7   0   33.40    1.90
  -2   7   0   32.20    1.40
  -2   7   0   31.70    1.30
   1  -7   0    7.90    1.20
  -1   7   0    8.30    0.70
  -1   7   0    8.90    0.70
   0  -7   0   76.79    2.90
   0   7   0   77.29    2.00
   0   7   0   77.39    2.20
  -1  -7   0   10.70    1.30
   1   7   0   10.90    0.70
   1   7   0   12.20    0.60
  -2  -7   0   40.50    2.00
   2   7   0   41.20    1.50
   2   7   0   40.40    1.20
  -3  -7   0   29.80    1.70
   3   7   0   30.40    1.30
   3   7   0   29.90    1.00
  -4  -7   0    1.00    0.60
   4   7   0    0.70    0.30
   4   7   0    0.50    0.30
  -5  -7   0   14.90    1.30
   5   7   0   14.10    0.80
   5   7   0   14.40    1.00
  -6  -7   0   11.80    1.20
   6   7   0    9.30    1.10
   6   7   0   13.00    0.80
  -7  -7   0  328.37    7.20
   7   7   0  335.57    6.80
   7   7   0  333.47    7.30
  -8  -7   0   11.10    1.10
   8   7   0   11.60    1.30
   8   7   0   11.90    1.00
  -9  -7   0    4.80    0.90
   9   7   0    3.80    0.70
 -10  -7   0    1.40    0.70
  10   7   0    1.60    0.60
 -11  -7   0    1.20    0.70
  11   7   0    1.30    0.60
 -12  -7   0    0.30    0.70
  12   7   0    0.70    0.60
 -13  -7   0    0.50    0.70
  13   7   0    0.40    0.70
 -14  -7   0    0.90    0.80
  14   7   0    0.60    0.80
   8  -8   0    1.40    1.10
   7  -8   0   25.00    2.30
   6  -8   0    7.00    1.30
  -6   8   0    5.00    1.10
   5  -8   0    1.10    0.70
   5  -8   0    1.10    0.70
  -5   8   0    1.10    0.60
   4  -8   0    2.00    0.80
  -4   8   0    2.70    0.60
  -4   8   0    1.90    0.60
   3  -8   0    0.40    0.60
  -3   8   0    1.00    0.50
  -3   8   0    0.40    0.40
   2  -8   0    1.50    0.70
  -2   8   0    2.10    0.50
  -2   8   0    1.40    0.40
   1  -8   0    2.50    0.80
  -1   8   0    1.30    0.40
  -1   8   0    2.20    0.40
   0  -8   0   70.29    3.00
   0   8   0   64.59    1.80
   0   8   0   63.59    2.00
  -1  -8   0   43.80    2.30
   1   8   0   44.20    1.40
   1   8   0   44.90    1.60
  -2  -8   0   -0.10    0.50
   2   8   0   -0.20    0.30
   2   8   0    0.90    0.30
  -3  -8   0    8.40    1.20
   3   8   0   10.60    0.70
   3   8   0   12.20    0.90
  -4  -8   0    1.60    0.70
   4   8   0    1.00    0.30
   4   8   0    0.70    0.40
  -5  -8   0    9.70    1.30
   5   8   0    8.40    0.70
   5   8   0    9.10    1.00
  -6  -8   0   46.50    2.30
   6   8   0   41.10    1.50
   6   8   0   44.30    2.00
  -7  -8   0   80.89    3.00
   7   8   0   79.59    2.90
   7   8   0   84.89    2.40
  -8  -8   0   15.40    1.50
   8   8   0   18.00    1.40
   8   8   0   13.60    1.00
   9   8   0    0.50    0.40
   9   8   0   -0.50    0.40
 -10  -8   0    5.50    1.10
  10   8   0    4.80    0.80
 -11  -8   0    2.00    0.80
  11   8   0    1.10    0.60
 -12  -8   0    0.00    0.60
  12   8   0    1.20    0.70
 -13  -8   0   -1.40    0.60
  13   8   0    0.00    0.70
 -14  -8   0    1.60    1.00
  14   8   0    0.40    0.80
  -7   9   0    0.60    1.00
  -6   9   0    8.60    1.20
   5  -9   0   27.40    2.20
  -5   9   0   32.50    1.80
   4  -9   0    5.00    1.20
  -4   9   0    4.80    0.80
  -4   9   0    5.60    0.80
   3  -9   0    6.10    1.20
  -3   9   0    5.60    0.80
  -3   9   0    5.90    0.90
   2  -9   0   -0.50    0.50
  -2   9   0    0.40    0.30
  -2   9   0    0.90    0.40
   1  -9   0    3.60    1.00
  -1   9   0    3.30    0.50
  -1   9   0    4.20    0.60
   0  -9   0    0.30    0.70
   0   9   0    1.50    0.40
   0   9   0    1.30    0.40
  -1  -9   0    1.20    0.80
   1   9   0    1.10    0.40
   1   9   0    0.80    0.40
  -2  -9   0    2.80    0.90
   2   9   0    4.10    0.50
   2   9   0    4.90    0.70
  -3  -9   0   70.09    3.10
   3   9   0   68.89    1.80
   3   9   0   68.19    2.30
  -4  -9   0    9.40    1.40
   4   9   0    8.20    1.00
   4   9   0    8.90    0.70
  -5  -9   0    1.80    0.80
   5   9   0    0.50    0.30
   5   9   0    1.60    0.60
  -6  -9   0    1.60    0.80
   6   9   0    1.50    0.40
   6   9   0    1.70    0.60
  -7  -9   0   85.09    3.30
   7   9   0   82.69    3.00
   7   9   0   81.79    2.40
  -8  -9   0    2.90    0.90
   8   9   0    1.60    0.50
   8   9   0    2.50    0.80
   9   9   0    1.10    0.70
   9   9   0    0.70    0.50
  10   9   0    5.50    0.90
 -11  -9   0    0.40    0.70
  11   9   0    0.70    0.60
 -12  -9   0    1.50    0.90
  12   9   0    0.80    0.60
 -13  -9   0    0.60    0.70
   4 -10   0   16.30    2.00
   3 -10   0    1.00    0.80
   2 -10   0    2.30    1.00
  -2  10   0    2.40    0.60
   1 -10   0    3.40    1.10
  -1  10   0    2.20    0.60
   0 -10   0   10.10    1.60
   0  10   0   12.60    1.00
  -1 -10   0   -0.70    0.50
   1  10   0    0.00    0.30
  -2 -10   0    1.50    0.80
   2  10   0    1.00    0.40
  -3 -10   0   -0.80    0.60
   3  10   0    0.30    0.40
  -4 -10   0   19.70    2.10
   4  10   0   18.60    1.30
  -5 -10   0    6.00    1.20
   5  10   0    6.50    0.90
  -6 -10   0    0.00    0.70
   6  10   0    0.80    0.50
  -7 -10   0    0.10    0.60
   7  10   0    1.00    0.60
  -8 -10   0    3.40    1.00
   8  10   0    3.60    1.00
  -9 -10   0    2.40    1.00
   9  10   0    1.60    0.80
  10  10   0    3.70    1.00
 -11 -10   0    1.30    0.70
 -12 -10   0    1.90    0.90
 -13 -10   0    4.30    1.30
   4 -11   0    2.60    1.20
   3 -11   0    0.90    1.00
   2 -11   0    2.10    1.10
   1 -11   0    0.60    0.80
  -1  11   0    0.10    0.60
   0 -11   0   17.20    2.20
   0  11   0   16.10    1.20
  -1 -11   0    4.10    1.30
   1  11   0    2.20    0.60
  -2 -11   0   15.50    2.00
   2  11   0   15.80    1.20
  -3 -11   0   -0.80    0.60
   3  11   0    0.10    0.40
  -4 -11   0    0.90    0.80
   4  11   0    0.90    0.50
  -5 -11   0    7.60    1.50
   5  11   0    7.70    1.10
  -6 -11   0   37.10    2.50
   6  11   0   37.50    2.00
  -7 -11   0    4.10    1.10
   7  11   0    4.80    1.00
  -8 -11   0   -0.70    0.60
   8  11   0    0.40    0.60
  -9 -11   0    4.40    1.10
   9  11   0    3.00    0.90
  10  11   0   14.10    1.70
 -11 -11   0    0.90    0.80
 -12 -11   0    6.60    1.30
 -13 -11   0   -0.40    0.80
   3 -12   0    0.90    1.10
   2 -12   0    1.80    1.10
   1 -12   0    2.60    1.30
   0 -12   0    0.50    0.90
  -1 -12   0    0.90    1.00
   1  12   0    1.40    0.60
  -2 -12   0    6.70    1.50
   2  12   0    8.40    1.10
  -3 -12   0   20.60    2.40
   3  12   0   16.60    1.30
  -4 -12   0   13.70    2.10
   4  12   0   12.30    1.30
  -5 -12   0    4.90    1.30
   5  12   0    6.70    1.00
  -6 -12   0    2.00    1.10
   6  12   0    1.30    0.70
  -7 -12   0    1.90    1.00
   7  12   0    2.60    0.80
  -8 -12   0    1.30    0.90
   8  12   0    0.40    0.60
  -9 -12   0    0.70    0.90
   9  12   0    1.50    0.80
  10  12   0   22.40    2.20
 -12 -12   0    0.30    0.80
   2 -13   0   16.00    2.40
   1 -13   0    1.90    1.30
   0 -13   0    0.90    1.10
  -1 -13   0    9.50    1.90
  -2 -13   0    0.70    0.90
  -3 -13   0    1.10    1.00
   3  13   0    1.50    0.70
  -4 -13   0   44.90    3.30
   4  13   0   39.90    2.10
  -5 -13   0    1.70    1.20
   5  13   0    3.50    0.90
  -6 -13   0   29.70    2.60
   6  13   0   30.10    2.00
  -7 -13   0   15.40    2.20
   7  13   0   13.80    1.60
  -8 -13   0    1.90    1.20
   8  13   0    2.70    0.90
  -9 -13   0    8.40    1.70
   9  13   0    7.30    1.30
  10  13   0   -0.70    0.60
  11  13   0    0.60    0.90
   0 -14   0   -1.00    0.90
  -1 -14   0   -0.70    1.10
  -2 -14   0    1.80    1.30
  -3 -14   0   39.40    3.30
  -4 -14   0    1.90    1.40
  -5 -14   0    6.80    1.80
  -6 -14   0   22.20    2.80
   6  14   0   24.00    1.80
  -7 -14   0   12.50    2.20
   7  14   0   15.90    1.80
  -8 -14   0    0.60    1.10
   8  14   0   -0.40    0.60
  -9 -14   0    0.90    1.20
   9  14   0    0.50    0.70
  10  14   0    4.90    1.20
  11  14   0   -0.30    0.90
  -3 -15   0    1.50    1.40
  -4 -15   0   17.50    2.70
  -5 -15   0   -0.70    1.10
  -6 -15   0   -0.60    1.20
  -7 -15   0    7.30    1.90
  -8 -15   0   -0.10    1.20
  -9 -15   0    2.10    1.20
   9  15   0   -0.40    0.70
  -8 -15   1    6.80    1.80
  -7 -15   1    1.30    1.30
  -6 -15   1    1.50    1.30
  -5 -15   1    0.90    1.30
  -4 -15   1   18.30    2.80
  -3 -15   1    0.80    1.40
  10  14  -1    1.50    1.00
   9  14  -1    3.30    1.10
   8  14  -1   -0.20    0.60
  -8 -14   1   -0.70    0.90
  -7 -14   1    2.00    1.40
  -6 -14   1   26.60    3.00
  -5 -14   1    8.70    2.00
  -4 -14   1    3.70    1.50
  -3 -14   1   21.10    2.80
  -2 -14   1   -0.40    1.00
  -1 -14   1    6.60    1.80
   0 -14   1    0.60    1.20
 -11 -13   1    0.50    0.90
  10  13  -1    2.10    1.00
   9  13  -1   -0.20    0.70
   8  13  -1   -0.70    0.60
  -8 -13   1   -0.20    0.90
   7  13  -1    4.60    1.00
  -7 -13   1    6.00    1.50
   6  13  -1   45.40    2.30
  -6 -13   1   37.80    3.00
   5  13  -1   12.70    1.50
  -5 -13   1   12.00    2.00
  -4 -13   1    3.60    1.30
  -3 -13   1    5.40    1.60
  -2 -13   1    9.80    2.00
  -1 -13   1   10.70    2.00
   0 -13   1    4.70    1.50
   1 -13   1    1.30    1.20
   2 -13   1    0.10    1.00
   3 -13   1    1.90    1.40
 -12 -12   1    3.10    1.10
 -11 -12   1   11.70    1.70
   9  12  -1    0.90    0.70
   8  12  -1    0.20    0.60
  -8 -12   1   -0.60    0.70
   7  12  -1    4.20    0.90
  -7 -12   1    4.30    1.20
   6  12  -1    3.90    0.90
  -6 -12   1    4.00    1.30
   5  12  -1    0.80    0.60
  -5 -12   1   -0.10    0.80
   4  12  -1    1.70    0.70
  -4 -12   1    2.70    1.10
   3  12  -1    6.70    1.00
  -3 -12   1    5.60    1.50
  -2 -12   1   -0.10    0.70
  -1 -12   1   -0.40    0.80
   0 -12   1    1.60    1.00
   1 -12   1    0.40    1.00
   2 -12   1   -0.20    0.90
   3 -12   1    0.30    1.00
   4 -12   1    1.00    1.10
 -12 -11   1   -0.30    0.70
 -11 -11   1    0.60    0.80
 -10 -11   1   10.10    1.50
   9  11  -1    4.10    1.00
   8  11  -1   -0.70    0.50
  -8 -11   1   -0.20    0.60
   7  11  -1    5.00    1.00
  -7 -11   1    4.40    1.20
   6  11  -1    0.20    0.50
  -6 -11   1    0.50    0.70
   5  11  -1    2.60    0.70
  -5 -11   1    2.20    1.00
   4  11  -1   54.29    2.20
  -4 -11   1   52.49    3.00
   3  11  -1    1.40    0.50
  -3 -11   1    1.30    1.00
   2  11  -1   19.00    1.30
  -2 -11   1   19.40    2.20
   1  11  -1    4.40    0.70
  -1 -11   1    3.00    1.20
   0 -11   1   10.50    1.70
   1 -11   1    3.70    1.20
   2 -11   1    0.60    0.90
   3 -11   1    0.30    0.80
   4 -11   1    3.40    1.30
 -13 -10   1    3.30    1.10
 -12 -10   1   15.70    1.90
 -11 -10   1    1.50    0.90
  10  10  -1    8.00    1.20
 -10 -10   1   10.30    1.40
   9  10  -1   12.80    1.30
   9  10  -1   13.40    1.60
   8  10  -1    5.90    1.10
   8  10  -1    7.60    1.00
  -8 -10   1    7.80    1.30
   7  10  -1    5.70    0.80
   7  10  -1    4.90    0.90
  -7 -10   1    6.90    1.30
   6  10  -1    0.90    0.40
   6  10  -1    2.40    0.70
  -6 -10   1    0.20    0.70
   5  10  -1    8.30    1.00
   5  10  -1    7.20    0.80
  -5 -10   1    8.30    1.40
   4  10  -1   10.00    0.90
   4  10  -1    8.70    1.00
  -4 -10   1    7.30    1.30
   3  10  -1    2.60    0.60
   3  10  -1    1.60    0.50
  -3 -10   1    2.20    0.90
   2  10  -1    1.30    0.40
   2  10  -1    0.90    0.40
  -2 -10   1    0.80    0.80
   1  10  -1    8.90    0.90
   1  10  -1    8.70    0.80
  -1 -10   1    7.10    1.30
   0  10  -1    5.50    0.70
   0  10  -1    6.10    0.70
   0 -10   1    3.70    1.10
  -1  10  -1    5.60    0.70
  -1  10  -1    5.10    0.70
   1 -10   1    6.30    1.40
  -2  10  -1    0.10    0.40
   2 -10   1   -0.50    0.60
  -3  10  -1    0.70    0.40
   3 -10   1   -0.50    0.70
  -4  10  -1    8.70    1.10
   4 -10   1    9.80    1.70
   5 -10   1    1.20    1.00
  13   9  -1    0.30    0.70
 -13  -9   1    0.60    0.90
  12   9  -1    0.10    0.60
 -12  -9   1    0.40    0.80
  11   9  -1    7.30    1.10
 -11  -9   1    5.00    1.10
  10   9  -1    1.60    0.60
 -10  -9   1    0.30    0.70
   9   9  -1   14.80    1.20
   8   9  -1    4.50    0.90
   8   9  -1    6.20    0.90
  -8  -9   1    5.90    1.10
   7   9  -1    2.80    0.60
   7   9  -1    2.40    0.70
  -7  -9   1    2.20    0.70
   6   9  -1   16.80    1.10
   6   9  -1   16.30    1.20
  -6  -9   1   18.10    1.60
   5   9  -1   36.60    1.70
   5   9  -1   35.80    1.40
  -5  -9   1   36.80    2.20
   4   9  -1   36.00    1.60
   4   9  -1   33.00    1.40
  -4  -9   1   36.30    2.20
   3   9  -1   63.69    1.90
   3   9  -1   65.69    2.20
  -3  -9   1   62.69    2.90
   2   9  -1    9.80    0.80
   2   9  -1    9.30    0.80
  -2  -9   1   10.60    1.50
   1   9  -1    7.10    0.80
   1   9  -1    8.90    0.70
  -1  -9   1    8.50    1.40
   0   9  -1    6.70    0.70
   0   9  -1    6.20    0.70
   0  -9   1    4.40    1.00
  -1   9  -1    2.70    0.50
  -1   9  -1    4.30    0.70
   1  -9   1    3.40    0.90
  -2   9  -1    9.20    0.90
  -2   9  -1    8.60    0.90
   2  -9   1    8.30    1.40
  -3   9  -1   10.30    1.00
   3  -9   1    9.90    1.60
  -4   9  -1   19.80    1.30
   4  -9   1   19.00    2.10
  -5   9  -1    4.60    0.90
   5  -9   1    5.80    1.20
  -6   9  -1   16.90    1.60
  -7   9  -1    7.10    1.20
  14   8  -1    6.90    1.40
  13   8  -1    1.90    0.90
 -13  -8   1    1.10    0.80
  12   8  -1    0.40    0.60
 -12  -8   1    0.30    0.70
  11   8  -1    7.70    1.20
 -11  -8   1    6.50    1.20
  10   8  -1    1.30    0.60
 -10  -8   1    1.00    0.70
   9   8  -1    0.40    0.50
  -9  -8   1    1.70    0.70
   8   8  -1    5.30    0.80
   8   8  -1    3.50    0.80
   7   8  -1   44.10    1.80
   7   8  -1   47.10    2.10
  -7  -8   1   44.00    2.10
   6   8  -1   12.40    1.10
   6   8  -1   12.30    0.90
  -6  -8   1   14.00    1.40
   5   8  -1    1.60    0.40
   5   8  -1    1.50    0.50
  -5  -8   1    0.60    0.50
   4   8  -1    4.90    0.60
   4   8  -1    4.50    0.70
  -4  -8   1    4.90    0.90
   3   8  -1   12.20    0.90
   3   8  -1    9.90    0.70
  -3  -8   1    8.20    1.20
   2   8  -1   29.40    1.30
   2   8  -1   28.40    1.10
  -2  -8   1   29.90    1.90
   1   8  -1   33.70    1.20
   1   8  -1   31.70    1.30
  -1  -8   1   32.90    2.00
   0   8  -1   64.79    2.00
   0   8  -1   65.19    1.90
   0  -8   1   59.49    2.80
  -1   8  -1   32.80    1.40
  -1   8  -1   32.70    1.40
   1  -8   1   33.50    2.10
  -2   8  -1   15.70    1.00
  -2   8  -1   15.30    1.00
   2  -8   1   18.20    1.60
  -3   8  -1   17.40    1.10
  -3   8  -1   16.60    1.00
   3  -8   1   14.60    1.60
  -4   8  -1   10.00    1.00
  -4   8  -1    9.70    1.10
   4  -8   1   10.40    1.50
  -5   8  -1    1.90    0.60
   5  -8   1    0.50    0.70
  -6   8  -1   12.20    1.40
  -7   8  -1    4.90    1.00
  -8   8  -1    1.40    0.80
  14   7  -1   -0.10    0.70
  13   7  -1    0.30    0.70
 -13  -7   1    0.60    0.80
  12   7  -1    0.20    0.60
 -12  -7   1    0.70    0.70
  11   7  -1    0.50    0.60
 -11  -7   1    1.30    0.70
  10   7  -1    1.00    0.60
 -10  -7   1   -0.30    0.50
   9   7  -1   34.80    1.80
  -9  -7   1   34.00    2.00
   8   7  -1   41.80    1.90
   7   7  -1   17.20    1.30
   7   7  -1   14.50    1.10
  -7  -7   1   17.30    1.20
   6   7  -1    3.60    0.60
   6   7  -1    3.50    0.70
  -6  -7   1    3.60    0.80
   5   7  -1    0.20    0.40
   5   7  -1    0.10    0.30
  -5  -7   1    0.60    0.40
   4   7  -1    6.20    0.70
   4   7  -1    6.80    0.70
  -4  -7   1    7.20    1.00
   3   7  -1   77.49    2.00
   3   7  -1   76.29    2.20
  -3  -7   1   82.79    2.90
   2   7  -1    9.00    0.70
   2   7  -1    7.90    0.60
  -2  -7   1    8.70    1.10
   1   7  -1    0.30    0.20
   1   7  -1    0.80    0.30
  -1  -7   1    0.20    0.40
   0   7  -1  141.09    3.20
   0   7  -1  141.29    3.20
   0  -7   1  142.39    4.20
  -1   7  -1   93.39    2.40
  -1   7  -1   91.09    2.40
   1  -7   1   87.79    3.20
  -2   7  -1   84.29    2.40
  -2   7  -1   87.59    2.40
   2  -7   1   90.19    3.30
  -3   7  -1    9.10    0.80
  -3   7  -1    6.40    0.80
   3  -7   1    7.10    1.20
  -4   7  -1   25.50    1.40
  -4   7  -1   24.60    1.30
   4  -7   1   23.40    1.70
  -5   7  -1   16.20    1.20
   5  -7   1   14.00    1.60
   5  -7   1   16.20    1.50
  -6   7  -1    0.30    0.50
   6  -7   1    0.70    0.60
   6  -7   1    0.60    0.70
   7  -7   1    1.10    0.90
   8  -7   1    1.70    1.00
   9  -7   1    0.40    0.90
  14   6  -1    1.40    1.00
  13   6  -1    1.70    0.90
 -13  -6   1    1.70    0.90
  12   6  -1    2.20    0.80
 -12  -6   1    1.80    0.90
  11   6  -1    0.70    0.60
 -11  -6   1    1.00    0.70
  10   6  -1    4.50    0.90
 -10  -6   1    3.10    0.90
   9   6  -1   34.70    1.80
  -9  -6   1   33.20    1.90
   8   6  -1   54.49    2.10
  -8  -6   1   55.39    2.40
   7   6  -1    3.30    0.60
   7   6  -1    4.20    0.80
  -7  -6   1    4.30    0.70
   6   6  -1   58.69    2.20
   6   6  -1   56.59    1.90
  -6  -6   1   57.09    2.00
   5   6  -1    0.40    0.40
   5   6  -1    0.40    0.30
  -5  -6   1    0.60    0.40
   4   6  -1   63.69    2.00
   4   6  -1   67.89    1.90
  -4  -6   1   63.19    2.30
   3   6  -1    3.40    0.50
   3   6  -1    2.10    0.40
  -3  -6   1    1.50    0.50
   2   6  -1   48.40    1.40
   2   6  -1   45.50    1.50
  -2  -6   1   47.00    2.00
   1   6  -1   55.69    1.60
   1   6  -1   58.79    1.60
  -1  -6   1   53.79    2.20
   0   6  -1   70.89    1.90
   0   6  -1   70.39    1.90
   0  -6   1   71.49    2.60
  -1   6  -1  178.78    3.80
  -1   6  -1  176.98    3.70
   1  -6   1  167.58    4.60
  -2   6  -1  117.89    2.80
  -2   6  -1  113.29    2.90
   2  -6   1  113.89    3.60
  -3   6  -1    0.50    0.30
   3  -6   1    0.40    0.40
   3  -6   1    0.50    0.50
  -4   6  -1   12.60    1.00
   4  -6   1   12.40    1.40
   4  -6   1   12.60    1.20
  -5   6  -1    9.90    1.10
   5  -6   1    8.00    1.00
   5  -6   1    9.00    1.20
  -6   6  -1    6.30    0.90
   6  -6   1    5.10    1.00
   6  -6   1    6.50    1.10
  -7   6  -1    9.40    1.20
   7  -6   1   10.70    1.40
   8  -6   1    0.50    0.80
   9  -6   1   -0.70    0.80
  10  -6   1    0.60    1.00
  14   5  -1    5.30    1.90
  13   5  -1    1.50    0.80
 -13  -5   1   -0.20    0.60
  12   5  -1   -0.80    0.60
 -12  -5   1    0.50    0.70
  11   5  -1    5.10    1.10
 -11  -5   1    6.90    1.20
  10   5  -1    2.60    0.70
 -10  -5   1    2.90    0.80
   9   5  -1    0.50    0.50
  -9  -5   1   -0.30    0.50
   8   5  -1   13.20    1.20
  -8  -5   1   14.10    1.20
   7   5  -1   40.90    1.70
  -7  -5   1   40.20    1.90
  -7  -5   1   38.90    1.40
   6   5  -1   11.90    1.00
   6   5  -1   13.60    0.90
  -6  -5   1   13.50    0.90
   5   5  -1    0.30    0.30
   5   5  -1    0.50    0.40
  -5  -5   1    0.40    0.30
   4   5  -1    4.20    0.50
   4   5  -1    4.80    0.60
  -4  -5   1    4.20    0.60
   3   5  -1  213.18    4.20
   3   5  -1  210.08    4.40
  -3  -5   1  208.08    4.70
   2   5  -1   80.59    1.90
   2   5  -1   82.79    2.00
  -2  -5   1   79.19    2.50
   1   5  -1   19.00    0.80
   1   5  -1   18.50    0.80
  -1  -5   1   18.60    1.20
   0   5  -1    9.00    0.50
   0   5  -1    9.00    0.50
   0  -5   1    6.70    0.80
  -1   5  -1    2.20    0.30
  -1   5  -1    1.80    0.30
   1  -5   1    2.40    0.60
  -2   5  -1    8.70    0.60
   2  -5   1    8.50    0.80
   2  -5   1    6.90    0.90
  -3   5  -1    0.60    0.30
   3  -5   1    1.00    0.50
   3  -5   1    1.20    0.40
  -4   5  -1   99.39    2.70
   4  -5   1  104.19    2.90
   4  -5   1  100.09    3.20
  -5   5  -1    8.50    1.00
   5  -5   1    8.10    1.00
   5  -5   1    8.90    1.10
  -6   5  -1   15.30    1.10
   6  -5   1   12.40    1.30
   6  -5   1   12.90    1.20
  -7   5  -1    4.20    0.80
   7  -5   1    5.90    1.00
  -8   5  -1    3.60    0.80
   8  -5   1    2.70    0.90
  -9   5  -1   -0.70    0.50
   9  -5   1   -0.50    0.60
  10  -5   1   -0.50    0.70
  13   4  -1    0.10    0.70
 -13  -4   1   -0.20    0.70
  12   4  -1    5.20    1.20
 -12  -4   1    5.90    1.20
  11   4  -1    4.90    1.10
  10   4  -1   -0.30    0.50
 -10  -4   1   -0.10    0.40
   9   4  -1    4.20    0.90
  -9  -4   1    4.10    0.90
   8   4  -1   17.40    1.30
  -8  -4   1   17.60    1.30
   7   4  -1   33.70    1.60
  -7  -4   1   30.20    1.60
   6   4  -1   20.20    1.10
  -6  -4   1   21.50    0.90
  -6  -4   1   23.60    1.30
   5   4  -1   17.10    0.90
   5   4  -1   16.80    1.00
  -5  -4   1   17.70    0.90
   4   4  -1    6.50    0.60
   4   4  -1    5.30    0.60
  -4  -4   1    7.90    0.60
   3   4  -1  515.55    9.10
   3   4  -1  519.25    9.40
  -3  -4   1  507.15    9.50
   2   4  -1  134.59    2.70
   2   4  -1  129.69    2.80
  -2  -4   1  135.89    3.20
   1   4  -1  166.58    3.30
   1   4  -1  169.78    3.30
  -1  -4   1  166.58    3.80
   0   4  -1   21.90    0.80
   0   4  -1   22.50    0.70
   0  -4   1   22.60    1.10
  -1   4  -1    8.00    0.50
  -1   4  -1    9.60    0.60
   1  -4   1    9.40    0.80
  -2   4  -1  203.58    4.10
   2  -4   1  205.48    4.30
   2  -4   1  202.58    4.70
  -3   4  -1   22.60    1.00
   3  -4   1   23.70    1.30
   3  -4   1   23.60    1.10
  -4   4  -1   11.40    0.80
   4  -4   1   10.60    1.00
   4  -4   1   11.30    1.00
  -5   4  -1    6.20    0.80
   5  -4   1    6.80    0.90
   5  -4   1    4.90    0.80
  -6   4  -1   13.90    1.10
   6  -4   1   12.20    1.10
   6  -4   1   11.20    1.20
  -7   4  -1    0.80    0.50
   7  -4   1    1.30    0.60
  -8   4  -1    3.70    0.80
   8  -4   1    6.60    1.10
  -9   4  -1    0.70    0.60
   9  -4   1    1.60    0.80
 -10   4  -1    3.40    1.00
  10  -4   1    2.10    1.10
  11  -4   1   22.30    2.30
  13   3  -1    0.40    0.80
 -13  -3   1    0.20    0.70
  12   3  -1    1.00    0.70
 -12  -3   1    0.60    0.70
  11   3  -1    4.90    1.10
 -11  -3   1    3.80    1.00
  10   3  -1   12.10    1.40
 -10  -3   1   14.60    1.60
   9   3  -1    2.80    0.80
  -9  -3   1    3.90    0.80
   8   3  -1    4.80    0.80
  -8  -3   1    6.10    1.00
   7   3  -1   -0.20    0.40
  -7  -3   1    0.20    0.40
   6   3  -1    0.50    0.30
  -6  -3   1   -0.30    0.10
  -6  -3   1    0.10    0.30
   5   3  -1  194.08    4.20
  -5  -3   1  187.38    4.30
  -5  -3   1  193.98    3.70
   4   3  -1    0.70    0.30
   4   3  -1    0.50    0.30
  -4  -3   1    0.70    0.20
   3   3  -1   43.30    1.30
   3   3  -1   42.80    1.30
  -3  -3   1   41.30    1.30
   2   3  -1  196.78    3.70
   2   3  -1  199.48    3.80
  -2  -3   1  193.68    4.00
   1   3  -1   40.60    1.00
   1   3  -1   40.70    1.00
  -1  -3   1   41.30    1.30
   0   3  -1  246.78    4.40
   0   3  -1  243.18    4.50
   0  -3   1  243.58    5.00
  -1   3  -1    9.90    0.50
  -1   3  -1    8.90    0.40
   1  -3   1    9.70    0.70
  -2   3  -1    1.50    0.30
   2  -3   1    1.50    0.30
   2  -3   1    1.10    0.40
   3  -3   1   43.70    1.60
   3  -3   1   43.60    1.50
  -4   3  -1    6.00    0.60
   4  -3   1    6.80    0.80
   4  -3   1    9.00    0.80
  -5   3  -1   10.80    0.80
   5  -3   1   10.60    1.00
   5  -3   1   11.10    0.90
  -6   3  -1   24.00    1.30
   6  -3   1   26.00    1.30
   6  -3   1   25.00    1.40
  -7   3  -1   -0.30    0.40
   7  -3   1   -0.10    0.50
   7  -3   1   -0.50    0.40
  -8   3  -1    5.40    0.90
   8  -3   1    5.40    1.00
  -9   3  -1    2.10    0.70
   9  -3   1    2.70    0.80
 -10   3  -1    1.50    0.70
  10  -3   1    1.00    0.80
 -11   3  -1    1.90    0.90
  11  -3   1    2.30    1.00
  12  -3   1    1.10    1.00
  13   2  -1    0.30    0.80
 -13  -2   1    1.50    0.90
  12   2  -1    2.50    0.90
 -12  -2   1    1.90    0.80
  11   2  -1   -0.40    0.50
 -11  -2   1    1.20    0.70
  10   2  -1    2.60    0.80
 -10  -2   1    3.70    0.90
   9   2  -1   15.70    1.50
  -9  -2   1   12.20    1.40
   8   2  -1    6.40    0.90
  -8  -2   1    6.30    0.90
   7   2  -1   36.80    1.70
  -7  -2   1   38.00    1.70
   6   2  -1   36.50    1.50
  -6  -2   1   36.30    1.60
   5   2  -1   49.50    1.70
  -5  -2   1   49.99    1.80
   4   2  -1    2.30    0.40
  -4  -2   1    1.60    0.20
  -4  -2   1    2.10    0.40
   3   2  -1   37.90    1.20
  -3  -2   1   37.70    1.00
  -3  -2   1   35.80    1.20
   2   2  -1    3.10    0.30
   2   2  -1    3.70    0.40
  -2  -2   1    3.10    0.30
   1   2  -1  110.29    2.20
   1   2  -1  114.49    2.20
  -1  -2   1  107.59    2.40
   0   2  -1   64.09    1.40
   0   2  -1   66.49    1.30
   0  -2   1   69.09    1.70
  -1   2  -1   12.00    0.40
   1  -2   1   10.40    0.60
   1  -2   1   12.40    0.60
  -2   2  -1   80.99    1.80
   2  -2   1   83.39    2.00
   2  -2   1   86.89    2.20
  -3   2  -1  111.69    2.50
   3  -2   1  109.89    2.70
   3  -2   1  107.99    2.60
  -4   2  -1  115.69    2.80
   4  -2   1  117.79    2.90
   4  -2   1  117.99    2.90
  -5   2  -1    4.40    0.60
   5  -2   1    2.70    0.50
   5  -2   1    4.70    0.60
  -6   2  -1   17.10    1.10
   6  -2   1   19.20    1.00
   6  -2   1   16.30    1.10
  -7   2  -1    6.00    0.80
   7  -2   1    4.90    0.80
   7  -2   1    5.30    0.70
  -8   2  -1   21.20    1.50
   8  -2   1   24.10    1.60
  -9   2  -1    1.20    0.60
   9  -2   1    0.50    0.60
 -10   2  -1    1.00    0.70
  10  -2   1    1.00    0.70
 -11   2  -1   -0.50    0.50
  11  -2   1    0.70    0.80
 -12   2  -1    0.10    0.70
  12  -2   1    0.50    0.80
  13   1  -1    0.20    0.80
 -13  -1   1    0.40    0.80
  12   1  -1    0.10    0.80
 -12  -1   1   -0.40    0.70
  11   1  -1    8.50    1.40
 -11  -1   1    8.00    1.30
  10   1  -1   46.10    2.40
 -10  -1   1   46.40    2.40
   9   1  -1    7.80    1.10
  -9  -1   1    7.50    1.10
   8   1  -1   19.70    1.40
  -8  -1   1   19.30    1.40
   7   1  -1   18.40    1.30
  -7  -1   1   19.60    1.30
   6   1  -1    1.80    0.50
  -6  -1   1    2.00    0.50
   5   1  -1   30.40    1.30
  -5  -1   1   31.30    1.30
   4   1  -1   45.70    1.50
  -4  -1   1   47.80    1.60
   3   1  -1   89.79    2.10
  -3  -1   1   91.59    2.20
   2   1  -1    0.60    0.20
  -2  -1   1    1.00    0.10
  -2  -1   1    0.40    0.20
   1   1  -1   29.20    0.80
  -1  -1   1   25.70    0.70
  -1  -1   1   29.70    0.80
   0   1  -1  224.78    3.90
   0   1  -1  223.98    3.80
   0  -1   1  226.28    4.10
   0  -1   1  224.98    3.80
  -1   1  -1  580.04   10.20
   1  -1   1  596.14   10.30
   1  -1   1  602.24   10.10
  -2   1  -1  140.09    2.70
   2  -1   1  138.09    2.90
   2  -1   1  135.29    2.80
  -3   1  -1   40.00    1.20
   3  -1   1   39.60    1.20
   3  -1   1   40.50    1.30
  -4   1  -1   24.60    1.00
   4  -1   1   24.80    1.10
   4  -1   1   25.30    1.00
  -5   1  -1    8.90    0.70
   5  -1   1    8.50    0.60
   5  -1   1   10.30    0.80
  -6   1  -1   16.70    1.10
   6  -1   1   17.80    0.90
   6  -1   1   19.90    1.20
  -7   1  -1   22.80    1.30
   7  -1   1   20.30    0.90
   7  -1   1   20.60    1.30
  -8   1  -1  109.19    3.40
   8  -1   1  119.49    3.60
  -9   1  -1   44.00    2.10
   9  -1   1   49.30    2.30
 -10   1  -1    6.90    1.10
  10  -1   1    9.00    1.30
 -11   1  -1    1.00    0.70
  11  -1   1    0.10    0.70
 -12   1  -1    0.30    0.70
  12  -1   1   -0.70    0.70
 -13   1  -1    0.90    0.80
  13  -1   1    1.70    1.60
  12   0  -1    0.40    0.80
 -12   0   1    0.70    0.80
  11   0  -1    3.90    1.20
 -11   0   1    3.30    1.00
  10   0  -1   -0.10    0.60
 -10   0   1    1.20    0.70
   9   0  -1    0.60    0.60
  -9   0   1   -0.10    0.50
   8   0  -1  101.69    3.30
  -8   0   1   95.29    3.30
   7   0  -1    1.20    0.50
  -7   0   1    1.30    0.50
   6   0  -1    1.10    0.40
  -6   0   1    0.60    0.40
   5   0  -1   54.39    1.80
  -5   0   1   52.49    1.80
   4   0  -1   32.70    1.30
  -4   0   1   32.40    1.30
   3   0  -1   91.59    2.20
  -3   0   1   99.79    2.40
   2   0  -1  202.68    3.80
  -2   0   1  196.58    3.80
   1   0  -1  212.48    3.70
   1   0  -1  215.18    3.80
  -1   0   1  213.38    3.70
  -1   0   1  210.08    3.90
   1   0   1  232.58    4.10
   1   0   1  232.58    4.20
   1   0   1  232.78    4.00
  -2   0  -1  398.56    6.90
   2   0   1  402.76    7.00
   2   0   1  396.86    7.00
  -3   0  -1  104.89    2.30
   3   0   1  105.49    2.30
   3   0   1  104.09    2.20
  -4   0  -1  107.79    2.50
   4   0   1  106.29    2.50
   4   0   1  104.99    2.30
  -5   0  -1    1.00    0.30
   5   0   1    1.20    0.40
   5   0   1    1.30    0.30
  -6   0  -1    9.00    0.80
   6   0   1    8.20    0.50
   6   0   1    6.50    0.80
  -7   0  -1  180.68    4.30
   7   0   1  170.58    3.50
   7   0   1  179.88    4.40
  -8   0  -1    1.30    0.50
   8   0   1    0.20    0.50
  -9   0  -1    0.80    0.50
   9   0   1    0.50    0.50
 -10   0  -1    4.40    0.90
  10   0   1    3.40    0.90
 -11   0  -1    1.30    0.70
  11   0   1    0.20    0.70
 -12   0  -1    1.20    0.70
  12   0   1    0.90    0.70
 -13   0  -1   -0.30    0.70
  13   0   1   -0.60    0.80
  12  -1  -1    1.70    1.00
 -12   1   1    1.60    0.80
  11  -1  -1   10.80    1.60
 -11   1   1    6.00    1.20
  10  -1  -1   23.60    1.90
 -10   1   1   26.00    1.90
   9  -1  -1   52.29    2.50
  -9   1   1   58.29    2.70
   8  -1  -1    7.10    1.10
  -8   1   1    8.20    1.20
   7  -1  -1   13.10    1.30
  -7   1   1   10.80    1.20
   6  -1  -1    1.80    0.60
  -6   1   1    1.50    0.50
   5  -1  -1   19.40    1.10
   5  -1  -1   15.80    0.60
  -5   1   1   16.50    1.00
   4  -1  -1    0.80    0.40
   4  -1  -1    0.90    0.20
  -4   1   1    1.00    0.30
   3  -1  -1   17.10    0.80
   3  -1  -1   17.80    0.60
  -3   1   1   16.70    0.80
   2  -1  -1  187.28    3.50
   2  -1  -1  183.68    3.60
  -2   1   1  188.58    3.70
   1  -1  -1  115.09    2.20
   1  -1  -1  113.59    2.20
  -1   1   1  113.59    2.30
   0  -1  -1   32.00    0.70
   0   1   1   32.20    0.80
  -1  -1  -1    7.30    0.20
   1   1   1    7.60    0.40
   1   1   1    7.50    0.20
   1   1   1    7.50    0.30
   2   1   1  230.68    4.10
   2   1   1  225.68    4.00
   2   1   1  226.78    4.20
   3   1   1  344.67    6.10
   3   1   1  340.27    6.10
   3   1   1  339.17    6.20
  -4  -1  -1   41.70    1.30
   4   1   1   42.60    1.30
   4   1   1   43.20    1.10
  -5  -1  -1    6.20    0.70
   5   1   1    4.80    0.40
   5   1   1    5.00    0.60
  -6  -1  -1   19.10    1.10
   6   1   1   16.50    1.00
   6   1   1   20.30    0.80
  -7  -1  -1   34.60    1.60
   7   1   1   34.60    1.60
   7   1   1   34.60    1.00
  -8  -1  -1   11.70    1.20
   8   1   1   12.30    1.20
  -9  -1  -1   80.79    2.90
   9   1   1   90.09    3.10
 -10  -1  -1   11.90    1.40
  10   1   1   13.60    1.40
 -11  -1  -1   -0.10    0.60
  11   1   1   -0.30    0.50
 -12  -1  -1    0.20    0.70
  12   1   1    0.20    0.70
 -13  -1  -1    0.10    0.70
  13   1   1    0.10    0.80
  12  -2  -1    0.30    0.90
 -12   2   1    0.30    0.80
  11  -2  -1    0.90    0.70
 -11   2   1    1.10    0.80
  10  -2  -1    0.20    0.80
 -10   2   1    0.40    0.60
   9  -2  -1    6.10    1.10
  -9   2   1    5.80    1.10
   8  -2  -1    5.60    1.00
  -8   2   1    5.30    1.00
   7  -2  -1    5.10    0.90
  -7   2   1    6.40    1.00
   6  -2  -1    0.10    0.40
  -6   2   1   -0.50    0.30
   5  -2  -1   34.80    1.50
   5  -2  -1   31.50    1.10
  -5   2   1   31.70    1.50
   4  -2  -1   24.40    1.20
   4  -2  -1   23.20    0.90
  -4   2   1   22.60    1.10
   3  -2  -1   26.00    1.00
   3  -2  -1   23.50    1.00
  -3   2   1   28.30    1.10
   2  -2  -1    1.70    0.30
   2  -2  -1    2.90    0.40
  -2   2   1    4.00    0.50
   1  -2  -1   92.89    1.90
   1  -2  -1   90.89    2.10
  -1   2   1   91.29    2.10
   0  -2  -1  438.66    7.20
   0  -2  -1  408.96    7.60
   0   2   1  426.86    7.50
  -1  -2  -1    0.70    0.30
   1   2   1    0.80    0.20
  -2  -2  -1   56.39    1.50
   2   2   1   60.29    1.20
   2   2   1   57.89    1.40
  -3  -2  -1   18.70    0.70
   3   2   1   19.60    0.80
   3   2   1   19.80    0.70
  -4  -2  -1  200.98    3.90
   4   2   1  199.18    4.10
   4   2   1  201.98    4.00
  -5  -2  -1  178.78    3.50
   5   2   1  182.28    3.90
   5   2   1  170.18    3.80
  -6  -2  -1   87.19    2.00
  -6  -2  -1   87.19    2.50
   6   2   1   86.59    2.40
  -7  -2  -1    1.20    0.30
  -7  -2  -1    1.00    0.40
   7   2   1    0.90    0.40
  -8  -2  -1    6.80    0.90
   8   2   1    6.10    0.80
  -9  -2  -1    5.30    0.90
   9   2   1    3.10    0.80
 -10  -2  -1   -0.60    0.40
  10   2   1    0.50    0.60
 -11  -2  -1    4.00    0.90
  11   2   1    4.90    1.00
 -12  -2  -1    2.40    1.00
  12   2   1    4.80    1.10
 -13  -2  -1    0.60    0.80
  13   2   1    0.40    0.80
 -14  -2  -1    0.20    0.80
  14   2   1    0.10    0.90
  11  -3  -1    1.50    1.00
 -11   3   1    0.50    0.70
  10  -3  -1    0.70    0.80
 -10   3   1    0.70    0.80
   9  -3  -1    2.90    0.90
  -9   3   1    1.50    0.80
   8  -3  -1   -0.30    0.50
  -8   3   1    0.00    0.50
   7  -3  -1   17.30    1.60
  -7   3   1   16.80    1.40
   6  -3  -1   11.70    1.20
  -6   3   1   10.10    1.10
   5  -3  -1    3.70    0.70
   5  -3  -1    4.00    0.60
  -5   3   1    3.90    0.70
   4  -3  -1   20.00    1.00
   4  -3  -1   18.00    1.10
  -4   3   1   18.10    1.10
   3  -3  -1    3.40    0.50
   3  -3  -1    4.00    0.60
  -3   3   1    3.30    0.50
   2  -3  -1    5.50    0.60
   2  -3  -1    5.20    0.50
  -2   3   1    6.00    0.60
   1  -3  -1  316.27    6.10
   1  -3  -1  312.27    5.70
  -1   3   1  310.27    5.90
   0  -3  -1    6.50    0.60
   0  -3  -1    6.10    0.30
   0   3   1    6.40    0.40
   1   3   1  125.19    2.60
   1   3   1  123.29    2.20
  -2  -3  -1   31.20    1.10
   2   3   1   30.80    0.70
   2   3   1   28.50    0.90
  -3  -3  -1    5.00    0.50
   3   3   1    5.00    0.30
   3   3   1    3.40    0.40
  -4  -3  -1  469.25    8.50
   4   3   1  457.05    8.60
   4   3   1  463.95    8.20
  -5  -3  -1    3.10    0.40
   5   3   1    1.60    0.40
   5   3   1    1.70    0.40
  -6  -3  -1    0.70    0.30
   6   3   1    0.60    0.40
   6   3   1    0.80    0.30
  -7  -3  -1   14.30    0.80
  -7  -3  -1   13.60    1.00
   7   3   1   13.60    1.00
  -8  -3  -1    0.40    0.40
   8   3   1    0.30    0.40
  -9  -3  -1   22.10    1.50
   9   3   1   24.30    1.50
 -10  -3  -1    5.70    1.00
  10   3   1    6.90    1.00
 -11  -3  -1    0.10    0.60
  11   3   1    0.30    0.50
 -12  -3  -1    0.20    0.60
  12   3   1    0.40    0.70
 -13  -3  -1    0.30    0.70
  13   3   1   -0.10    0.70
 -14  -3  -1    4.60    1.20
  14   3   1    3.50    1.10
  11  -4  -1   -0.30    0.80
 -11   4   1    1.80    1.00
  10  -4  -1   -1.00    0.60
 -10   4   1   -0.10    0.70
   9  -4  -1    4.00    1.10
  -9   4   1    4.10    1.10
   8  -4  -1    0.80    0.60
  -8   4   1    1.40    0.70
   7  -4  -1    5.10    1.00
  -7   4   1    5.80    1.00
   6  -4  -1    3.80    0.80
  -6   4   1    5.40    0.90
   5  -4  -1   28.60    1.40
   5  -4  -1   30.60    1.60
  -5   4   1   30.50    1.60
   4  -4  -1    1.70    0.50
   4  -4  -1    0.40    0.40
  -4   4   1    2.00    0.60
   3  -4  -1   92.89    2.70
   3  -4  -1   93.29    2.50
  -3   4   1   92.69    2.60
   2  -4  -1   16.90    0.80
   2  -4  -1   18.30    1.10
  -2   4   1   17.90    0.90
   1  -4  -1   13.90    0.90
   1  -4  -1   14.20    0.70
  -1   4   1   13.00    0.70
   0  -4  -1   75.79    2.30
   0  -4  -1   79.49    1.70
   0   4   1   78.69    2.00
   1   4   1   26.80    0.90
   1   4   1   27.70    0.70
  -2  -4  -1  442.96    8.30
   2   4   1  427.56    7.80
   2   4   1  429.36    7.40
  -3  -4  -1   64.69    2.00
   3   4   1   67.29    1.80
   3   4   1   67.49    1.50
  -4  -4  -1   74.69    2.10
   4   4   1   76.19    1.80
   4   4   1   74.39    2.10
  -5  -4  -1   46.20    1.50
   5   4   1   42.10    1.30
   5   4   1   42.10    1.60
  -6  -4  -1   46.40    1.60
   6   4   1   49.60    1.80
   6   4   1   47.70    1.60
  -7  -4  -1   58.89    1.80
   7   4   1   55.19    2.10
   7   4   1   53.79    1.90
  -8  -4  -1   12.90    1.10
  -8  -4  -1   12.70    0.80
   8   4   1   13.30    1.00
  -9  -4  -1   -0.50    0.30
   9   4   1   -0.30    0.40
 -10  -4  -1   27.60    1.80
  10   4   1   27.20    1.60
 -11  -4  -1   20.60    1.70
  11   4   1   21.60    1.60
 -12  -4  -1   -0.30    0.60
  12   4   1    0.00    0.60
 -13  -4  -1   -0.30    0.60
  13   4   1    0.00    0.70
 -14  -4  -1    0.20    0.70
  14   4   1    2.30    0.90
  10  -5  -1    0.90    0.90
 -10   5   1    0.30    0.80
   9  -5  -1    1.90    0.90
  -9   5   1    2.10    0.90
   8  -5  -1    4.20    1.00
  -8   5   1    4.40    1.10
   7  -5  -1    8.10    1.10
  -7   5   1    7.60    1.20
   6  -5  -1    9.80    1.20
  -6   5   1    9.20    1.20
   5  -5  -1   72.39    2.50
   5  -5  -1   67.49    2.50
  -5   5   1   72.89    2.70
   4  -5  -1   -0.60    0.30
   4  -5  -1    0.30    0.40
  -4   5   1   -0.30    0.40
   3  -5  -1   14.20    1.10
   3  -5  -1   15.70    1.00
  -3   5   1   16.40    1.10
   2  -5  -1    0.30    0.30
   2  -5  -1   -0.20    0.30
  -2   5   1    0.30    0.30
   1  -5  -1    1.30    0.50
   1  -5  -1    1.60    0.30
  -1   5   1    1.30    0.30
   0  -5  -1   45.10    1.80
   0   5   1   45.60    1.20
   0   5   1   45.50    1.50
  -1  -5  -1   18.10    1.20
   1   5   1   18.30    0.80
   1   5   1   18.70    0.60
  -2  -5  -1  185.88    4.40
   2   5   1  189.08    3.40
   2   5   1  188.28    3.90
  -3  -5  -1    7.40    0.80
   3   5   1    7.80    0.60
   3   5   1    7.30    0.40
  -4  -5  -1    7.50    0.80
   4   5   1    6.70    0.40
   4   5   1    5.30    0.60
  -5  -5  -1    9.80    0.80
   5   5   1    9.90    0.80
   5   5   1    9.60    0.60
  -6  -5  -1   60.39    2.00
   6   5   1   59.49    1.80
   6   5   1   60.39    2.10
  -7  -5  -1   14.10    1.00
   7   5   1   10.30    1.10
   7   5   1   12.70    0.90
  -8  -5  -1   -0.30    0.30
   8   5   1   -0.20    0.40
   8   5   1   -0.40    0.40
  -9  -5  -1   13.80    1.40
   9   5   1   13.50    1.10
 -10  -5  -1   16.00    1.60
  10   5   1   16.80    1.30
 -11  -5  -1    1.60    0.80
  11   5   1    2.70    0.80
 -12  -5  -1   -0.50    0.50
  12   5   1    1.10    0.70
 -13  -5  -1    7.30    1.30
  13   5   1    7.40    1.30
 -14  -5  -1    0.20    0.80
  14   5   1    1.20    0.80
   9  -6  -1    3.50    1.10
  -9   6   1    2.90    1.00
   8  -6  -1   11.10    1.60
  -8   6   1    8.40    1.40
   7  -6  -1    2.10    0.80
  -7   6   1    3.20    0.90
   6  -6  -1    3.20    0.90
  -6   6   1    3.10    0.80
   5  -6  -1   11.70    1.20
   5  -6  -1   11.30    1.30
  -5   6   1   10.90    1.30
   4  -6  -1    0.50    0.50
   4  -6  -1    1.00    0.50
  -4   6   1    0.10    0.40
   3  -6  -1   65.89    2.20
   3  -6  -1   65.49    2.60
  -3   6   1   66.09    2.30
   2  -6  -1  133.99    3.20
   2  -6  -1  136.39    3.90
  -2   6   1  136.19    3.50
   1  -6  -1   35.40    1.30
   1  -6  -1   35.70    1.80
  -1   6   1   32.60    1.40
   0  -6  -1   27.50    1.60
   0   6   1   27.20    0.90
   0   6   1   28.50    1.20
  -1  -6  -1   47.20    2.00
   1   6   1   48.80    1.60
   1   6   1   49.99    1.20
  -2  -6  -1    1.60    0.50
   2   6   1    1.30    0.40
   2   6   1    1.40    0.20
  -3  -6  -1   76.89    2.60
   3   6   1   75.19    1.60
   3   6   1   74.69    2.10
  -4  -6  -1    5.50    0.80
   4   6   1    6.30    0.70
   4   6   1    5.50    0.40
  -5  -6  -1   34.00    1.70
   5   6   1   35.60    1.10
   5   6   1   36.60    1.50
  -6  -6  -1   40.70    1.80
   6   6   1   41.50    1.40
   6   6   1   38.80    1.70
  -7  -6  -1  104.59    3.00
   7   6   1  103.79    2.70
   7   6   1   98.39    3.10
  -8  -6  -1   79.49    2.50
   8   6   1   76.59    2.40
   8   6   1   75.19    2.80
   9   6   1    7.60    0.90
   9   6   1    7.70    1.10
 -10  -6  -1    0.60    0.60
  10   6   1    0.50    0.50
 -11  -6  -1    0.80    0.60
  11   6   1    0.50    0.50
 -12  -6  -1    0.20    0.60
  12   6   1   -0.30    0.50
 -13  -6  -1   -0.40    0.50
  13   6   1   -0.10    0.60
 -14  -6  -1    1.10    0.90
  14   6   1   -0.90    0.60
   9  -7  -1    2.70    1.20
   8  -7  -1    3.40    1.20
  -8   7   1    5.40    1.20
   7  -7  -1    1.40    0.80
  -7   7   1    0.40    0.60
   6  -7  -1    3.40    0.90
  -6   7   1    8.50    1.20
   5  -7  -1   13.30    1.40
   5  -7  -1   11.00    1.40
  -5   7   1   11.70    1.40
   4  -7  -1    7.20    1.10
   4  -7  -1    5.20    0.80
  -4   7   1    6.60    0.90
   3  -7  -1   44.60    2.20
   3  -7  -1   41.30    1.80
  -3   7   1   40.70    1.80
   2  -7  -1   36.00    2.10
   2  -7  -1   40.60    1.60
  -2   7   1   39.80    1.70
   1  -7  -1   76.49    2.90
  -1   7   1   75.89    2.00
  -1   7   1   78.19    2.40
   0  -7  -1    2.90    0.80
   0   7   1    1.50    0.40
   0   7   1    2.10    0.30
  -1  -7  -1   16.60    1.40
   1   7   1   15.80    0.90
   1   7   1   17.60    0.70
  -2  -7  -1  102.09    3.30
   2   7   1  102.69    2.70
   2   7   1  100.69    2.10
  -3  -7  -1   15.00    1.30
   3   7   1   16.60    0.60
   3   7   1   15.80    0.90
  -4  -7  -1   12.60    1.30
   4   7   1   12.30    0.90
   4   7   1   12.40    0.60
  -5  -7  -1   31.80    1.70
   5   7   1   29.60    1.40
   5   7   1   30.00    1.00
  -6  -7  -1   26.60    1.60
   6   7   1   28.50    1.50
   6   7   1   25.10    1.10
  -7  -7  -1   91.49    3.00
   7   7   1   89.19    3.00
   7   7   1   92.29    2.50
  -8  -7  -1   80.79    2.80
   8   7   1   84.49    2.50
   8   7   1   88.29    3.00
   9   7   1    2.70    0.80
   9   7   1    3.10    0.60
 -10  -7  -1    0.50    0.60
  10   7   1    1.30    0.60
 -11  -7  -1   -0.70    0.40
  11   7   1   -0.50    0.40
 -12  -7  -1    1.60    0.90
  12   7   1    1.10    0.70
 -13  -7  -1    0.60    0.70
  13   7   1   -0.10    0.60
 -14  -7  -1   26.80    2.20
  14   7   1   33.40    2.30
   8  -8  -1    5.10    1.40
   7  -8  -1    3.40    1.10
  -7   8   1    4.10    1.10
   6  -8  -1    0.60    0.80
  -6   8   1    1.40    0.70
   5  -8  -1    2.60    0.80
  -5   8   1    5.80    1.00
   4  -8  -1   17.30    1.40
   4  -8  -1   16.70    1.80
  -4   8   1   15.30    1.30
   3  -8  -1   16.10    1.30
   3  -8  -1   17.10    1.60
  -3   8   1   16.90    1.30
   2  -8  -1   19.60    1.70
  -2   8   1   16.50    1.20
  -2   8   1   18.60    1.00
   1  -8  -1   37.50    2.20
  -1   8   1   38.50    1.70
  -1   8   1   37.00    1.40
   0  -8  -1   26.80    1.90
   0   8   1   29.30    1.10
   0   8   1   28.20    1.30
  -1  -8  -1   29.50    1.90
   1   8   1   27.30    1.30
   1   8   1   30.60    1.00
  -2  -8  -1   10.00    1.30
   2   8   1    8.60    0.70
   2   8   1    8.90    0.50
  -3  -8  -1    4.80    1.00
   3   8   1    5.40    0.70
   3   8   1    6.20    0.50
  -4  -8  -1   -0.50    0.40
   4   8   1    0.00    0.20
   4   8   1   -0.30    0.30
  -5  -8  -1    9.30    1.20
   5   8   1   12.30    1.00
   5   8   1    9.60    0.60
  -6  -8  -1   34.80    2.00
   6   8   1   37.00    1.30
   6   8   1   35.10    1.80
  -7  -8  -1   14.10    1.50
   7   8   1   12.20    1.30
   7   8   1   13.40    0.80
  -8  -8  -1    0.70    0.60
   8   8   1    1.30    0.60
   8   8   1    1.10    0.40
  -9  -8  -1    4.20    0.90
   9   8   1    4.30    0.90
   9   8   1    3.20    0.60
  10   8   1   13.30    1.50
  10   8   1   10.70    1.10
 -11  -8  -1   -0.20    0.50
  11   8   1    0.50    0.50
 -12  -8  -1    4.60    1.10
  12   8   1    5.30    1.00
 -13  -8  -1    8.20    1.50
  13   8   1    6.40    1.20
 -14  -8  -1    5.40    1.30
  14   8   1    6.50    1.20
  -5   9   1   13.90    1.50
   4  -9  -1    4.80    1.20
  -4   9   1    5.20    1.00
  -4   9   1    5.60    0.90
   3  -9  -1    3.30    1.00
  -3   9   1    2.20    0.60
  -3   9   1    2.90    0.70
   2  -9  -1    2.20    0.90
  -2   9   1    2.30    0.50
  -2   9   1    1.50    0.60
   1  -9  -1    3.90    1.00
  -1   9   1    1.70    0.50
  -1   9   1    2.90    0.50
   0  -9  -1    8.90    1.30
   0   9   1    7.50    0.90
   0   9   1    8.60    0.70
  -1  -9  -1   12.90    1.60
   1   9   1   13.70    1.00
   1   9   1   12.80    1.00
  -2  -9  -1   38.10    2.40
   2   9   1   40.20    1.70
  -3  -9  -1   78.69    3.30
   3   9   1   76.49    2.50
  -4  -9  -1   44.00    2.50
   4   9   1   46.40    1.90
  -5  -9  -1    7.10    1.30
   5   9   1    6.70    0.90
  -6  -9  -1    2.40    0.90
   6   9   1    2.50    0.70
  -7  -9  -1    4.90    1.10
   7   9   1    4.20    0.70
   7   9   1    6.80    1.10
  -8  -9  -1   12.50    1.50
   8   9   1   11.30    0.90
   8   9   1   15.00    1.50
  -9  -9  -1   -0.40    0.50
   9   9   1   -0.60    0.50
   9   9   1   -0.20    0.30
  10   9   1    8.10    1.00
  10   9   1    5.90    1.10
 -11  -9  -1   -0.20    0.60
 -12  -9  -1    2.30    0.90
 -13  -9  -1    1.00    0.80
 -14  -9  -1    1.40    0.90
   4 -10  -1   -0.10    0.80
  -4  10   1    1.00    0.60
   3 -10  -1    0.40    0.80
  -3  10   1    0.70    0.50
   2 -10  -1    2.20    1.00
  -2  10   1    2.40    0.70
   1 -10  -1    4.10    1.20
  -1  10   1    3.90    0.70
   0 -10  -1   10.40    1.60
   0  10   1    9.50    1.00
  -1 -10  -1    2.70    1.00
   1  10   1    1.50    0.50
  -2 -10  -1    7.40    1.30
   2  10   1    6.90    0.90
  -3 -10  -1    9.90    1.50
   3  10   1   13.10    1.10
  -4 -10  -1    3.40    1.00
   4  10   1    3.90    0.70
  -5 -10  -1    0.00    0.60
   5  10   1    0.40    0.40
  -6 -10  -1    8.10    1.40
   6  10   1    6.60    1.00
  -7 -10  -1    1.90    0.80
   7  10   1    2.40    0.70
  -8 -10  -1   11.10    1.50
   8  10   1   12.10    1.40
  -9 -10  -1    8.00    1.30
   9  10   1    7.90    1.30
  10  10   1    0.50    0.70
  11  10   1   26.20    2.00
 -12 -10  -1    6.10    1.30
 -13 -10  -1   -0.80    0.70
   3 -11  -1   -0.60    0.80
   2 -11  -1    5.40    1.40
  -2  11   1    4.70    0.90
   1 -11  -1    8.70    1.70
  -1  11   1    9.10    1.10
   0 -11  -1    5.20    1.40
   0  11   1    5.70    0.90
  -1 -11  -1   23.80    2.10
   1  11   1   21.30    1.40
  -2 -11  -1    4.60    1.30
   2  11   1    4.80    0.80
  -3 -11  -1   27.70    2.30
   3  11   1   21.70    1.40
  -4 -11  -1    0.40    0.70
   4  11   1    0.50    0.50
  -5 -11  -1    3.70    1.10
   5  11   1    4.10    0.80
  -6 -11  -1    3.30    1.10
   6  11   1    3.80    0.90
  -7 -11  -1    0.30    0.70
   7  11   1    0.10    0.50
  -8 -11  -1    6.30    1.30
   8  11   1    5.30    1.10
  -9 -11  -1   11.60    1.70
   9  11   1    9.70    1.40
  10  11   1    1.10    0.80
  11  11   1    4.50    1.10
 -12 -11  -1    2.00    0.90
 -13 -11  -1    6.60    1.40
   3 -12  -1    3.80    1.30
   2 -12  -1    4.00    1.40
   1 -12  -1    3.10    1.30
   0 -12  -1    5.10    1.50
   0  12   1    3.50    0.80
  -1 -12  -1    0.00    0.80
   1  12   1   -0.40    0.40
  -2 -12  -1    9.50    1.80
   2  12   1   13.80    1.40
  -3 -12  -1    2.60    1.10
   3  12   1    0.70    0.50
  -4 -12  -1   -0.20    0.80
   4  12   1    0.00    0.50
  -5 -12  -1    1.10    0.90
   5  12   1    1.60    0.60
  -6 -12  -1    3.60    1.20
   6  12   1    4.50    1.00
  -7 -12  -1   -0.10    0.80
   7  12   1   -0.20    0.50
  -8 -12  -1    2.20    1.10
   8  12   1    1.40    0.70
  -9 -12  -1    1.20    1.00
   9  12   1    3.50    1.00
  10  12   1   19.60    2.00
  11  12   1    1.30    0.80
 -12 -12  -1   10.50    1.60
   2 -13  -1    4.30    1.50
   1 -13  -1   15.30    2.30
   0 -13  -1    6.60    1.70
  -1 -13  -1    8.30    1.80
  -2 -13  -1    3.70    1.30
  -3 -13  -1    7.90    1.80
   3  13   1    6.20    1.00
  -4 -13  -1    7.80    1.70
   4  13   1    8.90    1.20
  -5 -13  -1   49.20    3.40
   5  13   1   50.49    2.40
  -6 -13  -1    4.20    1.50
   6  13   1    3.30    0.90
  -7 -13  -1   -0.10    0.80
   7  13   1   -0.20    0.60
  -8 -13  -1   -0.40    0.90
   8  13   1    1.20    0.70
  -9 -13  -1    1.10    1.10
   9  13   1    1.30    0.90
  10  13   1    1.10    0.80
  11  13   1   13.20    1.90
  12  13   1    5.80    1.40
   0 -14  -1    6.00    1.90
  -1 -14  -1   -0.40    1.00
  -3 -14  -1    2.80    1.40
  -4 -14  -1    3.90    1.40
   4  14   1    4.30    1.00
  -5 -14  -1   33.80    3.00
   5  14   1   26.10    1.90
  -6 -14  -1    2.20    1.30
   6  14   1    2.10    0.80
  -7 -14  -1    0.60    1.00
   7  14   1    0.10    0.70
  -8 -14  -1    5.50    1.70
   8  14   1    4.80    1.10
  -9 -14  -1    2.70    1.40
   9  14   1    4.60    1.10
  10  14   1    2.20    1.00
  11  14   1    0.80    0.90
  -3 -15  -1   21.20    2.90
  -4 -15  -1    0.40    1.20
  -5 -15  -1   -0.40    1.00
  -6 -15  -1    3.30    1.60
   6  15   1    3.00    1.10
  -7 -15  -1    7.40    1.80
   7  15   1    6.10    1.30
  -8 -15  -1   -0.10    1.10
   8  15   1    1.20    0.80
  -9 -15  -1   12.70    2.20
   9  15   1   13.10    1.80
  -7 -15   2    0.20    1.20
  -6 -15   2    0.30    1.20
  -5 -15   2   20.50    2.90
  -4 -15   2   -0.80    1.30
  -8 -14   2   10.70    2.10
  -7 -14   2   15.30    2.30
  -6 -14   2    6.40    1.70
  -5 -14   2    0.90    1.10
  -4 -14   2   31.60    3.40
  -3 -14   2    0.70    1.20
  -2 -14   2    1.30    1.30
  -1 -14   2   -0.10    1.20
   0 -14   2    0.00    1.10
 -11 -13   2    0.10    0.80
 -10 -13   2    3.30    1.10
   8  13  -2   12.90    1.60
  -8 -13   2   10.10    1.80
  -7 -13   2   20.50    2.50
  -6 -13   2    1.10    1.10
  -5 -13   2   24.50    2.80
  -4 -13   2    1.70    1.20
  -3 -13   2    3.30    1.40
  -2 -13   2   10.90    2.00
  -1 -13   2    1.60    1.10
   0 -13   2    5.20    1.60
   1 -13   2   18.90    2.60
   2 -13   2    6.10    1.60
   3 -13   2    6.30    2.70
 -11 -12   2   10.20    1.60
 -10 -12   2    0.40    0.70
  -9 -12   2    0.50    0.70
   8  12  -2    1.90    0.80
  -8 -12   2    0.70    0.90
   7  12  -2   -0.50    0.60
  -7 -12   2   -0.50    0.70
   6  12  -2    0.70    0.60
  -6 -12   2    0.10    0.90
   5  12  -2    9.90    1.20
  -5 -12   2    9.10    1.70
  -4 -12   2    8.20    1.70
  -3 -12   2    7.30    1.60
  -2 -12   2    2.40    1.20
  -1 -12   2    2.30    1.10
   0 -12   2    0.20    0.80
   1 -12   2    0.20    1.00
   2 -12   2    0.80    1.10
   3 -12   2    5.30    1.50
   4 -12   2    0.30    1.00
 -12 -11   2    0.40    0.90
 -11 -11   2    7.20    1.40
 -10 -11   2    3.30    1.00
  -9 -11   2   -0.90    0.50
   8  11  -2    3.00    0.90
  -8 -11   2    4.00    1.10
   7  11  -2   22.70    1.70
  -7 -11   2   22.90    2.00
   6  11  -2    4.80    0.90
  -6 -11   2    3.80    1.20
   5  11  -2   -0.50    0.40
  -5 -11   2   -0.10    0.70
   4  11  -2    0.30    0.50
  -4 -11   2    0.00    0.70
   3  11  -2    9.20    1.00
  -3 -11   2    7.50    1.40
  -2 -11   2   14.60    1.90
  -1 -11   2   19.50    2.20
   0 -11   2   -0.20    0.80
   1 -11   2    4.90    1.40
   2 -11   2    2.20    1.10
   3 -11   2    4.00    1.20
   4 -11   2   21.40    2.50
   5 -11   2    1.90    1.10
  12  10  -2    0.00    1.00
 -12 -10   2    0.10    0.70
  11  10  -2    1.70    0.80
 -11 -10   2    2.40    0.90
  10  10  -2    1.90    0.70
 -10 -10   2    1.30    0.80
   9  10  -2    3.50    0.80
  -9 -10   2    2.70    0.80
   8  10  -2   -1.10    0.40
   8  10  -2    0.30    0.50
   7  10  -2    2.20    0.70
   7  10  -2    2.30    0.60
  -7 -10   2    0.90    0.80
   6  10  -2    2.40    0.70
   6  10  -2    2.00    0.60
  -6 -10   2    3.00    1.00
   5  10  -2   14.80    1.20
   5  10  -2   13.70    1.10
  -5 -10   2   11.90    1.60
   4  10  -2    1.70    0.50
   4  10  -2    2.30    0.60
  -4 -10   2    1.10    0.80
   3  10  -2    7.70    0.90
   3  10  -2    7.10    0.80
  -3 -10   2    8.60    1.40
   2  10  -2    1.30    0.50
   2  10  -2    0.90    0.50
  -2 -10   2    0.00    0.70
   1  10  -2   24.50    1.30
   1  10  -2   25.30    1.30
  -1 -10   2   22.00    1.90
   0  10  -2    0.50    0.40
   0 -10   2    0.70    0.70
  -1  10  -2    2.70    0.60
   1 -10   2    2.60    1.10
  -2  10  -2    0.90    0.50
   2 -10   2    0.00    0.80
  -3  10  -2   13.40    1.10
   3 -10   2   14.70    2.00
  -4  10  -2    0.50    0.50
   4 -10   2    0.10    0.80
  -5  10  -2   14.60    1.40
   5 -10   2   14.40    2.00
  -6  10  -2   26.40    1.80
  13   9  -2    0.80    0.80
 -13  -9   2    0.30    0.90
  12   9  -2   -0.30    0.60
 -12  -9   2    0.90    0.80
  11   9  -2    4.10    0.90
 -11  -9   2    2.60    1.00
  10   9  -2   -0.40    0.50
 -10  -9   2   -0.10    0.60
   9   9  -2    0.90    0.60
  -9  -9   2    0.80    0.70
   8   9  -2   39.10    1.90
  -8  -9   2   43.50    2.20
   7   9  -2    1.80    0.60
   7   9  -2    1.40    0.60
  -7  -9   2    3.20    0.80
   6   9  -2   -0.40    0.40
   6   9  -2   -0.30    0.40
  -6  -9   2    0.70    0.60
   5   9  -2    5.60    0.70
   5   9  -2    6.00    0.90
  -5  -9   2    5.10    1.10
   4   9  -2   32.40    1.40
   4   9  -2   32.00    1.60
  -4  -9   2   36.20    2.10
   3   9  -2    2.60    0.50
   3   9  -2    2.20    0.60
  -3  -9   2    2.10    0.80
   2   9  -2    0.00    0.30
   2   9  -2    0.00    0.30
  -2  -9   2   -0.40    0.60
   1   9  -2    3.50    0.60
   1   9  -2    3.90    0.60
  -1  -9   2    3.90    1.00
   0   9  -2    5.40    0.60
   0   9  -2    3.80    0.60
   0  -9   2    4.80    1.10
  -1   9  -2    0.90    0.40
  -1   9  -2    1.60    0.50
   1  -9   2    0.40    0.60
  -2   9  -2   19.00    1.20
   2  -9   2   16.70    1.90
  -3   9  -2   11.60    1.10
   3  -9   2   13.70    1.80
  -4   9  -2   30.90    1.70
   4  -9   2   30.60    2.30
  -5   9  -2   10.00    1.20
   5  -9   2   11.20    1.70
  -6   9  -2    0.70    0.60
   6  -9   2    1.00    0.80
  -7   9  -2    3.60    0.90
  -8   9  -2    5.00    1.00
  13   8  -2    0.70    0.70
 -13  -8   2    0.00    0.70
  12   8  -2    4.10    1.00
 -12  -8   2    2.50    1.00
  11   8  -2    4.70    1.00
 -11  -8   2    4.30    1.10
  10   8  -2    0.90    0.60
 -10  -8   2   -0.40    0.60
   9   8  -2    4.40    0.90
  -9  -8   2    5.20    1.10
   8   8  -2   63.49    2.50
  -8  -8   2   68.49    2.70
   7   8  -2   43.30    2.10
   7   8  -2   44.30    1.90
  -7  -8   2   39.10    2.00
   6   8  -2    3.50    0.60
   6   8  -2    3.60    0.70
  -6  -8   2    3.30    0.80
   5   8  -2    2.70    0.60
   5   8  -2    3.20    0.60
  -5  -8   2    3.20    0.80
   4   8  -2    0.00    0.30
   4   8  -2    0.50    0.40
  -4  -8   2   -0.40    0.50
   3   8  -2    1.30    0.40
   3   8  -2    0.40    0.40
  -3  -8   2    1.30    0.70
   2   8  -2   37.00    1.40
   2   8  -2   40.80    1.50
  -2  -8   2   37.10    2.10
   1   8  -2   70.69    2.10
   1   8  -2   73.89    2.10
  -1  -8   2   72.39    3.00
   0   8  -2    0.80    0.30
   0   8  -2    0.90    0.40
   0  -8   2    1.40    0.70
  -1   8  -2    0.90    0.40
  -1   8  -2    1.00    0.30
   1  -8   2    0.60    0.60
  -2   8  -2    0.70    0.40
  -2   8  -2    1.00    0.40
   2  -8   2    0.20    0.60
  -3   8  -2    1.10    0.40
   3  -8   2    0.30    0.60
  -4   8  -2   -0.70    0.30
   4  -8   2    0.10    0.60
  -5   8  -2    6.90    1.00
   5  -8   2    7.70    1.30
  -6   8  -2   28.50    1.80
   6  -8   2   33.70    2.30
  -7   8  -2    4.50    1.00
  -8   8  -2    3.90    1.00
  -9   8  -2    2.00    1.00
  13   7  -2   -0.10    0.60
 -13  -7   2   -0.80    0.70
  12   7  -2   -0.40    0.60
 -12  -7   2    0.70    0.70
  11   7  -2   -0.70    0.50
 -11  -7   2   -0.20    0.60
  10   7  -2    4.70    1.00
 -10  -7   2    2.60    0.90
   9   7  -2    2.30    0.70
  -9  -7   2    2.50    0.80
   8   7  -2  151.48    4.10
  -8  -7   2  146.89    4.30
   7   7  -2    3.80    0.70
  -7  -7   2    3.50    0.70
  -7  -7   2    4.90    0.90
   6   7  -2   16.50    1.20
   6   7  -2   16.50    1.10
  -6  -7   2   15.40    1.20
   5   7  -2   -0.20    0.30
   5   7  -2    0.30    0.40
  -5  -7   2    0.30    0.50
   4   7  -2   22.00    1.10
   4   7  -2   22.00    1.20
  -4  -7   2   24.00    1.50
   3   7  -2   15.10    0.90
   3   7  -2   16.20    0.90
  -3  -7   2   14.30    1.30
   2   7  -2   10.10    0.70
   2   7  -2    9.90    0.70
  -2  -7   2    9.50    1.10
   1   7  -2   72.69    2.00
   1   7  -2   75.29    2.00
  -1  -7   2   74.99    2.80
   0   7  -2    4.90    0.60
   0   7  -2    4.00    0.50
   0  -7   2    2.40    0.80
  -1   7  -2   42.70    1.60
  -1   7  -2   41.00    1.40
   1  -7   2   46.20    2.30
  -2   7  -2  129.39    3.20
  -2   7  -2  126.39    3.00
   2  -7   2  124.89    4.10
  -3   7  -2   29.60    1.20
  -3   7  -2   33.20    1.50
   3  -7   2   28.80    1.90
  -4   7  -2    0.30    0.40
  -4   7  -2    0.20    0.30
   4  -7   2    0.50    0.60
  -5   7  -2   -0.10    0.40
   5  -7   2   -0.10    0.50
  -6   7  -2    1.70    0.60
   6  -7   2    4.00    1.00
  13   6  -2    0.70    0.80
 -13  -6   2    0.90    0.80
  12   6  -2    1.40    0.80
 -12  -6   2    0.60    0.70
  11   6  -2    3.10    0.90
 -11  -6   2    1.20    0.70
  10   6  -2   18.40    1.50
 -10  -6   2   20.80    1.70
   9   6  -2    0.80    0.60
  -9  -6   2   -0.40    0.40
   8   6  -2    3.20    0.70
  -8  -6   2    1.00    0.60
   7   6  -2   24.80    1.40
  -7  -6   2   24.30    1.50
  -7  -6   2   24.00    1.30
   6   6  -2    0.00    0.30
  -6  -6   2   -0.10    0.40
   5   6  -2   21.40    1.20
   5   6  -2   20.70    1.10
  -5  -6   2   20.90    1.20
   4   6  -2    0.80    0.40
   4   6  -2    0.80    0.40
  -4  -6   2    0.80    0.40
   3   6  -2   30.80    1.30
   3   6  -2   30.90    1.20
  -3  -6   2   32.90    1.60
   2   6  -2   22.90    1.00
   2   6  -2   24.20    1.00
  -2  -6   2   26.70    1.50
   1   6  -2    4.20    0.50
   1   6  -2    3.80    0.50
  -1  -6   2    3.80    0.70
   0   6  -2    1.70    0.30
   0   6  -2    2.20    0.40
   0  -6   2    2.40    0.60
  -1   6  -2   50.89    1.70
  -1   6  -2   52.49    1.50
   1  -6   2   48.80    2.20
  -2   6  -2   30.10    1.30
  -2   6  -2   31.10    1.10
   2  -6   2   31.80    1.80
  -3   6  -2    1.90    0.40
  -3   6  -2    2.00    0.50
   3  -6   2    1.80    0.60
  -4   6  -2    1.40    0.50
  -4   6  -2    1.70    0.40
   4  -6   2    1.80    0.70
  -5   6  -2   12.00    0.90
   5  -6   2   11.60    1.40
   5  -6   2   11.10    1.30
  -6   6  -2   11.90    1.20
   6  -6   2    9.60    1.30
   6  -6   2   10.90    1.30
   7  -6   2    4.90    1.10
   8  -6   2   24.40    2.00
   9  -6   2   14.10    1.80
  10  -6   2    0.10    0.90
  13   5  -2    1.90    0.90
 -13  -5   2   -1.50    0.50
  12   5  -2    2.80    1.00
 -12  -5   2    3.10    1.10
  11   5  -2   19.30    1.90
 -11  -5   2   16.80    1.90
  10   5  -2   10.00    1.30
 -10  -5   2    6.30    1.10
   9   5  -2    9.60    1.20
  -9  -5   2   16.30    1.40
   8   5  -2    0.30    0.50
  -8  -5   2    1.30    0.60
   7   5  -2   49.60    2.00
  -7  -5   2   46.20    2.00
   6   5  -2    5.90    0.80
  -6  -5   2    6.60    0.70
  -6  -5   2    5.80    0.80
   5   5  -2    8.30    0.80
   5   5  -2    9.30    0.90
  -5  -5   2    8.90    0.80
   4   5  -2   86.99    2.30
   4   5  -2   87.59    2.40
  -4  -5   2   89.59    2.50
   3   5  -2    2.40    0.40
   3   5  -2    2.40    0.40
  -3  -5   2    2.90    0.60
   2   5  -2    8.60    0.60
   2   5  -2    7.20    0.60
  -2  -5   2    8.20    0.90
   1   5  -2   71.49    1.90
   1   5  -2   71.69    1.80
  -1  -5   2   75.69    2.40
   0   5  -2    3.70    0.40
   0   5  -2    3.30    0.40
   0  -5   2    3.40    0.60
  -1   5  -2   71.09    1.70
  -1   5  -2   69.69    1.90
   1  -5   2   66.89    2.40
  -2   5  -2   11.30    0.80
  -2   5  -2   11.30    0.60
   2  -5   2   11.80    1.10
  -3   5  -2   83.19    2.10
  -3   5  -2   82.79    2.40
   3  -5   2   84.59    2.90
  -4   5  -2    8.30    0.70
   4  -5   2    9.80    1.20
   4  -5   2    8.60    1.00
  -5   5  -2   21.40    1.10
   5  -5   2   18.90    1.40
   5  -5   2   17.20    1.20
  -6   5  -2    3.90    0.70
   6  -5   2    4.60    0.90
   6  -5   2    3.40    0.80
  -7   5  -2   10.00    1.10
   7  -5   2   11.10    1.30
   7  -5   2   11.60    1.30
  -8   5  -2   11.50    1.50
   8  -5   2    8.40    1.30
   9  -5   2    1.60    0.90
  10  -5   2   -1.00    0.80
  11  -5   2    0.90    1.20
  13   4  -2   -0.50    0.70
 -13  -4   2    0.20    0.70
  12   4  -2    3.70    1.10
 -12  -4   2    2.90    1.10
  11   4  -2   14.90    1.80
 -11  -4   2   12.70    1.70
  10   4  -2   17.50    1.70
 -10  -4   2   17.00    1.80
   9   4  -2    6.50    1.00
  -9  -4   2    5.10    1.00
   8   4  -2    0.60    0.50
  -8  -4   2    1.00    0.50
   7   4  -2    2.20    0.60
  -7  -4   2    3.60    0.70
   6   4  -2   44.50    1.80
  -6  -4   2   46.80    1.90
  -6  -4   2   46.10    1.30
   5   4  -2   15.90    1.00
  -5  -4   2   16.40    1.00
  -5  -4   2   18.70    0.90
   4   4  -2   24.40    1.10
   4   4  -2   26.50    1.20
  -4  -4   2   27.50    1.10
   3   4  -2   15.80    0.80
   3   4  -2   13.80    0.80
  -3  -4   2   14.30    0.90
   2   4  -2   70.19    1.80
   2   4  -2   70.19    1.80
  -2  -4   2   67.19    2.10
   1   4  -2    0.80    0.20
   1   4  -2    0.50    0.30
  -1  -4   2    1.00    0.40
   0   4  -2   69.19    1.80
   0   4  -2   69.79    1.50
   0  -4   2   71.79    2.30
  -1   4  -2  106.39    2.50
  -1   4  -2  109.59    2.20
   1  -4   2  104.09    3.00
  -2   4  -2   36.70    1.30
  -2   4  -2   34.20    1.00
   2  -4   2   37.70    1.70
  -3   4  -2   62.39    1.60
   3  -4   2   60.49    1.90
   3  -4   2   61.49    2.20
  -4   4  -2    4.20    0.50
   4  -4   2    5.00    0.80
   4  -4   2    4.70    0.70
  -5   4  -2    0.40    0.30
   5  -4   2    0.10    0.40
   5  -4   2    0.60    0.50
  -6   4  -2   25.20    1.30
   6  -4   2   28.30    1.60
   6  -4   2   25.00    1.50
  -7   4  -2   -0.20    0.40
   7  -4   2   -0.30    0.40
   7  -4   2    0.60    0.40
  -8   4  -2    6.70    1.00
   8  -4   2    6.10    1.10
  -9   4  -2    1.90    0.70
   9  -4   2    2.40    0.80
  10  -4   2    1.60    0.90
  11  -4   2   -0.60    0.70
  13   3  -2    0.20    0.80
 -13  -3   2    0.60    0.80
  12   3  -2    5.30    1.20
 -12  -3   2    4.40    1.10
  11   3  -2    0.20    0.70
 -11  -3   2    0.40    0.60
  10   3  -2   20.00    1.90
 -10  -3   2   19.30    1.60
   9   3  -2    8.10    1.10
  -9  -3   2    7.70    1.20
   8   3  -2    0.60    0.50
  -8  -3   2    0.30    0.50
   7   3  -2    8.20    0.90
  -7  -3   2   10.00    1.10
   6   3  -2    6.20    0.80
  -6  -3   2    6.30    0.90
   5   3  -2   58.99    1.90
  -5  -3   2   58.09    2.00
  -5  -3   2   56.79    1.40
   4   3  -2   21.90    1.00
  -4  -3   2   21.90    1.10
  -4  -3   2   21.30    0.90
   3   3  -2   26.10    1.00
  -3  -3   2   25.80    1.00
  -3  -3   2   26.70    1.00
   2   3  -2   58.89    1.50
   2   3  -2   57.59    1.50
  -2  -3   2   57.79    1.70
   1   3  -2   -0.10    0.20
   1   3  -2    0.00    0.20
  -1  -3   2    0.40    0.30
   0   3  -2   95.29    1.90
   0   3  -2   98.49    2.10
   0  -3   2   97.49    2.50
  -1   3  -2    1.80    0.20
  -1   3  -2    1.80    0.30
   1  -3   2    1.30    0.40
  -2   3  -2 1063.59   18.50
  -2   3  -2 1069.49   18.10
   2  -3   2 1086.19   19.00
  -3   3  -2   43.30    1.20
   3  -3   2   39.10    1.40
   3  -3   2   42.80    1.70
  -4   3  -2    6.70    0.50
   4  -3   2    5.60    0.70
   4  -3   2    6.00    0.80
  -5   3  -2    0.10    0.20
   5  -3   2    0.70    0.50
   5  -3   2    0.40    0.30
  -6   3  -2   73.39    2.30
   6  -3   2   71.89    2.50
   6  -3   2   68.09    2.40
  -7   3  -2    8.30    1.00
   7  -3   2    4.70    0.70
   7  -3   2    5.40    0.90
  -8   3  -2   12.20    1.20
   8  -3   2   10.60    1.30
  -9   3  -2    0.50    0.50
   9  -3   2    0.10    0.60
 -10   3  -2   -0.10    0.50
  10  -3   2   -0.60    0.70
  11  -3   2    2.90    1.00
  12  -3   2   12.40    1.80
  13   2  -2    0.60    1.00
 -13  -2   2    1.50    1.00
  12   2  -2    3.80    1.20
 -12  -2   2    2.80    1.00
  11   2  -2   13.80    1.70
 -11  -2   2   16.50    1.90
  10   2  -2   10.90    1.40
 -10  -2   2   14.20    1.70
   9   2  -2    1.20    0.60
  -9  -2   2    1.50    0.70
   8   2  -2    0.70    0.60
   7   2  -2   46.80    2.00
  -7  -2   2   43.00    1.90
   6   2  -2    0.60    0.40
  -6  -2   2    0.20    0.30
   5   2  -2   27.30    1.20
  -5  -2   2   26.40    1.30
   4   2  -2   29.50    1.20
  -4  -2   2   26.50    0.70
  -4  -2   2   30.30    1.20
   3   2  -2   71.79    1.90
  -3  -2   2   70.99    1.90
  -3  -2   2   73.19    1.70
   2   2  -2  424.16    7.60
  -2  -2   2  421.66    7.50
  -2  -2   2  416.46    7.60
   1   2  -2 1153.18   19.80
  -1  -2   2 1158.18   19.80
  -1  -2   2 1159.18   19.50
   0   2  -2  196.48    3.40
   0   2  -2  185.68    3.60
   0  -2   2  192.28    4.00
  -1   2  -2  453.65    8.20
  -1   2  -2  476.45    7.90
   1  -2   2  457.25    8.50
  -2   2  -2  232.78    4.10
   2  -2   2  230.38    4.50
   2  -2   2  235.68    4.80
  -3   2  -2   39.00    1.10
   3  -2   2   40.20    1.50
   3  -2   2   40.30    1.30
  -4   2  -2  169.58    3.50
   4  -2   2  167.88    3.80
   4  -2   2  167.68    3.90
  -5   2  -2    8.30    0.70
   5  -2   2    8.50    0.80
   5  -2   2    8.30    0.80
  -6   2  -2    1.70    0.40
   6  -2   2    2.80    0.60
   6  -2   2    1.70    0.50
  -7   2  -2   14.00    1.00
   7  -2   2   14.40    1.20
   7  -2   2   14.40    1.00
  -8   2  -2    5.60    0.90
   8  -2   2    8.30    1.10
  -9   2  -2    1.40    0.60
   9  -2   2    1.60    0.70
 -10   2  -2   12.90    1.50
  10  -2   2   12.90    1.60
 -11   2  -2   37.40    2.20
  11  -2   2   38.00    2.40
 -12   2  -2    3.20    1.10
  12  -2   2    0.60    0.80
  12   1  -2   -1.60    0.60
 -12  -1   2    0.10    0.80
  11   1  -2    2.00    0.90
 -11  -1   2    1.50    0.80
  10   1  -2   16.20    1.70
 -10  -1   2   11.90    1.50
   9   1  -2    8.30    1.20
  -9  -1   2    4.70    1.00
   8   1  -2    4.70    0.80
  -8  -1   2    3.70    0.80
   7   1  -2   22.20    1.40
  -7  -1   2   23.10    1.40
   6   1  -2    1.90    0.50
  -6  -1   2    0.50    0.40
   5   1  -2    8.00    0.80
  -5  -1   2    9.80    0.80
   4   1  -2    8.70    0.70
  -4  -1   2    8.50    0.70
   3   1  -2   28.90    1.10
  -3  -1   2   31.00    1.10
  -3  -1   2   31.10    0.70
   2   1  -2   28.10    1.00
  -2  -1   2   29.30    1.00
  -2  -1   2   28.60    0.80
   1   1  -2  266.27    4.80
  -1  -1   2  261.17    4.80
  -1  -1   2  266.77    4.90
   0   1  -2 1473.75   26.50
   0  -1   2 1516.65   25.60
   0  -1   2 1501.15   26.00
  -1   1  -2   70.79    1.50
   1  -1   2   68.29    1.70
  -2   1  -2   68.19    1.30
   2  -1   2   68.09    1.60
   2  -1   2   63.29    1.70
  -3   1  -2  168.98    3.20
   3  -1   2  167.78    3.50
   3  -1   2  166.58    3.60
  -4   1  -2    7.20    0.50
   4  -1   2    9.30    0.70
   4  -1   2    8.50    0.60
  -5   1  -2   65.19    1.80
   5  -1   2   63.49    1.90
   5  -1   2   60.29    1.90
  -6   1  -2   52.29    1.80
   6  -1   2   51.89    1.90
   6  -1   2   52.99    1.70
  -7   1  -2   28.00    1.40
   7  -1   2   30.90    1.60
   7  -1   2   29.50    1.30
  -8   1  -2   37.40    1.80
   8  -1   2   37.10    1.90
  -9   1  -2    3.30    0.70
   9  -1   2    2.90    0.80
 -10   1  -2   13.20    1.40
  10  -1   2   11.10    1.40
 -11   1  -2    0.50    0.60
  11  -1   2    0.70    0.70
 -12   1  -2   18.60    2.00
  12  -1   2   23.00    2.30
 -13   1  -2    4.00    1.10
  13  -1   2    7.60    1.50
  12   0  -2    0.80    0.90
 -12   0   2    1.00    0.90
  11   0  -2    4.30    1.20
 -11   0   2    6.20    1.30
  10   0  -2    5.20    1.10
 -10   0   2    4.70    1.10
   9   0  -2    1.20    0.70
  -9   0   2    0.20    0.60
   8   0  -2   27.50    1.70
  -8   0   2   28.50    1.70
   7   0  -2    0.30    0.50
  -7   0   2    0.30    0.40
   6   0  -2    0.50    0.40
  -6   0   2   -0.30    0.30
   5   0  -2   21.30    1.10
  -5   0   2   23.50    1.20
   4   0  -2    0.20    0.30
  -4   0   2    0.20    0.30
   3   0  -2   -0.30    0.20
  -3   0   2    0.10    0.20
   2   0  -2   70.69    1.70
  -2   0   2   68.79    1.80
   1   0  -2 9570.94  190.08
  -1   0   2 9999.00  188.38
  -1   0   2 9842.92  178.18
   0   0  -2   12.40    0.50
   0   0   2   11.60    0.40
   0   0   2   12.90    0.50
  -1   0  -2   16.60    0.50
   1   0   2   17.10    0.70
   1   0   2   16.60    0.40
   2   0   2  129.69    2.40
   2   0   2  127.39    2.70
   2   0   2  129.49    2.60
   3   0   2   34.10    1.10
   3   0   2   35.70    1.10
   3   0   2   36.40    1.00
  -4   0  -2    0.40    0.20
   4   0   2    0.40    0.30
   4   0   2    0.40    0.20
  -5   0  -2  104.39    2.60
   5   0   2  102.99    2.60
   5   0   2  109.79    2.60
  -6   0  -2   32.10    1.30
   6   0   2   34.60    1.30
  -7   0  -2   27.20    1.30
   7   0   2   28.50    1.50
   7   0   2   28.60    1.20
  -8   0  -2   30.10    1.50
   8   0   2   32.00    1.70
   8   0   2   32.40    1.70
  -9   0  -2   78.39    2.80
   9   0   2   82.99    3.00
 -10   0  -2   14.20    1.50
  10   0   2   13.80    1.50
 -11   0  -2    2.20    0.80
  11   0   2    1.60    0.80
 -12   0  -2   -0.10    0.60
  12   0   2   -0.10    0.70
 -13   0  -2    0.60    0.70
  13   0   2    1.30    0.90
  12  -1  -2    3.60    1.20
 -12   1   2    3.60    1.20
  11  -1  -2    0.60    0.80
 -11   1   2    0.90    0.70
  10  -1  -2    3.10    1.00
 -10   1   2    2.50    0.80
   9  -1  -2    1.00    0.70
  -9   1   2    0.30    0.60
   8  -1  -2   39.90    2.10
  -8   1   2   39.10    2.20
   7  -1  -2    1.50    0.60
  -7   1   2    1.30    0.60
   6  -1  -2    3.30    0.70
  -6   1   2    2.60    0.60
   5  -1  -2   18.50    1.20
  -5   1   2   20.90    1.20
   4  -1  -2    6.70    0.40
   4  -1  -2    6.80    0.70
  -4   1   2    4.20    0.60
   3  -1  -2    3.60    0.50
   3  -1  -2    4.50    0.30
  -3   1   2    3.50    0.50
   2  -1  -2  160.48    3.40
   2  -1  -2  171.78    3.20
  -2   1   2  168.78    3.60
   1  -1  -2   41.50    1.10
   1  -1  -2   40.70    1.10
  -1   1   2   40.70    1.20
   0   1   2    0.00    0.20
   0   1   2    0.00    0.10
  -1  -1  -2  560.94    9.20
   1   1   2  537.15    9.30
   1   1   2  535.15    9.50
   2   1   2    3.90    0.30
   2   1   2    3.60    0.30
   2   1   2    4.50    0.40
   3   1   2    5.20    0.40
   3   1   2    5.40    0.40
   3   1   2    5.30    0.40
   4   1   2   -0.20    0.20
   4   1   2    0.10    0.20
   4   1   2    0.00    0.20
  -5  -1  -2   36.50    1.30
   5   1   2   36.80    1.20
   5   1   2   35.60    1.30
  -6  -1  -2    1.50    0.40
   6   1   2    0.60    0.30
   6   1   2    0.60    0.30
  -7  -1  -2   -0.10    0.30
   7   1   2    0.30    0.40
   7   1   2    0.30    0.30
  -8  -1  -2   72.79    2.50
   8   1   2   66.69    1.90
   8   1   2   70.99    2.50
  -9  -1  -2   11.40    1.20
   9   1   2    8.60    1.10
 -10  -1  -2    4.10    0.90
  10   1   2    2.60    0.80
 -11  -1  -2    3.00    0.80
  11   1   2    2.70    0.90
 -12  -1  -2    1.40    0.70
  12   1   2    0.20    0.70
 -13  -1  -2   10.00    1.50
  13   1   2   12.00    1.80
 -14  -1  -2    4.80    1.20
  11  -2  -2    0.80    0.90
 -11   2   2    1.80    0.90
  10  -2  -2    0.80    0.90
 -10   2   2   -0.20    0.60
   9  -2  -2    3.50    1.00
  -9   2   2    4.00    1.00
   8  -2  -2    1.00    0.70
  -8   2   2    0.40    0.60
   7  -2  -2    0.90    0.60
  -7   2   2    0.90    0.60
   6  -2  -2   14.30    1.20
  -6   2   2   13.70    1.20
   5  -2  -2    7.50    0.90
   5  -2  -2    8.30    0.50
  -5   2   2    5.70    0.80
   4  -2  -2   41.90    1.30
   4  -2  -2   45.10    1.70
  -4   2   2   45.10    1.70
   3  -2  -2  226.78    4.70
   3  -2  -2  230.18    4.50
  -3   2   2  218.88    4.80
   2  -2  -2   23.10    0.90
   2  -2  -2   22.30    0.90
  -2   2   2   23.40    1.00
   1  -2  -2  349.47    6.50
   1  -2  -2  353.46    6.30
  -1   2   2  356.46    6.60
   0  -2  -2  760.82   12.80
   0  -2  -2  764.12   13.30
   0   2   2  759.72   13.20
  -1  -2  -2   41.50    1.30
  -1  -2  -2   44.50    0.80
   1   2   2   45.50    0.90
   1   2   2   43.20    1.10
  -2  -2  -2    7.00    0.50
   2   2   2    6.20    0.30
   2   2   2    5.90    0.40
   3   2   2    1.80    0.30
   3   2   2    2.00    0.30
   3   2   2    2.10    0.20
   4   2   2   85.89    2.10
   4   2   2   87.89    2.00
   4   2   2   88.69    2.10
   5   2   2  243.48    4.80
   5   2   2  236.68    4.80
   5   2   2  239.78    4.90
   6   2   2    6.10    0.50
   6   2   2    6.70    0.70
   6   2   2    5.70    0.70
  -7  -2  -2    0.10    0.30
   7   2   2   -0.10    0.20
   7   2   2   -0.10    0.30
  -8  -2  -2   70.59    2.40
  -8  -2  -2   71.79    2.00
   8   2   2   67.89    2.40
  -9  -2  -2   41.70    1.90
   9   2   2   44.30    2.00
 -10  -2  -2    2.00    0.60
  10   2   2    1.60    0.60
 -11  -2  -2    1.50    0.70
  11   2   2    3.00    0.90
 -12  -2  -2   11.80    1.50
  12   2   2   13.70    1.60
 -13  -2  -2    1.30    0.80
  13   2   2    0.60    0.70
 -14  -2  -2    3.00    1.00
  14   2   2    2.40    1.00
  11  -3  -2    2.20    1.00
 -11   3   2    0.30    0.80
  10  -3  -2    0.20    0.70
 -10   3   2   -0.30    0.70
   9  -3  -2    1.10    0.70
  -9   3   2    0.60    0.70
   8  -3  -2   25.60    1.80
  -8   3   2   27.40    1.90
   7  -3  -2    0.60    0.60
  -7   3   2    0.40    0.60
   6  -3  -2   -0.30    0.40
  -6   3   2    0.20    0.40
   5  -3  -2   25.00    1.10
   5  -3  -2   27.20    1.40
  -5   3   2   29.00    1.60
   4  -3  -2  241.48    5.30
   4  -3  -2  241.58    5.00
  -4   3   2  249.18    5.50
   3  -3  -2    0.40    0.30
   3  -3  -2    0.30    0.30
  -3   3   2    0.50    0.30
   2  -3  -2   62.79    1.70
   2  -3  -2   61.79    1.90
  -2   3   2   62.99    1.90
   1  -3  -2    3.00    0.50
   1  -3  -2    2.50    0.30
  -1   3   2    2.60    0.40
   0  -3  -2   10.30    0.40
   0  -3  -2    9.90    0.70
   0   3   2   10.40    0.60
  -1  -3  -2   59.99    1.10
  -1  -3  -2   58.59    1.80
   1   3   2   62.59    1.60
   1   3   2   61.49    1.20
  -2  -3  -2   58.89    1.70
   2   3   2   54.89    1.50
  -3  -3  -2   49.30    1.60
   3   3   2   48.30    1.10
   3   3   2   48.70    1.40
  -4  -3  -2   76.89    2.10
   4   3   2   76.79    1.70
   4   3   2   77.89    2.00
  -5  -3  -2  104.29    2.60
   5   3   2  100.79    2.30
   5   3   2   98.99    2.60
  -6  -3  -2    4.00    0.50
   6   3   2    4.60    0.60
   6   3   2    3.20    0.50
  -7  -3  -2   26.20    1.10
   7   3   2   25.90    1.20
   7   3   2   25.40    1.30
  -8  -3  -2    8.40    0.70
  -8  -3  -2    8.90    1.00
   8   3   2   10.10    1.00
  -9  -3  -2    4.30    0.80
   9   3   2    3.90    0.70
 -10  -3  -2   20.90    1.50
  10   3   2   18.10    1.40
 -11  -3  -2    3.10    0.80
  11   3   2    3.80    0.90
 -12  -3  -2    6.20    1.20
  12   3   2    5.50    1.10
 -13  -3  -2    8.80    1.40
  13   3   2    9.00    1.40
 -14  -3  -2   -0.10    0.60
  14   3   2    1.20    0.80
  10  -4  -2    1.40    0.80
 -10   4   2    0.10    0.70
   9  -4  -2   -0.20    0.70
  -9   4   2   -0.80    0.60
   8  -4  -2    3.80    0.90
  -8   4   2    6.60    1.30
   7  -4  -2    0.00    0.50
  -7   4   2    1.50    0.70
   6  -4  -2    0.10    0.50
  -6   4   2    0.10    0.50
   5  -4  -2   20.60    1.20
   5  -4  -2   21.20    1.40
  -5   4   2   21.60    1.40
   4  -4  -2   20.20    1.20
   4  -4  -2   21.10    1.20
  -4   4   2   19.80    1.30
   3  -4  -2    0.60    0.40
   3  -4  -2    0.10    0.30
  -3   4   2    1.40    0.50
   2  -4  -2    3.30    0.60
   2  -4  -2    2.40    0.40
  -2   4   2    2.80    0.50
   1  -4  -2    6.60    0.80
   1  -4  -2    6.90    0.50
  -1   4   2    6.10    0.70
   0  -4  -2   26.00    1.30
   0  -4  -2   29.50    0.80
   0   4   2   26.30    1.10
  -1  -4  -2   17.90    1.00
   1   4   2   19.00    0.90
  -2  -4  -2  322.67    6.50
   2   4   2  330.07    6.20
  -3  -4  -2    6.00    0.70
   3   4   2    6.40    0.50
   3   4   2    7.20    0.30
  -4  -4  -2   94.39    2.60
   4   4   2   97.19    2.40
   4   4   2   96.99    2.00
  -5  -4  -2   26.10    1.20
   5   4   2   24.00    0.90
   5   4   2   26.30    1.20
  -6  -4  -2    0.40    0.30
   6   4   2    0.10    0.30
   6   4   2    0.30    0.20
  -7  -4  -2   42.90    1.60
   7   4   2   42.80    1.80
   7   4   2   41.70    1.50
  -8  -4  -2   71.29    2.20
   8   4   2   74.99    2.60
   8   4   2   75.19    2.30
  -9  -4  -2   75.89    2.80
   9   4   2   72.99    2.50
 -10  -4  -2   10.90    1.30
  10   4   2   11.10    1.20
 -11  -4  -2    0.10    0.50
  11   4   2    0.30    0.50
 -12  -4  -2    2.60    0.90
  12   4   2    2.20    0.80
 -13  -4  -2   18.10    1.90
  13   4   2   20.00    2.00
 -14  -4  -2   -0.90    0.70
  14   4   2    0.20    0.70
  10  -5  -2    9.60    1.60
 -10   5   2    7.80    1.50
   9  -5  -2    8.20    1.40
  -9   5   2    5.60    1.30
   8  -5  -2    1.80    0.90
  -8   5   2    1.00    0.70
   7  -5  -2    5.00    1.00
  -7   5   2    3.10    0.90
   6  -5  -2   -0.20    0.50
  -6   5   2    0.00    0.50
   5  -5  -2   40.50    1.90
   5  -5  -2   41.70    2.00
  -5   5   2   41.60    2.10
   4  -5  -2    3.50    0.70
   4  -5  -2    3.40    0.60
  -4   5   2    3.50    0.70
   3  -5  -2   90.19    2.80
   3  -5  -2   86.19    2.50
  -3   5   2   91.79    2.80
   2  -5  -2   18.40    1.20
   2  -5  -2   19.20    1.00
  -2   5   2   19.60    1.10
   1  -5  -2   -0.10    0.30
   1  -5  -2    0.30    0.20
  -1   5   2   -0.20    0.20
   0  -5  -2   65.79    1.60
   0  -5  -2   68.29    2.30
   0   5   2   66.59    2.00
  -1  -5  -2   22.10    1.30
   1   5   2   22.80    0.60
   1   5   2   20.80    1.00
  -2  -5  -2  155.98    4.00
   2   5   2  163.28    3.50
  -3  -5  -2   22.90    1.20
   3   5   2   20.90    0.50
   3   5   2   20.70    1.00
  -4  -5  -2   77.79    2.40
   4   5   2   75.19    1.60
   4   5   2   74.09    2.10
  -5  -5  -2  274.57    5.90
   5   5   2  278.87    5.10
   5   5   2  274.47    5.70
  -6  -5  -2    3.10    0.60
   6   5   2    4.20    0.50
   6   5   2    5.90    0.80
  -7  -5  -2    7.90    0.90
   7   5   2    6.80    0.70
   7   5   2    8.90    1.00
  -8  -5  -2   22.10    1.30
   8   5   2   20.50    1.40
   8   5   2   23.60    1.20
  -9  -5  -2   33.40    1.70
   9   5   2   30.70    1.50
   9   5   2   31.10    1.80
 -10  -5  -2   19.60    1.50
  10   5   2   19.70    1.30
 -11  -5  -2    3.40    0.90
  11   5   2    3.10    0.80
 -12  -5  -2    0.30    0.50
  12   5   2   -0.50    0.50
 -13  -5  -2    0.80    0.70
  13   5   2   -0.30    0.60
 -14  -5  -2    1.50    0.80
  14   5   2    0.60    0.80
   9  -6  -2    0.30    0.90
  -9   6   2    1.60    0.90
   8  -6  -2    5.30    1.20
  -8   6   2    5.10    1.10
   7  -6  -2    0.30    0.70
  -7   6   2    0.40    0.70
   6  -6  -2    3.70    0.90
  -6   6   2    3.20    0.90
   5  -6  -2    0.90    0.60
  -5   6   2    0.90    0.60
   4  -6  -2   12.60    1.40
   4  -6  -2   12.90    1.20
  -4   6   2   12.70    1.30
   3  -6  -2   56.39    1.90
   3  -6  -2   52.79    2.30
  -3   6   2   54.29    2.20
   2  -6  -2   24.20    1.60
   2  -6  -2   27.40    1.20
  -2   6   2   26.00    1.40
   1  -6  -2   18.60    0.90
   1  -6  -2   16.80    1.30
  -1   6   2   17.60    1.10
   0  -6  -2   68.39    2.50
   0  -6  -2   67.39    1.70
   0   6   2   64.09    2.10
  -1  -6  -2   29.80    1.60
   1   6   2   27.20    1.20
   1   6   2   29.00    0.80
  -2  -6  -2   17.80    1.20
   2   6   2   17.70    0.50
   2   6   2   19.30    1.00
  -3  -6  -2   10.80    1.10
   3   6   2   11.00    0.80
   3   6   2   12.80    0.40
  -4  -6  -2    7.60    1.00
   4   6   2    7.40    0.80
   4   6   2    7.20    0.40
  -5  -6  -2  107.59    3.20
   5   6   2  101.49    2.80
   5   6   2  107.19    2.20
  -6  -6  -2    0.20    0.40
   6   6   2    0.70    0.30
   6   6   2    0.90    0.40
  -7  -6  -2   17.80    1.30
   7   6   2   20.00    1.30
   7   6   2   18.50    0.90
  -8  -6  -2   24.20    1.40
   8   6   2   22.00    1.20
   8   6   2   23.70    1.50
  -9  -6  -2   30.50    1.60
   9   6   2   33.00    1.90
   9   6   2   27.40    1.40
 -10  -6  -2    1.60    0.70
  10   6   2    1.10    0.50
 -11  -6  -2   -0.20    0.60
  11   6   2    0.30    0.50
 -12  -6  -2   -0.50    0.50
  12   6   2    0.50    0.60
 -13  -6  -2    3.40    1.00
  13   6   2    4.20    1.00
 -14  -6  -2    2.50    1.00
  14   6   2    2.50    1.00
  15   6   2    8.80    1.50
   8  -7  -2   -0.10    0.80
  -8   7   2    1.10    0.80
   7  -7  -2    1.50    0.80
  -7   7   2    0.30    0.60
   6  -7  -2    4.60    1.00
  -6   7   2    4.10    1.00
   5  -7  -2    0.00    0.60
  -5   7   2   -0.30    0.40
   4  -7  -2   79.09    2.70
   4  -7  -2   75.49    3.00
  -4   7   2   74.99    2.90
   3  -7  -2   19.60    1.60
   3  -7  -2   22.40    1.30
  -3   7   2   22.00    1.40
   2  -7  -2   12.70    0.90
   2  -7  -2   11.30    1.40
  -2   7   2   10.10    1.10
   1  -7  -2   62.59    1.90
   1  -7  -2   63.89    2.70
  -1   7   2   63.09    2.20
   0  -7  -2    1.70    0.60
   0   7   2    1.80    0.30
   0   7   2    2.60    0.50
  -1  -7  -2   33.30    1.90
   1   7   2   31.90    1.40
   1   7   2   34.40    1.00
  -2  -7  -2   46.10    2.20
   2   7   2   45.60    1.70
   2   7   2   45.10    1.00
  -3  -7  -2    2.50    0.70
   3   7   2    3.60    0.60
   3   7   2    3.10    0.30
  -4  -7  -2    3.80    0.80
   4   7   2    4.50    0.30
   4   7   2    5.50    0.70
  -5  -7  -2   15.10    1.30
   5   7   2   15.90    0.60
   5   7   2   15.30    1.00
  -6  -7  -2  472.45    9.70
   6   7   2  461.25    9.30
   6   7   2  461.35    8.40
  -7  -7  -2   31.60    1.80
   7   7   2   28.60    1.60
   7   7   2   29.50    1.20
  -8  -7  -2    7.50    1.10
   8   7   2    7.20    1.10
   8   7   2    6.70    0.70
  -9  -7  -2    9.70    1.20
   9   7   2    9.50    1.20
   9   7   2    9.20    0.90
  10   7   2    0.60    0.40
  10   7   2    0.60    0.60
 -11  -7  -2    0.60    0.60
  11   7   2    0.60    0.40
 -12  -7  -2    1.90    0.90
  12   7   2    4.60    0.90
 -13  -7  -2    0.40    0.70
  13   7   2   -0.20    0.60
 -14  -7  -2    8.10    1.50
  14   7   2    7.10    1.30
  -7   8   2    5.90    1.20
   6  -8  -2    3.10    1.00
  -6   8   2    3.50    0.90
   5  -8  -2    1.60    0.80
  -5   8   2    1.00    0.60
   4  -8  -2    1.60    0.80
   4  -8  -2    1.40    0.70
  -4   8   2    1.20    0.60
   3  -8  -2    0.30    0.60
   3  -8  -2    0.90    0.50
  -3   8   2    0.50    0.50
   2  -8  -2    1.40    0.70
   2  -8  -2    1.50    0.50
  -2   8   2    1.00    0.50
   1  -8  -2   47.80    2.50
  -1   8   2   41.80    1.80
  -1   8   2   43.30    1.50
   0  -8  -2   24.00    1.80
   0   8   2   25.10    1.00
   0   8   2   23.60    1.30
  -1  -8  -2    0.70    0.60
   1   8   2    0.90    0.20
   1   8   2    1.20    0.40
  -2  -8  -2   16.60    1.50
   2   8   2   20.50    0.90
   2   8   2   19.30    1.10
  -3  -8  -2   13.20    1.40
   3   8   2   14.70    1.00
  -4  -8  -2    9.50    1.30
   4   8   2    8.80    0.90
  -5  -8  -2   24.50    1.70
   5   8   2   28.00    1.20
   5   8   2   21.80    1.30
  -6  -8  -2   58.89    2.60
   6   8   2   58.09    1.50
   6   8   2   57.69    2.20
  -7  -8  -2   25.40    1.70
   7   8   2   24.80    1.00
   7   8   2   22.20    1.50
  -8  -8  -2    1.30    0.60
   8   8   2    3.00    0.80
   8   8   2    1.80    0.40
  -9  -8  -2    2.70    0.80
   9   8   2    3.40    0.60
   9   8   2    3.60    0.80
  10   8   2    0.40    0.50
  10   8   2    0.30    0.40
  11   8   2    3.30    0.90
  11   8   2    4.70    0.80
 -12  -8  -2    0.20    0.60
  12   8   2    0.60    0.60
 -13  -8  -2    2.40    1.00
  13   8   2    1.10    0.90
 -14  -8  -2    0.40    0.80
  -6   9   2   17.70    1.90
  -5   9   2    0.60    0.70
   4  -9  -2    0.80    0.80
  -4   9   2   -0.60    0.40
   3  -9  -2    0.10    0.60
  -3   9   2    0.20    0.50
   2  -9  -2    3.00    1.00
  -2   9   2    1.40    0.60
   1  -9  -2    0.40    0.60
  -1   9   2    0.50    0.40
   0  -9  -2    1.10    0.70
   0   9   2    1.10    0.50
  -1  -9  -2    5.50    1.20
   1   9   2    6.70    0.80
  -2  -9  -2   63.09    3.00
   2   9   2   65.39    2.30
  -3  -9  -2    4.00    1.00
   3   9   2    5.50    0.80
  -4  -9  -2    4.20    1.00
   4   9   2    5.80    0.80
  -5  -9  -2   19.30    1.90
   5   9   2   20.00    1.30
  -6  -9  -2  121.29    4.20
   6   9   2  120.09    3.60
  -7  -9  -2    2.30    0.80
   7   9   2    1.10    0.50
  -8  -9  -2    1.40    0.70
   8   9   2    2.50    0.80
  -9  -9  -2    3.50    1.00
   9   9   2    2.70    0.80
  10   9   2    4.00    1.00
  11   9   2    4.30    1.10
 -12  -9  -2    5.30    1.20
 -13  -9  -2    1.50    0.80
 -14  -9  -2    0.10    0.80
  -5  10   2   14.60    1.70
  -4  10   2    0.80    0.60
   3 -10  -2    1.00    0.90
  -3  10   2    0.00    0.50
   2 -10  -2    2.40    1.00
  -2  10   2    2.40    0.70
   1 -10  -2    6.90    1.40
  -1  10   2    7.90    1.10
   0 -10  -2    1.10    0.80
   0  10   2    0.10    0.40
  -1 -10  -2    0.30    0.70
   1  10   2   -0.30    0.40
  -2 -10  -2    3.00    1.10
   2  10   2    2.70    0.70
  -3 -10  -2   22.00    2.00
   3  10   2   21.70    1.40
  -4 -10  -2   17.50    1.90
   4  10   2   13.20    1.10
  -5 -10  -2    0.60    0.70
   5  10   2    0.10    0.40
  -6 -10  -2    1.90    0.80
   6  10   2    1.10    0.60
  -7 -10  -2    2.20    0.90
   7  10   2    0.60    0.50
  -8 -10  -2    4.90    1.10
   8  10   2    2.90    0.80
  -9 -10  -2    6.70    1.30
   9  10   2    6.90    1.20
 -10 -10  -2    3.20    1.10
  10  10   2    4.00    1.00
  11  10   2    3.70    1.00
  12  10   2    4.20    1.10
 -13 -10  -2   -0.10    0.70
 -14 -10  -2    0.30    0.90
   3 -11  -2   -0.80    0.80
  -3  11   2    0.30    0.60
   2 -11  -2    0.60    0.90
  -2  11   2    1.00    0.60
   1 -11  -2    6.50    1.50
  -1  11   2    5.40    0.90
   0 -11  -2   -0.40    0.80
   0  11   2    0.20    0.50
  -1 -11  -2   16.40    2.10
   1  11   2   19.90    1.40
  -2 -11  -2   -0.10    0.80
   2  11   2    0.40    0.40
  -3 -11  -2    3.60    1.20
   3  11   2    3.40    0.70
  -4 -11  -2    9.90    1.70
   4  11   2    9.00    1.10
  -5 -11  -2   29.80    2.30
   5  11   2   33.30    1.80
  -6 -11  -2    1.50    0.90
   6  11   2    0.80    0.50
  -7 -11  -2    0.80    0.80
   7  11   2    0.30    0.50
  -8 -11  -2    3.90    1.10
   8  11   2    5.60    1.10
  -9 -11  -2   21.70    2.30
   9  11   2   27.00    1.90
 -10 -11  -2   -0.50    0.70
  10  11   2   -0.80    0.60
  11  11   2   16.00    1.90
  12  11   2   -1.10    0.50
 -13 -11  -2    1.50    0.90
   3 -12  -2   -0.60    1.10
   2 -12  -2    5.00    1.40
   1 -12  -2   -0.40    0.80
  -1  12   2    0.50    0.60
   0 -12  -2    1.50    1.00
   0  12   2    0.90    0.60
  -1 -12  -2    3.20    1.30
   1  12   2    4.80    0.90
  -2 -12  -2   26.10    2.80
   2  12   2   26.30    1.70
  -3 -12  -2   11.00    1.90
   3  12   2   10.30    1.20
  -4 -12  -2   12.20    2.00
   4  12   2   12.70    1.40
  -5 -12  -2    3.20    1.20
   5  12   2    5.20    1.00
  -6 -12  -2    7.40    1.60
   6  12   2    8.70    1.20
  -7 -12  -2    1.50    1.00
   7  12   2    0.60    0.60
  -8 -12  -2    1.80    1.00
   8  12   2    1.70    0.80
  -9 -12  -2   28.50    2.40
   9  12   2   29.50    2.10
 -10 -12  -2    2.60    1.10
  10  12   2    4.80    1.10
  11  12   2    0.50    0.80
  12  12   2    3.00    1.10
 -13 -12  -2    4.50    1.40
   2 -13  -2    0.10    1.00
   1 -13  -2    0.10    1.10
   0 -13  -2    3.30    1.40
   0  13   2    4.50    1.10
  -1 -13  -2   -0.80    0.80
   1  13   2    0.90    0.60
  -2 -13  -2    1.20    1.10
   2  13   2    1.00    0.60
  -3 -13  -2   45.90    3.30
   3  13   2   41.90    2.20
  -4 -13  -2    0.30    1.00
   4  13   2    0.70    0.60
  -5 -13  -2   33.20    2.80
   5  13   2   35.00    2.10
  -6 -13  -2   17.50    2.30
   6  13   2   19.50    1.60
  -7 -13  -2    0.00    0.90
   7  13   2    0.00    0.60
  -8 -13  -2    8.90    1.80
   8  13   2    6.60    1.20
  -9 -13  -2   -0.60    0.90
   9  13   2    1.30    0.80
 -10 -13  -2    0.70    1.00
  10  13   2    0.00    0.70
  11  13   2    7.40    1.50
  12  13   2    7.00    1.40
   0 -14  -2   -0.90    1.10
  -1 -14  -2    0.70    1.20
  -2 -14  -2   25.10    3.00
   2  14   2   22.40    1.90
  -3 -14  -2    3.20    1.40
   3  14   2    6.50    1.10
  -4 -14  -2    7.40    1.80
   4  14   2    8.30    1.30
  -5 -14  -2   23.80    2.90
   5  14   2   24.80    1.90
   6  14   2   16.30    1.80
  -7 -14  -2    0.30    1.00
   7  14   2    1.70    0.80
  -8 -14  -2    3.50    1.50
   8  14   2    1.90    0.90
  -9 -14  -2    3.00    1.30
   9  14   2    3.40    1.10
 -10 -14  -2    2.50    1.30
  10  14   2    1.20    0.90
  11  14   2    1.20    0.90
  -3 -15  -2   17.90    2.70
  -4 -15  -2   -1.00    0.90
  -5 -15  -2   -1.20    1.10
   5  15   2    0.50    0.60
  -6 -15  -2   10.60    2.10
   6  15   2   10.00    1.50
  -7 -15  -2    0.60    1.20
   7  15   2    1.00    0.80
  -8 -15  -2    0.60    1.20
   8  15   2    0.30    0.70
  -9 -15  -2   -0.50    1.00
   9  15   2    0.00    0.70
 -10 -15  -2    0.20    1.20
  10  15   2    0.00    1.30
  -6 -15   3   -0.60    1.40
  -5 -15   3   13.10    3.60
  -7 -14   3   21.70    2.70
  -6 -14   3    6.50    1.80
  -5 -14   3    0.50    1.10
  -4 -14   3   12.00    2.20
  -3 -14   3    1.70    1.20
  -2 -14   3    6.60    1.70
  -1 -14   3   -0.70    1.10
   0 -14   3   15.60    2.80
  -7 -13   3   28.00    2.50
  -6 -13   3    8.10    1.80
  -5 -13   3   -0.50    0.80
  -4 -13   3    6.70    1.70
  -3 -13   3    8.00    1.80
  -2 -13   3    6.30    1.70
  -1 -13   3    3.30    1.40
   0 -13   3    0.70    1.10
   1 -13   3    1.30    1.20
   2 -13   3    0.20    1.00
 -11 -12   3    0.50    0.90
 -10 -12   3    0.70    0.70
  -9 -12   3    0.50    0.70
  -8 -12   3    2.40    0.90
   7  12  -3    1.30    1.10
  -7 -12   3    1.20    1.10
  -6 -12   3   -0.20    0.80
  -5 -12   3    0.40    0.90
  -4 -12   3    1.10    1.00
  -3 -12   3    1.90    1.20
  -2 -12   3    0.10    0.80
  -1 -12   3   -0.30    0.90
   0 -12   3    1.60    1.10
   1 -12   3   -1.10    0.80
   2 -12   3    0.00    0.90
   3 -12   3    2.10    1.20
   4 -12   3   -0.50    0.90
 -11 -11   3    3.90    1.10
 -10 -11   3    3.50    1.00
   9  11  -3    0.10    0.60
  -9 -11   3    0.00    0.60
   8  11  -3    2.50    0.70
  -8 -11   3    3.40    0.90
   7  11  -3    0.10    0.50
   7  11  -3   -0.40    0.50
  -7 -11   3    0.30    0.80
   6  11  -3    4.10    0.90
   6  11  -3    4.00    0.80
  -6 -11   3    3.60    1.20
   5  11  -3   56.49    2.30
   5  11  -3   51.29    2.10
  -5 -11   3   56.79    3.10
   4  11  -3    0.20    0.50
  -4 -11   3    1.50    0.90
   3  11  -3   10.30    1.10
  -3 -11   3   10.30    1.70
   2  11  -3    0.30    0.50
  -2 -11   3    2.70    1.10
   1  11  -3    7.90    1.00
  -1 -11   3   13.60    2.00
   0  11  -3    1.60    0.60
   0 -11   3   -0.80    0.60
  -1  11  -3    8.00    1.00
   1 -11   3    5.20    1.40
  -2  11  -3    0.90    0.50
   2 -11   3    0.20    0.90
  -3  11  -3    1.80    0.60
   3 -11   3    3.00    1.20
   4 -11   3    0.50    1.00
   5 -11   3    1.30    1.00
  12  10  -3    0.80    0.80
 -12 -10   3    0.70    0.90
  11  10  -3    4.00    1.00
 -11 -10   3    5.20    1.20
  10  10  -3    9.90    1.40
 -10 -10   3   10.50    1.50
   9  10  -3    6.90    1.10
  -9 -10   3    6.70    1.20
   8  10  -3    2.60    0.80
  -8 -10   3    3.40    0.90
   7  10  -3    3.20    0.70
  -7 -10   3    2.60    0.90
  -7 -10   3    2.40    0.70
   6  10  -3    4.80    0.90
   6  10  -3    5.30    0.90
  -6 -10   3    5.20    1.10
   5  10  -3    2.70    0.70
   5  10  -3    4.70    0.80
  -5 -10   3    3.30    1.00
   4  10  -3    1.30    0.60
   4  10  -3    2.00    0.60
  -4 -10   3   -0.10    0.70
   3  10  -3   13.90    1.10
   3  10  -3   12.20    1.10
  -3 -10   3   14.20    1.80
   2  10  -3    4.30    0.70
  -2 -10   3    3.90    1.10
   1  10  -3    8.00    0.90
  -1 -10   3    8.50    1.50
   0  10  -3    8.60    0.90
   0 -10   3    8.80    1.60
  -1  10  -3    0.80    0.40
   1 -10   3    1.00    0.90
  -2  10  -3    0.20    0.40
   2 -10   3    0.20    0.70
  -3  10  -3   11.00    1.20
   3 -10   3   14.40    2.00
  -4  10  -3    2.20    0.70
   4 -10   3    2.10    1.00
  -5  10  -3    2.30    0.70
   5 -10   3    1.20    1.00
  -6  10  -3   13.60    1.50
   6 -10   3   16.10    2.10
  -7  10  -3    5.40    1.00
  12   9  -3    2.50    0.90
 -12  -9   3    2.10    1.00
  11   9  -3    1.80    0.80
 -11  -9   3    1.20    0.80
  10   9  -3   10.40    1.40
 -10  -9   3   10.40    1.50
   9   9  -3    4.20    0.90
  -9  -9   3    5.10    1.10
   8   9  -3    4.60    0.80
  -8  -9   3    4.60    1.00
   7   9  -3   24.20    1.50
  -7  -9   3   25.80    1.80
  -7  -9   3   23.00    1.60
   6   9  -3   23.00    1.50
   6   9  -3   27.20    1.50
  -6  -9   3   20.80    1.60
   5   9  -3    7.60    0.90
   5   9  -3    9.10    1.10
  -5  -9   3    7.70    1.20
   4   9  -3   69.29    2.30
   4   9  -3   68.89    2.30
  -4  -9   3   69.59    3.00
   3   9  -3    2.80    0.60
   3   9  -3    2.70    0.60
  -3  -9   3    1.70    0.80
   2   9  -3    0.80    0.40
   2   9  -3    0.70    0.40
  -2  -9   3   -0.30    0.60
   1   9  -3   15.50    1.30
   1   9  -3   17.40    1.10
  -1  -9   3   14.40    1.70
   0   9  -3    2.60    0.60
   0  -9   3    2.60    0.90
  -1   9  -3   15.00    1.10
   1  -9   3   13.40    1.70
  -2   9  -3   12.40    1.00
   2  -9   3   13.40    1.80
  -3   9  -3   24.50    1.50
   3  -9   3   25.50    2.10
  -4   9  -3   15.10    1.30
   4  -9   3   10.10    1.60
  -5   9  -3   29.30    1.80
   5  -9   3   28.30    2.40
  -6   9  -3    5.80    1.00
   6  -9   3    4.20    1.20
  -7   9  -3    5.00    1.10
  -8   9  -3    1.80    0.80
  13   8  -3   -0.20    0.80
  12   8  -3    1.90    0.90
 -12  -8   3    1.70    0.90
  11   8  -3   -1.30    0.50
 -11  -8   3   -0.10    0.70
  10   8  -3   -0.10    0.50
 -10  -8   3    0.70    0.70
   9   8  -3    0.30    0.60
  -9  -8   3    0.50    0.60
   8   8  -3   31.80    1.80
  -8  -8   3   30.50    1.90
   7   8  -3   10.40    1.20
  -7  -8   3   14.40    1.40
  -7  -8   3   13.40    1.40
   6   8  -3    0.60    0.50
  -6  -8   3    1.80    0.70
   5   8  -3    1.70    0.60
   5   8  -3    1.50    0.50
  -5  -8   3    0.50    0.50
   4   8  -3    7.20    0.80
   4   8  -3    8.00    0.90
  -4  -8   3    6.20    1.00
   3   8  -3    9.00    0.90
   3   8  -3   10.00    0.90
  -3  -8   3    9.30    1.20
   2   8  -3   45.10    1.70
   2   8  -3   43.90    1.60
  -2  -8   3   42.20    2.30
   1   8  -3   45.60    1.70
   1   8  -3   49.20    1.60
  -1  -8   3   46.50    2.40
   0   8  -3   43.00    1.40
   0   8  -3   42.40    1.60
   0  -8   3   46.30    2.50
  -1   8  -3   10.70    1.00
   1  -8   3    8.70    1.40
  -2   8  -3   18.90    1.20
   2  -8   3   15.20    1.70
  -3   8  -3   16.00    1.20
   3  -8   3   17.10    1.80
  -4   8  -3    1.10    0.50
   4  -8   3    0.60    0.70
  -5   8  -3   10.40    1.20
   5  -8   3   11.00    1.60
  -6   8  -3    2.90    0.80
   6  -8   3    4.20    1.10
  -7   8  -3    0.00    0.60
  -8   8  -3    0.10    0.60
  -9   8  -3    6.70    1.40
  13   7  -3    1.70    0.90
  12   7  -3   -0.50    0.60
 -12  -7   3    0.30    0.70
  11   7  -3    0.10    0.60
 -11  -7   3    0.20    0.70
  10   7  -3   15.20    1.70
 -10  -7   3   10.10    1.50
   9   7  -3   18.60    1.50
  -9  -7   3   15.30    1.70
   8   7  -3    5.80    1.00
  -8  -7   3    6.50    1.10
   7   7  -3   -0.20    0.50
  -7  -7   3    0.30    0.50
   6   7  -3    1.80    0.60
  -6  -7   3    2.40    0.60
  -6  -7   3    2.00    0.60
   5   7  -3    1.50    0.50
   5   7  -3    1.70    0.50
  -5  -7   3    1.30    0.60
   4   7  -3   36.40    1.60
   4   7  -3   35.80    1.50
  -4  -7   3   36.00    1.90
   3   7  -3    4.20    0.60
   3   7  -3    4.20    0.60
  -3  -7   3    4.90    0.90
   2   7  -3   -0.20    0.30
   2   7  -3    0.30    0.30
  -2  -7   3    0.60    0.50
   1   7  -3  160.98    3.70
   1   7  -3  163.48    3.50
  -1  -7   3  160.28    4.60
   0   7  -3  120.19    2.70
   0   7  -3  115.59    3.00
   0  -7   3  119.09    3.90
  -1   7  -3  114.69    3.00
  -1   7  -3  114.99    2.60
   1  -7   3  120.19    4.00
  -2   7  -3    3.90    0.50
  -2   7  -3    3.20    0.60
   2  -7   3    5.10    0.90
  -3   7  -3   41.80    1.70
   3  -7   3   42.60    2.30
  -4   7  -3   19.60    1.30
   4  -7   3   22.10    1.80
  -5   7  -3    2.50    0.70
   5  -7   3    4.20    1.00
  -6   7  -3   -0.30    0.40
   6  -7   3    0.60    0.60
  -7   7  -3    0.20    0.50
   7  -7   3    0.20    0.60
  -8   7  -3    0.40    0.60
  -9   7  -3   20.50    2.00
  13   6  -3    1.50    1.00
 -13  -6   3    0.80    1.30
  12   6  -3   -0.10    0.70
 -12  -6   3    0.40    0.70
  11   6  -3    0.60    0.70
 -11  -6   3   -0.30    0.60
  10   6  -3   20.60    1.90
 -10  -6   3   19.10    1.70
   9   6  -3   22.50    1.60
  -9  -6   3   23.40    1.70
   8   6  -3   -0.20    0.50
  -8  -6   3    0.40    0.60
   7   6  -3   43.00    1.90
  -7  -6   3   45.20    2.10
   6   6  -3    0.20    0.40
  -6  -6   3    0.30    0.40
  -6  -6   3    1.00    0.50
   5   6  -3   23.90    1.30
  -5  -6   3   24.10    1.30
  -5  -6   3   24.80    1.40
   4   6  -3    7.10    0.80
   4   6  -3    6.60    0.80
  -4  -6   3    6.00    0.90
   3   6  -3   32.70    1.40
   3   6  -3   32.40    1.30
  -3  -6   3   32.60    1.70
   2   6  -3   37.50    1.30
   2   6  -3   38.70    1.40
  -2  -6   3   36.20    1.80
   1   6  -3   67.09    2.00
   1   6  -3   65.89    1.70
  -1  -6   3   70.49    2.60
   0   6  -3  138.29    3.30
   0   6  -3  139.09    2.90
   0  -6   3  139.99    4.10
  -1   6  -3  181.88    3.50
  -1   6  -3  180.18    4.00
   1  -6   3  170.58    4.80
  -2   6  -3    8.30    0.50
  -2   6  -3    7.80    0.80
   2  -6   3    6.70    1.00
  -3   6  -3    9.90    0.90
  -3   6  -3   10.20    0.60
   3  -6   3    9.50    1.30
  -4   6  -3   16.80    1.10
  -4   6  -3   16.60    0.90
   4  -6   3   14.70    1.60
  -5   6  -3   11.20    1.10
   5  -6   3   13.60    1.60
  -6   6  -3    6.70    1.00
   6  -6   3    7.00    1.10
   7  -6   3   -0.20    0.50
   8  -6   3    3.50    1.10
   9  -6   3    0.60    1.00
  13   5  -3    0.40    1.00
 -13  -5   3   -1.10    1.00
  12   5  -3    2.30    1.00
 -12  -5   3    2.60    1.00
  11   5  -3    0.40    0.70
 -11  -5   3   -0.70    0.50
  10   5  -3    0.00    0.60
 -10  -5   3    1.10    0.70
   9   5  -3    9.00    1.20
  -9  -5   3    9.60    1.30
   8   5  -3   26.00    1.60
  -8  -5   3   25.20    1.70
   7   5  -3    9.00    1.10
  -7  -5   3   10.30    1.20
   6   5  -3    2.00    0.60
  -6  -5   3    1.70    0.50
  -6  -5   3    1.60    0.40
   5   5  -3    8.90    0.90
  -5  -5   3    7.10    0.80
  -5  -5   3    7.10    0.80
   4   5  -3   83.69    2.40
  -4  -5   3   85.39    2.60
  -4  -5   3   83.59    2.40
   3   5  -3   83.79    2.30
   3   5  -3   80.59    2.20
  -3  -5   3   87.09    2.60
   2   5  -3    8.50    0.60
   2   5  -3    9.30    0.70
  -2  -5   3    7.50    0.90
   1   5  -3   22.40    1.00
   1   5  -3   21.60    0.80
  -1  -5   3   21.50    1.30
   0   5  -3    3.80    0.50
   0   5  -3    3.50    0.30
   0  -5   3    2.30    0.60
  -1   5  -3    1.50    0.40
  -1   5  -3    2.20    0.30
   1  -5   3    1.50    0.60
  -2   5  -3    1.50    0.30
  -2   5  -3    0.70    0.30
   2  -5   3    1.10    0.50
  -3   5  -3   80.09    1.90
  -3   5  -3   75.49    2.30
   3  -5   3   76.79    2.80
  -4   5  -3    3.00    0.40
  -4   5  -3    3.30    0.60
   4  -5   3    2.40    0.70
  -5   5  -3   24.20    1.10
   5  -5   3   26.00    1.70
   5  -5   3   24.10    1.50
  -6   5  -3    3.20    0.60
   6  -5   3    2.70    0.80
   6  -5   3    1.40    0.60
   7  -5   3    3.50    0.90
   7  -5   3    1.60    0.70
   8  -5   3   -0.30    0.60
   9  -5   3    0.00    0.70
  10  -5   3    0.00    0.90
  11  -5   3    8.80    1.70
  12   4  -3    0.60    0.80
 -12  -4   3    1.70    0.90
  11   4  -3    0.80    0.70
 -11  -4   3   -0.10    0.60
  10   4  -3   -0.40    0.60
 -10  -4   3    0.30    0.70
   9   4  -3    3.00    0.80
  -9  -4   3    1.70    0.70
   8   4  -3   18.10    1.40
  -8  -4   3   18.80    1.40
   7   4  -3    7.00    1.00
  -7  -4   3    5.20    0.90
   6   4  -3    4.30    0.70
  -6  -4   3    5.40    0.80
   5   4  -3    0.20    0.40
  -5  -4   3    0.60    0.40
  -5  -4   3   -0.20    0.20
   4   4  -3  192.78    4.30
  -4  -4   3  188.78    4.20
  -4  -4   3  197.38    4.30
   3   4  -3   40.80    1.50
  -3  -4   3   43.90    1.50
  -3  -4   3   41.40    1.60
   2   4  -3  136.29    2.90
   2   4  -3  131.49    3.00
  -2  -4   3  135.19    3.40
   1   4  -3   15.00    0.60
   1   4  -3   15.60    0.80
  -1  -4   3   14.50    1.00
   0   4  -3    2.70    0.40
   0   4  -3    3.40    0.30
   0  -4   3    3.60    0.60
  -1   4  -3  203.88    4.20
  -1   4  -3  202.78    3.60
   1  -4   3  199.78    4.80
  -2   4  -3   89.09    2.40
  -2   4  -3   93.29    1.90
   2  -4   3   91.39    2.90
  -3   4  -3    0.20    0.30
  -3   4  -3    0.40    0.20
   3  -4   3    0.80    0.50
  -4   4  -3    6.60    0.50
   4  -4   3    7.20    0.90
   4  -4   3    5.20    0.80
  -5   4  -3   15.50    0.90
   5  -4   3   17.50    1.20
   5  -4   3   16.90    1.30
  -6   4  -3    3.90    0.60
   6  -4   3    4.30    0.90
   6  -4   3    3.70    0.80
  -7   4  -3   13.00    1.00
   7  -4   3   12.80    1.40
   7  -4   3   13.00    1.40
  -8   4  -3    2.30    0.70
   8  -4   3    4.20    1.00
   9  -4   3    4.90    1.10
  10  -4   3   39.20    2.60
  11  -4   3    1.30    1.00
  12   3  -3    0.10    0.70
 -12  -3   3    1.00    0.90
  11   3  -3   10.90    1.50
 -11  -3   3   10.10    1.50
  10   3  -3    3.20    1.00
   9   3  -3    2.60    0.80
  -9  -3   3    2.70    0.80
   8   3  -3   -0.20    0.50
  -8  -3   3   -0.20    0.40
   7   3  -3    0.40    0.40
  -7  -3   3    0.40    0.50
   6   3  -3   92.49    2.80
  -6  -3   3   94.29    2.90
   5   3  -3    0.30    0.40
  -5  -3   3    0.20    0.20
  -5  -3   3    0.50    0.40
   4   3  -3   13.70    0.90
  -4  -3   3   12.50    0.70
  -4  -3   3   12.80    0.90
   3   3  -3   63.29    1.90
  -3  -3   3   65.59    1.80
  -3  -3   3   67.09    1.90
   2   3  -3   52.19    1.50
  -2  -3   3   53.09    1.50
  -2  -3   3   52.49    1.70
   1   3  -3   89.29    2.10
  -1  -3   3   87.49    2.40
  -1  -3   3   87.09    1.90
   0   3  -3    7.00    0.30
   0   3  -3    7.00    0.50
   0  -3   3    6.80    0.70
  -1   3  -3    5.60    0.50
  -1   3  -3    5.90    0.20
   1  -3   3    6.60    0.30
   1  -3   3    4.90    0.60
  -2   3  -3   75.79    2.00
  -2   3  -3   78.89    1.50
   2  -3   3   72.99    2.40
  -3   3  -3   12.00    0.80
  -3   3  -3   11.20    0.50
   3  -3   3   11.90    1.00
   4  -3   3    2.70    0.60
   4  -3   3    2.40    0.50
  -5   3  -3   26.70    1.10
   5  -3   3   23.80    1.30
   5  -3   3   26.60    1.40
  -6   3  -3    0.40    0.30
   6  -3   3    0.70    0.50
   6  -3   3    0.40    0.40
  -7   3  -3    9.80    1.00
   7  -3   3    9.30    1.10
   7  -3   3    8.50    1.00
  -8   3  -3    8.90    1.00
   8  -3   3    8.50    1.20
   8  -3   3    8.80    1.10
  -9   3  -3    0.60    0.50
   9  -3   3    0.20    0.70
  10  -3   3    2.80    1.00
  11  -3   3    0.10    0.90
  12  -3   3    2.20    1.00
  12   2  -3    0.80    0.80
 -12  -2   3    0.60    0.80
  11   2  -3    0.20    0.80
 -11  -2   3    1.70    0.80
  10   2  -3   10.90    1.50
 -10  -2   3   13.00    1.60
   9   2  -3    6.20    1.10
  -9  -2   3    5.00    1.00
   8   2  -3   17.70    1.40
  -8  -2   3   15.00    1.50
   7   2  -3    8.70    1.10
  -7  -2   3    7.20    1.00
   6   2  -3   12.40    1.00
  -6  -2   3   11.40    1.00
   5   2  -3    0.40    0.30
  -5  -2   3   -0.50    0.30
   4   2  -3   11.30    0.80
  -4  -2   3   11.50    0.50
  -4  -2   3   11.00    0.80
   3   2  -3    1.00    0.30
  -3  -2   3    1.60    0.40
  -3  -2   3    1.40    0.30
   2   2  -3    3.20    0.50
  -2  -2   3    3.00    0.40
  -2  -2   3    3.00    0.40
   1   2  -3    0.40    0.30
  -1  -2   3    0.10    0.10
  -1  -2   3   -0.10    0.20
   0   2  -3   17.40    0.80
   0  -2   3   16.80    0.50
   0  -2   3   17.60    0.90
  -1   2  -3   10.00    0.60
   1  -2   3    9.70    0.70
  -2   2  -3  143.99    2.50
  -2   2  -3  144.79    3.10
   2  -2   3  148.09    3.50
  -3   2  -3  248.68    4.50
   3  -2   3  244.88    5.30
   3  -2   3  250.77    5.00
  -4   2  -3   17.20    0.70
   4  -2   3   19.40    1.00
   4  -2   3   17.50    1.10
  -5   2  -3   37.10    1.30
   5  -2   3   35.80    1.50
   5  -2   3   37.00    1.60
  -6   2  -3    7.20    0.70
   6  -2   3    7.30    0.90
   6  -2   3    6.40    0.80
  -7   2  -3   47.70    1.80
   7  -2   3   41.30    1.90
   7  -2   3   42.50    1.80
  -8   2  -3    0.40    0.40
   8  -2   3    0.30    0.60
   8  -2   3    0.90    0.40
  -9   2  -3    2.40    0.70
   9  -2   3    1.40    0.70
 -10   2  -3   -0.50    0.50
  10  -2   3   -0.80    0.50
 -11   2  -3    0.40    0.60
  11  -2   3    0.60    0.70
  12  -2   3   -0.70    0.80
  12   1  -3    3.70    1.20
 -12  -1   3    1.60    0.90
  11   1  -3   20.40    2.10
 -11  -1   3   15.40    1.90
  10   1  -3    3.80    1.10
 -10  -1   3    3.20    1.00
   9   1  -3   13.50    1.50
  -9  -1   3   11.00    1.50
   8   1  -3   14.10    1.40
  -8  -1   3   16.80    1.40
   7   1  -3    0.30    0.50
  -7  -1   3    0.50    0.50
   6   1  -3   30.20    1.60
  -6  -1   3   26.60    1.50
   5   1  -3    2.50    0.60
  -5  -1   3    2.80    0.60
   4   1  -3   15.50    0.90
  -4  -1   3   16.20    1.00
   3   1  -3    0.40    0.30
  -3  -1   3    0.80    0.30
  -3  -1   3    0.80    0.20
   2   1  -3    7.80    0.60
  -2  -1   3    6.40    0.50
  -2  -1   3    6.90    0.50
   1   1  -3  283.97    5.30
  -1  -1   3  277.97    5.20
  -1  -1   3  286.97    5.40
   0   1  -3 1053.49   18.00
   0  -1   3 1062.79   18.30
   0  -1   3 1058.39   18.20
  -1   1  -3   66.19    1.60
   1  -1   3   69.09    1.90
   1  -1   3   68.29    1.20
  -2   1  -3   47.10    1.30
   2  -1   3   48.60    1.60
  -3   1  -3    9.40    0.40
   3  -1   3    9.00    0.70
   3  -1   3   10.90    0.70
  -4   1  -3   11.70    0.60
   4  -1   3   11.00    0.80
   4  -1   3   11.90    0.80
  -5   1  -3   22.70    0.90
   5  -1   3   22.90    1.20
   5  -1   3   23.30    1.10
  -6   1  -3   32.90    1.30
   6  -1   3   30.50    1.40
   6  -1   3   30.90    1.40
  -7   1  -3  212.48    4.60
   7  -1   3  199.08    4.90
   7  -1   3  195.58    4.60
  -8   1  -3   70.39    2.40
   8  -1   3   70.19    2.30
   8  -1   3   74.19    2.70
  -9   1  -3    2.90    0.70
   9  -1   3    1.80    0.70
 -10   1  -3    0.40    0.50
  10  -1   3   -0.30    0.60
 -11   1  -3    0.60    0.60
  11  -1   3    0.60    0.70
 -12   1  -3    5.00    1.10
  12  -1   3    5.20    1.30
  13  -1   3    2.00    1.10
  12   0  -3    1.40    1.20
 -12   0   3    1.70    1.00
  11   0  -3    2.90    1.00
 -11   0   3    2.30    1.00
  10   0  -3    1.30    0.80
 -10   0   3    0.10    0.70
   9   0  -3   44.60    2.40
  -9   0   3   47.00    2.50
   8   0  -3    0.40    0.60
  -8   0   3    0.20    0.50
   7   0  -3   -0.40    0.50
  -7   0   3   -0.30    0.40
   6   0  -3   30.50    1.60
  -6   0   3   26.80    1.50
   5   0  -3    6.00    0.70
  -5   0   3    6.20    0.80
   4   0  -3    6.40    0.70
  -4   0   3    9.00    0.80
   3   0  -3   82.49    1.70
   3   0  -3   84.89    2.20
  -3   0   3   82.19    2.30
   2   0  -3  133.39    3.00
  -2   0   3  135.49    3.00
  -2   0   3  138.09    2.70
   1   0  -3  325.37    5.90
  -1   0   3  319.67    6.00
  -1   0   3  321.37    5.90
   0   0   3   78.99    1.90
   0   0   3   80.99    1.70
  -1   0  -3  215.08    4.10
   1   0   3  230.58    4.00
   1   0   3  225.08    4.50
  -2   0  -3   52.89    1.30
   2   0   3   54.59    1.20
   2   0   3   56.09    1.60
   3   0   3   87.29    1.90
   3   0   3   89.09    2.10
   3   0   3   87.49    2.30
   4   0   3    0.10    0.30
   4   0   3    0.00    0.30
   4   0   3    0.10    0.20
  -5   0  -3   14.70    0.80
   5   0   3   15.70    0.90
   5   0   3   13.40    0.90
  -6   0  -3  298.37    5.90
   6   0   3  289.47    6.10
   6   0   3  298.67    6.10
  -7   0  -3    1.90    0.50
   7   0   3    2.30    0.60
   7   0   3    2.60    0.50
  -8   0  -3   11.10    1.00
   8   0   3   11.00    0.90
   8   0   3   10.10    1.10
  -9   0  -3    2.80    0.70
   9   0   3    2.20    0.70
 -10   0  -3    0.40    0.40
  10   0   3    0.20    0.60
 -11   0  -3    5.40    1.00
  11   0   3    4.90    1.10
 -12   0  -3   -0.40    0.50
  12   0   3    0.10    0.70
 -13   0  -3    1.60    0.80
  13   0   3    3.10    1.10
  11  -1  -3    8.50    1.60
 -11   1   3    8.50    1.50
  10  -1  -3   18.90    2.00
 -10   1   3   21.80    1.90
   9  -1  -3    1.20    0.70
  -9   1   3    0.70    0.60
   8  -1  -3   10.70    1.30
  -8   1   3    9.00    1.30
   7  -1  -3    0.90    0.50
  -7   1   3    0.40    0.60
   6  -1  -3    4.00    0.80
  -6   1   3    4.70    0.90
   5  -1  -3    1.10    0.40
  -5   1   3    1.20    0.50
   4  -1  -3    0.80    0.40
   4  -1  -3    0.90    0.20
  -4   1   3    0.50    0.30
   3  -1  -3   37.10    1.10
   3  -1  -3   39.00    1.40
  -3   1   3   37.50    1.50
   2  -1  -3   75.29    1.80
   2  -1  -3   78.09    2.00
  -2   1   3   76.29    2.10
   1  -1  -3    0.70    0.30
  -1   1   3    0.70    0.20
   0  -1  -3    5.60    0.40
   0   1   3    5.20    0.50
   0   1   3    5.20    0.40
  -1  -1  -3  215.08    3.90
   1   1   3  220.38    4.00
   1   1   3  210.88    4.30
  -2  -1  -3  496.35    8.40
   2   1   3  470.85    8.80
   2   1   3  489.85    8.40
   3   1   3    2.80    0.40
   3   1   3    2.80    0.30
   3   1   3    2.70    0.40
   4   1   3   38.50    1.40
   4   1   3   37.90    1.20
   4   1   3   37.10    1.20
   5   1   3    1.60    0.40
   5   1   3    3.40    0.50
   5   1   3    2.90    0.40
  -6  -1  -3   47.80    1.60
   6   1   3   50.79    1.70
   6   1   3   49.30    1.70
  -7  -1  -3    2.90    0.50
   7   1   3    3.60    0.70
   7   1   3    3.20    0.50
  -8  -1  -3  139.19    3.60
   8   1   3  133.19    3.70
   8   1   3  137.39    3.40
  -9  -1  -3   18.30    1.30
   9   1   3   18.90    1.40
 -10  -1  -3    3.20    0.70
  10   1   3    2.30    0.80
 -11  -1  -3    0.20    0.50
  11   1   3   -0.30    0.50
 -12  -1  -3   -0.60    0.50
  12   1   3    0.50    0.70
 -13  -1  -3   -0.30    0.60
  13   1   3    0.40    0.70
 -14  -1  -3    3.50    1.10
  14   1   3    3.00    1.10
  11  -2  -3    0.00    0.80
 -11   2   3    0.60    0.80
  10  -2  -3    1.10    0.90
 -10   2   3   -0.60    0.60
   9  -2  -3    5.20    1.10
  -9   2   3    3.40    1.00
   8  -2  -3    1.20    0.70
  -8   2   3    0.80    0.60
   7  -2  -3    1.40    0.60
  -7   2   3    2.00    0.70
   6  -2  -3   15.20    1.40
  -6   2   3   16.80    1.30
   5  -2  -3    2.80    0.60
  -5   2   3    3.70    0.70
   4  -2  -3    6.30    0.80
   4  -2  -3    5.90    0.50
  -4   2   3    5.90    0.80
   3  -2  -3   -0.30    0.20
   3  -2  -3    0.10    0.20
  -3   2   3   -0.20    0.20
   2  -2  -3   32.70    1.20
   2  -2  -3   34.70    1.20
  -2   2   3   35.60    1.40
   1  -2  -3  224.98    4.50
   1  -2  -3  222.38    4.30
  -1   2   3  221.88    4.60
   0  -2  -3   12.10    0.70
   0  -2  -3   11.80    0.50
   0   2   3   11.60    0.60
  -1  -2  -3   35.20    0.90
   1   2   3   37.40    1.30
   1   2   3   38.30    1.10
  -2  -2  -3   49.40    1.00
   2   2   3   49.99    1.30
   2   2   3   47.10    1.50
   3   2   3  435.46    7.60
   3   2   3  438.56    7.80
   3   2   3  431.56    8.10
   4   2   3  557.94   10.00
   4   2   3  549.05    9.80
   4   2   3  572.54   10.30
   5   2   3   76.79    2.00
   5   2   3   81.89    2.10
   5   2   3   79.69    2.20
   6   2   3    9.30    0.70
   6   2   3    8.10    0.70
   6   2   3    9.20    0.70
  -7  -2  -3    0.70    0.40
   7   2   3    0.50    0.30
   7   2   3    0.00    0.30
  -8  -2  -3    5.20    0.80
   8   2   3    5.40    0.70
   8   2   3    5.60    0.80
  -9  -2  -3    0.30    0.40
   9   2   3   -0.10    0.40
   9   2   3    0.00    0.40
  10   2   3    8.20    1.10
 -11  -2  -3    4.80    0.90
  11   2   3    4.60    1.00
 -12  -2  -3    0.90    0.70
  12   2   3   -0.40    0.50
 -13  -2  -3    0.70    0.70
  13   2   3    0.00    0.60
 -14  -2  -3    0.60    0.70
  14   2   3    0.30    0.70
  10  -3  -3    1.60    0.90
 -10   3   3    0.10    0.70
   9  -3  -3    1.20    0.80
  -9   3   3    0.80    0.80
   8  -3  -3    5.00    1.00
  -8   3   3    6.20    1.20
   7  -3  -3    7.10    1.10
  -7   3   3    6.00    1.10
   6  -3  -3    0.70    0.50
  -6   3   3    0.90    0.60
   5  -3  -3    1.20    0.50
  -5   3   3    0.70    0.50
   4  -3  -3    4.20    0.60
   4  -3  -3    5.60    0.70
  -4   3   3    5.10    0.80
   3  -3  -3    0.80    0.30
   3  -3  -3    0.90    0.40
  -3   3   3    0.70    0.40
   2  -3  -3  158.58    3.60
   2  -3  -3  156.08    3.40
  -2   3   3  154.68    3.70
   1  -3  -3   15.00    0.90
   1  -3  -3   15.10    0.70
  -1   3   3   16.60    0.90
   0  -3  -3   56.09    1.80
   0  -3  -3   54.99    1.30
   0   3   3   55.59    1.70
  -1  -3  -3    1.60    0.20
  -1  -3  -3    1.00    0.30
   1   3   3    1.70    0.30
  -2  -3  -3   26.70    0.60
  -2  -3  -3   26.50    1.20
   2   3   3   27.40    1.00
  -3  -3  -3  312.67    6.20
   3   3   3  316.27    5.90
  -4  -3  -3    2.80    0.50
   4   3   3    2.80    0.40
   4   3   3    2.90    0.30
   5   3   3   24.60    0.90
   5   3   3   24.50    1.10
   5   3   3   22.50    1.10
   6   3   3   32.30    1.20
   6   3   3   33.40    1.40
  -7  -3  -3    0.10    0.30
   7   3   3    0.20    0.30
   7   3   3   -0.20    0.30
  -8  -3  -3   51.49    1.80
   8   3   3   51.39    1.90
   8   3   3   48.20    2.00
  -9  -3  -3    8.00    1.00
  -9  -3  -3    9.90    0.90
   9   3   3    7.80    0.90
 -10  -3  -3    0.80    0.50
  10   3   3    1.20    0.60
 -11  -3  -3    0.30    0.50
  11   3   3    0.50    0.50
 -12  -3  -3    0.30    0.60
  12   3   3    1.10    0.70
 -13  -3  -3    5.30    1.20
  13   3   3    5.60    1.20
 -14  -3  -3    2.70    1.00
  14   3   3    4.10    1.10
  10  -4  -3    1.90    1.00
 -10   4   3    1.60    0.90
   9  -4  -3    1.90    0.90
  -9   4   3    0.70    0.80
   8  -4  -3   -0.20    0.70
  -8   4   3    0.10    0.60
   7  -4  -3    2.40    0.80
  -7   4   3    1.60    0.70
   6  -4  -3   29.80    1.70
  -6   4   3   29.40    1.90
   5  -4  -3   -0.10    0.40
  -5   4   3    1.90    0.70
   4  -4  -3   37.50    1.60
   4  -4  -3   37.30    1.60
  -4   4   3   41.70    1.90
   3  -4  -3   24.50    1.20
   3  -4  -3   24.40    1.30
  -3   4   3   24.50    1.40
   2  -4  -3   16.50    0.90
   2  -4  -3   16.30    1.10
  -2   4   3   15.70    1.00
   1  -4  -3   45.80    1.40
   1  -4  -3   49.30    1.80
  -1   4   3   47.30    1.70
   0  -4  -3    1.80    0.30
   0  -4  -3    1.40    0.40
   0   4   3    2.00    0.40
  -1  -4  -3  182.08    3.30
  -1  -4  -3  182.58    4.20
   1   4   3  188.18    4.00
  -2  -4  -3  143.89    3.50
   2   4   3  146.29    3.20
  -3  -4  -3  160.78    3.80
   3   4   3  159.48    3.50
  -4  -4  -3   35.50    1.50
   4   4   3   36.30    0.90
   4   4   3   36.30    1.30
  -5  -4  -3   42.20    1.70
   5   4   3   43.10    1.20
   5   4   3   44.30    1.50
  -6  -4  -3  110.39    3.00
   6   4   3  105.99    2.50
   6   4   3  105.79    2.90
  -7  -4  -3   25.20    1.30
   7   4   3   26.00    1.20
   7   4   3   26.10    1.40
  -8  -4  -3   -0.10    0.30
   8   4   3    0.00    0.30
   8   4   3    0.60    0.50
  -9  -4  -3   59.59    2.10
   9   4   3   58.59    2.20
 -10  -4  -3   44.50    2.20
  10   4   3   39.60    1.90
 -11  -4  -3    1.30    0.60
  11   4   3    1.10    0.60
 -12  -4  -3   -0.60    0.60
  12   4   3    0.00    0.50
 -13  -4  -3    4.00    1.00
  13   4   3    2.80    0.90
 -14  -4  -3   -0.10    0.70
  14   4   3    0.00    0.60
 -15  -4  -3   -0.50    1.00
   9  -5  -3    3.60    1.10
  -9   5   3    5.70    1.30
   8  -5  -3    4.70    1.10
  -8   5   3    4.60    1.20
   7  -5  -3    7.10    1.20
  -7   5   3    5.60    1.10
   6  -5  -3   34.30    1.90
  -6   5   3   29.90    2.00
   5  -5  -3   -0.30    0.40
  -5   5   3    0.20    0.40
   4  -5  -3   14.90    1.20
   4  -5  -3   13.90    1.10
  -4   5   3   16.70    1.30
   3  -5  -3   -0.60    0.30
   3  -5  -3   -0.70    0.30
  -3   5   3   -0.10    0.30
   2  -5  -3    0.00    0.30
   2  -5  -3   -0.10    0.30
  -2   5   3    0.00    0.30
   1  -5  -3   30.40    1.10
   1  -5  -3   30.70    1.50
  -1   5   3   30.50    1.40
   0  -5  -3   11.10    0.50
   0  -5  -3   11.50    1.00
   0   5   3    9.80    0.80
  -1  -5  -3   86.29    1.70
  -1  -5  -3   87.19    2.70
   1   5   3   85.29    2.30
  -2  -5  -3   23.80    1.30
   2   5   3   24.40    1.10
  -3  -5  -3   -0.20    0.30
   3   5   3   -0.30    0.20
  -4  -5  -3    1.00    0.50
   4   5   3   -0.30    0.30
   4   5   3    0.10    0.10
  -5  -5  -3   67.79    2.30
   5   5   3   68.99    1.60
   5   5   3   69.99    2.10
  -6  -5  -3    3.00    0.60
   6   5   3    1.70    0.50
   6   5   3    2.00    0.30
  -7  -5  -3    0.70    0.40
   7   5   3    0.70    0.30
   7   5   3   -0.10    0.30
  -8  -5  -3   20.10    1.30
   8   5   3   22.50    1.40
   8   5   3   20.40    1.10
  -9  -5  -3   23.00    1.40
   9   5   3   23.10    1.30
   9   5   3   23.60    1.60
 -10  -5  -3    1.80    0.70
  10   5   3    1.80    0.60
 -11  -5  -3    1.80    0.70
  11   5   3    3.60    0.80
 -12  -5  -3   10.00    1.40
  12   5   3    8.90    1.20
 -13  -5  -3    0.40    0.60
  13   5   3    0.00    0.60
 -14  -5  -3    1.30    0.80
  14   5   3    1.40    0.80
 -15  -5  -3   -0.10    0.80
  15   5   3    1.00    0.80
   9  -6  -3    4.30    1.10
  -9   6   3    4.60    1.20
   8  -6  -3    4.00    1.10
  -8   6   3    2.60    1.00
   7  -6  -3    0.90    0.70
  -7   6   3    0.40    0.70
   6  -6  -3    5.20    1.00
  -6   6   3    6.80    1.20
   5  -6  -3    1.10    0.60
  -5   6   3    1.30    0.60
   4  -6  -3   23.60    1.60
   4  -6  -3   22.10    1.40
  -4   6   3   26.90    1.70
   3  -6  -3   79.99    2.90
   3  -6  -3   81.79    2.50
  -3   6   3   79.49    2.80
   2  -6  -3   12.40    1.30
   2  -6  -3   14.90    0.90
  -2   6   3   13.30    1.10
   1  -6  -3    7.40    1.00
   1  -6  -3    8.40    0.60
  -1   6   3    6.80    0.90
   0  -6  -3   35.90    1.10
   0  -6  -3   36.70    1.80
   0   6   3   30.00    1.40
  -1  -6  -3    6.20    0.90
   1   6   3    8.50    0.70
   1   6   3    8.30    0.40
  -2  -6  -3   27.80    1.60
   2   6   3   24.30    1.10
  -3  -6  -3    3.60    0.70
   3   6   3    3.80    0.60
  -4  -6  -3   21.90    1.40
   4   6   3   21.80    1.10
  -5  -6  -3   95.09    3.00
   5   6   3   92.39    1.90
   5   6   3   93.19    2.70
  -6  -6  -3  150.08    4.10
   6   6   3  154.08    3.90
   6   6   3  145.79    3.00
  -7  -6  -3  139.69    3.90
   7   6   3  142.69    3.10
   7   6   3  141.19    3.80
  -8  -6  -3   12.40    1.20
   8   6   3   15.30    1.30
   8   6   3   14.10    0.90
  -9  -6  -3    1.00    0.50
   9   6   3    0.30    0.50
   9   6   3    1.00    0.40
  10   6   3    0.60    0.60
  10   6   3    0.00    0.40
 -11  -6  -3    1.80    0.80
  11   6   3    2.20    0.70
 -12  -6  -3    0.20    0.60
  12   6   3    0.30    0.50
 -13  -6  -3    2.00    0.90
  13   6   3    0.70    0.60
 -14  -6  -3   31.60    2.30
  14   6   3   34.80    2.30
 -15  -6  -3    7.80    1.70
  15   6   3    9.90    1.60
   8  -7  -3    0.40    1.10
  -8   7   3    1.90    0.90
   7  -7  -3    1.80    0.90
  -7   7   3    3.60    1.00
   6  -7  -3    3.70    1.00
  -6   7   3    5.30    1.10
   5  -7  -3    3.30    0.80
  -5   7   3    5.90    1.10
   4  -7  -3   10.80    1.30
   4  -7  -3   12.00    1.20
  -4   7   3   10.40    1.30
   3  -7  -3    9.40    1.30
   3  -7  -3   11.50    1.10
  -3   7   3   10.20    1.20
   2  -7  -3   33.30    1.40
   2  -7  -3   35.60    2.00
  -2   7   3   30.70    1.70
   1  -7  -3    2.40    0.50
   1  -7  -3    2.50    0.80
  -1   7   3    2.80    0.60
   0  -7  -3   27.50    1.80
   0  -7  -3   22.50    0.90
   0   7   3   24.60    1.30
  -1  -7  -3   83.79    3.10
   1   7   3   81.09    1.70
   1   7   3   79.49    2.50
  -2  -7  -3   13.20    1.40
   2   7   3   14.90    1.00
  -3  -7  -3   15.70    1.30
   3   7   3   16.60    1.00
  -4  -7  -3   24.20    1.60
   4   7   3   25.40    1.30
  -5  -7  -3   23.50    1.60
   5   7   3   22.10    1.30
   5   7   3   22.00    0.60
  -6  -7  -3  144.29    4.10
   6   7   3  134.99    3.70
   6   7   3  138.59    2.80
  -7  -7  -3  138.79    4.10
   7   7   3  140.19    3.00
   7   7   3  138.39    3.90
  -8  -7  -3    6.30    1.00
   8   7   3    5.70    0.60
   8   7   3    6.60    1.00
  -9  -7  -3    1.50    0.60
   9   7   3    1.30    0.60
   9   7   3    1.80    0.50
 -10  -7  -3    1.90    0.60
  10   7   3    3.10    0.90
  10   7   3    2.40    0.60
  11   7   3    1.60    0.60
  11   7   3    0.60    0.70
 -12  -7  -3    1.90    0.80
  12   7   3    1.30    0.60
 -13  -7  -3   34.30    2.40
  13   7   3   37.90    2.10
 -14  -7  -3    0.40    0.70
  14   7   3   -0.40    0.60
  -7   8   3    0.60    0.70
  -6   8   3   -0.10    0.60
  -5   8   3   12.10    1.50
  -4   8   3   14.80    1.60
   3  -8  -3    7.60    1.30
  -3   8   3    7.10    1.10
   2  -8  -3   13.70    1.60
  -2   8   3   12.60    1.30
   1  -8  -3   23.20    1.80
  -1   8   3   22.90    1.40
   0  -8  -3   12.90    1.60
   0   8   3   14.90    1.10
  -1  -8  -3    3.00    0.80
   1   8   3    3.60    0.60
  -2  -8  -3    6.50    1.10
   2   8   3    5.80    0.80
  -3  -8  -3    7.30    1.20
   3   8   3    6.00    0.80
  -4  -8  -3    7.20    1.10
   4   8   3    9.30    1.00
  -5  -8  -3   21.10    1.70
   5   8   3   19.70    1.20
  -6  -8  -3   25.30    1.80
   6   8   3   24.60    1.50
  -7  -8  -3    0.40    0.60
   7   8   3   -0.10    0.40
  -8  -8  -3   13.50    1.50
   8   8   3   14.60    1.50
  -9  -8  -3   16.30    1.50
   9   8   3   12.70    1.40
 -10  -8  -3   -0.40    0.50
  10   8   3    0.10    0.50
  11   8   3    6.90    1.20
 -12  -8  -3    4.20    1.10
 -13  -8  -3    4.20    1.10
 -14  -8  -3    2.30    1.00
  -6   9   3    3.70    1.10
  -5   9   3    1.50    0.80
  -4   9   3    0.00    0.50
   3  -9  -3    0.40    0.70
  -3   9   3    0.70    0.60
   2  -9  -3    1.50    0.80
  -2   9   3    0.50    0.50
   1  -9  -3    5.20    1.10
  -1   9   3    4.40    0.80
   0  -9  -3   13.90    1.80
   0   9   3    9.90    1.10
  -1  -9  -3   22.60    1.90
   1   9   3   23.20    1.40
  -2  -9  -3   85.89    3.50
   2   9   3   77.99    2.70
  -3  -9  -3   37.70    2.40
   3   9   3   35.70    1.70
  -4  -9  -3    2.20    0.80
   4   9   3    1.60    0.60
  -5  -9  -3    1.50    0.80
   5   9   3    1.80    0.50
  -6  -9  -3    1.30    0.70
   6   9   3    1.00    0.50
  -7  -9  -3    1.80    0.80
   7   9   3    3.00    0.70
  -8  -9  -3    1.10    0.70
   8   9   3    1.30    0.60
  -9  -9  -3    4.10    1.00
   9   9   3    3.50    0.90
 -10  -9  -3    0.10    0.60
  10   9   3   -0.40    0.50
  11   9   3   12.20    1.60
  12   9   3    1.20    0.90
 -13  -9  -3    1.30    0.90
 -14  -9  -3   10.90    1.70
  -5  10   3    1.20    0.80
  -4  10   3    0.10    0.60
   3 -10  -3    1.20    0.90
  -3  10   3    0.40    0.60
   2 -10  -3    1.10    0.90
  -2  10   3    2.10    0.70
   1 -10  -3   10.20    1.70
  -1  10   3    5.80    1.00
   0 -10  -3    9.40    1.50
   0  10   3    8.90    1.10
  -1 -10  -3   11.80    1.70
   1  10   3   12.80    1.30
  -2 -10  -3    6.80    1.30
   2  10   3   11.50    1.20
  -3 -10  -3    0.80    0.80
   3  10   3    0.70    0.40
  -4 -10  -3    5.20    1.20
   4  10   3    4.00    0.70
  -5 -10  -3    8.40    1.50
   5  10   3    6.00    0.90
  -6 -10  -3   -0.80    0.60
   6  10   3   -0.10    0.40
  -7 -10  -3    8.60    1.50
   7  10   3    9.70    1.30
  -8 -10  -3    4.70    1.20
   8  10   3    3.20    0.80
  -9 -10  -3    1.80    0.80
   9  10   3    0.40    0.60
 -10 -10  -3   28.60    2.20
  10  10   3   29.20    2.10
  11  10   3    5.50    1.20
  12  10   3    1.00    0.80
 -13 -10  -3    1.80    1.00
 -14 -10  -3    0.60    0.80
  -4  11   3    0.50    0.70
  -3  11   3    3.70    1.00
   2 -11  -3    4.10    1.30
  -2  11   3    5.30    1.00
   1 -11  -3    3.70    1.30
  -1  11   3    5.00    1.00
   0 -11  -3   12.70    1.90
   0  11   3    9.60    1.20
  -1 -11  -3    4.90    1.30
   1  11   3    5.80    1.00
  -2 -11  -3    7.40    1.50
   2  11   3    5.80    0.90
  -3 -11  -3    1.80    1.00
   3  11   3    2.80    0.70
  -4 -11  -3   10.10    1.70
   4  11   3   10.20    1.20
  -5 -11  -3   -0.20    0.70
   5  11   3    0.70    0.50
  -6 -11  -3    0.10    0.80
   6  11   3    0.90    0.60
  -7 -11  -3    5.80    1.40
   7  11   3    6.50    1.10
  -8 -11  -3    8.40    1.60
   8  11   3   12.20    1.50
  -9 -11  -3   -1.30    0.60
   9  11   3   -0.40    0.50
 -10 -11  -3   12.50    1.80
  10  11   3   14.50    1.80
  11  11   3    3.10    1.10
  12  11   3   13.90    1.80
  13  11   3   -0.60    0.80
   2 -12  -3    4.80    1.40
  -2  12   3    6.00    1.10
   1 -12  -3    7.20    1.60
  -1  12   3    7.70    1.20
   0 -12  -3    0.20    0.80
   0  12   3    0.60    0.60
  -1 -12  -3   12.80    2.10
   1  12   3    9.70    1.30
  -2 -12  -3    1.00    0.90
   2  12   3    0.50    0.60
  -3 -12  -3    0.90    0.90
   3  12   3    0.60    0.50
  -4 -12  -3    0.20    0.90
   4  12   3   -0.10    0.40
  -5 -12  -3   -1.20    0.70
   5  12   3    1.00    0.60
  -6 -12  -3    2.20    1.10
   6  12   3    1.10    0.60
  -7 -12  -3    1.10    1.00
   7  12   3    1.80    0.70
   8  12   3    2.90    0.90
  -9 -12  -3   26.10    2.70
   9  12   3   18.60    1.90
 -10 -12  -3   -0.40    0.80
  10  12   3    1.70    0.70
  11  12   3   21.80    2.30
  12  12   3    0.10    0.70
  13  12   3   -0.30    0.80
   2 -13  -3   17.10    2.60
   1 -13  -3    4.20    1.50
  -1  13   3    3.70    1.00
   0 -13  -3    1.90    1.20
   0  13   3    2.20    0.80
  -1 -13  -3   -0.60    0.90
   1  13   3    0.10    0.60
  -2 -13  -3    5.10    1.50
   2  13   3    7.30    1.20
  -3 -13  -3    2.90    1.30
   3  13   3    3.50    0.90
  -4 -13  -3   45.70    3.30
   4  13   3   45.50    2.40
  -5 -13  -3    2.00    1.20
   5  13   3    1.90    0.70
  -6 -13  -3   -0.80    0.90
   6  13   3    1.30    0.70
  -7 -13  -3   -1.40    0.80
   7  13   3   -0.50    0.50
  -8 -13  -3    0.90    1.00
   8  13   3    1.30    0.80
  -9 -13  -3    1.00    1.10
   9  13   3    0.40    0.70
 -10 -13  -3   18.10    2.40
  10  13   3   20.70    2.20
  11  13   3   13.90    1.90
  12  13   3    2.80    1.20
   0 -14  -3    1.60    1.60
  -1 -14  -3   14.40    2.40
   1  14   3   14.60    1.70
  -2 -14  -3    2.30    1.30
   2  14   3    3.10    0.90
  -3 -14  -3    4.80    1.60
   3  14   3    5.90    1.10
  -4 -14  -3   20.70    2.70
   4  14   3   26.30    1.90
  -5 -14  -3    0.20    1.00
   5  14   3    0.80    0.70
  -6 -14  -3    0.00    0.90
   6  14   3   -0.30    0.60
  -7 -14  -3    8.20    2.00
   7  14   3    6.00    1.20
  -8 -14  -3    8.40    1.80
   8  14   3    5.70    1.30
  -9 -14  -3    1.20    1.20
   9  14   3   -0.40    0.60
 -10 -14  -3    0.50    1.10
  10  14   3    0.20    0.70
  11  14   3   -0.50    0.60
  -3 -15  -3   -1.40    1.70
   3  15   3    1.00    0.70
  -4 -15  -3    0.00    1.10
   4  15   3   -0.80    0.50
  -5 -15  -3    3.10    1.50
   5  15   3    2.00    0.90
  -6 -15  -3    7.80    1.80
   6  15   3    4.40    1.10
  -7 -15  -3    0.60    1.30
   7  15   3    0.80    0.80
  -8 -15  -3   20.50    2.70
   8  15   3   24.10    2.30
  -9 -15  -3    0.90    1.30
   9  15   3    1.20    0.90
 -10 -15  -3    3.50    1.50
  -7 -14   4    5.10    2.50
  -6 -14   4    2.20    1.30
  -5 -14   4   19.40    2.60
  -4 -14   4    1.60    1.30
  -3 -14   4    0.50    1.10
  -2 -14   4   -0.40    1.10
  -1 -14   4   -0.90    1.10
  -7 -13   4   -0.10    1.00
  -6 -13   4    8.00    1.80
  -5 -13   4    1.90    1.20
  -4 -13   4    0.60    0.90
  -3 -13   4   11.80    2.10
  -2 -13   4   -0.40    0.90
  -1 -13   4    2.30    1.20
   0 -13   4   19.20    2.70
   1 -13   4    7.90    1.80
   2 -13   4   15.80    2.60
  -7 -12   4   -0.50    0.70
  -6 -12   4    4.50    1.30
  -5 -12   4    7.90    1.60
  -4 -12   4    1.10    0.90
  -3 -12   4    2.60    1.20
  -2 -12   4    7.10    1.70
  -1 -12   4   -0.60    0.90
   0 -12   4    3.80    1.30
   1 -12   4    2.90    1.40
   2 -12   4    5.10    1.60
   3 -12   4    1.60    1.20
   4 -12   4    5.70    1.60
 -11 -11   4    1.00    0.90
  10  11  -4    0.90    0.80
 -10 -11   4    1.00    0.80
   9  11  -4    1.00    0.70
  -9 -11   4    2.20    0.90
   8  11  -4    5.80    1.10
  -8 -11   4    8.40    1.30
   7  11  -4    1.10    0.70
  -7 -11   4    2.40    1.30
  -7 -11   4    1.30    0.70
   6  11  -4    0.20    0.60
  -6 -11   4    0.30    0.80
   5  11  -4   -1.00    0.40
  -5 -11   4   -0.20    0.70
   4  11  -4    1.20    0.60
  -4 -11   4    1.10    0.90
   3  11  -4   16.30    1.30
  -3 -11   4   16.10    2.00
   2  11  -4   28.40    1.60
  -2 -11   4   29.30    2.40
   1  11  -4    0.10    0.50
  -1 -11   4    0.10    0.90
   0  11  -4    2.00    0.60
   0 -11   4    2.50    1.00
  -1  11  -4    2.30    0.70
   1 -11   4    4.00    1.30
  -2  11  -4    4.10    0.80
   2 -11   4    3.40    1.30
  -3  11  -4   19.00    1.50
   3 -11   4   19.20    2.40
  -4  11  -4    0.30    0.50
   4 -11   4   -0.20    0.80
  -5  11  -4    4.60    1.00
   5 -11   4    1.90    1.10
  11  10  -4    0.20    0.70
 -11 -10   4    0.00    0.60
  10  10  -4    1.30    0.80
 -10 -10   4    1.90    0.90
   9  10  -4    0.80    0.70
  -9 -10   4    1.40    0.80
   8  10  -4    1.40    0.70
  -8 -10   4    2.20    0.80
   7  10  -4   -0.40    0.50
  -7 -10   4    0.50    0.60
   6  10  -4   10.20    1.20
  -6 -10   4   13.00    1.60
  -6 -10   4    8.60    1.10
   5  10  -4    3.80    0.80
   5  10  -4    5.30    0.90
  -5 -10   4    6.10    1.30
   4  10  -4    9.90    1.10
  -4 -10   4    7.60    1.30
   3  10  -4   -0.10    0.50
  -3 -10   4    0.90    0.80
   2  10  -4   35.60    1.70
  -2 -10   4   41.40    2.60
   1  10  -4   -0.20    0.40
  -1 -10   4    1.00    0.70
   0  10  -4    0.30    0.50
   0 -10   4    0.00    0.70
  -1  10  -4    1.90    0.60
   1 -10   4    1.30    0.90
  -2  10  -4    5.70    0.90
   2 -10   4    7.00    1.50
  -3  10  -4    3.90    0.80
   3 -10   4    4.40    1.30
  -4  10  -4   21.80    1.50
   4 -10   4   18.20    2.20
  -5  10  -4   22.80    1.60
   5 -10   4   23.50    2.60
  -6  10  -4    0.10    0.50
   6 -10   4   -0.60    0.80
  -7  10  -4    2.60    0.90
  12   9  -4    2.30    0.90
 -12  -9   4    1.50    1.00
  11   9  -4    0.10    0.80
 -11  -9   4    0.10    0.70
  10   9  -4    0.30    0.60
 -10  -9   4   -0.10    0.60
   9   9  -4   14.50    1.60
  -9  -9   4   15.20    1.70
   8   9  -4    5.60    1.00
  -8  -9   4    6.70    1.10
   7   9  -4   -0.50    0.40
  -7  -9   4    0.10    0.50
   6   9  -4    4.00    0.80
  -6  -9   4    4.10    0.90
   5   9  -4    8.50    1.00
  -5  -9   4    6.00    0.90
  -5  -9   4    7.60    1.20
   4   9  -4    0.40    0.50
   4   9  -4    0.40    0.40
  -4  -9   4    0.00    0.60
   3   9  -4   -0.50    0.30
   3   9  -4   -0.30    0.40
  -3  -9   4   -0.40    0.60
   2   9  -4    6.20    0.90
  -2  -9   4    8.60    1.40
   1   9  -4    1.70    0.50
  -1  -9   4    0.60    0.70
   0   9  -4    4.10    0.70
   0  -9   4    4.10    1.10
  -1   9  -4   18.70    1.20
   1  -9   4   18.90    2.10
  -2   9  -4    7.80    0.90
   2  -9   4   11.10    1.70
  -3   9  -4   26.50    1.60
   3  -9   4   30.90    2.40
  -4   9  -4    8.10    1.10
   4  -9   4    8.50    1.50
  -5   9  -4    3.20    0.80
   5  -9   4    3.70    1.10
  -6   9  -4    4.90    1.00
   6  -9   4    4.40    1.20
  -7   9  -4   11.30    1.40
  -8   9  -4    1.20    0.80
  12   8  -4    2.60    1.00
 -12  -8   4    1.20    0.80
  11   8  -4   -1.00    0.60
 -11  -8   4    0.90    0.80
  10   8  -4    2.50    0.90
 -10  -8   4    1.90    0.80
   9   8  -4   40.20    2.20
  -9  -8   4   37.00    2.20
   8   8  -4   26.80    1.80
  -8  -8   4   26.20    1.80
   7   8  -4    0.50    0.50
  -7  -8   4    0.90    0.50
   6   8  -4    9.10    1.10
  -6  -8   4    8.30    1.10
  -6  -8   4    6.80    1.00
   5   8  -4    0.50    0.50
  -5  -8   4    1.20    0.60
  -5  -8   4    0.40    0.40
   4   8  -4    1.80    0.60
   4   8  -4    1.40    0.50
  -4  -8   4    1.90    0.70
   3   8  -4   18.50    1.20
   3   8  -4   15.90    1.00
  -3  -8   4   18.90    1.50
   2   8  -4   55.89    1.70
   2   8  -4   51.19    1.90
  -2  -8   4   54.59    2.60
   1   8  -4    1.90    0.50
  -1  -8   4    1.30    0.70
   0   8  -4   -0.10    0.40
   0  -8   4   -0.50    0.50
  -1   8  -4    6.90    0.90
   1  -8   4    6.30    1.20
  -2   8  -4    0.70    0.40
   2  -8   4    0.20    0.60
  -3   8  -4    1.60    0.50
   3  -8   4    0.10    0.60
  -4   8  -4    7.50    1.00
   4  -8   4    7.20    1.40
  -5   8  -4   29.80    1.70
   5  -8   4   26.90    2.20
  -6   8  -4    8.90    1.20
   6  -8   4    7.40    1.40
  -7   8  -4    5.40    1.10
   7  -8   4    6.20    1.30
  -8   8  -4    1.40    0.80
  12   7  -4   -0.60    0.70
 -12  -7   4   -0.20    0.70
  11   7  -4    2.90    1.00
 -11  -7   4    2.50    1.00
  10   7  -4   -0.10    0.50
 -10  -7   4    0.60    0.70
   9   7  -4   61.19    2.80
  -9  -7   4   63.59    2.80
   8   7  -4   -0.10    0.50
  -8  -7   4    1.20    0.70
   7   7  -4    7.70    1.10
  -7  -7   4    7.90    1.10
   6   7  -4    0.30    0.40
  -6  -7   4    0.30    0.40
  -6  -7   4   -0.20    0.40
   5   7  -4   10.30    1.10
  -5  -7   4   10.40    1.20
  -5  -7   4   10.90    1.10
   4   7  -4    1.50    0.60
  -4  -7   4    0.80    0.40
  -4  -7   4    0.80    0.60
   3   7  -4    1.10    0.40
   3   7  -4    2.30    0.60
  -3  -7   4    0.60    0.50
   2   7  -4   57.29    1.70
   2   7  -4   58.39    2.00
  -2  -7   4   58.99    2.60
   1   7  -4    1.70    0.40
   1   7  -4    1.70    0.50
  -1  -7   4    0.80    0.60
   0   7  -4   57.29    2.00
   0   7  -4   62.29    2.00
   0  -7   4   61.79    2.70
  -1   7  -4  124.49    3.20
   1  -7   4  116.79    4.00
  -2   7  -4   44.20    1.80
   2  -7   4   43.00    2.40
  -3   7  -4    3.70    0.70
   3  -7   4    2.50    0.80
  -4   7  -4    0.00    0.40
   4  -7   4    0.00    0.50
  -5   7  -4    1.00    0.50
  -6   7  -4   -0.20    0.40
   6  -7   4    0.50    0.70
  -7   7  -4    4.80    1.00
   7  -7   4    5.60    1.20
  -8   7  -4   16.40    1.70
  -9   7  -4   -0.30    0.60
  12   6  -4   -0.50    0.70
 -12  -6   4    1.00    0.80
  11   6  -4   14.60    1.80
 -11  -6   4   13.10    1.70
  10   6  -4   -0.40    0.60
 -10  -6   4    0.30    0.70
   9   6  -4    0.80    0.70
  -9  -6   4    0.90    0.60
   8   6  -4    5.70    1.00
  -8  -6   4    4.20    0.90
   7   6  -4    0.10    0.50
  -7  -6   4    0.30    0.50
   6   6  -4    5.80    0.90
  -6  -6   4    8.00    0.90
  -6  -6   4    9.00    1.10
   5   6  -4    0.60    0.50
  -5  -6   4    0.10    0.30
  -5  -6   4   -0.40    0.40
   4   6  -4    6.00    0.80
  -4  -6   4    5.90    0.90
  -4  -6   4    6.70    0.80
   3   6  -4   15.20    1.00
  -3  -6   4   13.20    1.10
  -3  -6   4   15.60    0.90
   2   6  -4    3.10    0.50
   2   6  -4    3.90    0.60
  -2  -6   4    2.90    0.70
   1   6  -4   -0.40    0.30
   1   6  -4   -0.10    0.20
  -1  -6   4    0.10    0.50
   0   6  -4   37.70    1.50
   0   6  -4   36.10    1.00
   0  -6   4   34.30    1.90
  -1   6  -4   24.80    0.80
  -1   6  -4   24.30    1.20
   1  -6   4   25.70    1.70
  -2   6  -4    0.20    0.30
   2  -6   4    0.30    0.50
  -3   6  -4    0.20    0.30
   3  -6   4    0.20    0.50
  -4   6  -4   38.60    1.70
   4  -6   4   36.00    2.20
  -5   6  -4    5.50    0.90
   5  -6   4    6.60    1.10
  -6   6  -4    4.30    0.80
   6  -6   4    2.70    0.80
  -7   6  -4   22.80    1.60
   7  -6   4   17.90    1.90
  -8   6  -4   14.90    1.60
  -9   6  -4    0.80    0.70
 -10   6  -4    2.80    1.00
  12   5  -4    8.20    1.40
 -12  -5   4   10.20    1.70
  11   5  -4    3.00    1.00
 -11  -5   4    5.20    1.20
  10   5  -4    6.20    1.20
 -10  -5   4    5.40    1.10
   9   5  -4    0.00    0.50
  -9  -5   4   -0.10    0.50
   8   5  -4   15.00    1.50
  -8  -5   4   13.80    1.50
   7   5  -4    0.70    0.60
  -7  -5   4    0.80    0.60
   6   5  -4    2.80    0.70
  -6  -5   4    3.00    0.70
   5   5  -4   34.10    1.60
  -5  -5   4   34.90    1.60
  -5  -5   4   35.80    1.50
   4   5  -4    1.70    0.50
  -4  -5   4    2.20    0.50
  -4  -5   4    2.40    0.50
   3   5  -4    4.00    0.70
  -3  -5   4    2.90    0.60
  -3  -5   4    3.20    0.50
   2   5  -4   17.00    1.00
  -2  -5   4   16.80    0.80
  -2  -5   4   17.00    1.20
   1   5  -4    1.20    0.40
  -1  -5   4    1.40    0.50
   0   5  -4   19.70    1.00
   0   5  -4   21.60    0.70
   0  -5   4   21.80    1.40
  -1   5  -4   36.90    1.40
  -1   5  -4   38.60    0.90
   1  -5   4   38.30    1.90
  -2   5  -4   66.39    1.40
  -2   5  -4   67.89    2.10
   2  -5   4   71.29    2.70
  -3   5  -4   12.40    0.90
  -3   5  -4   13.50    0.60
   3  -5   4    9.50    1.20
  -4   5  -4   24.10    1.30
   4  -5   4   22.70    1.60
  -5   5  -4    1.60    0.50
   5  -5   4    0.20    0.50
  -6   5  -4    5.60    0.90
   6  -5   4    4.10    0.90
  -7   5  -4    5.30    0.90
   7  -5   4    3.20    0.90
   8  -5   4    0.10    0.60
   8  -5   4    0.80    0.70
   9  -5   4   -1.00    0.70
  10  -5   4    3.40    1.20
  12   4  -4    4.10    1.10
 -12  -4   4    4.00    1.20
  11   4  -4    5.20    1.30
 -11  -4   4    4.40    1.20
  10   4  -4    1.20    0.80
 -10  -4   4    1.00    0.70
   9   4  -4   -0.10    0.50
  -9  -4   4    0.50    0.50
   8   4  -4    0.80    0.50
  -8  -4   4    1.20    0.70
   7   4  -4   14.10    1.40
  -7  -4   4   15.40    1.30
   6   4  -4    5.80    0.90
  -6  -4   4    5.50    0.80
   5   4  -4    1.00    0.50
  -5  -4   4    1.70    0.50
  -5  -4   4    1.80    0.40
   4   4  -4    5.30    0.70
  -4  -4   4    6.70    0.70
  -4  -4   4    5.40    0.70
   3   4  -4   74.49    2.20
  -3  -4   4   73.89    2.10
  -3  -4   4   74.69    2.30
   2   4  -4    0.30    0.30
  -2  -4   4    0.60    0.20
  -2  -4   4    0.80    0.40
   1   4  -4   79.39    2.20
  -1  -4   4   80.59    2.60
  -1  -4   4   76.49    1.80
   0   4  -4  140.59    3.30
   0  -4   4  142.79    2.70
   0  -4   4  143.49    3.80
  -1   4  -4   30.60    1.20
   1  -4   4   32.60    1.60
  -2   4  -4   45.80    1.60
   2  -4   4   44.90    2.00
  -3   4  -4   18.80    0.50
  -3   4  -4   17.20    1.00
   3  -4   4   19.10    1.30
  -4   4  -4    1.80    0.50
  -4   4  -4    1.10    0.20
   4  -4   4    0.60    0.50
  -5   4  -4   42.30    1.30
  -5   4  -4   43.90    1.80
   5  -4   4   43.90    2.10
  -6   4  -4    0.90    0.50
   6  -4   4    0.70    0.50
   6  -4   4    1.50    0.60
   7  -4   4    9.90    1.20
   7  -4   4    9.30    1.20
   8  -4   4    2.10    0.70
   8  -4   4    2.30    0.80
   9  -4   4    0.20    0.80
  10  -4   4    1.40    0.90
  11  -4   4   -0.80    0.70
  12   3  -4    0.30    0.80
 -12  -3   4    1.00    0.90
  11   3  -4    9.80    1.60
 -11  -3   4   10.20    1.60
  10   3  -4    2.90    1.00
 -10  -3   4    3.60    1.00
   9   3  -4   -0.50    0.50
  -9  -3   4   -0.10    0.50
   8   3  -4    7.00    1.10
  -8  -3   4    6.50    1.10
   7   3  -4    3.30    0.80
  -7  -3   4    1.80    0.60
   6   3  -4   28.40    1.50
  -6  -3   4   28.00    1.60
   5   3  -4   16.90    1.20
  -5  -3   4   14.60    0.70
  -5  -3   4   16.50    1.10
   4   3  -4   14.40    1.00
  -4  -3   4   16.20    1.00
  -4  -3   4   16.30    0.80
   3   3  -4   22.10    1.10
  -3  -3   4   18.90    1.00
  -3  -3   4   22.20    1.00
   2   3  -4    1.50    0.50
  -2  -3   4    0.60    0.40
  -2  -3   4    1.00    0.30
   1   3  -4   11.40    0.70
  -1  -3   4   12.30    0.60
  -1  -3   4   11.20    0.90
   0   3  -4    0.80    0.30
   0  -3   4    1.80    0.20
   0  -3   4    1.10    0.40
  -1   3  -4  447.36    8.40
   1  -3   4  460.25    9.00
  -2   3  -4    3.20    0.50
   2  -3   4    2.80    0.60
  -3   3  -4    5.80    0.20
  -3   3  -4    5.80    0.70
   3  -3   4    5.40    0.80
  -4   3  -4    0.00    0.30
  -4   3  -4    0.10    0.10
   4  -3   4    0.30    0.40
  -5   3  -4   67.49    1.70
   5  -3   4   66.49    2.30
   5  -3   4   70.29    2.60
  -6   3  -4    7.90    0.60
   6  -3   4    6.50    1.00
   6  -3   4    6.40    1.00
  -7   3  -4   27.50    1.30
   7  -3   4   29.30    1.70
   7  -3   4   31.50    1.80
  -8   3  -4    0.00    0.40
   8  -3   4   -0.30    0.50
   8  -3   4    0.40    0.50
   9  -3   4    0.70    0.60
  10  -3   4    1.80    0.90
  11  -3   4   37.20    2.60
  12  -3   4    0.20    0.90
  12   2  -4    2.70    1.10
 -12  -2   4    2.90    1.20
  11   2  -4    2.10    1.00
 -11  -2   4    3.60    1.00
  10   2  -4    0.10    0.70
 -10  -2   4   -0.40    0.60
   9   2  -4    3.60    1.00
  -9  -2   4    3.10    0.90
   8   2  -4   13.10    1.50
  -8  -2   4   19.60    1.60
   7   2  -4    0.20    0.50
  -7  -2   4    0.30    0.50
   6   2  -4   19.20    1.30
  -6  -2   4   18.20    1.30
   5   2  -4   16.10    1.10
  -5  -2   4   15.20    1.10
   4   2  -4   28.20    1.30
  -4  -2   4   26.50    0.90
  -4  -2   4   28.30    1.30
   3   2  -4   80.99    2.30
  -3  -2   4   79.69    2.30
  -3  -2   4   82.69    2.10
   2   2  -4  443.16    8.30
  -2  -2   4  447.36    8.30
  -2  -2   4  446.16    8.20
   1   2  -4   40.70    1.40
  -1  -2   4   42.80    1.50
  -1  -2   4   45.00    1.20
   0  -2   4   93.19    2.50
   0  -2   4   92.29    1.90
  -1   2  -4   54.19    1.60
   1  -2   4   56.89    1.90
  -2   2  -4    6.20    0.60
   2  -2   4    4.00    0.60
  -3   2  -4  121.09    2.90
  -3   2  -4  126.99    2.30
   3  -2   4  128.19    3.40
  -4   2  -4   21.60    1.10
  -4   2  -4   22.30    0.70
   4  -2   4   23.60    1.30
  -5   2  -4    3.30    0.40
   5  -2   4    3.20    0.60
   5  -2   4    2.90    0.60
  -6   2  -4   16.10    0.90
   6  -2   4   13.50    1.10
   6  -2   4   14.60    1.20
  -7   2  -4   15.40    1.00
   7  -2   4   13.70    1.30
   7  -2   4   13.80    1.10
  -8   2  -4    4.90    0.70
   8  -2   4    5.10    0.90
   8  -2   4    4.60    0.80
  -9   2  -4   36.20    1.70
   9  -2   4   36.70    2.10
  10  -2   4   72.89    3.20
  11  -2   4    1.30    0.90
  12  -2   4   -0.90    0.80
  11   1  -4    4.80    1.30
 -11  -1   4    3.30    1.10
  10   1  -4    2.80    1.00
 -10  -1   4    2.40    1.00
   9   1  -4    4.60    1.00
  -9  -1   4    4.40    1.10
   8   1  -4   13.60    1.50
  -8  -1   4    9.70    1.30
   7   1  -4   -0.10    0.50
  -7  -1   4    0.40    0.50
   6   1  -4    1.60    0.50
  -6  -1   4    2.10    0.60
   5   1  -4    1.80    0.50
  -5  -1   4    1.40    0.50
   4   1  -4    0.40    0.40
  -4  -1   4    0.10    0.30
   3   1  -4   12.80    0.90
  -3  -1   4   13.20    0.90
  -3  -1   4   13.00    0.60
   2   1  -4  129.29    3.00
  -2  -1   4  127.59    3.00
  -2  -1   4  130.69    2.90
   1   1  -4  489.55    8.80
  -1  -1   4  487.05    9.00
  -1  -1   4  486.05    8.70
   0   1  -4  111.59    2.50
   0  -1   4  110.99    2.30
   0  -1   4  114.19    2.80
  -1   1  -4   33.80    1.10
   1  -1   4   37.10    1.40
   1  -1   4   36.60    0.80
   2  -1   4   34.30    1.40
   2  -1   4   32.80    0.70
  -3   1  -4   11.50    0.70
  -3   1  -4   11.70    0.40
   3  -1   4   11.90    0.90
  -4   1  -4  104.49    2.20
   4  -1   4  103.99    2.90
  -5   1  -4   47.00    1.40
   5  -1   4   48.10    1.90
   5  -1   4   45.40    1.70
  -6   1  -4   65.49    1.80
   6  -1   4   60.69    2.20
   6  -1   4   64.09    2.20
  -7   1  -4   71.89    2.10
   7  -1   4   64.89    2.40
   7  -1   4   61.69    2.30
  -8   1  -4    6.80    0.80
   8  -1   4    6.70    0.90
   8  -1   4    6.60    1.00
  -9   1  -4    8.90    1.00
   9  -1   4    7.10    1.10
   9  -1   4    9.30    1.10
 -10   1  -4    2.10    0.60
  10  -1   4    0.20    0.70
 -11   1  -4   19.00    1.50
  11  -1   4   21.90    2.10
  12  -1   4   15.90    1.90
  13  -1   4    1.20    1.00
  11   0  -4    1.70    1.00
 -11   0   4    3.00    1.10
  10   0  -4    0.80    0.80
 -10   0   4    0.00    0.70
   9   0  -4   20.20    1.90
  -9   0   4   23.10    1.80
   8   0  -4    0.40    0.60
  -8   0   4    0.10    0.50
   7   0  -4    1.60    0.70
  -7   0   4    3.90    0.90
   6   0  -4   10.40    1.10
  -6   0   4   13.70    1.20
   5   0  -4    0.20    0.40
  -5   0   4    1.00    0.50
   4   0  -4    0.30    0.20
   4   0  -4    0.80    0.40
  -4   0   4    0.00    0.30
   3   0  -4   30.90    1.30
   3   0  -4   29.90    1.00
  -3   0   4   28.60    1.30
   2   0  -4 2128.39   36.30
  -2   0   4 2126.79   36.50
  -2   0   4 2197.78   36.20
   1   0  -4    1.20    0.40
  -1   0   4    0.90    0.30
  -1   0   4    1.00    0.30
   0   0  -4    2.50    0.40
   0   0   4    2.30    0.40
   0   0   4    2.30    0.30
  -1   0  -4   55.69    1.40
   1   0   4   55.69    1.70
   1   0   4   54.59    1.30
  -2   0  -4    6.90    0.50
   2   0   4    6.40    0.30
   2   0   4    6.10    0.70
  -3   0  -4    1.70    0.30
   3   0   4    0.40    0.30
   3   0   4    1.10    0.20
   4   0   4  197.88    4.50
   4   0   4  201.98    4.20
   4   0   4  195.38    3.80
  -5   0  -4    7.80    0.50
   5   0   4    8.40    0.90
   5   0   4    8.10    0.80
  -6   0  -4   48.60    1.60
   6   0   4   51.69    1.90
   6   0   4   51.39    1.80
  -7   0  -4   74.29    2.20
   7   0   4   73.69    2.50
   7   0   4   76.49    2.50
  -8   0  -4  169.78    4.10
   8   0   4  171.88    4.50
   8   0   4  172.58    4.30
  -9   0  -4   20.90    1.30
   9   0   4   23.10    1.50
   9   0   4   23.10    1.40
 -10   0  -4    0.30    0.40
  10   0   4    0.00    0.50
 -11   0  -4    0.00    0.50
  11   0   4    0.20    0.60
 -12   0  -4    0.80    0.60
  12   0   4    0.90    0.70
  13   0   4    9.00    1.60
  11  -1  -4    1.50    1.00
 -11   1   4    0.60    0.80
  10  -1  -4    0.50    0.80
 -10   1   4    0.00    0.70
   9  -1  -4   26.90    2.00
  -9   1   4   22.30    1.90
   8  -1  -4    0.20    0.60
  -8   1   4    0.10    0.50
   7  -1  -4    2.60    0.80
  -7   1   4    3.70    0.80
   6  -1  -4    4.30    0.80
  -6   1   4    3.40    0.80
   5  -1  -4    4.10    0.70
  -5   1   4    3.10    0.70
   4  -1  -4    0.70    0.40
   4  -1  -4    0.90    0.20
  -4   1   4    1.90    0.50
   3  -1  -4   18.30    1.00
   3  -1  -4   19.40    0.80
  -3   1   4   18.40    1.10
   2  -1  -4    7.00    0.60
   2  -1  -4    5.60    0.60
  -2   1   4    8.00    0.70
   1  -1  -4    0.30    0.30
  -1   1   4    0.20    0.20
  -1   1   4    0.10    0.20
   0  -1  -4  103.99    2.30
   0   1   4  103.69    2.40
   0   1   4  104.69    2.50
  -1  -1  -4   49.00    1.30
   1   1   4   49.80    1.30
   1   1   4   47.80    1.60
  -2  -1  -4    3.80    0.40
   2   1   4    3.50    0.30
   2   1   4    3.50    0.50
  -3  -1  -4    1.50    0.30
   3   1   4    2.60    0.30
   3   1   4    1.80    0.40
   4   1   4   30.50    1.30
   4   1   4   29.50    1.10
   4   1   4   29.00    1.00
   5   1   4    3.10    0.50
   5   1   4    4.20    0.50
   5   1   4    2.80    0.50
   6   1   4    7.70    0.60
   6   1   4    8.00    0.80
   6   1   4    8.10    0.80
  -7  -1  -4  145.39    3.50
   7   1   4  147.69    3.70
   7   1   4  144.79    3.60
  -8  -1  -4    9.10    0.90
   8   1   4   10.90    0.90
   8   1   4    8.70    1.00
  -9  -1  -4    9.90    1.10
   9   1   4    8.90    1.00
   9   1   4   10.00    1.20
 -10  -1  -4    0.80    0.50
  10   1   4    1.80    0.70
 -11  -1  -4    3.10    0.80
  11   1   4    1.80    0.80
 -12  -1  -4    9.80    1.30
  12   1   4   12.20    1.50
 -13  -1  -4    4.20    1.00
  13   1   4    4.80    1.20
  14   1   4    1.80    1.00
  10  -2  -4   -0.50    0.70
 -10   2   4    0.40    0.80
   9  -2  -4   -0.30    0.60
  -9   2   4   -1.00    0.60
   8  -2  -4    0.30    0.60
  -8   2   4    0.10    0.50
   7  -2  -4    1.30    0.70
  -7   2   4    0.90    0.60
   6  -2  -4    0.50    0.50
  -6   2   4    0.00    0.40
   5  -2  -4   27.00    1.50
  -5   2   4   25.70    1.60
   4  -2  -4   85.69    2.60
   4  -2  -4   85.99    2.10
  -4   2   4   84.59    2.80
   3  -2  -4    0.60    0.40
   3  -2  -4    1.20    0.40
  -3   2   4    1.30    0.40
   2  -2  -4   64.89    1.90
   2  -2  -4   73.99    2.00
  -2   2   4   69.19    2.20
   1  -2  -4  157.88    3.50
   1  -2  -4  156.28    3.30
  -1   2   4  156.08    3.60
   0  -2  -4    2.90    0.40
   0  -2  -4    2.10    0.40
   0   2   4    2.00    0.40
  -1  -2  -4    1.90    0.30
   1   2   4    1.60    0.40
   1   2   4    1.70    0.30
  -2  -2  -4    2.40    0.30
   2   2   4    3.40    0.50
   2   2   4    2.30    0.30
  -3  -2  -4  147.09    2.90
   3   2   4  147.99    3.50
   3   2   4  148.69    3.10
   4   2   4  281.67    5.90
   4   2   4  280.47    5.30
   4   2   4  279.17    5.40
   5   2   4   10.30    0.80
   5   2   4   10.60    0.70
   5   2   4   10.10    0.70
   6   2   4    1.50    0.40
   6   2   4    2.40    0.50
   6   2   4    2.30    0.50
   7   2   4  112.69    2.90
   7   2   4  111.39    3.00
   7   2   4  115.59    3.10
  -8  -2  -4   28.20    1.40
   8   2   4   29.60    1.50
   8   2   4   28.50    1.40
  -9  -2  -4   -0.40    0.30
   9   2   4    0.50    0.40
   9   2   4    0.40    0.50
 -10  -2  -4    1.40    0.60
  10   2   4    0.90    0.50
 -11  -2  -4   19.10    1.40
  11   2   4   22.60    1.60
 -12  -2  -4    1.00    0.60
  12   2   4   -0.20    0.50
 -13  -2  -4    4.40    1.00
  13   2   4    3.90    1.10
 -14  -2  -4    8.00    1.40
  14   2   4    7.40    1.40
  10  -3  -4    1.10    0.90
 -10   3   4   -0.90    0.70
   9  -3  -4   11.20    1.60
   8  -3  -4    0.00    0.60
  -8   3   4    0.00    0.60
   7  -3  -4    0.10    0.60
  -7   3   4    1.00    0.70
   6  -3  -4   11.70    1.30
  -6   3   4   10.10    1.30
   5  -3  -4   81.99    2.70
  -5   3   4   78.89    3.00
   4  -3  -4    2.70    0.60
   4  -3  -4    3.70    0.60
  -4   3   4    2.50    0.60
   3  -3  -4   21.30    1.10
   3  -3  -4   22.00    1.20
  -3   3   4   21.20    1.30
   2  -3  -4    1.20    0.30
   2  -3  -4    1.50    0.40
  -2   3   4    0.70    0.40
   1  -3  -4    1.70    0.40
   1  -3  -4    1.90    0.40
  -1   3   4    2.00    0.50
   0  -3  -4   39.40    1.50
   0  -3  -4   35.80    1.10
   0   3   4   37.10    1.40
  -1  -3  -4   71.79    2.20
  -1  -3  -4   72.29    1.60
   1   3   4   71.49    2.00
  -2  -3  -4   89.29    2.50
  -2  -3  -4   89.69    1.70
   2   3   4   87.09    2.20
  -3  -3  -4   23.60    0.70
   3   3   4   21.40    0.90
   3   3   4   21.50    1.10
  -4  -3  -4  205.28    3.90
   4   3   4  207.88    4.30
   4   3   4  207.08    4.60
   5   3   4   42.30    1.20
   5   3   4   43.80    1.70
   5   3   4   41.90    1.40
   6   3   4   29.80    1.30
   6   3   4   29.80    1.10
   6   3   4   30.30    1.40
   7   3   4   -0.30    0.30
   7   3   4    0.00    0.30
   7   3   4   -0.20    0.30
   8   3   4   17.80    1.20
   8   3   4   17.40    1.10
   8   3   4   15.90    1.10
  -9  -3  -4   35.50    1.70
   9   3   4   34.90    1.70
 -10  -3  -4    1.20    0.60
  10   3   4    0.50    0.50
 -11  -3  -4    5.30    1.00
  11   3   4    5.40    0.90
 -12  -3  -4   12.60    1.50
  12   3   4   16.60    1.70
 -13  -3  -4   -0.20    0.50
  13   3   4    0.40    0.70
 -14  -3  -4    5.10    1.20
  14   3   4    4.70    1.20
  10  -4  -4    1.90    1.30
   9  -4  -4    1.00    0.90
  -9   4   4    3.30    1.00
   8  -4  -4    1.10    0.80
  -8   4   4    1.00    0.70
   7  -4  -4    1.30    0.70
  -7   4   4    0.50    0.70
   6  -4  -4    4.00    0.90
  -6   4   4    2.20    0.80
   5  -4  -4   17.30    1.30
  -5   4   4   15.50    1.40
   4  -4  -4    1.30    0.50
   4  -4  -4    0.30    0.40
  -4   4   4    0.90    0.50
   3  -4  -4    6.20    0.70
   3  -4  -4    5.10    0.80
  -3   4   4    7.70    1.00
   2  -4  -4    3.10    0.50
   2  -4  -4    2.00    0.50
  -2   4   4    2.30    0.50
   1  -4  -4   23.50    1.00
   1  -4  -4   22.50    1.20
  -1   4   4   22.60    1.20
   0  -4  -4   12.50    1.00
   0  -4  -4   12.00    0.60
   0   4   4   11.80    0.80
  -1  -4  -4  183.98    3.40
  -1  -4  -4  181.08    4.30
   1   4   4  182.68    4.10
  -2  -4  -4    1.10    0.40
  -2  -4  -4    1.20    0.10
   2   4   4    1.00    0.30
  -3  -4  -4   19.90    1.20
  -3  -4  -4   20.00    0.50
   3   4   4   19.20    0.90
  -4  -4  -4  127.59    2.40
  -4  -4  -4  126.89    3.40
   4   4   4  129.19    3.00
  -5  -4  -4    1.30    0.50
   5   4   4    1.40    0.40
   5   4   4    1.10    0.20
  -6  -4  -4   48.30    1.90
   6   4   4   42.90    1.30
   6   4   4   45.20    1.70
  -7  -4  -4   67.59    2.40
   7   4   4   71.39    2.40
   7   4   4   74.09    2.00
  -8  -4  -4  109.99    3.20
   8   4   4  111.79    2.90
   8   4   4  109.49    3.20
  -9  -4  -4    5.60    0.80
   9   4   4    7.10    0.90
   9   4   4    7.00    0.90
 -10  -4  -4    1.50    0.60
 -10  -4  -4    2.50    0.80
  10   4   4    1.90    0.60
 -11  -4  -4    2.10    0.70
  11   4   4    1.30    0.60
 -12  -4  -4   26.70    1.80
  12   4   4   25.50    1.80
 -13  -4  -4    0.70    0.70
  13   4   4    1.20    0.80
 -14  -4  -4   -0.60    0.60
  14   4   4   -0.50    0.60
 -15  -4  -4    2.20    1.00
  15   4   4    0.80    0.90
   9  -5  -4    1.90    1.00
  -9   5   4   -0.10    0.70
   8  -5  -4    1.60    0.90
  -8   5   4    2.50    1.00
   7  -5  -4   -0.20    0.60
  -7   5   4    0.40    0.70
   6  -5  -4   15.10    1.50
  -6   5   4   15.40    1.70
   5  -5  -4    6.20    1.00
  -5   5   4    5.50    1.00
   4  -5  -4   49.00    2.00
   4  -5  -4   52.79    3.00
  -4   5   4   45.60    2.20
   3  -5  -4   10.40    1.10
   3  -5  -4    9.10    0.90
  -3   5   4   10.10    1.20
   2  -5  -4    6.10    0.70
   2  -5  -4    7.80    1.00
  -2   5   4    6.90    0.90
   1  -5  -4   37.20    1.80
   1  -5  -4   39.00    1.30
  -1   5   4   39.80    1.70
   0  -5  -4   19.00    1.30
   0  -5  -4   17.50    0.70
   0   5   4   17.90    1.10
  -1  -5  -4   74.49    1.60
  -1  -5  -4   77.99    2.60
   1   5   4   75.09    2.30
  -2  -5  -4    8.10    0.90
   2   5   4    9.70    0.70
  -3  -5  -4   99.29    3.00
   3   5   4   94.89    2.60
  -4  -5  -4  228.18    5.40
   4   5   4  230.58    4.90
  -5  -5  -4    0.20    0.40
   5   5   4   -0.10    0.10
   5   5   4    0.00    0.30
  -6  -5  -4    0.20    0.40
   6   5   4    0.50    0.30
   6   5   4    0.40    0.20
  -7  -5  -4   25.70    1.50
   7   5   4   27.00    1.40
   7   5   4   25.90    1.00
  -8  -5  -4   23.80    1.40
   8   5   4   18.70    1.40
   8   5   4   22.40    1.10
  -9  -5  -4   32.30    1.70
   9   5   4   33.30    1.50
   9   5   4   31.90    1.70
 -10  -5  -4   10.70    1.20
  10   5   4   10.00    1.20
  10   5   4    9.60    1.00
 -11  -5  -4    0.50    0.60
  11   5   4    0.60    0.50
 -12  -5  -4    0.10    0.60
  12   5   4   -0.10    0.50
 -13  -5  -4   -0.70    0.60
  13   5   4    0.40    0.60
 -14  -5  -4    5.50    1.20
  14   5   4    6.00    1.20
 -15  -5  -4   -0.10    0.80
  15   5   4   -0.70    0.70
   8  -6  -4    0.00    0.70
  -8   6   4    0.10    0.70
   7  -6  -4    1.20    0.80
  -7   6   4    1.80    0.90
   6  -6  -4   -0.40    0.60
  -6   6   4    0.90    0.70
   5  -6  -4    1.40    0.70
  -5   6   4    1.90    0.80
   4  -6  -4   28.20    1.60
  -4   6   4   30.10    1.90
   3  -6  -4   23.40    1.60
   3  -6  -4   23.10    1.30
  -3   6   4   22.90    1.60
   2  -6  -4   32.70    1.80
   2  -6  -4   30.20    1.30
  -2   6   4   34.80    1.80
   1  -6  -4   45.00    2.10
   1  -6  -4   46.50    1.50
  -1   6   4   50.49    2.00
   0  -6  -4    4.50    0.50
   0  -6  -4    5.10    0.90
   0   6   4    6.30    0.80
  -1  -6  -4    9.40    0.40
  -1  -6  -4    6.80    1.00
   1   6   4    8.50    0.90
  -2  -6  -4    0.10    0.40
   2   6   4   -0.30    0.20
  -3  -6  -4    6.60    0.90
   3   6   4    6.90    0.80
  -4  -6  -4   66.49    2.50
   4   6   4   65.49    2.10
  -5  -6  -4    2.20    0.70
   5   6   4    1.90    0.50
  -6  -6  -4   27.30    1.60
   6   6   4   27.30    0.80
   6   6   4   24.40    1.30
  -7  -6  -4   18.50    1.40
   7   6   4   18.90    0.80
   7   6   4   21.20    1.30
  -8  -6  -4   28.70    1.70
   8   6   4   25.00    1.50
   8   6   4   29.70    1.20
  -9  -6  -4    1.80    0.70
   9   6   4    4.70    0.60
   9   6   4    5.40    1.00
 -10  -6  -4    0.60    0.50
  10   6   4    0.70    0.60
  10   6   4    0.50    0.40
  11   6   4    1.30    0.60
  11   6   4    0.30    0.60
 -12  -6  -4    4.70    1.10
  12   6   4    2.50    0.70
 -13  -6  -4    9.80    1.50
  13   6   4    5.90    1.10
 -14  -6  -4   27.50    2.20
  14   6   4   23.40    1.80
 -15  -6  -4    0.20    0.80
  15   6   4    0.30    0.70
  -8   7   4    0.10    1.20
  -7   7   4    3.20    1.00
   6  -7  -4    0.70    1.00
  -6   7   4    1.00    0.70
   5  -7  -4   33.70    1.90
  -5   7   4   36.20    2.30
   4  -7  -4   12.30    1.20
  -4   7   4   13.70    1.60
   3  -7  -4    9.00    1.00
   3  -7  -4    7.40    1.20
  -3   7   4    7.90    1.20
   2  -7  -4   42.60    2.20
   2  -7  -4   45.00    1.60
  -2   7   4   41.20    2.00
   1  -7  -4    0.30    0.50
   1  -7  -4    0.40    0.30
  -1   7   4   -0.30    0.30
   0  -7  -4   11.20    1.30
   0  -7  -4   12.50    0.80
   0   7   4   13.80    1.10
  -1  -7  -4   52.69    2.40
   1   7   4   51.59    2.00
  -2  -7  -4    0.70    0.60
   2   7   4    1.00    0.40
  -3  -7  -4    1.00    0.60
   3   7   4    0.90    0.40
  -4  -7  -4   14.50    1.30
   4   7   4   13.50    1.00
  -5  -7  -4  438.76    9.40
   5   7   4  439.96    8.80
  -6  -7  -4   35.10    2.00
   6   7   4   32.60    1.60
  -7  -7  -4   14.10    1.40
   7   7   4   12.40    1.20
  -8  -7  -4   21.40    1.60
   8   7   4   19.60    0.90
   8   7   4   20.20    1.40
  -9  -7  -4    0.60    0.60
   9   7   4    0.20    0.30
   9   7   4    0.10    0.50
 -10  -7  -4    1.80    0.70
  10   7   4    3.60    0.90
  10   7   4    1.80    0.50
  11   7   4    6.20    1.20
  11   7   4    3.80    0.70
 -12  -7  -4    1.60    0.80
  12   7   4    1.30    0.60
 -13  -7  -4   18.50    2.00
 -14  -7  -4   13.00    1.80
 -15  -7  -4    0.20    0.80
  -7   8   4    2.30    1.00
  -6   8   4    2.40    0.90
  -5   8   4    3.70    1.00
  -4   8   4    0.30    0.60
   3  -8  -4    0.30    0.70
  -3   8   4    0.80    0.60
   2  -8  -4   19.70    1.70
  -2   8   4   20.50    1.60
   1  -8  -4    8.50    1.30
  -1   8   4    9.30    1.10
   0  -8  -4    1.50    0.70
   0   8   4    1.80    0.60
  -1  -8  -4   18.40    1.70
   1   8   4   18.10    1.20
  -2  -8  -4   15.40    1.70
   2   8   4   15.60    1.10
  -3  -8  -4    0.60    0.60
   3   8   4    1.20    0.40
  -4  -8  -4   20.40    1.70
   4   8   4   18.40    1.20
  -5  -8  -4   23.20    1.70
   5   8   4   24.40    1.40
  -6  -8  -4   27.20    1.90
   6   8   4   31.30    1.60
  -7  -8  -4    6.20    1.10
   7   8   4    4.50    0.80
  -8  -8  -4   -0.10    0.50
   8   8   4    0.40    0.50
  -9  -8  -4    1.20    0.70
   9   8   4    1.30    0.60
 -10  -8  -4   16.00    1.70
  10   8   4   13.60    1.50
  11   8   4   -0.70    0.40
  12   8   4    0.80    0.80
 -13  -8  -4    0.00    0.60
 -14  -8  -4    5.70    1.30
  -6   9   4    0.00    0.80
  -5   9   4    0.40    0.70
  -4   9   4    0.70    0.70
   3  -9  -4    0.20    0.70
  -3   9   4    0.10    0.50
   2  -9  -4   -0.10    0.60
  -2   9   4    0.60    0.50
   1  -9  -4    1.10    0.80
  -1   9   4    0.60    0.50
   0  -9  -4    7.60    1.40
   0   9   4    6.40    1.00
  -1  -9  -4   30.50    2.20
   1   9   4   36.80    1.80
  -2  -9  -4    2.10    0.80
   2   9   4    0.70    0.40
  -3  -9  -4    7.40    1.30
   3   9   4    6.00    0.90
  -4  -9  -4   35.10    2.30
   4   9   4   33.60    1.70
  -5  -9  -4  105.09    3.90
   5   9   4  106.69    3.30
  -6  -9  -4    0.00    0.60
   6   9   4    1.50    0.60
  -7  -9  -4    3.10    1.00
   7   9   4    2.80    0.70
  -8  -9  -4    2.60    0.90
   8   9   4    2.20    0.70
  -9  -9  -4    8.50    1.40
   9   9   4    9.70    1.30
 -10  -9  -4   12.50    1.60
  10   9   4    9.60    1.40
  11   9   4   15.10    1.80
  12   9   4    6.30    1.30
 -13  -9  -4    0.60    0.80
 -14  -9  -4    1.20    0.90
  -5  10   4    0.30    0.70
  -4  10   4   -0.30    0.50
  -3  10   4    0.50    0.70
   2 -10  -4    3.40    1.10
  -2  10   4    4.80    1.00
   1 -10  -4    0.90    0.80
  -1  10   4    0.10    0.50
   0 -10  -4    1.80    0.90
   0  10   4    2.70    0.70
  -1 -10  -4    5.60    1.20
   1  10   4    4.00    0.90
  -2 -10  -4   23.50    2.00
   2  10   4   23.20    1.50
  -3 -10  -4   11.50    1.60
   3  10   4   13.50    1.10
  -4 -10  -4    0.50    0.80
   4  10   4    0.00    0.40
  -5 -10  -4    1.10    0.90
   5  10   4    0.90    0.50
  -6 -10  -4   -0.70    0.50
   6  10   4    0.40    0.50
  -7 -10  -4    2.20    0.90
   7  10   4    3.10    0.80
  -8 -10  -4    8.20    1.40
   8  10   4    7.30    1.20
  -9 -10  -4    4.50    1.10
   9  10   4    4.50    0.90
 -10 -10  -4    1.80    0.90
  10  10   4    3.10    0.90
 -11 -10  -4    6.30    1.40
  11  10   4    5.70    1.30
  12  10   4   -0.40    0.70
  13  10   4    0.40    0.90
 -14 -10  -4    3.00    1.10
  -4  11   4    0.80    0.70
  -3  11   4    1.20    0.70
   2 -11  -4    0.60    0.90
  -2  11   4    2.50    0.90
   1 -11  -4    1.30    1.00
  -1  11   4    0.30    0.60
   0 -11  -4   13.80    2.00
   0  11   4   13.00    1.50
  -1 -11  -4    0.60    0.90
   1  11   4   -0.40    0.50
  -2 -11  -4    7.50    1.50
   2  11   4   10.10    1.30
  -3 -11  -4    9.20    1.60
   3  11   4    8.70    1.20
  -4 -11  -4   16.20    2.20
   4  11   4   17.10    1.40
  -5 -11  -4   -1.00    0.60
   5  11   4    0.70    0.50
  -6 -11  -4    2.50    1.00
   6  11   4    2.50    0.80
  -7 -11  -4    2.40    1.10
   7  11   4    1.90    0.70
  -8 -11  -4   17.60    2.10
   8  11   4   23.00    1.70
  -9 -11  -4    0.40    0.80
   9  11   4    0.50    0.60
 -10 -11  -4   28.00    2.40
  10  11   4   27.20    2.10
 -11 -11  -4   -0.10    0.80
  11  11   4    0.80    0.80
  12  11   4    0.80    0.80
  13  11   4    2.20    1.10
  -3  12   4    3.10    1.00
   2 -12  -4   -0.30    1.30
  -2  12   4    0.30    0.60
   1 -12  -4    2.30    1.20
  -1  12   4    0.60    0.70
   0 -12  -4    2.80    1.20
   0  12   4    0.90    0.60
  -1 -12  -4   22.80    2.60
   1  12   4   29.70    1.90
  -2 -12  -4    8.60    1.70
   2  12   4    5.30    1.00
  -3 -12  -4   17.30    2.30
   3  12   4   18.50    1.50
  -4 -12  -4    5.40    1.40
   4  12   4    6.40    1.10
  -5 -12  -4   15.10    2.20
   5  12   4   13.60    1.50
  -6 -12  -4   -0.30    0.80
   6  12   4    1.50    0.70
  -7 -12  -4    1.20    1.00
   7  12   4    0.40    0.60
  -8 -12  -4   19.80    2.40
   8  12   4   23.60    1.90
  -9 -12  -4    7.00    1.60
   9  12   4    6.00    1.20
 -10 -12  -4    1.80    1.10
  10  12   4    1.40    0.90
 -11 -12  -4    2.90    1.20
  11  12   4    1.30    0.80
  12  12   4   10.10    1.70
  13  12   4    0.90    0.80
   1 -13  -4   -1.40    0.90
  -1  13   4    1.80    0.90
   0 -13  -4    0.80    1.20
   0  13   4    0.00    0.60
  -1 -13  -4    0.90    1.10
   1  13   4    0.00    0.50
  -2 -13  -4   26.20    2.90
   2  13   4   27.00    1.90
  -3 -13  -4   -0.20    0.90
   3  13   4    0.30    0.60
  -4 -13  -4   29.70    3.10
   4  13   4   26.70    1.90
  -5 -13  -4   23.80    2.80
   5  13   4   19.00    1.60
  -6 -13  -4    0.00    0.90
   6  13   4    2.60    0.90
  -7 -13  -4    5.30    1.50
   7  13   4    4.10    1.00
  -8 -13  -4    1.20    1.10
   8  13   4    1.40    0.80
  -9 -13  -4    1.20    1.10
   9  13   4    0.70    0.80
 -10 -13  -4   12.80    2.10
  10  13   4   13.20    1.90
 -11 -13  -4    7.00    1.70
  11  13   4   11.90    1.70
  12  13   4    0.70    0.90
  -1 -14  -4    9.20    2.10
   1  14   4    7.40    1.30
  -2 -14  -4    6.40    1.70
   2  14   4    7.10    1.30
  -3 -14  -4    8.00    1.80
   3  14   4   12.00    1.50
  -4 -14  -4   16.10    2.40
   4  14   4   18.30    1.90
  -5 -14  -4   10.30    2.00
   5  14   4   10.50    1.50
  -6 -14  -4   -0.50    1.00
   6  14   4    3.00    0.90
  -7 -14  -4    4.30    1.50
   7  14   4    4.80    1.10
  -8 -14  -4    3.50    1.40
   8  14   4    3.20    0.90
  -9 -14  -4    0.50    1.10
   9  14   4    0.70    0.80
 -10 -14  -4    1.30    1.20
  10  14   4   -0.10    0.70
 -11 -14  -4    0.20    1.20
  11  14   4    2.80    1.20
   3  15   4    1.10    0.70
  -4 -15  -4    0.20    1.20
   4  15   4    0.80    0.70
  -5 -15  -4    3.00    1.40
   5  15   4    5.90    1.20
  -6 -15  -4   -0.90    1.00
   6  15   4    0.30    0.70
  -7 -15  -4    1.40    1.30
   7  15   4    0.50    0.70
  -8 -15  -4    1.40    1.30
   8  15   4   -0.30    0.70
  -9 -15  -4    0.30    1.10
   9  15   4    1.10    0.90
 -10 -15  -4    0.70    1.30
  -6 -14   5   -1.10    1.00
  -5 -14   5   11.20    2.10
  -4 -14   5    0.00    1.10
  -3 -14   5    2.90    1.50
  -2 -14   5    0.50    1.40
  -6 -13   5   -0.10    0.90
  -5 -13   5    6.50    1.60
  -4 -13   5    3.70    1.30
  -3 -13   5    4.20    1.50
  -2 -13   5    1.40    1.20
  -1 -13   5   -0.60    1.00
   0 -13   5    0.60    1.10
   1 -13   5   -0.20    1.00
   7  12  -5    0.60    0.80
   6  12  -5    2.20    0.80
  -6 -12   5    0.70    1.00
   5  12  -5   -0.20    0.60
  -5 -12   5    0.00    0.80
   4  12  -5    2.40    0.80
  -4 -12   5    1.40    1.10
   3  12  -5    1.10    0.70
  -3 -12   5    0.40    1.00
   2  12  -5   -0.10    0.60
  -2 -12   5   -0.30    0.90
   1  12  -5   -0.90    0.50
  -1 -12   5   -0.80    0.90
   0  12  -5    2.60    0.80
   0 -12   5    3.00    1.20
  -1  12  -5    1.30    0.70
   1 -12   5    2.30    1.20
  -2  12  -5    3.50    1.10
   2 -12   5    2.20    1.30
   3 -12   5   -0.30    1.00
  10  11  -5   -0.60    0.70
   9  11  -5    0.90    0.70
   8  11  -5    0.90    0.80
   7  11  -5    4.10    1.00
   6  11  -5   35.00    2.10
   5  11  -5    1.30    0.70
  -5 -11   5    1.20    0.90
   4  11  -5    5.00    1.00
  -4 -11   5    5.50    1.40
   3  11  -5   -0.40    0.50
  -3 -11   5   -0.30    0.70
   2  11  -5    5.40    0.90
  -2 -11   5    4.50    1.30
   1  11  -5    0.50    0.60
  -1 -11   5    1.00    1.00
   0  11  -5   12.40    1.30
   0 -11   5   16.20    2.20
  -1  11  -5    3.70    0.80
   1 -11   5    3.60    1.30
  -2  11  -5    1.80    0.70
   2 -11   5    1.60    1.10
  -3  11  -5    0.40    0.50
   3 -11   5   -0.30    0.80
  -4  11  -5    3.40    0.80
   4 -11   5    1.10    1.00
  -5  11  -5    0.00    0.60
   5 -11   5   -0.70    0.80
  11  10  -5    5.50    1.30
 -11 -10   5    1.90    0.90
  10  10  -5    4.20    1.10
 -10 -10   5    2.90    1.00
   9  10  -5    1.60    0.80
  -9 -10   5    2.20    0.80
   8  10  -5    2.60    0.90
  -8 -10   5    2.30    0.80
   7  10  -5    0.20    0.60
  -7 -10   5    0.50    0.60
   6  10  -5    0.90    0.70
  -6 -10   5    1.40    0.80
   5  10  -5    5.80    1.00
  -5 -10   5    5.30    1.20
   4  10  -5   19.30    1.50
  -4 -10   5   20.80    2.20
   3  10  -5    1.00    0.60
  -3 -10   5    0.50    0.80
   2  10  -5    8.20    1.10
  -2 -10   5    9.60    1.60
   1  10  -5    6.60    1.00
  -1 -10   5   10.10    1.70
   0  10  -5    1.40    0.60
   0 -10   5    1.70    1.00
  -1  10  -5   -0.10    0.40
   1 -10   5   -0.20    0.70
  -2  10  -5    4.20    0.80
   2 -10   5    3.90    1.30
  -3  10  -5    0.80    0.50
   3 -10   5   -0.10    0.80
  -4  10  -5    1.50    0.70
   4 -10   5    1.10    1.00
  -5  10  -5   12.60    1.40
   5 -10   5   18.20    2.30
  -6  10  -5    4.10    0.90
   6 -10   5    4.30    1.30
  11   9  -5    2.60    1.00
 -11  -9   5    5.20    1.20
  10   9  -5    2.10    0.90
 -10  -9   5    0.90    0.70
   9   9  -5    3.30    1.00
   8   9  -5   20.80    1.70
  -8  -9   5   20.10    1.60
   7   9  -5   10.60    1.30
  -7  -9   5   12.90    1.40
   6   9  -5    1.70    0.70
  -6  -9   5    0.30    0.50
  -6  -9   5    1.00    0.70
   5   9  -5   40.80    2.00
  -5  -9   5   45.20    1.90
  -5  -9   5   42.00    2.40
   4   9  -5    0.90    0.60
  -4  -9   5   -0.40    0.60
   3   9  -5    0.60    0.50
  -3  -9   5    0.30    0.60
   2   9  -5   20.90    1.40
  -2  -9   5   24.60    2.00
   1   9  -5    0.80    0.50
  -1  -9   5    2.10    0.90
   0   9  -5   16.70    1.30
   0  -9   5   16.00    1.90
  -1   9  -5   10.70    1.10
   1  -9   5   12.00    1.80
  -2   9  -5   17.80    1.30
   2  -9   5   18.40    2.10
  -3   9  -5   17.20    1.30
   3  -9   5   17.00    2.00
  -4   9  -5   27.10    1.70
   4  -9   5   28.50    2.40
  -5   9  -5    4.00    0.90
   5  -9   5    2.60    1.10
  -6   9  -5    9.50    1.30
   6  -9   5    8.70    1.70
  -7   9  -5    3.50    0.90
   7  -9   5    4.40    1.30
  11   8  -5    1.30    0.90
 -11  -8   5   -0.10    0.70
  10   8  -5    0.50    0.70
 -10  -8   5    0.00    0.60
   9   8  -5   16.00    1.80
  -9  -8   5   13.30    1.50
   8   8  -5   11.30    1.50
  -8  -8   5    7.40    1.10
   7   8  -5    1.20    0.60
  -7  -8   5    0.10    0.50
   6   8  -5    0.10    0.50
  -6  -8   5    1.00    0.50
  -6  -8   5    0.00    0.60
   5   8  -5    4.50    0.90
  -5  -8   5    3.90    0.90
  -5  -8   5    4.20    0.70
   4   8  -5    2.80    0.70
  -4  -8   5    2.90    0.60
  -4  -8   5    2.10    0.80
   3   8  -5   39.30    1.80
  -3  -8   5   38.00    2.20
  -3  -8   5   38.60    1.50
   2   8  -5   19.10    1.30
  -2  -8   5   13.90    1.60
   1   8  -5   35.30    1.70
  -1  -8   5   41.50    2.40
   0   8  -5    9.90    1.00
   0  -8   5   10.50    1.50
  -1   8  -5   16.00    1.20
   1  -8   5   12.90    1.60
  -2   8  -5   15.10    1.20
   2  -8   5   15.80    1.80
  -3   8  -5   -0.10    0.40
   3  -8   5    0.10    0.60
  -4   8  -5    6.00    0.90
   4  -8   5    9.60    1.50
  -5   8  -5    0.00    0.50
   5  -8   5   -0.10    0.70
  -6   8  -5    0.90    0.60
   6  -8   5    1.70    0.90
  -7   8  -5    1.90    0.80
   7  -8   5    0.20    0.80
  -8   8  -5    9.40    1.40
  11   7  -5    2.60    1.00
 -11  -7   5    2.50    1.00
  10   7  -5    7.20    1.30
 -10  -7   5    6.30    1.20
   9   7  -5    0.60    0.70
  -9  -7   5    1.60    0.70
   8   7  -5    3.80    1.00
  -8  -7   5    4.50    1.00
   7   7  -5    6.70    1.10
  -7  -7   5    5.30    1.00
   6   7  -5   -0.20    0.50
  -6  -7   5    0.40    0.40
   5   7  -5   11.40    1.20
  -5  -7   5   14.80    1.10
  -5  -7   5   14.00    1.30
   4   7  -5    3.60    0.80
  -4  -7   5    3.10    0.60
  -4  -7   5    3.60    0.80
   3   7  -5    1.40    0.60
  -3  -7   5    0.10    0.30
  -3  -7   5    1.10    0.60
   2   7  -5  107.39    3.00
  -2  -7   5  102.39    2.60
  -2  -7   5  107.09    3.70
   1   7  -5   65.59    2.20
  -1  -7   5   64.09    2.80
   0   7  -5   71.59    2.30
   0  -7   5   67.29    2.90
  -1   7  -5    0.90    0.50
   1  -7   5   -0.30    0.50
  -2   7  -5   52.39    2.00
   2  -7   5   55.39    2.80
  -3   7  -5   19.90    1.30
   3  -7   5   21.10    1.80
  -4   7  -5    6.90    1.00
   4  -7   5    8.50    1.40
  -5   7  -5    0.30    0.50
   5  -7   5    0.40    0.60
  -6   7  -5    0.70    0.60
   6  -7   5    1.50    0.80
  -7   7  -5    2.50    0.80
   7  -7   5    3.10    1.00
  -8   7  -5   47.10    2.60
   8  -7   5   49.40    3.30
  -9   7  -5    0.40    0.70
  11   6  -5    9.10    1.60
 -11  -6   5   11.70    1.70
  10   6  -5    5.70    1.20
 -10  -6   5    8.00    1.40
   9   6  -5    4.40    1.00
  -9  -6   5    6.10    1.20
   8   6  -5   33.10    2.00
  -8  -6   5   27.40    1.80
   7   6  -5    1.60    0.70
  -7  -6   5    2.40    0.80
   6   6  -5    1.20    0.60
  -6  -6   5    1.90    0.60
   5   6  -5    3.90    0.70
  -5  -6   5    5.00    0.80
  -5  -6   5    3.40    0.70
   4   6  -5   12.10    1.10
  -4  -6   5   12.90    1.20
  -4  -6   5   13.60    1.00
   3   6  -5   14.70    1.20
  -3  -6   5   12.80    1.30
  -3  -6   5   12.80    0.90
   2   6  -5   31.50    1.50
  -2  -6   5   33.10    1.80
  -2  -6   5   31.40    1.20
   1   6  -5   41.50    1.70
  -1  -6   5   43.90    2.20
  -1  -6   5   43.00    1.20
   0   6  -5  143.09    3.60
   0  -6   5  137.99    4.30
  -1   6  -5    4.90    0.70
   1  -6   5    3.90    0.90
  -2   6  -5    1.30    0.50
   2  -6   5    3.70    0.90
  -3   6  -5   17.50    1.10
   3  -6   5   14.20    1.60
  -4   6  -5   15.00    1.10
   4  -6   5   11.40    1.50
  -5   6  -5    5.80    0.90
   5  -6   5    4.80    1.00
  -6   6  -5    2.60    0.70
   6  -6   5    2.70    0.90
  -7   6  -5    8.40    1.20
   7  -6   5    8.90    1.40
  -8   6  -5    3.20    0.90
   8  -6   5    2.90    1.00
  -9   6  -5   18.80    2.00
 -10   6  -5    3.10    1.00
  11   5  -5    0.30    0.80
 -11  -5   5    1.00    0.80
  10   5  -5    4.50    1.10
 -10  -5   5    5.30    1.20
   9   5  -5   10.10    1.40
  -9  -5   5    9.50    1.40
   8   5  -5    2.80    0.80
  -8  -5   5    6.40    1.10
   7   5  -5    6.60    1.00
  -7  -5   5    5.90    1.00
   6   5  -5    6.30    1.00
  -6  -5   5    7.90    1.00
   5   5  -5   23.20    1.40
  -5  -5   5   26.60    1.40
  -5  -5   5   25.00    1.30
   4   5  -5   34.00    1.70
  -4  -5   5   35.60    1.60
  -4  -5   5   32.90    1.50
   3   5  -5    2.80    0.70
  -3  -5   5    2.50    0.50
  -3  -5   5    3.00    0.70
   2   5  -5   10.70    0.90
  -2  -5   5   10.30    0.70
  -2  -5   5    6.90    1.00
   1   5  -5    0.70    0.50
  -1  -5   5    1.20    0.30
  -1  -5   5    1.10    0.50
   0   5  -5    2.60    0.60
   0  -5   5    2.00    0.60
   0  -5   5    3.00    0.30
  -1   5  -5    2.60    0.50
   1  -5   5    2.40    0.70
  -2   5  -5   26.70    1.30
   2  -5   5   26.40    1.70
  -3   5  -5    0.20    0.40
   3  -5   5    0.20    0.50
  -4   5  -5   26.40    1.40
   4  -5   5   28.70    1.80
  -5   5  -5    1.20    0.50
   5  -5   5    0.80    0.60
  -6   5  -5    1.00    0.50
   6  -5   5    2.40    0.80
  -7   5  -5    2.20    0.70
   7  -5   5    1.50    0.70
  -8   5  -5   -0.10    0.50
   8  -5   5   -1.20    0.50
  -9   5  -5    0.20    0.60
 -10   5  -5   11.20    1.60
 -11   5  -5    1.20    0.90
  11   4  -5    0.40    0.90
 -11  -4   5    1.10    0.80
  10   4  -5    1.70    0.90
 -10  -4   5    1.40    0.80
   9   4  -5   10.10    1.40
  -9  -4   5   13.80    1.70
   8   4  -5    2.20    0.80
  -8  -4   5    2.00    0.80
   7   4  -5    1.20    0.60
  -7  -4   5    1.30    0.60
   6   4  -5    0.70    0.60
  -6  -4   5    0.60    0.50
   5   4  -5   56.49    2.20
  -5  -4   5   55.09    2.10
  -5  -4   5   59.89    2.10
   4   4  -5   16.30    1.20
  -4  -4   5   16.30    1.10
  -4  -4   5   15.40    1.00
   3   4  -5   38.20    1.60
  -3  -4   5   40.00    1.70
  -3  -4   5   39.30    1.50
   2   4  -5    1.50    0.50
  -2  -4   5    1.30    0.30
  -2  -4   5    0.80    0.40
   1   4  -5    0.00    0.30
  -1  -4   5    0.10    0.20
  -1  -4   5    0.10    0.40
   0   4  -5   85.69    2.40
   0  -4   5   86.89    2.90
   0  -4   5   84.99    1.70
  -1   4  -5  129.89    3.20
   1  -4   5  129.29    3.80
  -2   4  -5   28.00    1.30
   2  -4   5   27.60    1.60
  -3   4  -5    0.10    0.30
   3  -4   5    0.10    0.40
  -4   4  -5    4.00    0.70
   4  -4   5    2.20    0.70
  -5   4  -5   11.00    1.10
   5  -4   5    9.50    1.20
  -6   4  -5   24.80    1.50
   6  -4   5   21.40    1.60
  -7   4  -5    5.40    0.90
   7  -4   5    5.70    1.10
  -8   4  -5    2.70    0.80
   8  -4   5    2.60    0.80
  -9   4  -5   39.30    2.20
 -11   4  -5    4.20    1.10
  11   3  -5    3.50    1.20
 -11  -3   5    3.70    1.10
  10   3  -5    2.70    1.00
 -10  -3   5    0.80    0.80
   9   3  -5   -0.90    0.60
  -9  -3   5    0.40    0.60
   8   3  -5   -0.10    0.60
  -8  -3   5   -0.60    0.40
   7   3  -5   47.50    2.30
  -7  -3   5   43.90    2.20
   6   3  -5    0.30    0.40
  -6  -3   5   -0.20    0.40
   5   3  -5    4.10    0.80
  -5  -3   5    4.90    0.80
   4   3  -5   21.80    1.30
  -4  -3   5   22.10    1.10
  -4  -3   5   21.90    1.20
   3   3  -5   23.60    1.20
  -3  -3   5   24.50    1.20
  -3  -3   5   24.50    1.20
   2   3  -5   23.70    1.20
  -2  -3   5   21.70    1.20
  -2  -3   5   22.90    1.00
   1   3  -5    9.10    0.70
  -1  -3   5    9.80    0.90
  -1  -3   5   10.10    0.60
   0   3  -5    1.30    0.40
   0  -3   5    1.50    0.20
   0  -3   5    2.00    0.50
  -1   3  -5   79.49    2.20
   1  -3   5   78.89    2.60
  -2   3  -5   19.80    1.00
   2  -3   5   17.50    1.20
  -3   3  -5    6.80    0.70
   3  -3   5    7.40    1.00
  -4   3  -5    3.30    0.60
   4  -3   5    2.70    0.60
  -5   3  -5    6.20    0.70
  -5   3  -5    5.10    0.70
   5  -3   5    5.00    0.90
  -6   3  -5   13.50    1.10
   6  -3   5   15.10    1.30
   7  -3   5   12.10    1.40
   7  -3   5   11.30    1.20
   8  -3   5   -0.20    0.50
   8  -3   5    1.00    0.70
   9  -3   5    2.80    0.90
   9  -3   5    5.70    1.10
  10  -3   5    1.30    0.90
  11  -3   5   -1.50    0.70
  12  -3   5    2.30    1.20
  11   2  -5    6.50    1.40
 -11  -2   5    4.20    1.20
  10   2  -5    1.60    0.90
 -10  -2   5    1.40    0.90
   9   2  -5    3.40    1.00
  -9  -2   5    2.00    0.80
   8   2  -5    1.40    0.70
  -8  -2   5    2.90    0.90
   7   2  -5    1.90    0.70
  -7  -2   5    3.20    0.80
   6   2  -5    1.30    0.60
  -6  -2   5    1.70    0.60
   5   2  -5    5.80    0.90
  -5  -2   5    6.00    0.90
   4   2  -5    3.60    0.60
  -4  -2   5    2.50    0.60
  -4  -2   5    3.80    0.50
   3   2  -5    6.00    0.80
  -3  -2   5    4.40    0.50
  -3  -2   5    5.50    0.70
   2   2  -5    1.60    0.50
  -2  -2   5    2.30    0.40
  -2  -2   5    2.40    0.50
   1   2  -5   36.10    1.40
  -1  -2   5   38.60    1.20
  -1  -2   5   38.30    1.60
   0   2  -5   21.30    1.00
   0  -2   5   18.90    1.10
   0  -2   5   19.20    0.70
  -1   2  -5   66.69    1.90
   1  -2   5   69.69    2.30
   1  -2   5   65.39    1.30
  -2   2  -5  101.99    2.60
   2  -2   5  108.59    3.10
  -3   2  -5   28.70    1.20
   3  -2   5   29.90    1.50
  -4   2  -5   26.50    1.20
  -4   2  -5   28.00    0.70
   4  -2   5   28.00    1.50
  -5   2  -5   14.10    1.00
  -5   2  -5   13.00    0.60
   5  -2   5   12.90    1.20
  -6   2  -5   47.70    1.40
   6  -2   5   47.30    2.10
  -7   2  -5    0.20    0.30
   7  -2   5    1.10    0.60
   7  -2   5   -0.10    0.40
   8  -2   5    3.20    0.80
   8  -2   5    3.10    0.80
   9  -2   5    2.20    0.70
   9  -2   5    1.20    0.80
  10  -2   5    0.50    0.70
  11  -2   5   -1.00    0.80
  12  -2   5   15.10    2.00
  11   1  -5    0.60    0.90
 -11  -1   5    0.50    0.80
  10   1  -5    6.40    1.30
 -10  -1   5    4.60    1.10
   9   1  -5    7.60    1.30
  -9  -1   5    6.90    1.40
   8   1  -5    0.10    0.60
  -8  -1   5   -0.20    0.60
   7   1  -5   20.10    1.80
  -7  -1   5   15.70    1.40
   6   1  -5    0.60    0.50
  -6  -1   5    0.20    0.40
   5   1  -5    3.40    0.70
  -5  -1   5    3.40    0.70
   4   1  -5    1.10    0.50
  -4  -1   5    1.80    0.50
  -4  -1   5    1.40    0.30
   3   1  -5    3.40    0.60
  -3  -1   5    5.20    0.50
  -3  -1   5    4.30    0.60
   2   1  -5  137.39    3.30
  -2  -1   5  136.79    3.20
  -2  -1   5  137.89    3.30
   1   1  -5  525.85    9.70
  -1  -1   5  531.75    9.60
  -1  -1   5  532.65    9.90
   0   1  -5   13.50    0.80
   0  -1   5   13.60    0.60
   0  -1   5   13.80    0.90
  -1   1  -5   -0.30    0.20
   1  -1   5    0.60    0.30
   1  -1   5    0.20    0.10
  -2   1  -5    0.50    0.30
   2  -1   5    1.20    0.40
   2  -1   5    1.00    0.10
  -3   1  -5   14.30    0.80
   3  -1   5   13.40    1.00
   3  -1   5   12.80    0.40
  -4   1  -5   14.00    0.90
  -4   1  -5   16.90    0.60
   4  -1   5   15.50    1.10
  -5   1  -5   31.10    1.30
  -5   1  -5   30.20    1.00
   5  -1   5   28.00    1.50
  -6   1  -5  273.07    5.30
   6  -1   5  273.77    6.00
   6  -1   5  271.67    6.30
  -7   1  -5   79.49    2.20
   7  -1   5   80.79    2.80
   7  -1   5   78.49    2.70
  -8   1  -5    0.30    0.30
   8  -1   5    0.30    0.40
   8  -1   5    0.80    0.60
  -9   1  -5    0.00    0.40
   9  -1   5   -0.40    0.40
   9  -1   5    0.60    0.60
  10  -1   5   -0.20    0.60
  11  -1   5    5.40    1.10
  12  -1   5    1.00    1.00
  13  -1   5    2.70    1.10
  11   0  -5    2.10    1.20
  10   0  -5   16.00    2.00
 -10   0   5   17.00    2.00
   9   0  -5    0.40    0.70
  -9   0   5    0.00    0.60
   8   0  -5    0.20    0.60
  -8   0   5    0.40    0.60
   7   0  -5   14.30    1.50
  -7   0   5   14.10    1.60
   6   0  -5    0.10    0.50
  -6   0   5    0.20    0.50
   5   0  -5    0.00    0.40
  -5   0   5    0.40    0.50
   4   0  -5   48.10    1.50
   4   0  -5   43.60    1.80
  -4   0   5   43.30    1.90
   3   0  -5   19.10    1.10
  -3   0   5   21.80    1.20
   2   0  -5   79.59    2.30
  -2   0   5   79.89    2.10
  -2   0   5   80.59    2.30
   1   0  -5   10.60    0.80
  -1   0   5   11.70    0.70
  -1   0   5   11.50    0.80
   0   0  -5   51.39    1.50
   0   0   5   53.89    1.50
   0   0   5   50.09    1.70
  -1   0  -5    0.10    0.30
   1   0   5   -0.10    0.30
   1   0   5    0.20    0.20
  -2   0  -5   45.50    1.40
   2   0   5   43.30    1.70
   2   0   5   43.40    1.10
  -3   0  -5    7.60    0.60
   3   0   5    7.00    0.80
   3   0   5    7.60    0.40
  -4   0  -5   12.00    0.70
   4   0   5   12.20    1.00
   4   0   5   12.00    0.60
  -5   0  -5  280.67    5.80
   5   0   5  289.27    5.40
   5   0   5  289.27    6.30
  -6   0  -5    7.10    0.60
   6   0   5    8.10    1.00
   6   0   5    7.10    0.80
  -7   0  -5   27.10    1.20
   7   0   5   25.00    1.40
   7   0   5   26.60    1.50
  -8   0  -5    0.90    0.40
   8   0   5    0.00    0.40
   8   0   5   -0.20    0.40
  -9   0  -5    0.00    0.30
   9   0   5   -0.20    0.40
   9   0   5   -0.40    0.40
 -10   0  -5   19.00    1.30
  10   0   5   24.30    1.80
 -11   0  -5    0.20    0.50
  11   0   5    0.10    0.60
  12   0   5    3.60    1.10
  13   0   5   10.20    1.60
  10  -1  -5   -0.60    0.80
 -10   1   5   -0.20    0.70
   9  -1  -5    6.00    1.20
  -9   1   5    4.80    1.20
   8  -1  -5    0.20    0.60
  -8   1   5    0.10    0.50
   7  -1  -5    1.30    0.70
  -7   1   5    1.90    0.80
   6  -1  -5    0.40    0.50
  -6   1   5   -0.10    0.40
   5  -1  -5    1.10    0.60
  -5   1   5    0.40    0.50
   4  -1  -5   15.70    1.10
  -4   1   5   12.20    1.00
   3  -1  -5   33.50    1.20
   3  -1  -5   35.30    1.50
  -3   1   5   30.20    1.50
   2  -1  -5    0.80    0.40
   2  -1  -5    0.50    0.30
  -2   1   5    1.10    0.40
   1  -1  -5   10.10    0.70
  -1   1   5   11.20    0.80
  -1   1   5   10.10    0.80
   0  -1  -5  105.59    2.40
   0   1   5  104.09    2.70
   0   1   5   99.29    2.50
  -1  -1  -5  120.89    2.60
   1   1   5  119.69    3.10
   1   1   5  123.79    2.70
  -2  -1  -5    1.20    0.30
   2   1   5    1.50    0.40
   2   1   5    1.50    0.30
  -3  -1  -5   39.50    1.20
   3   1   5   38.30    1.60
   3   1   5   39.80    1.10
  -4  -1  -5    1.10    0.30
   4   1   5    1.60    0.30
   4   1   5    0.60    0.40
  -5  -1  -5   40.60    1.40
   5   1   5   40.40    1.30
   5   1   5   40.40    1.70
   6   1   5    4.50    0.60
   6   1   5    5.00    0.80
   6   1   5    4.70    0.60
  -7  -1  -5  169.88    3.90
   7   1   5  170.68    4.40
   7   1   5  174.48    4.20
  -8  -1  -5   15.50    1.00
   8   1   5   16.70    1.20
   8   1   5   17.30    1.20
  -9  -1  -5   11.70    1.00
   9   1   5   12.20    1.20
   9   1   5   13.80    1.10
 -10  -1  -5    0.90    0.50
  10   1   5    0.70    0.60
 -11  -1  -5    1.70    0.60
  11   1   5    1.70    0.70
 -12  -1  -5    0.10    0.50
  12   1   5    0.50    0.70
  13   1   5    7.20    1.40
  14   1   5    5.00    1.30
  10  -2  -5    2.20    1.00
 -10   2   5    1.40    0.90
   9  -2  -5   -0.20    0.70
  -9   2   5   -0.80    0.60
   8  -2  -5    1.20    0.70
  -8   2   5   -0.50    0.60
   7  -2  -5    7.20    1.10
  -7   2   5    5.30    1.10
   6  -2  -5    0.00    0.50
  -6   2   5    1.50    0.60
   5  -2  -5    0.70    0.50
  -5   2   5    0.30    0.50
   4  -2  -5    0.60    0.50
  -4   2   5    1.90    0.70
   3  -2  -5   10.20    0.80
   3  -2  -5   11.10    0.80
  -3   2   5   13.10    1.10
   2  -2  -5  102.69    2.70
   2  -2  -5  102.59    2.70
  -2   2   5  105.59    3.00
   1  -2  -5    5.00    0.60
   1  -2  -5    3.20    0.50
  -1   2   5    3.20    0.50
   0  -2  -5   16.60    0.80
   0   2   5   16.50    1.00
   0   2   5   15.40    0.90
  -1  -2  -5   17.00    0.70
   1   2   5   17.70    0.90
   1   2   5   16.10    1.00
  -2  -2  -5  205.58    3.90
   2   2   5  207.98    4.20
   2   2   5  207.08    4.70
  -3  -2  -5  315.67    5.70
   3   2   5  314.47    5.90
   3   2   5  300.47    6.50
  -4  -2  -5   28.20    1.00
   4   2   5   28.50    1.40
   4   2   5   27.50    1.00
  -5  -2  -5   48.10    1.40
   5   2   5   45.60    1.90
   5   2   5   46.10    1.50
   6   2   5    6.60    0.70
   6   2   5    5.30    0.60
   6   2   5    6.30    0.80
   7   2   5    7.40    0.80
   7   2   5    7.10    0.90
   7   2   5    8.40    0.80
   8   2   5   -0.20    0.40
   8   2   5    0.10    0.30
   8   2   5    0.10    0.40
  -9  -2  -5   11.20    1.10
   9   2   5   11.60    1.10
   9   2   5   11.60    1.20
 -10  -2  -5   -0.10    0.40
  10   2   5    2.60    0.60
  10   2   5    1.40    0.60
 -11  -2  -5    4.40    0.90
  11   2   5    4.70    0.90
 -12  -2  -5    2.20    0.80
  12   2   5    2.90    0.90
 -13  -2  -5    2.90    0.90
  13   2   5    1.80    0.90
  14   2   5    0.60    0.80
  10  -3  -5    2.50    1.40
   9  -3  -5    0.10    0.80
  -9   3   5    0.60    0.80
   8  -3  -5    1.80    0.80
  -8   3   5    0.30    0.80
   7  -3  -5    0.20    0.70
  -7   3   5    0.70    0.70
   6  -3  -5    0.90    0.60
  -6   3   5   -0.50    0.40
   5  -3  -5    2.40    0.70
  -5   3   5    2.10    0.70
   4  -3  -5   -0.80    0.30
  -4   3   5   -0.10    0.40
   3  -3  -5   36.00    1.50
   3  -3  -5   35.20    1.50
  -3   3   5   33.10    1.70
   2  -3  -5    7.40    0.70
   2  -3  -5    9.10    0.80
  -2   3   5    7.50    0.90
   1  -3  -5   17.40    1.10
   1  -3  -5   18.80    0.90
  -1   3   5   19.90    1.10
   0  -3  -5   -0.10    0.30
   0  -3  -5    0.10    0.20
   0   3   5    0.00    0.30
  -1  -3  -5   15.90    1.10
  -1  -3  -5   15.80    0.70
   1   3   5   15.90    0.90
  -2  -3  -5   37.20    1.00
   2   3   5   38.20    1.60
   2   3   5   36.70    1.30
  -3  -3  -5    2.70    0.30
   3   3   5    3.20    0.60
   3   3   5    2.50    0.40
  -4  -3  -5   41.80    1.10
   4   3   5   42.40    1.70
   4   3   5   42.60    1.40
  -5  -3  -5   39.60    1.20
   5   3   5   40.90    1.70
   5   3   5   39.80    1.40
   6   3   5    0.30    0.30
   6   3   5    0.40    0.30
   6   3   5    0.40    0.30
   7   3   5   96.19    2.70
   7   3   5   95.19    2.90
   7   3   5   91.69    2.50
   8   3   5   11.50    1.00
   8   3   5    8.50    0.90
   8   3   5    9.80    1.00
   9   3   5    9.30    1.10
   9   3   5   11.10    1.00
   9   3   5   10.20    1.10
 -10  -3  -5    0.00    0.40
  10   3   5    0.10    0.40
  10   3   5    0.70    0.40
 -11  -3  -5    1.70    0.60
  11   3   5    0.20    0.50
 -12  -3  -5    9.80    1.30
  12   3   5    9.00    1.30
 -13  -3  -5    2.80    0.90
  13   3   5    3.50    1.00
 -14  -3  -5    3.70    1.10
  14   3   5    3.50    1.10
   9  -4  -5   -0.30    0.80
  -9   4   5    0.00    0.70
   8  -4  -5    0.70    0.80
  -8   4   5   -0.20    0.60
   7  -4  -5   14.30    1.60
  -7   4   5   10.10    1.50
   6  -4  -5    0.00    0.50
  -6   4   5   -0.10    0.50
   5  -4  -5   12.10    1.30
  -5   4   5   10.40    1.40
   4  -4  -5   19.20    1.30
  -4   4   5   15.80    1.30
   3  -4  -5    9.90    1.00
   3  -4  -5   10.90    1.00
  -3   4   5   11.30    1.20
   2  -4  -5   12.20    0.90
   2  -4  -5   11.70    1.00
  -2   4   5   12.60    1.00
   1  -4  -5    7.70    0.90
   1  -4  -5    7.00    0.70
  -1   4   5    3.90    0.70
   0  -4  -5   67.39    2.30
   0  -4  -5   71.29    1.80
   0   4   5   72.29    2.30
  -1  -4  -5   58.69    2.10
  -1  -4  -5   59.19    1.40
   1   4   5   53.99    1.90
  -2  -4  -5   86.29    2.70
  -2  -4  -5   86.29    1.80
   2   4   5   86.09    2.40
  -3  -4  -5   22.80    0.60
  -3  -4  -5   21.90    1.30
   3   4   5   21.80    1.00
  -4  -4  -5    8.60    0.40
  -4  -4  -5    6.00    0.80
   4   4   5    7.90    0.60
  -5  -4  -5   79.19    1.80
  -5  -4  -5   75.19    2.60
   5   4   5   79.49    2.30
   6   4   5   14.00    0.90
   6   4   5   13.50    0.70
   7   4   5    1.90    0.40
   7   4   5    2.20    0.60
  -8  -4  -5   80.99    2.80
   8   4   5   80.29    2.30
   8   4   5   79.69    2.70
  -9  -4  -5   52.49    2.20
   9   4   5   49.10    2.10
   9   4   5   55.09    2.00
 -10  -4  -5    1.90    0.60
  10   4   5    2.70    0.70
  10   4   5    0.80    0.50
 -11  -4  -5    0.50    0.60
  11   4   5    0.90    0.60
 -12  -4  -5    9.70    1.30
  12   4   5    8.90    1.20
 -13  -4  -5    0.10    0.60
  13   4   5   -0.40    0.60
 -14  -4  -5    3.10    1.00
  14   4   5    3.10    1.00
 -15  -4  -5    0.50    0.90
  15   4   5    0.50    0.80
   8  -5  -5    0.40    0.80
  -8   5   5    1.20    0.80
   7  -5  -5   10.00    1.40
  -7   5   5    7.50    1.40
   6  -5  -5    0.40    0.70
  -6   5   5    0.60    0.80
   5  -5  -5    8.90    1.10
  -5   5   5    6.00    1.20
   4  -5  -5   -0.50    0.40
  -4   5   5   -0.40    0.40
   3  -5  -5    1.10    0.50
   3  -5  -5    2.00    0.60
  -3   5   5    2.00    0.70
   2  -5  -5    8.10    1.00
   2  -5  -5    7.00    0.80
  -2   5   5    8.20    1.10
   1  -5  -5    3.40    0.50
   1  -5  -5    1.90    0.60
  -1   5   5    2.30    0.60
   0  -5  -5   27.50    1.00
   0  -5  -5   25.40    1.50
   0   5   5   26.20    1.40
  -1  -5  -5   25.20    1.50
  -1  -5  -5   23.50    0.80
   1   5   5   21.40    1.20
  -2  -5  -5    3.70    0.20
  -2  -5  -5    3.60    0.70
   2   5   5    3.70    0.60
  -3  -5  -5    3.60    0.70
   3   5   5    4.20    0.60
  -4  -5  -5   33.70    1.70
   4   5   5   33.00    1.40
  -5  -5  -5    0.70    0.50
  -5  -5  -5    1.80    0.20
   5   5   5    2.10    0.50
  -6  -5  -5   -0.20    0.40
   6   5   5   -0.30    0.30
  -7  -5  -5    9.80    1.20
   7   5   5    8.10    0.60
   7   5   5    9.00    0.90
  -8  -5  -5   22.80    1.50
   8   5   5   22.10    1.40
   8   5   5   21.60    1.10
  -9  -5  -5    1.10    0.50
   9   5   5    0.00    0.50
   9   5   5    0.30    0.30
 -10  -5  -5    7.50    1.10
  10   5   5    9.50    1.00
  10   5   5   10.40    1.30
 -11  -5  -5    8.70    1.20
  11   5   5    9.20    1.00
 -12  -5  -5    0.40    0.60
  12   5   5    0.40    0.50
 -13  -5  -5    0.80    0.80
  13   5   5    0.50    0.70
 -14  -5  -5    3.50    1.10
  14   5   5    1.40    0.80
 -15  -5  -5    1.30    0.90
  15   5   5   -0.90    0.70
  -8   6   5    0.60    0.90
   7  -6  -5    3.40    1.00
  -7   6   5    1.60    1.00
   6  -6  -5    1.50    0.80
  -6   6   5    0.30    0.80
   5  -6  -5   11.90    1.30
  -5   6   5    8.20    1.30
   4  -6  -5   40.20    1.90
  -4   6   5   36.10    2.20
   3  -6  -5    3.80    0.90
   3  -6  -5    5.30    0.80
  -3   6   5    5.20    1.00
   2  -6  -5    0.30    0.40
   2  -6  -5    1.30    0.60
  -2   6   5    1.60    0.60
   1  -6  -5   19.80    1.50
   1  -6  -5   18.80    1.00
  -1   6   5   17.40    1.30
   0  -6  -5    6.80    0.60
   0  -6  -5    6.90    1.10
   0   6   5    6.60    0.90
  -1  -6  -5    1.90    0.30
  -1  -6  -5    1.80    0.60
   1   6   5    1.00    0.40
  -2  -6  -5    4.60    0.80
   2   6   5    3.50    0.60
  -3  -6  -5   15.50    1.30
   3   6   5   17.70    1.00
  -4  -6  -5   66.59    2.60
   4   6   5   61.09    2.10
  -5  -6  -5  122.59    3.80
   5   6   5  123.89    3.30
  -6  -6  -5  177.08    4.90
  -6  -6  -5  204.98    3.70
   6   6   5  187.08    4.60
  -7  -6  -5   11.70    1.20
   7   6   5   13.20    1.10
   7   6   5   10.20    0.60
  -8  -6  -5    1.10    0.60
   8   6   5    1.80    0.40
   8   6   5    1.50    0.60
  -9  -6  -5    0.90    0.60
   9   6   5    0.30    0.30
   9   6   5    1.40    0.60
 -10  -6  -5   10.90    1.30
  10   6   5   11.20    1.00
  10   6   5   12.90    1.40
  11   6   5    2.80    0.80
  11   6   5    2.10    0.60
 -12  -6  -5    5.80    1.10
  12   6   5    4.30    0.80
 -13  -6  -5   50.19    2.70
  13   6   5   46.10    2.30
 -14  -6  -5   23.10    2.00
  14   6   5   18.60    1.90
 -15  -6  -5    3.70    1.20
  -7   7   5    1.20    0.90
  -6   7   5    3.50    1.10
  -5   7   5    2.60    0.90
  -4   7   5    1.80    0.80
   3  -7  -5    6.50    1.10
  -3   7   5    6.60    1.10
   2  -7  -5    4.80    1.00
  -2   7   5    6.30    1.00
   1  -7  -5   22.60    1.70
  -1   7   5   24.60    1.60
   0  -7  -5   43.80    2.30
   0   7   5   41.30    1.90
  -1  -7  -5    8.00    1.20
   1   7   5    7.70    0.90
  -2  -7  -5    9.50    1.20
   2   7   5   11.70    0.90
  -3  -7  -5    0.40    0.50
   3   7   5    1.20    0.50
  -4  -7  -5    7.80    1.10
   4   7   5   11.60    1.10
   5   7   5  100.39    3.00
  -6  -7  -5  134.19    4.20
   6   7   5  131.99    3.70
  -7  -7  -5    8.30    1.20
   7   7   5    7.60    1.00
  -8  -7  -5    2.60    0.80
   8   7   5    0.80    0.50
  -9  -7  -5   10.10    1.30
   9   7   5   10.90    1.30
 -10  -7  -5    0.50    0.60
  10   7   5    1.30    0.70
 -11  -7  -5    3.00    0.80
  11   7   5    3.20    0.90
  12   7   5   31.00    2.20
 -13  -7  -5    2.10    0.90
 -14  -7  -5   18.20    2.00
 -15  -7  -5    1.40    1.00
  -6   8   5    3.40    1.00
  -5   8   5    4.80    1.20
  -4   8   5    1.80    0.70
  -3   8   5    2.20    0.80
   2  -8  -5   14.30    1.70
  -2   8   5   16.90    1.50
   1  -8  -5    2.60    0.80
  -1   8   5    2.30    0.70
   0  -8  -5   -0.30    0.60
   0   8   5    0.40    0.40
  -1  -8  -5    4.60    1.00
   1   8   5    4.60    0.80
  -2  -8  -5   19.10    1.70
   2   8   5   18.00    1.30
  -3  -8  -5    3.50    0.90
   3   8   5    2.20    0.60
  -4  -8  -5   10.60    1.40
   4   8   5   15.00    1.10
  -5  -8  -5    7.80    1.20
   5   8   5    6.30    0.90
  -6  -8  -5   -0.10    0.60
   6   8   5    0.70    0.50
  -7  -8  -5   17.80    1.60
   7   8   5   19.30    1.40
  -8  -8  -5   13.90    1.60
   8   8   5   16.00    1.60
  -9  -8  -5   -0.50    0.50
   9   8   5   -0.10    0.40
 -10  -8  -5    9.80    1.40
  10   8   5    9.30    1.40
 -11  -8  -5    0.00    0.60
  11   8   5    1.20    0.70
  12   8   5    1.80    0.80
 -13  -8  -5    1.90    0.90
 -14  -8  -5   25.40    2.50
 -15  -8  -5    0.30    0.90
  -5   9   5    1.30    0.80
  -4   9   5    2.80    0.90
  -3   9   5    0.20    0.70
   2  -9  -5    0.60    0.70
  -2   9   5    0.50    0.60
   1  -9  -5    3.80    1.10
  -1   9   5    4.60    0.90
   0  -9  -5    7.60    1.30
   0   9   5    9.70    1.20
  -1  -9  -5   49.80    2.80
   1   9   5   50.59    2.30
  -2  -9  -5   21.80    1.90
   2   9   5   22.60    1.50
  -3  -9  -5   -0.20    0.60
   3   9   5    0.30    0.50
  -4  -9  -5    1.90    0.80
   4   9   5    4.80    0.90
  -5  -9  -5   -0.40    0.60
   5   9   5    0.50    0.40
  -6  -9  -5    0.00    0.50
   6   9   5    0.20    0.40
  -7  -9  -5    5.60    1.20
   7   9   5    8.70    1.20
  -8  -9  -5    0.10    0.60
   8   9   5    0.10    0.40
  -9  -9  -5    0.10    0.70
   9   9   5   -0.20    0.50
 -10  -9  -5   15.70    1.80
  10   9   5   19.10    1.90
 -11  -9  -5    1.50    0.90
  11   9   5    2.10    0.90
  12   9   5    3.90    1.10
  13   9   5   16.40    2.00
 -14  -9  -5    1.40    1.00
  -4  10   5   -0.40    0.60
  -3  10   5    0.40    0.70
   2 -10  -5    4.40    1.30
  -2  10   5    3.60    1.00
   1 -10  -5    9.90    1.60
  -1  10   5   12.30    1.50
   0 -10  -5    7.10    1.50
   0  10   5    7.00    1.10
  -1 -10  -5    4.60    1.20
   1  10   5    5.00    0.90
  -2 -10  -5   -0.20    0.60
   2  10   5    0.40    0.40
  -3 -10  -5    6.70    1.40
   3  10   5    5.10    0.90
  -4 -10  -5    3.90    1.10
   4  10   5    6.30    1.00
  -5 -10  -5    0.30    0.70
   5  10   5    1.10    0.60
  -6 -10  -5    3.30    1.10
   6  10   5    3.40    0.80
  -7 -10  -5   -0.80    0.60
   7  10   5   -0.30    0.40
  -8 -10  -5    4.30    1.20
   8  10   5    4.50    0.90
  -9 -10  -5   10.20    1.60
   9  10   5   13.90    1.60
 -10 -10  -5    0.20    0.70
  10  10   5    1.60    0.80
 -11 -10  -5    1.30    0.90
  11  10   5    0.00    0.60
  12  10   5    0.20    0.70
  13  10   5    0.80    0.80
 -14 -10  -5    4.20    1.30
  -3  11   5    1.70    0.80
  -2  11   5    1.50    0.80
   1 -11  -5    3.00    1.20
  -1  11   5    4.40    1.00
   0 -11  -5    4.50    1.30
   0  11   5    2.90    0.90
  -1 -11  -5    0.70    0.80
   1  11   5    1.30    0.60
  -2 -11  -5    3.30    1.10
   2  11   5    1.10    0.70
  -3 -11  -5   11.30    1.90
   3  11   5   11.60    1.40
  -4 -11  -5    0.10    0.80
   4  11   5    0.30    0.50
  -5 -11  -5    0.60    0.90
   5  11   5    1.60    0.60
  -6 -11  -5    2.60    1.00
   6  11   5    6.10    1.00
  -7 -11  -5    4.50    1.20
   7  11   5    6.40    1.10
  -8 -11  -5    2.30    1.00
   8  11   5    2.10    0.80
  -9 -11  -5   31.20    2.50
   9  11   5   30.70    2.10
 -10 -11  -5    2.20    1.10
  10  11   5    2.40    0.90
 -11 -11  -5   15.90    2.10
  11  11   5   14.70    1.90
  12  11   5    0.50    0.70
  13  11   5    0.10    0.80
  -2  12   5    7.80    1.40
   1 -12  -5    0.40    0.90
  -1  12   5   -0.90    0.50
   0 -12  -5    7.60    1.70
   0  12   5    7.50    1.20
  -1 -12  -5   -0.10    0.90
   1  12   5    0.90    0.70
  -2 -12  -5    0.70    0.90
   2  12   5    0.20    0.50
  -3 -12  -5    1.50    1.00
   3  12   5    2.10    0.80
  -4 -12  -5    0.00    0.70
   4  12   5   -0.30    0.50
  -5 -12  -5    5.00    1.40
   5  12   5    5.40    1.10
  -6 -12  -5    3.90    1.30
   6  12   5    0.80    0.70
  -7 -12  -5    2.20    1.10
   7  12   5    3.20    0.90
  -8 -12  -5   17.80    2.40
   8  12   5   19.10    1.90
  -9 -12  -5    0.80    1.00
   9  12   5    0.10    0.60
 -10 -12  -5   16.90    2.30
  10  12   5   17.10    1.90
 -11 -12  -5    1.60    1.10
  11  12   5    1.30    0.80
  12  12   5    3.40    1.20
  13  12   5   -0.40    0.80
   0 -13  -5    0.50    1.00
   0  13   5    3.50    1.00
  -1 -13  -5    5.90    1.50
   1  13   5    5.00    1.10
  -2 -13  -5    0.90    1.00
   2  13   5    0.00    0.60
  -3 -13  -5   23.50    2.80
   3  13   5   35.30    2.20
  -4 -13  -5   -0.60    0.90
   4  13   5    1.10    0.70
  -5 -13  -5    4.40    1.50
   5  13   5    4.10    1.00
  -6 -13  -5    0.20    0.90
   6  13   5    0.40    0.60
  -7 -13  -5    0.30    0.90
   7  13   5   -1.00    0.40
  -8 -13  -5   -0.40    0.80
   8  13   5    1.20    0.70
  -9 -13  -5   23.50    2.90
   9  13   5   22.70    2.00
 -10 -13  -5   12.00    2.10
  10  13   5   10.00    1.60
 -11 -13  -5    6.80    1.60
  11  13   5    8.80    1.50
  12  13   5   43.10    2.90
   1  14   5    1.50    0.90
  -2 -14  -5    3.80    1.40
   2  14   5    2.40    0.90
  -3 -14  -5   12.50    2.20
   3  14   5   15.50    1.80
  -4 -14  -5   -0.50    1.00
   4  14   5    0.20    0.70
  -5 -14  -5    0.10    1.10
   5  14   5    0.00    0.70
  -6 -14  -5   11.70    2.10
   6  14   5   11.90    1.60
  -7 -14  -5    7.30    1.70
   7  14   5    6.60    1.30
  -8 -14  -5   -0.10    1.10
   8  14   5   -0.30    0.60
  -9 -14  -5   -0.10    1.00
   9  14   5    0.60    0.70
 -10 -14  -5   -0.60    1.00
  10  14   5    0.60    0.70
 -11 -14  -5   24.10    2.90
  11  14   5   17.90    2.40
   4  15   5    1.50    0.90
   5  15   5    4.00    1.10
  -6 -15  -5    1.80    1.60
   6  15   5    0.50    0.80
  -7 -15  -5   22.90    3.10
   7  15   5   27.30    2.20
  -8 -15  -5    1.30    1.30
   8  15   5    1.30    0.90
  -9 -15  -5    6.80    2.40
   9  15   5    5.60    1.90
  -5 -13   6    1.50    1.10
  -4 -13   6    5.10    1.60
  -3 -13   6    2.30    1.20
  -2 -13   6    0.80    1.10
  -1 -13   6   12.20    2.20
   0 -13   6    9.50    2.00
   8  12  -6    0.30    0.80
   7  12  -6    3.70    1.00
   6  12  -6    4.80    1.10
   5  12  -6   -0.40    0.60
  -5 -12   6   -0.20    0.80
   4  12  -6    1.40    0.80
  -4 -12   6    2.60    1.20
   3  12  -6    4.80    1.00
  -3 -12   6    5.00    1.40
   2  12  -6   -0.30    0.60
  -2 -12   6    0.70    1.00
   1  12  -6    3.60    1.00
  -1 -12   6    2.40    1.30
   0  12  -6    3.30    0.90
   0 -12   6    2.40    1.30
  -1  12  -6    4.10    0.90
   1 -12   6    3.90    1.40
  -2  12  -6    2.30    0.80
   2 -12   6    0.50    1.10
  -3  12  -6    7.90    1.20
   3 -12   6    4.70    1.80
   9  11  -6    2.50    1.00
   8  11  -6    0.20    0.70
   7  11  -6    0.90    0.70
   6  11  -6    0.10    0.60
   5  11  -6   -0.40    0.60
  -5 -11   6    0.40    0.80
   4  11  -6   12.80    1.50
  -4 -11   6   11.80    1.80
   3  11  -6   19.40    1.70
  -3 -11   6   20.90    2.30
   2  11  -6    1.40    0.70
  -2 -11   6    0.70    1.00
   1  11  -6    0.90    0.70
  -1 -11   6    0.80    1.00
   0  11  -6    2.40    0.80
   0 -11   6    3.10    1.20
  -1  11  -6    4.10    0.90
   1 -11   6    4.00    1.40
  -2  11  -6   12.50    1.40
   2 -11   6   11.40    2.00
  -3  11  -6    2.70    0.80
   3 -11   6    0.30    1.00
  -4  11  -6    2.70    0.80
   4 -11   6    1.10    1.10
  -5  11  -6    4.90    1.00
   5 -11   6    4.50    1.60
  10  10  -6    2.80    1.00
   9  10  -6    1.80    0.90
   8  10  -6    0.00    0.70
   7  10  -6    6.40    1.20
   6  10  -6    7.80    1.20
   5  10  -6    5.30    1.10
  -5 -10   6    4.50    1.10
   4  10  -6   -0.10    0.60
  -4 -10   6    0.30    0.80
   3  10  -6   30.00    1.80
  -3 -10   6   29.10    2.30
   2  10  -6    2.30    0.80
  -2 -10   6    3.00    1.10
   1  10  -6   -0.60    0.50
  -1 -10   6   -1.50    0.60
   0  10  -6    2.00    0.70
   0 -10   6    3.10    1.20
  -1  10  -6    1.50    0.60
   1 -10   6    2.30    1.10
  -2  10  -6    5.10    1.00
   2 -10   6    5.60    1.40
  -3  10  -6   22.90    1.60
   3 -10   6   28.70    2.50
  -4  10  -6   11.90    1.40
   4 -10   6   17.40    2.30
  -5  10  -6    4.70    1.00
   5 -10   6    2.90    1.20
  -6  10  -6    4.80    1.00
   6 -10   6    2.80    1.20
  10   9  -6    6.20    1.30
 -10  -9   6    6.50    1.30
   9   9  -6    5.50    1.20
  -9  -9   6    3.40    1.00
   8   9  -6    1.00    0.80
  -8  -9   6    0.80    0.60
   7   9  -6    1.80    0.80
  -7  -9   6    1.10    0.70
   6   9  -6    0.40    0.60
   5   9  -6    0.00    0.50
  -5  -9   6   -0.10    0.60
   4   9  -6    0.20    0.50
  -4  -9   6    0.00    0.60
   3   9  -6    4.10    0.90
  -3  -9   6    4.10    1.10
   2   9  -6   -0.90    0.50
  -2  -9   6   -0.40    0.60
   1   9  -6    9.20    1.10
  -1  -9   6    9.60    1.60
   0   9  -6    6.40    1.00
   0  -9   6    6.00    1.30
  -1   9  -6    4.00    0.80
   1  -9   6    6.70    1.40
  -2   9  -6   19.20    1.40
   2  -9   6   19.80    2.20
  -3   9  -6    3.80    0.80
   3  -9   6    3.30    1.10
  -4   9  -6    6.80    1.10
   4  -9   6    8.60    1.60
  -5   9  -6    5.90    1.10
   5  -9   6    7.10    1.60
  -6   9  -6   19.00    1.80
   6  -9   6   19.10    2.40
  -7   9  -6    0.40    0.60
   7  -9   6    0.80    0.90
  11   8  -6    0.70    1.30
 -11  -8   6    1.40    0.90
  10   8  -6   15.10    1.80
 -10  -8   6   16.10    1.90
   9   8  -6   14.90    1.80
  -9  -8   6   13.50    1.70
   8   8  -6   -0.20    0.60
  -8  -8   6    0.20    0.50
   7   8  -6    5.80    1.10
  -7  -8   6    6.80    1.10
   6   8  -6    3.00    0.90
  -6  -8   6    2.30    0.70
   5   8  -6    1.60    0.70
  -5  -8   6    1.40    0.50
  -5  -8   6    0.50    0.60
   4   8  -6    4.50    0.90
  -4  -8   6    4.70    1.00
   3   8  -6   32.00    1.80
  -3  -8   6   30.50    2.10
   2   8  -6    1.30    0.60
  -2  -8   6    1.00    0.70
   1   8  -6    4.20    0.80
  -1  -8   6    3.70    1.00
   0   8  -6   20.60    1.40
   0  -8   6   20.70    1.90
  -1   8  -6    0.90    0.60
   1  -8   6    1.50    0.80
  -2   8  -6    1.00    0.60
   2  -8   6    2.40    0.90
  -3   8  -6    8.70    1.10
   3  -8   6    8.40    1.40
  -4   8  -6   15.60    1.30
   4  -8   6   14.00    1.90
  -5   8  -6    7.50    1.10
   5  -8   6    4.80    1.20
  -6   8  -6    6.10    1.10
   6  -8   6    7.70    1.60
  -7   8  -6    3.40    0.90
   7  -8   6    2.90    1.20
  -8   8  -6    1.00    0.70
   8  -8   6    0.60    1.00
  11   7  -6    0.50    0.90
 -11  -7   6    1.00    0.80
  10   7  -6   26.50    2.10
 -10  -7   6   17.90    2.00
   9   7  -6   -1.40    0.60
  -9  -7   6    0.50    0.70
   8   7  -6    2.40    0.80
  -8  -7   6    1.40    0.70
   7   7  -6   -0.30    0.50
  -7  -7   6    0.20    0.50
   6   7  -6    7.10    1.10
  -6  -7   6    5.40    0.90
   5   7  -6    0.50    0.60
  -5  -7   6    0.40    0.50
  -5  -7   6    0.10    0.40
   4   7  -6   -0.40    0.50
  -4  -7   6    0.20    0.30
  -4  -7   6    0.80    0.60
   3   7  -6   36.40    1.80
  -3  -7   6   40.90    1.70
  -3  -7   6   37.50    2.10
   2   7  -6   -0.40    0.50
  -2  -7   6    0.40    0.60
   1   7  -6   54.99    2.20
  -1  -7   6   57.59    2.70
   0   7  -6   76.49    2.60
   0  -7   6   81.59    3.30
  -1   7  -6   26.50    1.50
   1  -7   6   27.30    2.00
  -2   7  -6    1.00    0.50
   2  -7   6   -0.60    0.60
  -3   7  -6   -0.20    0.40
   3  -7   6    0.40    0.60
  -4   7  -6    0.30    0.40
   4  -7   6    0.40    0.70
  -5   7  -6    0.70    0.50
   5  -7   6   -0.40    0.60
  -6   7  -6    8.30    1.20
   6  -7   6    7.10    1.40
  -7   7  -6   28.60    1.90
   7  -7   6   27.90    2.30
  -8   7  -6    1.50    0.70
   8  -7   6    0.80    0.90
  -9   7  -6   -0.40    0.60
  11   6  -6    0.40    0.80
 -11  -6   6    0.10    0.80
  10   6  -6    0.90    0.80
 -10  -6   6   -0.10    0.70
   9   6  -6   -0.40    0.60
  -9  -6   6    0.00    0.60
   8   6  -6   -1.80    0.40
  -8  -6   6    0.00    0.60
   7   6  -6    2.40    0.90
  -7  -6   6    2.10    0.70
   6   6  -6    0.70    0.60
  -6  -6   6   -0.20    0.40
   5   6  -6    1.90    0.70
  -5  -6   6    3.10    0.70
  -5  -6   6    1.10    0.50
   4   6  -6    9.00    1.10
  -4  -6   6    9.90    1.20
  -4  -6   6    8.50    0.90
   3   6  -6    0.20    0.40
  -3  -6   6    0.20    0.30
  -3  -6   6    0.90    0.50
   2   6  -6   -0.20    0.50
  -2  -6   6    0.40    0.50
  -2  -6   6   -0.20    0.20
   1   6  -6   16.00    1.20
  -1  -6   6   13.20    1.40
   0   6  -6   16.40    1.20
   0  -6   6   15.10    1.60
  -1   6  -6    0.40    0.40
   1  -6   6    2.00    0.80
  -2   6  -6    0.80    0.40
   2  -6   6    0.50    0.60
  -3   6  -6   59.49    2.20
   3  -6   6   58.39    2.80
  -4   6  -6    2.00    0.60
   4  -6   6    2.50    0.80
  -5   6  -6    4.80    0.80
   5  -6   6    2.80    0.90
  -6   6  -6   10.50    1.20
   6  -6   6   12.60    1.70
  -7   6  -6   14.00    1.50
   7  -6   6   14.70    1.90
  -8   6  -6   -0.50    0.60
   8  -6   6    0.20    0.70
  -9   6  -6    1.50    0.80
 -10   6  -6    1.60    0.90
  11   5  -6    1.20    0.90
 -11  -5   6    1.70    0.90
  10   5  -6   -0.30    0.70
 -10  -5   6    0.20    0.70
   9   5  -6    2.50    0.90
  -9  -5   6    1.90    0.80
   8   5  -6   -0.30    0.60
  -8  -5   6   -0.20    0.50
   7   5  -6    0.40    0.50
  -7  -5   6    0.90    0.60
   6   5  -6   18.10    1.50
  -6  -5   6   11.80    1.30
   5   5  -6    1.20    0.60
  -5  -5   6    0.90    0.50
   4   5  -6    3.50    0.70
  -4  -5   6    3.90    0.70
  -4  -5   6    3.40    0.70
   3   5  -6    2.40    0.60
  -3  -5   6    1.80    0.40
  -3  -5   6    2.60    0.70
   2   5  -6    1.20    0.50
  -2  -5   6    1.00    0.50
  -2  -5   6    0.90    0.30
   1   5  -6    3.40    0.70
  -1  -5   6    4.40    0.90
  -1  -5   6    4.40    0.40
   0   5  -6   37.70    1.60
   0  -5   6   37.30    2.00
  -1   5  -6   31.20    1.50
   1  -5   6   32.60    1.90
  -2   5  -6    8.70    0.90
   2  -5   6   12.10    1.40
  -3   5  -6   29.70    1.50
   3  -5   6   25.20    1.80
  -4   5  -6    0.50    0.50
   4  -5   6    0.80    0.60
  -5   5  -6    0.50    0.40
   5  -5   6    0.40    0.60
  -6   5  -6    0.60    0.50
   6  -5   6    0.50    0.60
  -7   5  -6    0.10    0.50
   7  -5   6    0.70    0.70
  -8   5  -6    3.10    0.80
   8  -5   6    4.20    1.10
  -9   5  -6   10.70    1.50
   9  -5   6    9.30    1.50
 -10   5  -6    1.10    0.80
 -11   5  -6    2.60    1.50
  11   4  -6   -0.60    0.80
 -11  -4   6    0.00    0.60
  10   4  -6    0.50    0.80
 -10  -4   6    0.20    0.60
   9   4  -6    0.90    0.80
  -9  -4   6    0.00    0.70
   8   4  -6    1.90    0.80
  -8  -4   6    1.50    0.70
   7   4  -6    2.10    0.70
  -7  -4   6    1.60    0.70
   6   4  -6   -0.40    0.50
  -6  -4   6   -0.20    0.40
   5   4  -6    1.50    0.60
  -5  -4   6    0.60    0.50
   4   4  -6   27.70    1.50
  -4  -4   6   29.40    1.40
  -4  -4   6   29.70    1.50
   3   4  -6    1.00    0.50
  -3  -4   6    0.60    0.40
  -3  -4   6    0.80    0.50
   2   4  -6   39.50    1.70
  -2  -4   6   37.50    1.80
  -2  -4   6   37.00    1.30
   1   4  -6   65.29    2.20
  -1  -4   6   68.69    1.70
  -1  -4   6   65.29    2.50
   0   4  -6   12.10    0.90
   0  -4   6   12.30    1.30
   0  -4   6   11.50    0.50
  -1   4  -6   22.00    1.20
   1  -4   6   22.60    1.50
  -2   4  -6   28.40    1.40
   2  -4   6   29.50    1.80
  -3   4  -6    1.80    0.50
   3  -4   6    2.70    0.80
  -4   4  -6   58.29    2.10
   4  -4   6   57.49    2.60
  -5   4  -6    4.60    0.70
   5  -4   6    6.10    1.10
  -6   4  -6    6.70    0.90
   6  -4   6    6.30    1.10
  -7   4  -6    6.50    1.00
   7  -4   6    6.40    1.20
  -8   4  -6    0.40    0.60
   8  -4   6   -0.10    0.50
  -9   4  -6    1.90    0.80
   9  -4   6    2.60    0.90
 -10   4  -6    1.10    0.80
 -11   4  -6    1.50    0.90
  11   3  -6    0.60    0.90
 -11  -3   6    0.10    0.80
  10   3  -6   -0.70    0.70
 -10  -3   6   -1.30    0.50
   9   3  -6    4.40    1.10
  -9  -3   6    3.70    1.00
   8   3  -6    0.80    0.70
  -8  -3   6    3.10    0.90
   7   3  -6    9.40    1.20
  -7  -3   6    9.80    1.30
   6   3  -6    7.20    1.10
  -6  -3   6    7.60    1.10
   5   3  -6   10.10    1.10
  -5  -3   6   10.80    1.20
   4   3  -6    9.10    1.10
  -4  -3   6    9.30    0.80
  -4  -3   6    7.90    0.90
   3   3  -6    0.00    0.40
  -3  -3   6    0.40    0.30
  -3  -3   6   -0.30    0.30
   2   3  -6    0.80    0.50
  -2  -3   6    0.20    0.30
  -2  -3   6    1.00    0.40
   1   3  -6    0.00    0.40
  -1  -3   6    0.10    0.20
  -1  -3   6    0.30    0.40
   0   3  -6  123.39    3.10
   0  -3   6  119.69    2.50
   0  -3   6  115.59    3.50
  -1   3  -6    0.20    0.30
   1  -3   6    1.10    0.50
  -2   3  -6    0.10    0.30
   2  -3   6   -0.20    0.30
  -3   3  -6    5.40    0.70
   3  -3   6    6.10    0.90
  -4   3  -6   39.60    1.70
   4  -3   6   40.80    2.10
  -5   3  -6    6.70    0.90
   5  -3   6    6.20    1.00
  -6   3  -6   36.50    1.70
   6  -3   6   31.30    1.90
  -7   3  -6    1.60    0.60
   7  -3   6    2.80    0.80
  -8   3  -6    0.80    0.60
   8  -3   6    0.30    0.50
  -9   3  -6   -0.20    0.50
   9  -3   6    0.10    0.60
 -10   3  -6   62.79    2.90
 -11   3  -6    0.20    0.60
 -12   3  -6    0.10    0.70
  10   2  -6    0.80    0.90
 -10  -2   6    1.80    0.90
   9   2  -6    7.70    1.40
  -9  -2   6    7.50    1.40
   8   2  -6   -0.40    0.60
  -8  -2   6    0.50    0.60
   7   2  -6    8.40    1.20
  -7  -2   6    7.20    1.20
   6   2  -6    4.50    0.90
  -6  -2   6    3.80    0.80
   5   2  -6   18.10    1.30
  -5  -2   6   21.30    1.40
   4   2  -6   10.80    1.10
  -4  -2   6   11.60    0.80
  -4  -2   6   11.70    1.20
   3   2  -6  153.18    3.90
  -3  -2   6  161.08    3.70
  -3  -2   6  159.78    3.90
   2   2  -6    7.50    0.80
  -2  -2   6    7.80    0.80
  -2  -2   6    7.70    0.80
   1   2  -6   21.90    1.10
  -1  -2   6   19.60    0.90
  -1  -2   6   21.10    1.20
   0   2  -6   22.90    1.20
   0  -2   6   22.50    0.80
   0  -2   6   22.50    1.30
  -1   2  -6    0.30    0.30
   1  -2   6    0.30    0.40
   1  -2   6    0.60    0.20
  -2   2  -6   16.90    1.00
   2  -2   6   14.10    1.20
  -3   2  -6   47.80    1.70
   3  -2   6   46.30    2.10
  -4   2  -6    0.10    0.30
   4  -2   6   -0.30    0.30
  -5   2  -6   13.50    1.00
   5  -2   6   14.00    1.20
  -6   2  -6   20.60    1.20
   6  -2   6   20.90    1.60
  -7   2  -6    6.90    0.90
   7  -2   6    8.40    1.20
  -8   2  -6   64.19    2.60
   8  -2   6   66.19    2.80
   9  -2   6   78.59    3.20
   9  -2   6   80.59    3.10
  10  -2   6    1.50    0.80
  11  -2   6   -0.10    0.80
  12  -2   6    7.90    1.60
  10   1  -6    1.70    1.00
 -10  -1   6    3.40    1.10
   9   1  -6    5.10    1.10
  -9  -1   6    6.00    1.20
   8   1  -6    0.80    0.60
  -8  -1   6    0.10    0.50
   7   1  -6    2.10    0.80
  -7  -1   6    0.10    0.50
   6   1  -6   -0.40    0.50
  -6  -1   6   -0.30    0.40
   5   1  -6    0.80    0.50
  -5  -1   6    0.10    0.40
   4   1  -6    7.20    0.90
  -4  -1   6    8.00    1.00
   3   1  -6   48.90    1.90
  -3  -1   6   49.60    1.70
  -3  -1   6   50.09    1.90
   2   1  -6  145.39    3.60
  -2  -1   6  146.99    3.50
  -2  -1   6  142.59    3.50
   1   1  -6   70.59    2.10
  -1  -1   6   71.09    2.20
  -1  -1   6   68.89    2.00
   0   1  -6    8.90    0.80
   0  -1   6    8.60    0.60
   0  -1   6    9.80    0.90
  -1   1  -6    0.00    0.30
   1  -1   6    0.20    0.10
   1  -1   6   -0.20    0.30
  -2   1  -6    3.50    0.50
   2  -1   6    4.70    0.70
   2  -1   6    5.30    0.30
  -3   1  -6   50.69    1.60
   3  -1   6   46.00    2.00
   3  -1   6   47.20    1.10
  -4   1  -6   42.60    1.50
   4  -1   6   40.60    1.90
  -5   1  -6   63.89    1.50
  -5   1  -6   63.39    2.10
   5  -1   6   57.89    2.40
  -6   1  -6   84.89    2.60
  -6   1  -6   83.69    2.00
   6  -1   6   86.89    3.00
  -7   1  -6    5.70    0.60
  -7   1  -6    4.30    0.80
   7  -1   6    4.50    0.90
   8  -1   6    1.20    0.60
   8  -1   6    0.30    0.60
   9  -1   6    0.20    0.60
   9  -1   6    1.20    0.60
  10  -1   6   14.10    1.60
  10  -1   6   16.10    1.60
  11  -1   6   24.40    2.00
  12  -1   6    2.10    1.10
  13  -1   6   16.00    2.10
  10   0  -6   11.50    1.70
 -10   0   6    7.00    1.40
   9   0  -6    2.50    1.00
  -9   0   6    1.90    0.90
   8   0  -6    1.20    0.80
  -8   0   6    2.20    0.80
   7   0  -6    4.10    0.90
  -7   0   6    5.20    1.10
   6   0  -6    0.10    0.50
  -6   0   6   -0.20    0.50
   5   0  -6    0.30    0.50
  -5   0   6   -0.10    0.50
   4   0  -6    5.80    0.90
  -4   0   6    5.90    0.90
   3   0  -6  483.45    9.50
  -3   0   6  472.05    9.50
  -3   0   6  491.25    9.00
   2   0  -6    6.00    0.80
  -2   0   6    5.40    0.70
  -2   0   6    5.00    0.70
   1   0  -6    3.30    0.60
  -1   0   6    2.80    0.50
  -1   0   6    3.40    0.50
   0   0  -6   13.70    0.90
   0   0   6   13.30    0.90
   0   0   6   12.20    0.70
  -1   0  -6    0.40    0.30
   1   0   6    0.60    0.20
   1   0   6    0.70    0.40
  -2   0  -6    0.30    0.30
   2   0   6    0.40    0.40
   2   0   6    0.00    0.10
  -3   0  -6   77.29    2.10
   3   0   6   73.59    2.50
   3   0   6   76.79    1.70
  -4   0  -6    6.40    0.70
   4   0   6    5.30    0.80
   4   0   6    6.40    0.40
  -5   0  -6   48.80    1.70
   5   0   6   50.49    1.40
   5   0   6   49.99    2.10
  -6   0  -6  116.29    3.10
  -6   0  -6  121.09    2.80
   6   0   6  120.49    3.70
  -7   0  -6  254.27    5.10
  -7   0  -6  246.58    5.60
   7   0   6  254.17    6.10
  -8   0  -6   23.10    1.20
   8   0   6   29.70    1.70
   8   0   6   30.00    1.70
  -9   0  -6    2.40    0.60
   9   0   6    2.50    0.80
   9   0   6    3.20    0.80
  10   0   6   -1.20    0.40
  10   0   6   -0.20    0.50
  11   0   6    0.40    0.80
  12   0   6    6.10    1.20
  13   0   6   -0.70    0.70
  10  -1  -6    8.50    1.50
 -10   1   6    9.00    1.90
   9  -1  -6    0.60    0.70
  -9   1   6    0.80    0.80
   8  -1  -6    2.50    1.00
  -8   1   6    2.70    1.00
   7  -1  -6    0.70    0.70
  -7   1   6   -0.10    0.60
   6  -1  -6    1.90    0.70
  -6   1   6    1.50    0.70
   5  -1  -6    0.10    0.50
  -5   1   6    0.20    0.50
   4  -1  -6    0.80    0.50
  -4   1   6    1.10    0.50
   3  -1  -6   -0.20    0.40
   3  -1  -6    0.00    0.30
  -3   1   6    0.30    0.40
   2  -1  -6    0.90    0.40
   2  -1  -6    1.50    0.50
  -2   1   6    2.00    0.50
   1  -1  -6   10.60    0.80
  -1   1   6   13.40    0.90
  -1   1   6   13.50    0.90
   0  -1  -6   34.80    1.30
   0   1   6   37.90    1.60
   0   1   6   37.70    1.40
  -1  -1  -6    1.20    0.40
   1   1   6    0.80    0.40
   1   1   6    1.00    0.30
  -2  -1  -6    4.30    0.50
   2   1   6    4.10    0.70
   2   1   6    5.10    0.50
  -3  -1  -6   31.80    1.10
   3   1   6   27.50    1.50
   3   1   6   29.20    1.00
  -4  -1  -6    0.60    0.30
   4   1   6    0.80    0.30
   4   1   6    0.90    0.40
  -5  -1  -6   22.60    1.00
   5   1   6   20.20    1.30
   5   1   6   23.80    1.00
  -6  -1  -6  162.38    3.80
   6   1   6  168.68    3.70
   6   1   6  164.38    4.40
   7   1   6    8.50    0.80
   7   1   6    8.00    1.00
   7   1   6    8.70    1.00
  -8  -1  -6    5.40    0.70
   8   1   6    6.10    0.80
   8   1   6    5.60    0.90
  -9  -1  -6    0.70    0.40
   9   1   6    0.40    0.50
   9   1   6   -0.10    0.40
 -10  -1  -6    5.80    0.90
  10   1   6    4.50    0.90
  10   1   6    4.90    0.90
 -11  -1  -6    5.40    0.90
  11   1   6    6.00    1.10
  12   1   6    1.10    0.80
  13   1   6   -0.60    0.70
  14   1   6    6.50    1.50
   9  -2  -6    0.10    0.80
  -9   2   6   -1.20    0.50
   8  -2  -6   -0.10    0.70
  -8   2   6   -0.50    0.60
   7  -2  -6    2.30    0.80
  -7   2   6    2.00    0.80
   6  -2  -6    9.10    1.20
  -6   2   6    8.20    1.30
   5  -2  -6   25.70    1.60
  -5   2   6   24.30    1.70
   4  -2  -6    0.50    0.50
  -4   2   6    0.60    0.50
   3  -2  -6   13.20    1.00
   3  -2  -6   14.80    1.00
  -3   2   6   13.50    1.30
   2  -2  -6   30.80    1.40
   2  -2  -6   29.40    1.30
  -2   2   6   29.30    1.50
   1  -2  -6   -0.20    0.30
   1  -2  -6   -0.20    0.30
  -1   2   6    0.10    0.30
   0  -2  -6    0.30    0.30
   0   2   6    0.50    0.40
   0   2   6    0.20    0.30
  -1  -2  -6    1.10    0.30
   1   2   6    1.00    0.30
   1   2   6    0.20    0.30
  -2  -2  -6   44.70    1.30
   2   2   6   41.00    1.80
   2   2   6   43.00    1.40
  -3  -2  -6  147.39    3.10
   3   2   6  142.79    3.20
   3   2   6  157.98    4.00
  -4  -2  -6    4.50    0.50
   4   2   6    5.90    0.60
   4   2   6    4.00    0.70
  -5  -2  -6    1.30    0.30
   5   2   6    1.00    0.40
   5   2   6    0.30    0.30
  -6  -2  -6  100.39    2.60
   6   2   6   99.99    2.60
   6   2   6  105.69    3.30
   7   2   6    3.50    0.60
   7   2   6    4.30    0.60
   7   2   6    5.10    0.90
   8   2   6    7.00    0.80
   8   2   6    5.60    0.90
   8   2   6    8.70    0.90
  -9  -2  -6    0.00    0.40
   9   2   6    0.50    0.50
   9   2   6    0.30    0.50
 -10  -2  -6   23.90    1.40
  10   2   6   22.70    1.50
  10   2   6   22.90    1.60
 -11  -2  -6    0.20    0.50
  11   2   6    0.10    0.60
 -12  -2  -6    3.30    0.80
  12   2   6    3.50    1.00
  13   2   6    8.90    1.50
  14   2   6    2.30    1.10
   9  -3  -6    0.90    0.90
  -9   3   6   -0.70    0.60
   8  -3  -6    0.00    0.70
  -8   3   6   -0.80    0.50
   7  -3  -6    2.60    0.90
  -7   3   6    3.80    1.10
   6  -3  -6   12.70    1.40
  -6   3   6   14.70    1.70
   5  -3  -6   11.50    1.30
  -5   3   6    7.80    1.20
   4  -3  -6   12.50    1.20
  -4   3   6   11.50    1.30
   3  -3  -6    0.10    0.40
   3  -3  -6    0.30    0.40
  -3   3   6    0.20    0.40
   2  -3  -6    0.00    0.40
   2  -3  -6    0.40    0.40
  -2   3   6    0.10    0.40
   1  -3  -6   21.60    1.30
   1  -3  -6   20.40    1.00
  -1   3   6   19.60    1.20
   0  -3  -6   39.40    1.70
   0  -3  -6   38.30    1.30
   0   3   6   37.50    1.60
  -1  -3  -6   41.80    1.30
  -1  -3  -6   43.90    1.80
   1   3   6   41.80    1.60
  -2  -3  -6    7.00    0.50
   2   3   6    6.80    0.90
   2   3   6    7.90    0.60
  -3  -3  -6   94.09    2.10
   3   3   6   88.59    2.30
   3   3   6   90.59    2.90
  -4  -3  -6   66.49    1.60
   4   3   6   65.79    2.40
   4   3   6   66.89    1.90
  -5  -3  -6   12.90    0.70
   5   3   6   12.90    1.10
   5   3   6   11.90    0.80
  -6  -3  -6    8.50    0.60
   6   3   6    7.70    0.90
   6   3   6    8.10    0.80
   7   3   6   32.40    1.70
   7   3   6   32.90    1.50
   7   3   6   34.10    1.40
   8   3   6   29.90    1.50
   8   3   6   32.90    1.50
   8   3   6   33.40    1.80
   9   3   6    1.60    0.60
   9   3   6    3.20    0.70
   9   3   6    2.40    0.70
 -10  -3  -6    1.20    0.50
  10   3   6    0.90    0.50
  10   3   6   -0.30    0.40
 -11  -3  -6   15.40    1.30
  11   3   6   13.30    1.40
 -12  -3  -6   -0.30    0.50
  12   3   6    0.60    0.60
 -13  -3  -6    4.40    1.00
  13   3   6    8.30    1.40
  14   3   6    3.90    1.10
   8  -4  -6    1.30    0.90
  -8   4   6    0.70    0.80
   7  -4  -6    0.60    0.70
  -7   4   6    0.50    0.70
   6  -4  -6   12.20    1.40
  -6   4   6    8.40    1.40
   5  -4  -6   -0.10    0.50
  -5   4   6    1.10    0.60
   4  -4  -6    1.90    0.60
  -4   4   6    3.80    0.90
   3  -4  -6    0.90    0.50
   3  -4  -6    0.90    0.50
  -3   4   6    0.00    0.40
   2  -4  -6    8.50    0.90
   2  -4  -6    8.60    1.00
  -2   4   6    9.30    1.20
   1  -4  -6    3.50    0.50
   1  -4  -6    3.00    0.60
  -1   4   6    3.00    0.60
   0  -4  -6   76.39    2.60
   0  -4  -6   76.89    2.00
   0   4   6   76.79    2.50
  -1  -4  -6    6.20    0.90
  -1  -4  -6    6.20    0.50
   1   4   6    7.30    0.80
  -2  -4  -6    1.10    0.30
  -2  -4  -6    0.40    0.40
   2   4   6    1.20    0.40
  -3  -4  -6  113.09    2.30
  -3  -4  -6  115.89    3.40
   3   4   6  112.19    2.90
  -4  -4  -6    2.70    0.30
  -4  -4  -6    2.60    0.70
   4   4   6    3.00    0.50
  -5  -4  -6   21.00    0.80
   5   4   6   21.90    1.10
   5   4   6   21.50    1.40
  -6  -4  -6   48.20    1.40
   6   4   6   41.00    2.00
   6   4   6   46.30    1.70
  -7  -4  -6  100.89    2.50
   7   4   6   97.69    3.30
   7   4   6  101.19    2.90
   8   4   6    0.10    0.40
   8   4   6    0.50    0.40
   8   4   6   -0.30    0.40
   9   4   6    9.80    1.00
   9   4   6    8.70    1.00
 -10  -4  -6   -0.50    0.50
  10   4   6    0.20    0.50
  10   4   6    0.20    0.40
 -11  -4  -6   26.80    1.90
 -11  -4  -6   24.50    1.60
  11   4   6   27.70    1.60
 -12  -4  -6    1.80    0.70
  12   4   6    1.00    0.60
 -13  -4  -6    1.00    0.70
  13   4   6    2.50    0.80
 -14  -4  -6    0.90    0.70
  14   4   6    1.00    0.80
  15   4   6    2.10    1.00
   8  -5  -6   -0.40    0.80
  -8   5   6    0.30    0.80
   7  -5  -6    4.60    1.10
  -7   5   6    4.10    1.10
   6  -5  -6    3.50    0.90
  -6   5   6    3.00    1.00
   5  -5  -6   17.30    1.40
  -5   5   6   15.00    1.70
   4  -5  -6    3.60    0.80
  -4   5   6    4.30    1.00
   3  -5  -6   13.90    1.10
  -3   5   6   11.90    1.40
   2  -5  -6   32.50    1.50
   2  -5  -6   31.00    1.70
  -2   5   6   36.30    1.90
   1  -5  -6    9.80    0.80
   1  -5  -6    8.40    1.10
  -1   5   6    7.90    1.00
   0  -5  -6   30.30    1.10
   0  -5  -6   29.80    1.70
   0   5   6   30.90    1.60
  -1  -5  -6    1.80    0.60
  -1  -5  -6    2.50    0.40
   1   5   6    2.30    0.60
  -2  -5  -6   61.59    2.40
  -2  -5  -6   60.99    1.40
   2   5   6   56.09    2.00
  -3  -5  -6  110.69    2.10
  -3  -5  -6  108.09    3.40
   3   5   6  104.69    2.90
  -4  -5  -6    3.20    0.30
  -4  -5  -6    5.00    0.90
   4   5   6    3.60    0.60
  -5  -5  -6   29.20    0.80
  -5  -5  -6   29.70    1.70
   5   5   6   30.40    1.40
  -6  -5  -6   43.20    1.20
  -6  -5  -6   46.30    2.20
   6   5   6   43.40    1.80
  -7  -5  -6   19.40    1.50
  -7  -5  -6   22.80    0.90
   7   5   6   22.10    1.30
  -8  -5  -6   33.70    1.90
   8   5   6   31.10    1.70
   8   5   6   34.10    1.40
  -9  -5  -6   13.50    1.50
   9   5   6   13.90    1.40
   9   5   6   15.50    1.00
 -10  -5  -6    0.60    0.60
  10   5   6    0.50    0.50
  10   5   6    0.70    0.40
 -11  -5  -6    0.90    0.60
  11   5   6    0.20    0.50
  11   5   6    0.50    0.60
 -12  -5  -6    0.20    0.50
  12   5   6   -0.60    0.40
 -13  -5  -6    8.80    1.40
  13   5   6    9.20    1.30
 -14  -5  -6    3.10    1.00
  14   5   6    1.50    0.80
 -15  -5  -6    6.20    1.30
  15   5   6    4.10    1.50
  -7   6   6    0.00    0.80
  -6   6   6    0.10    0.70
  -5   6   6   13.80    1.80
   4  -6  -6   11.90    1.30
  -4   6   6   11.10    1.50
   3  -6  -6   27.30    1.50
  -3   6   6   29.30    1.90
   2  -6  -6   36.00    1.50
   2  -6  -6   29.90    1.80
  -2   6   6   32.40    1.90
   1  -6  -6    0.00    0.50
   1  -6  -6    0.30    0.30
  -1   6   6    0.50    0.50
   0  -6  -6   10.50    1.30
   0   6   6    9.60    1.10
  -1  -6  -6    4.10    0.80
   1   6   6    5.50    0.80
  -2  -6  -6    5.90    0.90
   2   6   6    8.10    0.90
  -3  -6  -6   22.70    1.60
   3   6   6   24.00    1.30
  -4  -6  -6    8.00    1.20
   4   6   6    8.20    0.90
  -5  -6  -6   16.80    1.50
   5   6   6   16.40    1.10
  -6  -6  -6   41.40    2.10
   6   6   6   31.20    1.50
  -7  -6  -6   11.60    1.30
   7   6   6   11.90    1.20
  -8  -6  -6    4.60    0.90
   8   6   6    4.80    0.80
  -9  -6  -6    1.10    0.70
   9   6   6    0.80    0.40
   9   6   6    2.90    0.80
 -10  -6  -6    0.30    0.50
  10   6   6    1.80    0.70
  10   6   6    0.60    0.40
 -11  -6  -6    1.30    0.70
  11   6   6    0.80    0.70
  11   6   6    2.70    0.60
  12   6   6   23.80    1.90
  12   6   6   23.90    2.20
 -13  -6  -6   56.59    2.90
 -14  -6  -6   -0.40    0.70
 -15  -6  -6    5.10    1.30
  -6   7   6   17.50    2.00
  -5   7   6    7.70    1.40
  -4   7   6    3.40    0.90
  -3   7   6   22.30    1.80
   2  -7  -6    0.60    0.70
  -2   7   6    0.20    0.50
   1  -7  -6    1.70    0.70
  -1   7   6    1.00    0.60
   0  -7  -6   43.30    2.30
   0   7   6   42.60    2.10
  -1  -7  -6   -0.20    0.50
   1   7   6    0.00    0.40
  -2  -7  -6   -0.50    0.40
   2   7   6    0.00    0.30
  -3  -7  -6    4.30    1.00
   3   7   6    4.80    0.80
  -4  -7  -6  334.67    7.90
   4   7   6  324.27    7.00
  -5  -7  -6   17.90    1.60
   5   7   6   19.20    1.20
  -6  -7  -6   24.10    1.70
   6   7   6   24.50    1.40
  -7  -7  -6   14.60    1.60
   7   7   6   14.30    1.10
  -8  -7  -6    1.00    0.60
   8   7   6    1.00    0.50
  -9  -7  -6    4.40    1.00
   9   7   6    3.70    0.90
 -10  -7  -6    5.40    1.10
  10   7   6    4.10    0.90
 -11  -7  -6    5.50    1.10
  11   7   6    7.20    1.20
  12   7   6   23.40    1.90
 -13  -7  -6   13.10    1.80
 -14  -7  -6    6.90    1.40
 -15  -7  -6    9.30    1.70
  -5   8   6    0.50    0.70
  -4   8   6    0.40    0.60
  -3   8   6    5.10    1.10
   2  -8  -6    3.10    1.00
  -2   8   6    1.20    0.70
   1  -8  -6    1.30    0.80
  -1   8   6    1.20    0.70
   0  -8  -6   10.60    1.40
   0   8   6   13.30    1.40
  -1  -8  -6    9.50    1.40
   1   8   6    7.50    1.00
  -2  -8  -6    0.50    0.60
   2   8   6    1.00    0.50
  -3  -8  -6   10.90    1.40
   3   8   6   15.30    1.10
  -4  -8  -6    5.20    1.00
   4   8   6    3.70    0.70
  -5  -8  -6   28.90    2.00
   5   8   6   29.70    1.60
  -6  -8  -6    3.70    1.00
   6   8   6    3.60    0.70
  -7  -8  -6    1.90    0.80
   7   8   6    0.00    0.40
  -8  -8  -6    2.10    0.80
   8   8   6    1.80    0.70
  -9  -8  -6   28.40    2.00
   9   8   6   29.60    1.80
 -10  -8  -6    0.90    0.70
  10   8   6    1.30    0.70
 -11  -8  -6   -1.10    0.50
  11   8   6    0.30    0.60
  12   8   6    0.70    0.70
  13   8   6   10.10    1.60
 -14  -8  -6   15.30    2.00
 -15  -8  -6    0.60    0.90
  -5   9   6    0.40    1.30
  -4   9   6   -0.30    0.60
  -3   9   6    0.50    0.70
   2  -9  -6   -0.90    1.10
  -2   9   6   -0.20    0.50
   1  -9  -6    5.20    1.20
  -1   9   6    1.60    0.70
   0  -9  -6    8.80    1.50
   0   9   6    8.50    1.20
  -1  -9  -6    0.00    0.70
   1   9   6   -0.30    0.40
  -2  -9  -6    6.50    1.20
   2   9   6    7.70    1.10
  -3  -9  -6   25.10    2.00
   3   9   6   25.80    1.60
  -4  -9  -6   55.19    2.90
   4   9   6   59.59    2.40
  -5  -9  -6    0.60    0.70
   5   9   6    1.20    0.50
  -6  -9  -6    1.40    0.80
   6   9   6    1.80    0.60
  -7  -9  -6    0.30    0.70
   7   9   6    0.60    0.50
  -8  -9  -6   10.20    1.60
   8   9   6   12.50    1.40
  -9  -9  -6   24.20    2.00
   9   9   6   26.60    1.80
 -10  -9  -6   27.10    2.10
  10   9   6   30.00    2.00
 -11  -9  -6   15.90    1.90
  11   9   6   17.40    1.90
  12   9   6    1.80    0.90
  13   9   6    4.30    1.20
 -14  -9  -6   15.30    2.10
  -4  10   6    0.60    1.30
  -3  10   6    2.40    0.90
  -2  10   6    2.70    0.90
   1 -10  -6    4.30    1.30
  -1  10   6    5.30    1.10
   0 -10  -6    3.70    1.10
   0  10   6    3.60    0.90
  -1 -10  -6   11.00    1.70
   1  10   6   11.00    1.40
  -2 -10  -6    2.40    1.00
   2  10   6    4.20    0.90
  -3 -10  -6    1.90    0.90
   3  10   6    2.90    0.70
  -4 -10  -6    1.50    0.90
   4  10   6    1.70    0.60
  -5 -10  -6    1.80    1.00
   5  10   6    0.50    0.50
  -6 -10  -6    2.40    1.00
   6  10   6    2.20    0.70
  -7 -10  -6    4.20    1.20
   7  10   6    5.60    1.00
  -8 -10  -6    9.60    1.60
   8  10   6    9.30    1.30
  -9 -10  -6    2.50    1.00
   9  10   6    2.70    0.90
 -10 -10  -6    7.00    1.40
  10  10   6    6.10    1.30
 -11 -10  -6    2.10    1.00
  11  10   6    4.10    1.10
 -12 -10  -6    0.10    1.10
  12  10   6    0.40    0.70
  13  10   6    5.30    1.30
  14  10   6   -0.30    0.80
  -2  11   6    0.30    0.70
   1 -11  -6    5.30    1.40
  -1  11   6    4.00    1.00
   0 -11  -6   -0.20    0.80
   0  11   6   -0.40    0.50
  -1 -11  -6   11.10    1.90
   1  11   6   11.10    1.40
  -2 -11  -6    3.40    1.10
   2  11   6    6.20    1.10
  -3 -11  -6    7.20    1.60
   3  11   6    6.20    1.10
  -4 -11  -6    1.30    1.00
   4  11   6    0.50    0.60
  -5 -11  -6    4.10    1.20
   5  11   6    5.00    1.00
  -6 -11  -6    0.40    0.80
   6  11   6    0.30    0.50
  -7 -11  -6   17.80    2.20
   7  11   6   18.10    1.80
  -8 -11  -6   -0.70    0.70
   8  11   6    0.10    0.60
  -9 -11  -6   31.70    2.50
   9  11   6   37.70    2.30
 -10 -11  -6    2.70    1.10
  10  11   6    2.80    0.90
 -11 -11  -6    0.90    0.90
  11  11   6   -0.10    0.60
 -12 -11  -6    3.90    1.40
  12  11   6    5.00    1.30
  13  11   6   21.30    2.40
  -1  12   6   -0.30    0.60
   0 -12  -6   20.80    2.50
   0  12   6   17.60    1.90
  -1 -12  -6    1.80    1.10
   1  12   6    2.70    0.90
  -2 -12  -6   15.10    2.20
   2  12   6   13.00    1.60
  -3 -12  -6    4.20    1.40
   3  12   6    2.40    0.80
  -4 -12  -6   16.40    2.30
   4  12   6   12.10    1.50
  -5 -12  -6    3.10    1.30
   5  12   6    2.50    0.80
  -6 -12  -6    0.50    0.80
   6  12   6    0.30    0.50
  -7 -12  -6   11.40    1.90
   7  12   6   13.10    1.60
  -8 -12  -6    8.50    1.70
   8  12   6    9.90    1.40
  -9 -12  -6    5.50    1.40
   9  12   6    4.40    1.10
 -10 -12  -6    1.10    1.00
  10  12   6    1.10    0.80
 -11 -12  -6   10.60    1.90
  11  12   6   16.00    2.10
 -12 -12  -6   -0.30    0.90
  12  12   6   -0.10    0.80
  13  12   6    1.80    1.00
   0 -13  -6    0.70    1.20
   0  13   6   -0.50    1.10
  -1 -13  -6   11.00    2.00
   1  13   6   13.40    1.70
  -2 -13  -6    0.10    0.90
   2  13   6    1.50    0.80
  -3 -13  -6   11.00    2.00
   3  13   6   14.70    1.70
  -4 -13  -6   17.40    2.50
   4  13   6   17.30    1.80
  -5 -13  -6    2.10    1.30
   5  13   6    1.20    0.70
  -6 -13  -6    2.70    1.40
   6  13   6    1.00    0.70
  -7 -13  -6    1.10    1.10
   7  13   6   -0.50    0.40
  -8 -13  -6    0.10    1.00
   8  13   6   -0.10    0.60
  -9 -13  -6    8.60    1.90
   9  13   6   10.50    1.60
 -10 -13  -6   12.80    2.20
  10  13   6   12.80    1.80
 -11 -13  -6    4.90    1.50
  11  13   6    4.90    1.30
 -12 -13  -6   15.40    2.40
  12  13   6   14.20    2.00
  -3 -14  -6    8.10    2.00
   3  14   6    6.00    1.20
  -4 -14  -6    3.90    1.50
   4  14   6    6.10    1.20
  -5 -14  -6   -1.20    0.90
   5  14   6    1.30    0.80
  -6 -14  -6    5.10    1.70
   6  14   6    6.50    1.20
  -7 -14  -6    3.60    1.50
   7  14   6    6.50    1.30
  -8 -14  -6    0.00    1.00
   8  14   6    0.50    0.70
  -9 -14  -6    0.30    1.10
   9  14   6    0.30    0.60
 -10 -14  -6    0.50    1.10
  10  14   6    3.10    1.10
 -11 -14  -6   -0.30    1.00
  -5 -13   7    2.20    1.10
  -4 -13   7    3.30    1.30
  -3 -13   7    0.30    1.00
  -2 -13   7    0.80    1.20
  -1 -13   7    0.30    1.40
   7  12  -7   -0.50    0.80
   6  12  -7   -0.50    0.70
   5  12  -7    2.30    1.00
  -5 -12   7    3.80    1.30
   4  12  -7   -0.10    0.70
  -4 -12   7    0.40    1.00
   3  12  -7   -0.80    0.70
  -3 -12   7    1.00    1.00
   2  12  -7    0.10    0.70
  -2 -12   7   -0.70    0.90
   1  12  -7    4.50    1.10
  -1 -12   7    1.80    1.10
   0  12  -7    4.10    1.10
   0 -12   7    3.00    1.40
  -1  12  -7    2.10    0.80
   1 -12   7    1.20    1.20
  -2  12  -7   -0.40    0.60
   2 -12   7    1.90    1.30
   8  11  -7    0.70    0.90
   7  11  -7    8.90    1.50
   6  11  -7   -0.50    0.60
   5  11  -7    0.10    0.80
  -5 -11   7    0.00    0.80
   4  11  -7   -0.40    0.70
  -4 -11   7    1.10    0.90
   3  11  -7    2.00    0.90
  -3 -11   7    2.80    1.10
   2  11  -7   -0.10    0.70
  -2 -11   7   -0.60    0.80
   1  11  -7   10.90    1.40
  -1 -11   7   11.10    1.90
   0  11  -7    5.20    1.10
   0 -11   7    4.70    1.50
  -1  11  -7    0.80    0.70
   1 -11   7    0.80    1.00
  -2  11  -7    0.90    0.70
   2 -11   7    0.90    1.10
  -3  11  -7    7.60    1.20
   3 -11   7    6.20    1.60
  -4  11  -7   -0.20    0.60
   4 -11   7    0.30    1.00
   9  10  -7    1.00    0.80
   8  10  -7    0.10    0.70
   7  10  -7    0.00    0.70
   6  10  -7    4.20    1.10
   5  10  -7   15.60    1.70
  -5 -10   7   17.70    2.00
   4  10  -7   -0.60    0.60
  -4 -10   7    0.30    0.80
   3  10  -7    7.00    1.20
  -3 -10   7   10.20    1.60
   2  10  -7    8.60    1.20
  -2 -10   7    8.90    1.60
   1  10  -7    1.30    0.80
  -1 -10   7    0.50    1.00
   0  10  -7    0.80    0.70
   0 -10   7    0.80    0.90
  -1  10  -7    1.60    0.70
   1 -10   7    0.80    0.90
  -2  10  -7    1.60    0.70
   2 -10   7   -0.30    0.90
  -3  10  -7    2.60    0.80
   3 -10   7    0.90    1.00
  -4  10  -7   13.60    1.50
   4 -10   7   15.90    2.20
  -5  10  -7    1.20    0.70
   5 -10   7    0.70    1.10
  -6  10  -7    1.60    0.80
   6 -10   7    1.30    1.20
   9   9  -7   10.10    1.60
   8   9  -7    6.40    1.30
   7   9  -7    0.20    0.70
   6   9  -7   19.00    1.80
   5   9  -7    2.10    0.90
  -5  -9   7    0.10    0.70
   4   9  -7    2.90    0.90
  -4  -9   7    3.30    1.00
   3   9  -7   23.50    1.70
  -3  -9   7   25.70    2.10
   2   9  -7    0.90    0.70
  -2  -9   7   -1.20    0.60
   1   9  -7   12.80    1.40
  -1  -9   7   11.80    1.80
   0   9  -7    6.80    1.10
   0  -9   7    7.70    1.50
  -1   9  -7    7.90    1.10
   1  -9   7    8.00    1.60
  -2   9  -7   15.00    1.50
   2  -9   7   17.20    2.20
  -3   9  -7   13.00    1.50
   3  -9   7   15.70    2.10
  -4   9  -7    0.90    0.70
   4  -9   7    1.00    0.90
  -5   9  -7   10.60    1.40
   5  -9   7   10.70    1.90
  -6   9  -7    4.30    1.00
   6  -9   7    5.70    1.50
  -7   9  -7    0.80    0.60
   7  -9   7    0.40    1.00
  10   8  -7    4.50    1.30
 -10  -8   7    4.40    1.20
   9   8  -7    2.80    1.10
  -9  -8   7    3.20    1.00
   8   8  -7   -0.80    0.70
  -8  -8   7   -0.40    0.50
   7   8  -7    0.30    0.70
  -7  -8   7    0.30    0.80
   6   8  -7    3.40    1.00
   5   8  -7    0.20    0.60
   4   8  -7   21.90    1.70
  -4  -8   7   25.10    1.90
   3   8  -7    6.90    1.10
  -3  -8   7    6.10    1.20
   2   8  -7   23.20    1.60
  -2  -8   7   19.40    2.00
   1   8  -7    8.80    1.10
  -1  -8   7   10.40    1.50
   0   8  -7   13.40    1.40
   0  -8   7   13.30    1.80
  -1   8  -7    7.20    1.00
   1  -8   7    9.50    1.60
  -2   8  -7    3.00    0.70
   2  -8   7    3.00    1.10
  -3   8  -7    2.80    0.70
   3  -8   7    3.50    1.10
  -4   8  -7    0.30    0.50
   4  -8   7    0.10    0.80
  -5   8  -7    2.00    0.80
   5  -8   7    1.80    1.00
  -6   8  -7    0.20    0.50
   6  -8   7    0.90    1.00
  -7   8  -7   13.70    1.60
   7  -8   7   13.30    2.00
  -8   8  -7   -0.30    0.60
   8  -8   7   -0.30    0.80
  10   7  -7    0.90    0.90
 -10  -7   7    1.00    0.80
   9   7  -7    8.30    1.50
  -9  -7   7    5.80    1.20
   8   7  -7    6.50    1.20
  -8  -7   7    4.80    1.00
   7   7  -7    0.50    0.70
  -7  -7   7    0.40    0.50
   6   7  -7    5.40    1.10
  -6  -7   7    5.90    1.00
   5   7  -7    1.80    0.80
  -5  -7   7    0.60    0.40
   4   7  -7    0.60    0.60
  -4  -7   7    0.70    0.60
   3   7  -7   47.90    2.20
  -3  -7   7   47.90    2.50
   2   7  -7   28.70    1.70
  -2  -7   7   26.20    1.90
   1   7  -7   24.40    1.60
  -1  -7   7   24.40    1.80
   0   7  -7   -0.30    0.40
   0  -7   7    0.60    0.70
  -1   7  -7   33.10    1.80
   1  -7   7   30.90    2.10
  -2   7  -7   12.00    1.20
   2  -7   7   13.50    1.80
  -3   7  -7   10.90    1.20
   3  -7   7   10.10    1.50
  -4   7  -7    0.60    0.50
   4  -7   7   -0.10    0.60
  -5   7  -7    3.20    0.80
   5  -7   7    1.50    0.90
  -6   7  -7    5.90    1.10
   6  -7   7    4.80    1.30
  -7   7  -7   59.29    2.80
   7  -7   7   57.49    3.30
  -8   7  -7    4.60    1.10
  -9   7  -7    7.80    1.40
  10   6  -7    4.20    1.20
 -10  -6   7    5.20    1.20
   9   6  -7   15.20    1.90
  -9  -6   7   16.10    1.80
   8   6  -7    1.90    0.90
  -8  -6   7    1.50    0.70
   7   6  -7   -0.20    0.60
  -7  -6   7    1.10    0.60
   6   6  -7    4.00    1.00
  -6  -6   7    3.20    0.80
   5   6  -7    3.40    0.80
  -5  -6   7    4.30    0.80
   4   6  -7    4.40    0.90
  -4  -6   7    5.10    0.90
  -4  -6   7    5.80    0.80
   3   6  -7   13.30    1.30
  -3  -6   7   16.40    1.30
  -3  -6   7   15.70    1.40
   2   6  -7   10.40    1.20
  -2  -6   7    8.80    1.30
   1   6  -7   63.89    2.40
  -1  -6   7   62.89    2.80
   0   6  -7   -0.20    0.50
   0  -6   7    0.70    0.60
  -1   6  -7    1.40    0.60
   1  -6   7    2.40    0.90
  -2   6  -7   14.50    1.20
   2  -6   7   13.70    1.70
  -3   6  -7   14.80    1.20
   3  -6   7   14.70    1.70
  -4   6  -7    3.30    0.80
   4  -6   7    4.80    1.10
  -5   6  -7    8.20    1.00
   5  -6   7   10.30    1.60
  -6   6  -7   13.30    1.40
   6  -6   7   15.30    1.90
  -7   6  -7    8.60    1.30
   7  -6   7   10.20    1.60
  -8   6  -7   26.10    2.00
   8  -6   7   27.90    2.30
  -9   6  -7    5.40    1.10
   9  -6   7    5.00    1.30
 -10   6  -7    2.00    1.00
  10   5  -7    1.80    1.00
 -10  -5   7    2.70    1.10
   9   5  -7    0.80    0.80
  -9  -5   7    1.40    0.80
   8   5  -7    6.20    1.30
  -8  -5   7    4.10    1.00
   7   5  -7    5.50    1.10
  -7  -5   7    7.60    1.20
   6   5  -7    4.80    1.00
  -6  -5   7    5.70    1.00
   5   5  -7    9.60    1.20
  -5  -5   7    9.00    1.10
   4   5  -7   -0.20    0.50
  -4  -5   7    0.80    0.50
  -4  -5   7    0.70    0.40
   3   5  -7    3.20    0.80
  -3  -5   7    1.90    0.60
  -3  -5   7    1.60    0.50
   2   5  -7    1.50    0.60
  -2  -5   7    0.60    0.50
  -2  -5   7    1.60    0.40
   1   5  -7    4.70    0.80
  -1  -5   7    5.30    1.00
   0   5  -7    7.20    0.90
   0  -5   7    7.10    1.20
  -1   5  -7    7.00    0.90
   1  -5   7    6.10    1.10
  -2   5  -7    3.10    0.70
   2  -5   7    4.20    1.00
  -3   5  -7   17.30    1.20
   3  -5   7   17.80    1.60
  -4   5  -7    1.80    0.60
   4  -5   7    2.80    0.90
  -5   5  -7    1.70    0.60
   5  -5   7    2.30    0.90
  -6   5  -7    4.80    0.90
   6  -5   7    3.60    1.00
  -7   5  -7    1.80    0.60
   7  -5   7    0.10    0.60
  -8   5  -7    0.50    0.60
   8  -5   7   -0.70    0.60
  -9   5  -7    4.60    1.10
   9  -5   7    3.90    1.10
 -10   5  -7    1.10    0.80
  10   4  -7    4.60    1.20
 -10  -4   7    5.40    1.30
   9   4  -7    2.40    0.90
  -9  -4   7    0.80    0.70
   8   4  -7    0.50    0.70
  -8  -4   7    0.20    0.50
   7   4  -7    0.90    0.70
  -7  -4   7    0.40    0.60
   6   4  -7   12.40    1.40
  -6  -4   7   11.90    1.30
   5   4  -7    5.90    1.00
  -5  -4   7    4.40    0.80
   4   4  -7   10.50    1.20
  -4  -4   7    8.60    1.00
  -4  -4   7    9.00    1.00
   3   4  -7   -0.30    0.40
  -3  -4   7    0.30    0.30
  -3  -4   7    0.10    0.40
   2   4  -7   -0.20    0.40
  -2  -4   7    0.50    0.30
  -2  -4   7    0.00    0.40
   1   4  -7   31.50    1.60
  -1  -4   7   31.50    1.80
  -1  -4   7   30.50    1.10
   0   4  -7   92.59    2.80
   0  -4   7   87.39    3.20
  -1   4  -7   36.80    1.70
   1  -4   7   37.80    2.10
  -2   4  -7    0.60    0.50
   2  -4   7   -0.30    0.50
  -3   4  -7    2.50    0.60
   3  -4   7    1.70    0.80
  -4   4  -7   24.10    1.40
   4  -4   7   28.80    2.00
  -5   4  -7   35.60    1.80
   5  -4   7   32.20    2.10
  -6   4  -7    6.90    1.00
   6  -4   7    5.10    1.10
  -7   4  -7   -0.50    0.40
   7  -4   7    0.40    0.70
  -8   4  -7   28.20    1.90
   8  -4   7   30.00    2.20
  -9   4  -7    1.70    0.80
   9  -4   7   -0.20    0.60
 -10   4  -7    1.40    0.80
 -11   4  -7    2.00    0.90
  10   3  -7   -0.70    0.70
 -10  -3   7    1.00    0.90
   9   3  -7    0.30    0.80
  -9  -3   7    0.50    0.70
   8   3  -7   18.10    1.90
  -8  -3   7   15.90    1.80
   7   3  -7   -0.40    0.60
  -7  -3   7    0.00    0.50
   6   3  -7    0.80    0.70
  -6  -3   7    1.00    0.60
   5   3  -7    4.20    0.80
  -5  -3   7    5.90    1.00
   4   3  -7    9.80    1.20
  -4  -3   7    8.10    1.00
   3   3  -7    2.90    0.70
  -3  -3   7    2.40    0.60
  -3  -3   7    3.50    0.70
   2   3  -7    4.00    0.80
  -2  -3   7    5.30    0.80
  -2  -3   7    5.40    0.70
   1   3  -7    1.50    0.60
  -1  -3   7    1.50    0.60
  -1  -3   7    2.10    0.40
   0   3  -7   30.50    1.50
   0  -3   7   30.80    1.70
   0  -3   7   32.50    1.00
  -1   3  -7   12.50    1.00
   1  -3   7   10.50    1.20
  -2   3  -7   17.10    1.10
   2  -3   7   18.60    1.50
  -3   3  -7    2.40    0.60
   3  -3   7    3.50    0.80
  -4   3  -7    8.00    0.90
   4  -3   7    9.20    1.20
  -5   3  -7   32.10    1.60
   5  -3   7   33.20    2.10
  -6   3  -7    8.50    1.00
   6  -3   7   10.90    1.40
  -7   3  -7    1.50    0.60
   7  -3   7    0.30    0.60
  -8   3  -7    3.20    0.80
   8  -3   7    2.50    0.80
  -9   3  -7    0.60    0.60
   9  -3   7    0.70    0.70
 -10   3  -7    0.70    0.70
  10  -3   7    3.70    1.10
 -11   3  -7    1.60    0.80
 -12   3  -7    4.10    1.20
  10   2  -7   -0.10    0.80
 -10  -2   7    0.10    0.70
   9   2  -7    0.90    0.80
  -9  -2   7    0.80    0.80
   8   2  -7    1.30    0.80
  -8  -2   7    1.90    0.90
   7   2  -7    0.80    0.70
  -7  -2   7    1.10    0.70
   6   2  -7    1.40    0.70
  -6  -2   7    0.60    0.60
   5   2  -7    3.50    0.80
  -5  -2   7    3.30    0.80
   4   2  -7    1.70    0.60
  -4  -2   7    0.30    0.40
   3   2  -7    1.20    0.60
  -3  -2   7    2.70    0.60
  -3  -2   7    2.30    0.50
   2   2  -7   41.40    1.80
  -2  -2   7   41.40    1.80
  -2  -2   7   41.60    1.60
   1   2  -7   30.40    1.50
  -1  -2   7   31.40    1.20
  -1  -2   7   32.10    1.60
   0   2  -7   15.50    1.10
   0  -2   7   17.20    0.80
   0  -2   7   19.00    1.30
  -1   2  -7   24.20    1.20
   1  -2   7   26.40    0.80
   1  -2   7   26.40    1.60
  -2   2  -7   15.40    1.00
   2  -2   7   16.90    1.40
  -3   2  -7    7.60    0.80
   3  -2   7    7.90    1.10
  -4   2  -7   20.90    1.20
   4  -2   7   22.30    1.60
  -5   2  -7   24.60    1.30
   5  -2   7   26.50    1.80
  -6   2  -7    4.60    0.80
   6  -2   7    4.80    1.00
  -7   2  -7    8.20    1.10
   7  -2   7   11.60    1.50
  -8   2  -7    4.70    0.90
   8  -2   7    8.40    1.30
  -9   2  -7    0.90    0.60
   9  -2   7    0.70    0.60
 -10   2  -7    0.40    0.60
  10  -2   7    1.40    0.80
 -11   2  -7   17.60    1.90
 -12   2  -7    7.20    1.40
  10   1  -7    2.90    1.10
 -10  -1   7    1.30    1.00
   9   1  -7   -0.20    0.70
  -9  -1   7    0.00    0.60
   8   1  -7    3.90    1.00
  -8  -1   7    3.20    1.00
   7   1  -7    0.40    0.70
  -7  -1   7   -0.10    0.60
   6   1  -7    0.50    0.60
  -6  -1   7    0.90    0.70
   5   1  -7    2.90    0.80
  -5  -1   7    2.10    0.70
   4   1  -7    0.90    0.60
  -4  -1   7    1.40    0.60
   3   1  -7   82.09    2.70
  -3  -1   7   79.79    2.60
  -3  -1   7   77.19    2.40
   2   1  -7  217.18    5.00
  -2  -1   7  221.68    5.00
  -2  -1   7  220.88    5.00
   1   1  -7    2.80    0.60
  -1  -1   7    2.30    0.50
  -1  -1   7    2.00    0.60
   0   1  -7    1.20    0.50
   0  -1   7    1.00    0.30
   0  -1   7    0.80    0.50
  -1   1  -7    4.70    0.70
   1  -1   7    3.20    0.60
   1  -1   7    5.10    0.40
  -2   1  -7    8.30    0.80
   2  -1   7    9.50    1.10
   2  -1   7   10.00    0.50
  -3   1  -7    7.90    0.80
   3  -1   7    7.50    0.40
   3  -1   7    7.20    0.90
  -4   1  -7   15.90    1.00
   4  -1   7   15.40    0.50
   4  -1   7   15.10    1.30
  -5   1  -7  183.08    4.30
   5  -1   7  189.08    5.10
  -6   1  -7   80.79    2.60
   6  -1   7   76.59    3.00
  -7   1  -7   -0.60    0.30
   7  -1   7    0.10    0.50
  -8   1  -7    1.80    0.60
   8  -1   7    0.10    0.50
  -9   1  -7   -0.10    0.50
   9  -1   7    0.10    0.50
 -10   1  -7    1.70    0.60
  10  -1   7    1.40    0.80
 -11   1  -7    0.80    0.60
 -12   1  -7    0.10    0.70
 -13   1  -7   10.30    1.60
   9   0  -7    1.00    0.90
  -9   0   7   -0.10    0.80
   8   0  -7    3.70    1.00
  -8   0   7    1.70    0.90
   7   0  -7   -1.00    0.50
  -7   0   7   -0.10    0.50
   6   0  -7    0.60    0.60
  -6   0   7    0.20    0.50
   5   0  -7   22.20    1.60
  -5   0   7   25.20    1.70
   4   0  -7    1.80    0.70
  -4   0   7    2.50    0.70
   3   0  -7    8.20    0.90
  -3   0   7   12.90    1.10
   2   0  -7    5.10    0.70
  -2   0   7    5.80    0.80
  -2   0   7    6.60    0.80
   1   0  -7    5.50    0.80
  -1   0   7    4.80    0.70
  -1   0   7    5.00    0.70
   0   0  -7    1.50    0.50
   0   0   7    2.30    0.40
   0   0   7    2.60    0.60
  -1   0  -7   13.90    0.90
   1   0   7   12.50    0.70
   1   0   7   12.10    1.00
  -2   0  -7   10.50    0.80
   2   0   7   14.30    1.20
   2   0   7   12.40    0.60
  -3   0  -7    2.80    0.50
   3   0   7    3.50    0.40
   3   0   7    2.70    0.70
  -4   0  -7  152.88    3.60
   4   0   7  150.58    4.30
   4   0   7  151.18    3.10
  -5   0  -7    7.40    0.80
   5   0   7    7.80    0.50
   5   0   7    8.70    1.10
  -6   0  -7   17.80    1.10
   6   0   7   19.10    0.90
   6   0   7   16.80    1.40
  -7   0  -7   -0.30    0.30
  -7   0  -7    1.20    0.40
   7   0   7    0.60    0.60
  -8   0  -7    0.90    0.50
   8   0   7    1.70    0.70
  -9   0  -7   54.19    2.30
   9   0   7   51.69    2.50
 -10   0  -7    0.50    0.50
  10   0   7    1.00    0.70
  11   0   7    0.10    0.60
  12   0   7   18.60    2.00
   9  -1  -7   -0.30    0.70
  -9   1   7   -0.20    0.80
   8  -1  -7    1.30    0.80
  -8   1   7   -0.40    0.70
   7  -1  -7   -0.50    0.60
  -7   1   7    0.60    0.70
   6  -1  -7    1.90    0.70
  -6   1   7    0.70    0.70
   5  -1  -7    8.70    1.20
  -5   1   7    8.60    1.20
   4  -1  -7   19.10    1.40
  -4   1   7   20.10    1.50
   3  -1  -7   -0.40    0.30
   3  -1  -7   -0.30    0.40
  -3   1   7    0.60    0.50
   2  -1  -7   12.90    1.00
   2  -1  -7   11.20    1.00
  -2   1   7   12.80    1.10
   1  -1  -7   34.60    1.50
  -1   1   7   36.30    1.60
  -1   1   7   32.20    1.50
   0  -1  -7   33.30    1.40
   0   1   7   29.10    1.30
   0   1   7   31.70    1.60
  -1  -1  -7    3.10    0.50
   1   1   7    2.80    0.50
   1   1   7    2.20    0.50
  -2  -1  -7   14.90    0.90
   2   1   7   12.70    0.70
   2   1   7   12.90    1.10
  -3  -1  -7    1.80    0.40
   3   1   7   -0.10    0.20
   3   1   7   -0.20    0.30
  -4  -1  -7   34.80    1.30
   4   1   7   35.50    1.20
   4   1   7   39.10    1.90
  -5  -1  -7    6.40    0.70
   5   1   7    7.00    0.60
   5   1   7    5.40    0.90
  -6  -1  -7  107.59    2.90
   6   1   7  109.59    2.70
   6   1   7  111.49    3.60
  -7  -1  -7    8.40    0.90
   7   1   7    9.30    1.20
   7   1   7    7.20    0.70
  -8  -1  -7   13.60    1.10
  -8  -1  -7   16.00    1.00
   8   1   7   15.60    1.40
  -9  -1  -7    2.90    0.60
  -9  -1  -7    3.30    0.70
   9   1   7    1.60    0.60
  10   1   7    4.70    0.90
  10   1   7    5.70    1.10
  11   1   7    0.70    1.00
  11   1   7   -0.60    0.60
  12   1   7    5.30    1.20
  13   1   7    6.50    1.40
  14   1   7   -0.10    1.00
   9  -2  -7    0.30    0.90
  -9   2   7    0.60    1.50
   8  -2  -7    3.10    1.00
  -8   2   7    2.50    1.00
   7  -2  -7    0.20    0.60
  -7   2   7   -0.10    0.70
   6  -2  -7    0.60    0.70
  -6   2   7    0.50    0.70
   5  -2  -7    3.00    0.80
  -5   2   7    2.10    0.80
   4  -2  -7    0.50    0.50
  -4   2   7    2.30    0.70
   3  -2  -7   32.70    1.70
  -3   2   7   34.80    1.90
   2  -2  -7   -0.20    0.40
   2  -2  -7    0.60    0.40
  -2   2   7   -0.20    0.30
   1  -2  -7    4.10    0.60
   1  -2  -7    4.30    0.70
  -1   2   7    3.10    0.70
   0  -2  -7    3.20    0.50
   0   2   7    2.60    0.60
   0   2   7    2.70    0.50
  -1  -2  -7   55.79    1.70
   1   2   7   58.09    1.90
   1   2   7   53.69    2.10
  -2  -2  -7   71.89    1.90
   2   2   7   69.89    2.50
   2   2   7   74.79    2.10
  -3  -2  -7    9.30    0.70
   3   2   7    7.60    0.90
   3   2   7    9.40    0.60
  -4  -2  -7   28.70    1.10
   4   2   7   25.80    1.60
   4   2   7   27.60    1.10
  -5  -2  -7   10.40    0.70
   5   2   7    8.80    0.70
   5   2   7    6.70    1.00
  -6  -2  -7    6.90    0.70
   6   2   7    6.20    0.70
   6   2   7    6.30    1.00
  -7  -2  -7    2.40    0.50
   7   2   7    2.40    0.70
   7   2   7    2.90    0.50
  -8  -2  -7   10.10    1.00
   8   2   7    9.50    0.90
   8   2   7    8.30    1.20
  -9  -2  -7   -0.10    0.30
   9   2   7    0.30    0.50
 -10  -2  -7   11.00    1.20
  10   2   7   14.00    1.50
  10   2   7   13.50    1.40
 -11  -2  -7   11.50    1.30
  11   2   7   12.90    1.50
  11   2   7   11.30    1.40
  12   2   7    6.00    1.20
  13   2   7    1.70    0.90
  14   2   7   -0.80    0.70
   8  -3  -7    0.50    0.80
  -8   3   7    0.70    0.80
   7  -3  -7    1.10    0.80
  -7   3   7    0.70    0.70
   6  -3  -7    1.90    0.80
  -6   3   7    1.00    0.80
   5  -3  -7    0.50    0.60
  -5   3   7    0.70    0.60
   4  -3  -7    2.10    0.60
  -4   3   7    3.70    0.90
   3  -3  -7    7.60    1.00
  -3   3   7    7.50    1.10
   2  -3  -7    7.60    0.90
   2  -3  -7    8.40    0.90
  -2   3   7    7.90    1.10
   1  -3  -7    0.50    0.40
   1  -3  -7    1.10    0.50
  -1   3   7    0.60    0.50
   0  -3  -7    6.90    0.90
   0  -3  -7    6.40    0.70
   0   3   7    6.40    0.80
  -1  -3  -7    3.40    0.50
  -1  -3  -7    2.60    0.70
   1   3   7    4.00    0.60
  -2  -3  -7    4.80    0.50
   2   3   7    6.10    0.90
   2   3   7    4.20    0.60
  -3  -3  -7   19.80    0.90
   3   3   7   20.00    1.00
   3   3   7   19.90    1.40
  -4  -3  -7    9.00    0.60
   4   3   7    9.40    1.10
   4   3   7   10.20    0.70
  -5  -3  -7    0.20    0.20
   5   3   7    0.50    0.50
   5   3   7   -0.30    0.20
  -6  -3  -7  117.59    2.80
   6   3   7  111.19    3.70
   6   3   7  114.29    3.00
  -7  -3  -7    4.90    0.60
   7   3   7    4.60    0.90
   7   3   7    7.20    0.80
  -8  -3  -7   25.50    1.30
   8   3   7   26.80    1.40
   8   3   7   26.20    1.70
   9   3   7   -0.30    0.40
   9   3   7   -0.10    0.50
  10   3   7    2.20    0.70
  10   3   7    2.90    0.70
 -11  -3  -7   17.80    1.40
  11   3   7   19.00    1.60
  11   3   7   16.70    1.60
 -12  -3  -7    3.90    0.90
  12   3   7    4.20    0.90
  13   3   7    4.50    1.10
  14   3   7   -0.50    0.70
   8  -4  -7    5.50    1.30
   7  -4  -7    0.90    0.80
  -7   4   7    0.30    0.80
   6  -4  -7    2.60    0.90
  -6   4   7    1.50    0.90
   5  -4  -7   12.40    1.40
  -5   4   7    9.90    1.50
   4  -4  -7    5.90    0.90
  -4   4   7    5.00    1.00
   3  -4  -7    3.70    0.80
  -3   4   7    2.70    0.80
   2  -4  -7    1.00    0.50
   2  -4  -7    1.00    0.50
  -2   4   7    2.00    0.70
   1  -4  -7   17.70    1.30
   1  -4  -7   18.50    1.10
  -1   4   7   18.20    1.40
   0  -4  -7   24.40    1.10
   0  -4  -7   25.00    1.50
   0   4   7   24.80    1.40
  -1  -4  -7   43.30    1.40
  -1  -4  -7   44.40    2.00
   1   4   7   41.20    1.80
  -2  -4  -7    8.70    0.60
  -2  -4  -7    8.30    1.10
   2   4   7    7.80    0.80
  -3  -4  -7    0.10    0.30
  -3  -4  -7    0.70    0.50
   3   4   7   -0.20    0.20
  -4  -4  -7   32.50    1.00
   4   4   7   31.20    1.80
   4   4   7   32.70    1.40
  -5  -4  -7    2.20    0.40
   5   4   7    1.90    0.50
  -6  -4  -7    2.80    0.40
   6   4   7    1.60    0.50
   6   4   7    3.20    0.80
  -7  -4  -7   55.09    1.70
   7   4   7   57.69    2.50
   7   4   7   54.99    2.00
  -8  -4  -7   36.80    1.40
   8   4   7   34.90    1.70
   8   4   7   35.80    2.00
  -9  -4  -7    5.00    0.70
   9   4   7    2.70    0.80
   9   4   7    5.50    0.80
  10   4   7    2.40    0.60
  10   4   7    3.10    0.80
  10   4   7    1.70    0.60
 -11  -4  -7   13.90    1.40
 -11  -4  -7   13.20    1.60
  11   4   7   12.30    1.30
 -12  -4  -7    2.20    0.80
  12   4   7    0.70    0.60
 -13  -4  -7    5.50    1.10
  13   4   7    4.40    1.10
  14   4   7   -0.30    0.70
  15   4   7   -0.10    0.90
  -7   5   7    0.00    0.80
   6  -5  -7    3.00    0.90
  -6   5   7    2.10    0.90
   5  -5  -7    0.30    0.60
  -5   5   7    0.40    0.70
   4  -5  -7    3.20    0.80
  -4   5   7    3.40    0.90
   3  -5  -7    1.00    0.60
  -3   5   7    1.00    0.60
   2  -5  -7    2.50    0.70
   2  -5  -7    1.30    0.50
  -2   5   7    1.70    0.60
   1  -5  -7    5.00    0.70
   1  -5  -7    3.80    0.80
  -1   5   7    4.60    0.80
   0  -5  -7   16.70    0.90
   0  -5  -7   17.60    1.40
   0   5   7   18.00    1.30
  -1  -5  -7   10.20    1.20
  -1  -5  -7    8.80    0.70
   1   5   7   10.60    1.10
  -2  -5  -7    3.10    0.40
  -2  -5  -7    1.90    0.70
   2   5   7    3.10    0.60
  -3  -5  -7    9.80    1.20
  -3  -5  -7   13.90    0.80
   3   5   7   11.20    0.90
  -4  -5  -7    3.80    0.80
   4   5   7    5.70    0.80
  -5  -5  -7    0.20    0.60
  -5  -5  -7    0.60    0.30
   5   5   7    0.70    0.40
  -6  -5  -7    1.00    0.30
  -6  -5  -7    1.00    0.60
   6   5   7    0.50    0.40
  -7  -5  -7    4.30    0.50
  -7  -5  -7    4.20    1.00
   7   5   7    2.80    0.60
  -8  -5  -7    5.30    1.10
  -8  -5  -7    4.00    0.50
   8   5   7    3.50    0.70
  -9  -5  -7    7.60    1.20
  -9  -5  -7    8.80    0.80
   9   5   7    7.70    1.10
 -10  -5  -7   11.30    1.50
  10   5   7   11.50    1.30
  10   5   7    8.80    1.00
 -11  -5  -7    0.00    0.60
  11   5   7    0.40    0.60
  11   5   7    0.70    0.60
 -12  -5  -7    1.50    0.70
  12   5   7    1.70    0.70
 -13  -5  -7    3.40    1.00
  13   5   7    2.00    0.90
 -14  -5  -7    0.00    0.70
  -6   6   7    5.30    1.30
  -5   6   7   14.00    1.80
  -4   6   7    3.30    1.00
  -3   6   7   -0.60    0.50
   2  -6  -7   10.40    1.30
  -2   6   7   12.20    1.40
   1  -6  -7    1.70    0.70
  -1   6   7    1.90    0.70
   0  -6  -7    0.20    0.50
   0   6   7    0.70    0.50
  -1  -6  -7    1.50    0.60
   1   6   7    1.40    0.50
  -2  -6  -7    8.80    1.20
   2   6   7    7.60    0.90
  -3  -6  -7   21.60    1.60
   3   6   7   20.80    1.30
  -4  -6  -7   79.09    3.10
   4   6   7   80.59    2.60
  -5  -6  -7  166.18    4.90
   5   6   7  169.58    4.20
  -6  -6  -7    1.30    0.70
   6   6   7    1.00    0.50
  -7  -6  -7    2.00    0.80
   7   6   7    0.50    0.40
  -8  -6  -7    3.10    0.90
   8   6   7    2.90    0.70
  -9  -6  -7   11.70    1.50
   9   6   7   13.90    1.40
 -10  -6  -7    2.30    0.90
  10   6   7    1.60    0.60
 -11  -6  -7    6.60    1.20
  11   6   7    4.90    1.00
  12   6   7   53.69    2.70
 -13  -6  -7   36.80    2.30
 -14  -6  -7    5.90    1.30
 -15  -6  -7    0.30    0.80
  -6   7   7   -0.20    1.10
  -5   7   7    0.00    0.60
  -4   7   7    2.40    0.90
  -3   7   7    5.20    1.10
   2  -7  -7   15.70    2.50
  -2   7   7   16.70    1.80
   1  -7  -7   13.20    1.60
  -1   7   7   14.70    1.60
   0  -7  -7    6.10    1.20
   0   7   7    5.00    0.90
  -1  -7  -7    4.70    1.00
   1   7   7    4.30    0.80
  -2  -7  -7    2.20    0.80
   2   7   7    3.40    0.70
  -3  -7  -7    6.90    1.20
   3   7   7    6.60    0.90
  -4  -7  -7   58.19    2.80
   4   7   7   54.79    2.20
  -5  -7  -7   61.89    2.90
   5   7   7   64.69    2.40
  -6  -7  -7   11.60    1.50
   6   7   7   12.40    1.10
  -7  -7  -7    0.80    0.70
   7   7   7    1.70    0.60
  -8  -7  -7    9.40    1.40
   8   7   7   12.30    1.30
  -9  -7  -7    2.60    1.00
   9   7   7    2.00    0.70
 -10  -7  -7    5.00    1.10
  10   7   7    4.00    0.90
 -11  -7  -7   13.40    1.60
  11   7   7   11.20    1.40
 -12  -7  -7    8.90    1.60
  12   7   7    7.00    1.30
  13   7   7   19.20    2.00
 -14  -7  -7    0.30    0.80
 -15  -7  -7    5.00    1.30
  -5   8   7    1.50    0.90
  -4   8   7    0.50    0.70
  -3   8   7    8.60    1.50
  -2   8   7   -0.10    0.60
   1  -8  -7    0.80    0.70
  -1   8   7   -0.60    0.50
   0  -8  -7    2.60    0.90
   0   8   7    3.30    0.90
  -1  -8  -7   16.00    1.80
   1   8   7   21.10    1.50
  -2  -8  -7    2.10    0.90
   2   8   7    2.20    0.60
  -3  -8  -7    7.30    1.30
   3   8   7    6.70    0.90
  -4  -8  -7    0.10    0.60
   4   8   7    0.00    0.40
  -5  -8  -7    0.70    0.60
   5   8   7    0.60    0.40
  -6  -8  -7   12.60    1.50
   6   8   7   18.60    1.30
  -7  -8  -7    8.80    1.40
   7   8   7   10.10    1.20
  -8  -8  -7   -0.30    0.60
   8   8   7   -0.40    0.40
  -9  -8  -7    8.00    1.30
   9   8   7   10.60    1.40
 -10  -8  -7    0.90    0.80
  10   8   7    0.50    0.50
 -11  -8  -7    0.70    0.80
  11   8   7    0.20    0.70
 -12  -8  -7    6.70    1.40
  12   8   7    6.60    1.30
  13   8   7   25.60    2.10
 -14  -8  -7    2.40    1.00
 -15  -8  -7   -0.80    0.80
  -4   9   7    1.10    0.90
  -3   9   7   -0.30    0.60
  -2   9   7    1.40    0.80
   1  -9  -7    5.00    1.20
  -1   9   7    3.00    0.90
   0  -9  -7   18.00    2.10
   0   9   7   19.50    1.60
  -1  -9  -7    9.30    1.50
   1   9   7   10.20    1.30
  -2  -9  -7    0.90    0.80
   2   9   7    0.40    0.50
  -3  -9  -7    2.60    0.90
   3   9   7    2.40    0.70
  -4  -9  -7    0.80    0.70
   4   9   7    3.10    0.80
  -5  -9  -7   -0.50    0.50
   5   9   7    0.70    0.50
  -6  -9  -7    6.80    1.30
   6   9   7    6.70    1.00
  -7  -9  -7   -0.40    0.70
   7   9   7    0.40    0.50
  -8  -9  -7    0.50    0.80
   8   9   7    0.60    0.60
  -9  -9  -7   12.50    1.70
   9   9   7   15.50    1.70
 -10  -9  -7    2.30    1.00
  10   9   7    2.30    0.80
 -11  -9  -7    3.00    1.10
  11   9   7    2.30    0.90
 -12  -9  -7    2.20    1.00
  12   9   7    3.60    1.10
  13   9   7   -0.60    0.60
  14   9   7    1.60    0.90
  -3  10   7    2.90    1.10
  -2  10   7    8.00    1.40
   1 -10  -7    1.80    1.00
  -1  10   7    1.70    0.80
   0 -10  -7    2.90    1.10
   0  10   7    1.90    0.80
  -1 -10  -7    0.00    0.80
   1  10   7    0.20    0.50
  -2 -10  -7    3.70    1.10
   2  10   7    3.70    0.90
  -3 -10  -7    3.20    1.10
   3  10   7    3.90    0.90
  -4 -10  -7    2.00    1.00
   4  10   7    0.80    0.50
  -5 -10  -7    1.90    1.00
   5  10   7    2.70    0.80
  -6 -10  -7   -0.30    0.60
   6  10   7    0.50    0.50
  -7 -10  -7   10.30    1.70
   7  10   7    9.90    1.30
  -8 -10  -7    3.50    1.20
   8  10   7    2.50    0.80
  -9 -10  -7   -0.10    0.80
   9  10   7    2.20    0.80
 -10 -10  -7    0.70    0.90
  10  10   7   -0.20    0.60
 -11 -10  -7    2.50    1.00
  11  10   7   -0.40    0.60
 -12 -10  -7    2.30    1.20
  12  10   7    1.30    0.90
  13  10   7    6.20    1.40
  14  10   7    3.30    1.20
  -2  11   7    0.80    0.90
  -1  11   7    1.80    0.80
   0 -11  -7   -0.80    0.70
   0  11   7    0.10    0.60
  -1 -11  -7    0.20    0.90
   1  11   7    0.80    0.60
  -2 -11  -7    8.60    1.70
   2  11   7   10.50    1.40
  -3 -11  -7    1.20    0.90
   3  11   7    1.10    0.60
  -4 -11  -7    1.30    0.90
   4  11   7    3.40    0.90
  -5 -11  -7    4.80    1.30
   5  11   7    7.80    1.20
  -6 -11  -7    2.20    1.00
   6  11   7    2.30    0.70
  -7 -11  -7    4.30    1.30
   7  11   7    7.60    1.20
  -8 -11  -7   49.50    3.10
   8  11   7   41.60    2.40
  -9 -11  -7    1.50    1.10
   9  11   7    1.70    0.80
 -10 -11  -7   10.00    1.90
  10  11   7    5.10    1.10
 -11 -11  -7    2.10    1.20
  11  11   7    0.60    0.80
 -12 -11  -7    0.00    0.90
  12  11   7    0.10    0.80
  13  11   7   -0.80    0.70
   0 -12  -7    1.40    1.10
   0  12   7    0.50    0.70
  -1 -12  -7    0.80    1.10
   1  12   7    1.20    0.80
  -2 -12  -7    1.10    1.10
   2  12   7    2.80    1.00
  -3 -12  -7   -0.40    0.90
   3  12   7   -0.50    0.40
  -4 -12  -7    5.70    1.50
   4  12   7    7.90    1.30
  -5 -12  -7    1.10    1.00
   5  12   7    3.60    1.00
  -6 -12  -7    1.10    1.00
   6  12   7    0.80    0.60
  -7 -12  -7   12.70    2.10
   7  12   7   11.80    1.50
  -8 -12  -7   -1.30    0.60
   8  12   7    0.10    0.60
  -9 -12  -7    9.80    1.90
   9  12   7   11.10    1.50
 -10 -12  -7    3.50    1.30
  10  12   7    4.80    1.20
 -11 -12  -7    3.50    1.30
  11  12   7    3.40    1.10
 -12 -12  -7    0.20    1.00
  12  12   7   -0.40    0.70
  13  12   7    2.40    1.60
  -1 -13  -7   -0.80    1.00
  -2 -13  -7   22.80    2.80
   2  13   7   17.10    2.00
  -3 -13  -7   -1.70    0.70
   3  13   7    0.80    0.70
  -4 -13  -7    4.10    1.40
   4  13   7    8.50    1.40
  -5 -13  -7   -0.10    0.90
   5  13   7    0.70    0.70
  -6 -13  -7   -1.20    0.80
   6  13   7    0.70    0.70
  -7 -13  -7    0.00    1.00
   7  13   7    1.50    0.80
  -8 -13  -7   15.40    2.40
   8  13   7   12.30    1.70
  -9 -13  -7   12.30    2.20
   9  13   7   10.40    1.60
 -10 -13  -7   11.10    2.10
  10  13   7    9.60    1.60
 -11 -13  -7   37.00    3.10
  11  13   7   36.40    2.60
 -12 -13  -7   13.10    2.30
  -4 -14  -7    0.50    1.30
   4  14   7    2.40    0.90
  -5 -14  -7   14.60    2.40
   5  14   7   12.10    1.70
  -6 -14  -7    5.30    1.60
   6  14   7    3.80    1.10
  -7 -14  -7    0.70    1.10
   7  14   7    0.30    0.60
  -8 -14  -7   -0.70    0.90
   8  14   7   -0.40    0.60
  -9 -14  -7   -0.20    1.00
   9  14   7    0.00    0.70
 -10 -14  -7   17.20    2.70
  10  14   7   14.10    2.70
   5  12  -8    1.60    1.00
   4  12  -8    4.60    1.20
  -4 -12   8    2.20    1.20
   3  12  -8   -0.60    0.80
  -3 -12   8   -0.30    0.90
   2  12  -8    3.70    1.10
  -2 -12   8    3.10    1.40
   1  12  -8    1.40    0.90
  -1 -12   8    1.00    1.00
   0  12  -8    1.60    0.90
   0 -12   8    2.80    1.30
  -1  12  -8    1.30    0.80
   1 -12   8   -1.00    1.50
   7  11  -8   -0.50    0.80
   6  11  -8   -0.30    0.80
   5  11  -8    5.60    1.30
   4  11  -8    7.20    1.30
  -4 -11   8    7.00    1.60
   3  11  -8    0.20    0.80
  -3 -11   8    0.10    0.80
   2  11  -8    1.90    0.90
  -2 -11   8    2.40    1.10
   1  11  -8    1.30    0.90
  -1 -11   8    3.50    1.30
   0  11  -8    2.70    1.00
   0 -11   8    1.30    1.10
  -1  11  -8    4.70    1.00
   1 -11   8    2.90    1.30
  -2  11  -8    3.20    1.00
   2 -11   8    4.30    1.50
  -3  11  -8    0.60    0.70
   3 -11   8   -0.20    1.00
  -4  11  -8    1.00    1.00
   8  10  -8    5.00    1.30
   7  10  -8    3.60    1.10
   6  10  -8    0.50    0.80
   5  10  -8   -0.80    0.70
   4  10  -8   20.00    1.90
  -4 -10   8   19.40    2.20
   3  10  -8    0.60    0.90
  -3 -10   8    2.40    1.10
   2  10  -8   -0.30    0.60
  -2 -10   8   -0.50    0.70
   1  10  -8    1.20    0.80
  -1 -10   8    1.60    1.00
   0  10  -8   -1.00    0.60
   0 -10   8    0.30    0.90
  -1  10  -8    8.60    1.30
   1 -10   8    9.70    1.80
  -2  10  -8   25.50    1.90
   2 -10   8   22.80    2.70
  -3  10  -8    4.50    1.00
   3 -10   8    5.90    1.60
  -4  10  -8   10.50    1.40
   4 -10   8    9.00    1.80
  -5  10  -8    7.70    1.30
   5 -10   8    7.70    1.80
   8   9  -8    1.00    0.90
   7   9  -8    0.90    0.80
   6   9  -8   -0.50    0.70
   5   9  -8    1.30    0.80
   4   9  -8    2.20    0.90
  -4  -9   8    1.30    0.90
   3   9  -8    0.70    0.80
  -3  -9   8   -0.10    0.70
   2   9  -8   10.80    1.40
  -2  -9   8   11.20    1.70
   1   9  -8    0.60    0.70
  -1  -9   8    0.90    0.90
   0   9  -8    0.10    0.60
   0  -9   8   -0.20    0.70
  -1   9  -8    7.30    1.20
   1  -9   8    5.80    1.40
  -2   9  -8    2.80    0.80
   2  -9   8    2.50    1.00
  -3   9  -8    8.80    1.30
   3  -9   8    9.80    1.70
  -4   9  -8    4.80    1.00
   4  -9   8    8.50    1.70
  -5   9  -8   12.80    1.50
   5  -9   8   14.10    2.20
  -6   9  -8    1.00    0.70
   6  -9   8    0.60    1.00
   7  -9   8    0.80    1.60
   9   8  -8    0.20    0.90
   8   8  -8    1.90    1.00
   7   8  -8    1.90    0.90
   6   8  -8    0.10    0.70
   5   8  -8    0.30    0.70
   4   8  -8   18.80    1.80
  -4  -8   8   17.30    1.90
   3   8  -8    0.60    0.60
  -3  -8   8    1.10    0.80
   2   8  -8    9.10    1.30
  -2  -8   8    7.70    1.30
   1   8  -8   28.60    1.80
  -1  -8   8   29.20    2.20
   0   8  -8    3.60    0.90
   0  -8   8    5.10    1.30
  -1   8  -8    0.50    0.60
   1  -8   8   -0.10    0.70
  -2   8  -8   16.20    1.60
   2  -8   8   13.70    1.90
  -3   8  -8    5.70    1.00
   3  -8   8    5.80    1.40
  -4   8  -8    5.60    1.10
   4  -8   8    2.00    1.00
  -5   8  -8    4.60    0.90
   5  -8   8    3.80    1.30
  -6   8  -8    3.90    1.00
   6  -8   8    2.10    1.20
  -7   8  -8    0.20    0.60
   7  -8   8    0.50    0.90
   8  -8   8    2.00    1.20
   9   7  -8   -0.60    0.70
  -9  -7   8    0.60    0.80
   8   7  -8    0.40    0.80
  -8  -7   8    0.30    0.70
   7   7  -8    0.80    0.90
   6   7  -8    2.80    1.00
   5   7  -8    1.60    0.80
   4   7  -8   21.10    1.90
  -4  -7   8   17.90    1.60
   3   7  -8    0.00    0.60
  -3  -7   8    0.40    0.60
   2   7  -8   34.70    1.90
  -2  -7   8   36.00    2.30
   1   7  -8   46.30    2.20
  -1  -7   8   41.40    2.50
   0   7  -8    8.10    1.10
   0  -7   8    5.70    1.20
  -1   7  -8    0.40    0.50
   1  -7   8   -0.70    0.60
  -2   7  -8    0.30    0.50
   2  -7   8    0.10    0.70
  -3   7  -8   -0.50    0.40
   3  -7   8   -0.40    0.70
  -4   7  -8    2.30    0.70
   4  -7   8    2.40    1.10
  -5   7  -8    7.30    1.10
   5  -7   8    7.40    1.50
  -6   7  -8   25.30    1.80
   6  -7   8   20.60    2.40
  -7   7  -8    1.80    0.80
   7  -7   8    1.00    0.90
  -8   7  -8   -0.10    0.60
   8  -7   8   -0.60    0.80
   9  -7   8    0.60    1.00
   9   6  -8    0.60    0.90
  -9  -6   8    1.30    0.80
   8   6  -8   -0.60    0.70
  -8  -6   8    1.40    0.80
   7   6  -8   -0.10    0.70
  -7  -6   8    0.60    0.60
   6   6  -8    0.40    0.60
  -6  -6   8    1.40    0.60
   5   6  -8    4.80    1.10
  -5  -6   8    4.60    0.90
   4   6  -8    1.90    0.70
  -4  -6   8    0.90    0.60
   3   6  -8    0.40    0.60
  -3  -6   8    0.10    0.50
   2   6  -8    3.80    0.80
  -2  -6   8    5.30    1.00
   1   6  -8    5.80    1.00
  -1  -6   8    5.50    1.10
   0   6  -8    4.40    0.90
   0  -6   8    3.10    0.90
  -1   6  -8    0.70    0.60
   1  -6   8    0.20    0.70
  -2   6  -8   46.00    2.10
   2  -6   8   39.00    2.50
  -3   6  -8    0.70    0.60
   3  -6   8    2.20    0.90
  -4   6  -8    4.80    0.90
   4  -6   8    3.90    1.10
  -5   6  -8    4.50    0.90
   5  -6   8    4.00    1.10
  -6   6  -8   11.20    1.40
   6  -6   8   10.20    1.70
  -7   6  -8   -0.10    0.60
   7  -6   8    0.10    0.70
  -8   6  -8   -0.10    0.60
   8  -6   8    0.30    0.80
  -9   6  -8    0.30    0.70
   9  -6   8    0.20    0.80
 -10  -5   8    1.30    1.30
   9   5  -8    0.10    0.70
  -9  -5   8    0.20    0.80
   8   5  -8   -0.10    0.70
  -8  -5   8    0.20    0.70
   7   5  -8    5.50    1.20
  -7  -5   8    6.90    1.20
   6   5  -8   -0.30    0.50
  -6  -5   8   -0.10    0.50
   5   5  -8    2.90    0.90
  -5  -5   8    5.10    0.90
   4   5  -8    0.10    0.50
  -4  -5   8    0.50    0.40
   3   5  -8    0.40    0.60
  -3  -5   8   -0.40    0.40
  -3  -5   8    0.30    0.50
   2   5  -8    0.30    0.60
  -2  -5   8   -0.20    0.50
   1   5  -8   24.10    1.50
  -1  -5   8   23.60    1.80
   0   5  -8   11.10    1.20
   0  -5   8    9.80    1.30
  -1   5  -8    4.70    0.80
   1  -5   8    6.70    1.30
  -2   5  -8   15.30    1.20
   2  -5   8   16.60    1.90
  -3   5  -8    2.80    0.70
   3  -5   8    1.30    0.80
  -4   5  -8    3.70    0.70
   4  -5   8    3.20    1.00
  -5   5  -8    1.90    0.70
   5  -5   8    0.80    0.70
  -6   5  -8    3.50    0.80
   6  -5   8    4.70    1.20
  -7   5  -8    6.10    1.10
   7  -5   8    5.20    1.20
  -8   5  -8    9.90    1.40
   8  -5   8   11.90    1.70
  -9   5  -8    1.00    0.70
   9  -5   8    0.30    0.70
 -10   5  -8    1.90    0.80
   9   4  -8   -0.30    0.70
  -9  -4   8    0.80    0.80
   8   4  -8    0.50    0.80
  -8  -4   8    1.60    0.80
   7   4  -8   -0.50    0.70
  -7  -4   8   -0.70    0.50
   6   4  -8    0.50    0.70
  -6  -4   8   -0.20    0.50
   5   4  -8   18.00    1.70
  -5  -4   8   13.60    1.40
   4   4  -8    0.30    0.60
  -4  -4   8    1.80    0.60
   3   4  -8   11.40    1.30
  -3  -4   8   14.10    1.20
  -3  -4   8   14.00    1.00
   2   4  -8   22.70    1.50
  -2  -4   8   23.40    1.10
  -2  -4   8   22.00    1.60
   1   4  -8    8.10    1.10
  -1  -4   8    6.00    1.00
   0   4  -8    7.20    0.90
   0  -4   8    5.90    1.10
  -1   4  -8   30.50    1.60
   1  -4   8   27.70    1.90
  -2   4  -8    1.80    0.60
   2  -4   8    3.70    0.90
  -3   4  -8   42.40    1.90
   3  -4   8   42.90    2.40
  -4   4  -8    7.20    0.90
   4  -4   8    8.10    1.30
  -5   4  -8    3.90    0.80
   5  -4   8    6.10    1.20
  -6   4  -8    9.10    1.10
   6  -4   8   12.00    1.60
  -7   4  -8    1.40    0.60
   7  -4   8    0.80    0.80
  -8   4  -8    4.30    0.90
   8  -4   8    5.30    1.20
  -9   4  -8    0.60    0.60
   9  -4   8    0.70    0.80
 -10   4  -8    0.10    0.60
  10  -4   8    0.20    0.80
 -11   4  -8    1.30    0.80
   9   3  -8   -0.70    0.80
  -9  -3   8   -0.10    0.70
   8   3  -8    3.90    1.10
  -8  -3   8    3.70    1.00
   7   3  -8    2.90    1.00
  -7  -3   8    1.80    0.80
   6   3  -8    4.20    1.00
  -6  -3   8    2.80    0.80
   5   3  -8    3.20    0.80
  -5  -3   8    2.80    0.80
   4   3  -8    0.50    0.50
  -4  -3   8    1.70    0.60
   3   3  -8    6.50    1.00
  -3  -3   8    5.80    0.80
  -3  -3   8    4.70    0.80
   2   3  -8    0.30    0.50
  -2  -3   8   -0.20    0.30
  -2  -3   8    0.50    0.50
   1   3  -8   37.20    1.80
  -1  -3   8   42.40    2.10
  -1  -3   8   39.90    1.40
   0   3  -8    1.30    0.60
   0  -3   8    0.90    0.50
  -1   3  -8    0.60    0.50
   1  -3   8    0.30    0.50
  -2   3  -8    8.10    0.90
   2  -3   8    9.70    1.30
  -3   3  -8   14.20    1.10
   3  -3   8   12.70    1.50
  -4   3  -8    8.50    1.00
   4  -3   8   11.00    1.40
  -5   3  -8   18.80    1.30
   5  -3   8   22.80    1.80
  -6   3  -8    6.80    1.00
   6  -3   8    8.80    1.40
  -7   3  -8    0.40    0.50
   7  -3   8   -0.60    0.40
  -8   3  -8    0.40    0.50
   8  -3   8    1.10    0.80
  -9   3  -8   71.69    3.00
   9  -3   8   64.79    3.20
 -10   3  -8    1.30    0.80
  10  -3   8   -0.60    0.70
 -11   3  -8   -0.40    0.60
   9   2  -8    0.60    0.80
  -9  -2   8    0.70    0.70
   8   2  -8    0.70    0.90
  -8  -2   8    2.10    0.90
   7   2  -8   -0.10    0.70
  -7  -2   8    0.00    0.60
   6   2  -8    3.00    0.90
  -6  -2   8    4.20    1.00
   5   2  -8    2.00    0.80
  -5  -2   8    2.60    0.80
   4   2  -8   47.60    2.30
  -4  -2   8   49.00    2.20
   3   2  -8    1.50    0.60
  -3  -2   8    0.50    0.40
  -3  -2   8    0.70    0.40
   2   2  -8    5.20    0.90
  -2  -2   8    4.40    0.70
  -2  -2   8    4.20    0.80
   1   2  -8   19.50    1.40
  -1  -2   8   17.10    1.00
  -1  -2   8   15.40    1.30
   0   2  -8    2.60    0.70
   0  -2   8    3.10    0.40
   0  -2   8    1.80    0.60
  -1   2  -8    0.00    0.50
   1  -2   8    1.30    0.60
   1  -2   8    0.90    0.20
  -2   2  -8   30.70    1.50
   2  -2   8   34.90    2.00
  -3   2  -8    0.60    0.50
   3  -2   8    0.90    0.60
  -4   2  -8    9.70    1.00
   4  -2   8   11.30    1.40
  -5   2  -8   31.70    1.60
   5  -2   8   29.90    2.00
  -6   2  -8    6.30    0.90
   6  -2   8    4.50    1.00
  -7   2  -8   63.99    2.50
   7  -2   8   65.09    3.00
  -8   2  -8   58.89    2.50
   8  -2   8   59.09    2.90
  -9   2  -8    1.00    0.60
   9  -2   8    1.40    0.80
 -10   2  -8    1.80    0.70
  10  -2   8    3.40    1.10
 -11   2  -8   15.70    1.80
 -12   2  -8    9.40    1.50
   9   1  -8    0.90    0.80
  -9  -1   8   -0.20    0.80
   8   1  -8    1.00    0.90
  -8  -1   8    0.40    0.70
   7   1  -8   -0.80    0.60
  -7  -1   8    0.00    0.60
   6   1  -8    0.00    0.70
  -6  -1   8    1.30    0.70
   5   1  -8    1.50    0.80
  -5  -1   8    1.30    0.70
   4   1  -8   21.90    1.50
  -4  -1   8   22.10    1.60
   3   1  -8   46.70    2.10
  -3  -1   8   49.60    2.60
  -3  -1   8   41.30    2.00
   2   1  -8   38.60    1.80
  -2  -1   8   34.90    1.70
  -2  -1   8   32.50    1.60
   1   1  -8    4.10    0.70
  -1  -1   8    3.50    0.70
  -1  -1   8    3.30    0.60
   0   1  -8    3.30    0.70
   0  -1   8    3.70    0.50
   0  -1   8    3.60    0.70
  -1   1  -8    2.00    0.60
   1  -1   8    1.80    0.60
   1  -1   8    1.20    0.30
  -2   1  -8   16.70    1.10
   2  -1   8   14.10    1.20
   2  -1   8   14.30    0.60
  -3   1  -8   21.70    1.20
   3  -1   8   24.10    1.60
  -4   1  -8   29.20    1.40
   4  -1   8   30.80    1.80
  -5   1  -8   55.79    2.10
   5  -1   8   60.09    2.70
  -6   1  -8    0.00    0.40
   6  -1   8   -0.60    0.40
  -7   1  -8    1.10    0.50
   7  -1   8    1.00    0.70
  -8   1  -8    0.80    0.50
   8  -1   8    0.50    0.70
  -9   1  -8   13.40    1.40
   9  -1   8   13.30    1.60
 -10   1  -8   22.80    1.70
  10  -1   8   22.40    1.90
 -11   1  -8   -0.40    0.60
 -12   1  -8   12.20    1.70
 -13   1  -8    2.50    1.00
   9   0  -8    1.20    0.90
  -9   0   8   -0.10    0.80
   8   0  -8    1.00    0.80
  -8   0   8    1.00    0.80
   7   0  -8    1.30    0.80
  -7   0   8   -0.10    0.60
   6   0  -8    0.10    0.60
  -6   0   8   -0.60    0.50
   5   0  -8    2.30    0.80
  -5   0   8    0.70    0.60
   4   0  -8  121.09    3.70
  -4   0   8  120.09    3.90
   3   0  -8   10.10    1.20
  -3   0   8    8.60    1.10
   2   0  -8    6.60    0.90
  -2   0   8    6.40    0.80
  -2   0   8    6.50    0.90
   1   0  -8    0.80    0.50
  -1   0   8    0.30    0.40
  -1   0   8    0.60    0.40
   0   0  -8    0.90    0.50
   0   0   8    1.60    0.50
   0   0   8    0.60    0.30
  -1   0  -8    1.20    0.50
   1   0   8   -0.20    0.40
   1   0   8    0.20    0.20
  -2   0  -8   17.20    1.10
   2   0   8   19.60    1.40
   2   0   8   16.90    0.80
  -3   0  -8    9.20    0.90
   3   0   8    7.30    1.10
   3   0   8    7.50    0.50
  -4   0  -8   22.00    1.20
   4   0   8   19.10    1.50
   4   0   8   18.60    0.80
  -5   0  -8   91.89    2.70
   5   0   8   93.69    2.20
   5   0   8   90.29    3.40
  -6   0  -8  210.28    4.90
   6   0   8  213.48    5.80
  -7   0  -8   19.40    1.30
   7   0   8   19.80    1.60
  -8   0  -8    4.90    0.80
   8   0   8    5.90    1.10
  -9   0  -8    0.80    0.50
   9   0   8    0.70    0.60
 -10   0  -8    0.30    0.50
  10   0   8    0.90    0.70
 -11   0  -8    2.60    0.80
  11   0   8    1.00    0.80
 -12   0  -8    1.80    0.80
 -13   0  -8    0.00    0.60
   8  -1  -8    0.00    0.70
  -8   1   8   -0.60    0.60
   7  -1  -8    0.50    0.70
  -7   1   8   -0.10    0.70
   6  -1  -8    1.10    0.70
  -6   1   8    1.30    0.80
   5  -1  -8    0.20    0.60
  -5   1   8    0.10    0.60
   4  -1  -8    0.40    0.60
  -4   1   8   -0.10    0.50
  -3   1   8    7.30    1.10
   2  -1  -8    0.50    0.50
   2  -1  -8   -0.20    0.40
  -2   1   8    0.60    0.40
   1  -1  -8   20.90    1.30
  -1   1   8   24.60    1.40
  -1   1   8   22.10    1.30
   0  -1  -8    1.40    0.50
   0   1   8    1.10    0.50
   0   1   8    1.30    0.40
  -1  -1  -8    3.10    0.60
   1   1   8    3.40    0.60
   1   1   8    1.90    0.60
  -2  -1  -8   17.80    1.10
   2   1   8   15.90    1.30
   2   1   8   19.90    1.00
  -3  -1  -8    1.20    0.50
   3   1   8    0.40    0.40
   3   1   8    0.30    0.20
  -4  -1  -8   16.20    1.00
   4   1   8   14.50    0.80
   4   1   8   16.40    1.40
  -5  -1  -8   72.59    2.20
   5   1   8   71.99    1.90
   5   1   8   71.59    2.90
  -6  -1  -8    0.90    0.40
   6   1   8    1.60    0.70
   6   1   8    1.30    0.40
  -7  -1  -8    2.20    0.60
   7   1   8    1.80    0.40
   7   1   8    2.00    0.70
  -8  -1  -8    0.30    0.40
   8   1   8    0.10    0.50
  -9  -1  -8    6.10    0.90
   9   1   8    6.00    1.10
 -10  -1  -8    2.50    0.70
  10   1   8    2.40    0.90
 -11  -1  -8    1.10    0.60
  11   1   8    1.80    0.80
 -12  -1  -8   -0.40    0.50
 -13  -1  -8    9.20    1.40
 -14  -1  -8    0.50    0.70
   8  -2  -8    0.30    0.80
  -8   2   8    1.20    0.90
   7  -2  -8    3.70    1.10
  -7   2   8    2.70    1.00
   6  -2  -8    4.00    1.00
  -6   2   8    5.50    1.20
   5  -2  -8    3.00    0.90
  -5   2   8    0.80    0.70
   4  -2  -8    1.80    0.70
  -4   2   8    4.60    0.90
   3  -2  -8    5.90    0.90
  -3   2   8    4.60    1.00
   2  -2  -8    0.30    0.40
   2  -2  -8    0.20    0.40
  -2   2   8    0.50    0.50
   1  -2  -8    0.50    0.50
   1  -2  -8    0.50    0.40
  -1   2   8    0.60    0.40
   0  -2  -8    0.90    0.40
   0   2   8    0.70    0.40
   0   2   8    0.70    0.40
  -1  -2  -8   15.10    1.00
   1   2   8   12.60    0.90
   1   2   8   14.80    1.20
  -2  -2  -8   35.80    1.40
   2   2   8   38.20    2.00
   2   2   8   38.80    1.50
  -3  -2  -8    0.70    0.40
   3   2   8    0.90    0.30
   3   2   8    1.60    0.60
  -4  -2  -8   -0.10    0.30
   4   2   8   -0.40    0.40
   4   2   8    0.20    0.30
  -5  -2  -8   58.69    1.90
   5   2   8   59.49    2.60
   5   2   8   58.79    1.80
  -6  -2  -8   -0.10    0.30
   6   2   8   -0.10    0.40
   6   2   8   -0.10    0.30
  -7  -2  -8   11.30    0.90
   7   2   8   13.50    0.90
   7   2   8   10.10    1.30
  -8  -2  -8    0.40    0.40
   8   2   8    0.20    0.40
   8   2   8    0.50    0.60
  -9  -2  -8   16.10    1.20
   9   2   8   14.60    1.60
   9   2   8   14.60    1.10
 -10  -2  -8    1.60    0.60
  10   2   8    1.60    0.80
 -11  -2  -8    4.50    0.90
  11   2   8    4.50    1.00
 -12  -2  -8    6.00    1.00
 -13  -2  -8    0.40    0.60
 -14  -2  -8    8.70    1.40
   8  -3  -8    0.50    0.90
   7  -3  -8    0.80    0.90
  -7   3   8    2.30    1.00
   6  -3  -8    4.70    1.00
  -6   3   8    6.80    1.30
   5  -3  -8    6.50    1.10
  -5   3   8    5.30    1.20
   4  -3  -8   -0.30    0.50
  -4   3   8    0.20    0.50
   3  -3  -8    1.30    0.60
  -3   3   8    0.60    0.60
   2  -3  -8   10.80    1.20
   2  -3  -8    7.90    1.00
  -2   3   8    8.60    1.10
   1  -3  -8   11.90    1.00
   1  -3  -8   12.60    1.10
  -1   3   8   15.10    1.20
   0  -3  -8   29.20    1.70
   0  -3  -8   25.50    1.30
   0   3   8   26.30    1.40
  -1  -3  -8    4.40    0.90
  -1  -3  -8    4.00    0.60
   1   3   8    3.30    0.60
  -2  -3  -8   46.20    1.50
   2   3   8   43.70    1.70
   2   3   8   43.00    2.10
  -3  -3  -8   49.70    1.60
   3   3   8   53.09    2.40
   3   3   8   47.80    1.70
  -4  -3  -8    1.20    0.40
   4   3   8    1.10    0.60
   4   3   8    1.30    0.40
  -5  -3  -8   15.70    0.90
   5   3   8   16.00    1.40
   5   3   8   17.80    1.00
  -6  -3  -8   31.40    1.30
   6   3   8   32.30    1.40
   6   3   8   32.30    2.00
  -7  -3  -8   15.30    1.00
   7   3   8   14.10    1.60
   7   3   8   13.80    1.00
  -8  -3  -8   27.60    1.30
   8   3   8   26.50    1.40
   8   3   8   24.20    1.80
  -9  -3  -8    2.00    0.50
   9   3   8    1.70    0.70
   9   3   8    1.50    0.60
 -10  -3  -8    6.30    0.90
  10   3   8    8.40    1.30
  10   3   8    6.30    0.90
 -11  -3  -8   -0.10    0.40
 -11  -3  -8    0.40    0.50
  11   3   8    0.20    0.60
 -12  -3  -8    4.90    0.90
 -13  -3  -8    4.00    1.00
 -14  -3  -8    1.90    0.80
   7  -4  -8    6.10    1.30
  -7   4   8    3.50    1.10
   6  -4  -8    0.70    0.80
  -6   4   8    0.30    0.80
   5  -4  -8    0.80    0.70
  -5   4   8    0.40    0.60
   4  -4  -8    0.30    0.50
  -4   4   8    0.50    0.60
   3  -4  -8    3.00    0.70
  -3   4   8    4.00    1.00
   2  -4  -8    1.20    0.60
   2  -4  -8    0.30    0.50
  -2   4   8   -0.10    0.40
   1  -4  -8   25.90    1.70
   1  -4  -8   28.80    1.40
  -1   4   8   27.40    1.70
   0  -4  -8    7.60    0.80
   0  -4  -8    7.30    1.10
   0   4   8    6.70    1.00
  -1  -4  -8    0.80    0.40
  -1  -4  -8    1.00    0.60
   1   4   8    0.50    0.40
  -2  -4  -8   69.79    1.90
  -2  -4  -8   68.79    2.80
   2   4   8   69.39    2.30
  -3  -4  -8    1.00    0.60
  -3  -4  -8    0.90    0.30
   3   4   8    0.50    0.30
  -4  -4  -8    4.50    0.50
   4   4   8    4.50    0.90
   4   4   8    3.00    0.60
  -5  -4  -8   15.90    0.80
   5   4   8   13.80    1.00
   5   4   8   11.80    1.30
  -6  -4  -8   69.39    1.90
   6   4   8   71.99    3.00
   6   4   8   75.09    2.40
  -7  -4  -8    2.50    0.50
   7   4   8    1.00    0.70
   7   4   8    1.60    0.50
  -8  -4  -8   19.90    1.10
   8   4   8   20.10    1.70
   8   4   8   19.70    1.30
  -9  -4  -8    1.70    0.50
   9   4   8    0.80    0.70
   9   4   8    1.80    0.60
 -10  -4  -8   13.60    1.10
  10   4   8   13.80    1.40
  10   4   8   12.80    1.60
 -11  -4  -8    0.50    0.50
  11   4   8   -0.40    0.50
 -12  -4  -8    4.20    0.90
 -12  -4  -8    4.20    0.90
 -13  -4  -8    0.60    0.60
 -14  -4  -8    1.60    0.90
  -6   5   8    4.50    1.20
  -5   5   8    0.50    0.60
  -4   5   8    7.00    1.30
  -3   5   8   17.80    1.90
   2  -5  -8    3.20    0.90
  -2   5   8    3.80    0.80
   1  -5  -8   12.00    1.40
   1  -5  -8    9.80    1.20
  -1   5   8    8.80    1.20
   0  -5  -8    1.70    0.70
   0   5   8    1.90    0.60
  -1  -5  -8   22.40    1.70
   1   5   8   23.30    1.50
  -2  -5  -8   41.00    2.20
   2   5   8   41.00    1.80
  -3  -5  -8    5.30    1.00
   3   5   8    5.50    0.70
  -4  -5  -8   51.99    2.50
   4   5   8   47.50    1.90
  -5  -5  -8   39.90    2.30
   5   5   8   42.70    1.80
   6   5   8   34.10    1.60
  -7  -5  -8   24.00    1.80
   7   5   8   25.60    1.40
  -8  -5  -8   11.50    1.50
   8   5   8   10.90    1.20
  -9  -5  -8    3.30    0.90
   9   5   8    2.70    0.70
 -10  -5  -8   -0.10    0.60
  10   5   8    0.40    0.50
 -11  -5  -8   -0.60    0.60
  11   5   8    0.20    0.50
 -12  -5  -8   12.70    1.70
 -13  -5  -8    4.50    1.10
  -5   6   8    3.80    1.20
  -4   6   8   11.80    1.70
  -3   6   8   10.30    1.50
  -2   6   8   -0.10    0.50
   1  -6  -8    7.60    1.30
  -1   6   8    7.40    1.10
   0  -6  -8   10.20    1.30
   0   6   8   11.50    1.30
  -1  -6  -8    3.20    0.90
   1   6   8    4.30    0.80
  -2  -6  -8    6.50    1.10
   2   6   8    2.90    0.70
  -3  -6  -8    2.10    0.80
   3   6   8    2.70    0.60
  -4  -6  -8   10.70    1.40
   4   6   8   10.70    1.10
  -5  -6  -8   44.80    2.50
   5   6   8   44.10    1.90
  -6  -6  -8    1.00    0.70
   6   6   8    1.00    0.50
  -7  -6  -8    1.30    0.70
   7   6   8    1.10    0.50
  -8  -6  -8    2.40    0.90
   8   6   8    1.90    0.60
  -9  -6  -8    0.00    0.50
   9   6   8    0.30    0.50
 -10  -6  -8    1.10    0.80
  10   6   8   -0.20    0.50
 -11  -6  -8   34.40    2.30
  11   6   8   34.80    2.10
 -12  -6  -8   63.99    3.20
  12   6   8   72.39    3.10
 -13  -6  -8   -0.30    0.70
 -14  -6  -8    3.50    1.10
  -5   7   8    1.20    0.90
  -4   7   8    7.90    1.50
  -3   7   8    0.60    0.80
  -2   7   8   -0.50    0.60
   1  -7  -8   21.40    1.80
  -1   7   8   18.90    1.60
   0  -7  -8    0.70    0.70
   0   7   8   -0.40    0.40
  -1  -7  -8    0.70    0.60
   1   7   8    0.40    0.50
  -2  -7  -8    0.00    0.60
   2   7   8    0.30    0.50
  -3  -7  -8  179.58    5.40
   3   7   8  180.48    4.70
  -4  -7  -8    3.20    1.00
   4   7   8    2.70    0.70
  -5  -7  -8   28.50    2.10
   5   7   8   30.00    1.60
  -6  -7  -8    5.20    1.20
   6   7   8    7.20    1.00
  -7  -7  -8   -0.60    0.60
   7   7   8    0.30    0.40
  -8  -7  -8    5.40    1.20
   8   7   8    3.60    0.80
  -9  -7  -8    5.70    1.20
   9   7   8    4.70    0.90
 -10  -7  -8   10.80    1.60
  10   7   8    9.70    1.30
 -11  -7  -8   17.30    2.00
  11   7   8   16.80    1.80
 -12  -7  -8   20.90    2.20
  12   7   8   12.70    1.60
  13   7   8   17.80    1.90
 -14  -7  -8   16.20    2.00
 -15  -7  -8   -0.40    0.80
  -4   8   8    0.00    0.70
  -3   8   8   -0.40    0.70
  -2   8   8    1.00    0.70
   1  -8  -8    5.00    1.20
  -1   8   8    4.60    1.10
   0  -8  -8    2.60    1.00
   0   8   8    2.80    0.80
  -1  -8  -8    4.10    1.10
   1   8   8    4.50    0.90
  -2  -8  -8    7.60    1.40
   2   8   8    8.40    1.20
  -3  -8  -8   -0.20    0.70
   3   8   8    0.00    0.40
  -4  -8  -8   15.20    1.70
   4   8   8   21.40    1.50
  -5  -8  -8    0.90    0.80
   5   8   8    1.40    0.60
  -6  -8  -8    0.00    0.80
   6   8   8    1.10    0.50
  -7  -8  -8    0.70    0.80
   7   8   8    0.10    0.40
  -8  -8  -8   22.10    2.00
   8   8   8   26.80    1.70
  -9  -8  -8    4.80    1.20
   9   8   8    3.70    0.90
 -10  -8  -8    2.70    1.00
  10   8   8    3.30    0.90
 -11  -8  -8    2.80    1.00
  11   8   8    1.50    0.70
 -12  -8  -8   16.70    2.10
  12   8   8   17.10    1.90
  13   8   8   14.50    1.80
  -3   9   8   -0.20    0.70
  -2   9   8    2.10    0.90
  -1   9   8    2.50    0.80
   0  -9  -8    0.00    0.80
   0   9   8   -0.10    0.50
  -1  -9  -8    3.10    1.10
   1   9   8    2.80    0.90
  -2  -9  -8    8.00    1.50
   2   9   8    8.10    1.20
  -3  -9  -8   16.60    2.00
   3   9   8   21.00    1.60
  -4  -9  -8    0.40    0.70
   4   9   8    1.40    0.60
  -5  -9  -8    0.60    0.80
   5   9   8    2.00    0.60
  -6  -9  -8   -0.60    0.60
   6   9   8    0.40    0.50
  -7  -9  -8    4.80    1.20
   7   9   8    7.30    1.10
  -8  -9  -8   29.70    2.40
   8   9   8   25.40    1.80
   9   9   8   27.10    1.80
 -10  -9  -8   18.30    2.20
  10   9   8   16.70    1.80
 -11  -9  -8    1.10    0.90
  11   9   8    0.80    0.60
 -12  -9  -8    9.20    1.70
  12   9   8   10.70    1.60
  13   9   8   17.70    2.00
  14   9   8    2.00    1.00
  -2  10   8    2.30    1.00
  -1  10   8    2.90    1.00
   0 -10  -8    4.80    1.30
   0  10   8    5.80    1.20
  -1 -10  -8    0.90    0.90
   1  10   8    0.10    0.50
  -2 -10  -8    5.30    1.30
   2  10   8    5.00    1.00
  -3 -10  -8    0.70    0.90
   3  10   8    2.80    0.80
  -4 -10  -8    0.80    0.90
   4  10   8    1.30    0.70
  -5 -10  -8    0.90    0.80
   5  10   8    1.60    0.70
  -6 -10  -8    3.40    1.20
   6  10   8    5.50    1.00
  -7 -10  -8    9.20    1.60
   7  10   8   10.30    1.40
  -8 -10  -8    3.30    1.20
   8  10   8    4.50    1.00
  -9 -10  -8    2.80    1.10
   9  10   8    1.90    0.70
 -10 -10  -8    6.80    1.40
  10  10   8    7.70    1.30
 -11 -10  -8    1.10    0.90
  11  10   8    2.80    0.90
 -12 -10  -8    6.30    1.50
  12  10   8    4.00    1.10
  13  10   8    0.70    0.80
  14  10   8   -0.40    0.70
  -1  11   8    0.20    0.80
   0 -11  -8    7.50    1.70
   0  11   8    7.60    1.40
  -1 -11  -8    1.40    1.10
   1  11   8    1.60    0.80
  -2 -11  -8   -0.60    0.80
   2  11   8    2.10    0.80
  -3 -11  -8    1.30    1.10
   3  11   8    0.50    0.60
  -4 -11  -8    3.40    1.20
   4  11   8    3.60    1.00
  -5 -11  -8    0.00    0.90
   5  11   8    0.60    0.60
  -6 -11  -8    6.20    1.60
   6  11   8   10.80    1.40
  -7 -11  -8    1.20    1.00
   7  11   8    0.50    0.60
  -8 -11  -8   33.40    2.70
   8  11   8   34.80    2.20
  -9 -11  -8    7.20    1.60
   9  11   8    6.60    1.20
 -10 -11  -8    1.10    1.00
  10  11   8    0.30    0.70
 -11 -11  -8    5.00    1.50
  11  11   8    3.40    1.00
  12  11   8   16.40    2.00
  13  11   8    0.70    0.80
  -1 -12  -8   31.20    3.30
  -2 -12  -8    3.30    1.40
   2  12   8    3.50    1.00
  -3 -12  -8   15.80    2.30
   3  12   8   10.30    1.50
  -4 -12  -8    3.30    1.40
   4  12   8    3.60    1.00
  -5 -12  -8    0.80    1.00
   5  12   8    0.50    0.70
  -6 -12  -8    2.40    1.30
   6  12   8    2.60    0.90
  -7 -12  -8    7.60    1.60
   7  12   8   10.60    1.50
  -8 -12  -8    3.60    1.30
   8  12   8    5.40    1.30
  -9 -12  -8    1.00    1.10
   9  12   8    1.10    0.70
 -10 -12  -8   11.50    2.00
  10  12   8   14.40    1.90
 -11 -12  -8    4.00    1.50
  11  12   8    3.10    1.10
  12  12   8    8.80    1.70
  -2 -13  -8    6.00    1.80
  -3 -13  -8   11.50    2.20
   3  13   8    9.90    1.50
  -4 -13  -8    0.70    1.20
   4  13   8    1.40    0.80
  -5 -13  -8    0.70    1.20
   5  13   8    0.90    0.80
  -6 -13  -8   -0.10    1.10
   6  13   8    0.30    0.60
  -7 -13  -8   -0.70    0.90
   7  13   8   -0.50    0.60
  -8 -13  -8    2.50    1.30
   8  13   8    2.60    0.90
  -9 -13  -8    9.70    2.00
   9  13   8   13.90    1.80
 -10 -13  -8    8.40    1.90
  10  13   8    6.10    1.40
 -11 -13  -8   11.20    2.10
  11  13   8   12.80    1.80
 -12 -13  -8   12.00    2.50
  -7 -14  -8   -0.40    1.10
   7  14   8    0.40    0.80
  -8 -14  -8   -0.40    1.70
   8  14   8   -0.10    1.10
   3  12  -9   -1.60    1.00
  -3 -12   9    1.10    1.10
   2  12  -9    1.40    1.20
  -2 -12   9    3.10    1.80
   1  12  -9    2.00    1.20
   5  11  -9   -0.70    0.70
   4  11  -9    0.50    0.90
   3  11  -9    0.10    0.90
  -3 -11   9    1.50    1.10
   2  11  -9    5.30    1.20
  -2 -11   9    7.30    1.60
   1  11  -9    3.50    1.10
  -1 -11   9    5.50    1.50
   0  11  -9   -0.10    0.80
   0 -11   9   -0.50    0.90
  -1  11  -9    0.20    0.80
   1 -11   9    1.70    1.30
  -2  11  -9    6.10    1.20
   2 -11   9    8.50    2.10
   6  10  -9    5.10    1.30
   5  10  -9   -0.40    0.70
   4  10  -9    4.80    1.20
   3  10  -9    7.20    1.30
  -3 -10   9    5.70    1.40
   2  10  -9    0.10    0.80
  -2 -10   9    0.60    0.80
   1  10  -9   -0.10    0.80
  -1 -10   9    0.40    0.90
   0  10  -9   -0.30    0.70
   0 -10   9   -1.20    0.70
  -1  10  -9    2.80    1.00
   1 -10   9    1.20    1.10
  -2  10  -9    2.00    0.90
   2 -10   9    0.10    1.00
  -3  10  -9    9.90    1.40
   3 -10   9    9.50    1.90
  -4  10  -9    0.40    0.70
   4 -10   9   -0.60    0.90
   7   9  -9    5.10    1.30
   6   9  -9    0.70    0.80
   5   9  -9    2.80    1.00
   4   9  -9   20.00    2.00
   3   9  -9    0.10    0.70
  -3  -9   9    0.60    0.90
   2   9  -9    5.20    1.20
  -2  -9   9    6.80    1.50
   1   9  -9    4.70    1.10
  -1  -9   9    4.40    1.30
   0   9  -9    3.60    1.00
   0  -9   9    6.20    1.50
  -1   9  -9    4.70    1.10
   1  -9   9    6.00    1.50
  -2   9  -9    4.20    1.10
   2  -9   9    2.00    1.00
  -3   9  -9    0.20    0.60
   3  -9   9   -0.20    1.00
  -4   9  -9   11.00    1.40
   4  -9   9    8.10    1.80
  -5   9  -9    3.20    0.90
   5  -9   9    4.50    1.50
  -6   9  -9    2.30    0.90
   6  -9   9   -0.30    1.10
   8   8  -9   -0.60    1.30
   7   8  -9    0.20    0.80
   6   8  -9   -1.50    0.60
   5   8  -9    8.80    1.40
   4   8  -9    1.50    0.90
   3   8  -9    9.50    1.50
  -3  -8   9    9.10    1.50
   2   8  -9    6.60    1.20
  -2  -8   9    6.20    1.30
   1   8  -9   12.80    1.50
  -1  -8   9   10.10    1.60
   0   8  -9    4.60    1.10
   0  -8   9    3.00    1.10
  -1   8  -9    8.30    1.30
   1  -8   9    5.50    1.40
  -2   8  -9   -0.60    0.50
   2  -8   9    0.90    0.90
  -3   8  -9    0.90    0.70
   3  -8   9    0.00    0.70
  -4   8  -9    0.80    0.70
   4  -8   9   -0.50    0.80
  -5   8  -9   -0.10    0.60
   5  -8   9    0.60    1.00
  -6   8  -9   13.40    1.60
   6  -8   9   13.40    2.20
  -7   8  -9    1.70    0.80
   7  -8   9    0.90    1.00
   8   7  -9    0.40    0.90
   7   7  -9    0.30    0.90
   6   7  -9   -1.10    0.60
   5   7  -9    0.60    0.80
   4   7  -9   21.10    2.00
   3   7  -9   10.10    1.40
  -3  -7   9    8.50    1.40
   2   7  -9    5.00    1.10
  -2  -7   9    3.80    1.00
   1   7  -9   -0.60    0.70
  -1  -7   9    1.00    0.80
   0   7  -9   14.00    1.60
   0  -7   9   14.40    1.90
  -1   7  -9    5.50    1.10
   1  -7   9    5.60    1.30
  -2   7  -9    6.70    1.20
   2  -7   9    4.60    1.20
  -3   7  -9    0.60    0.60
   3  -7   9   -0.20    0.70
  -4   7  -9    2.20    0.80
   4  -7   9    3.40    1.20
  -5   7  -9    7.40    1.20
   5  -7   9    8.80    1.70
  -6   7  -9   60.89    2.80
   6  -7   9   60.69    3.60
  -7   7  -9    7.40    1.30
   7  -7   9    4.60    1.40
  -8   7  -9    4.80    1.10
   8  -7   9    4.30    1.30
   8   6  -9    1.60    1.10
   7   6  -9    0.60    0.90
   6   6  -9    1.20    0.90
   5   6  -9    0.50    0.70
   4   6  -9    5.30    1.10
   3   6  -9    0.50    0.80
  -3  -6   9    1.10    0.70
   2   6  -9   21.00    1.90
  -2  -6   9   23.70    1.90
   1   6  -9    2.60    0.90
  -1  -6   9    2.50    0.90
   0   6  -9    9.30    1.30
   0  -6   9    8.70    1.40
  -1   6  -9    9.10    1.30
   1  -6   9   10.70    1.60
  -2   6  -9    8.30    1.10
   2  -6   9    9.70    1.60
  -3   6  -9    2.40    0.80
   3  -6   9    2.60    1.00
  -4   6  -9    9.20    1.20
   4  -6   9   10.80    1.70
  -5   6  -9   14.30    1.50
   5  -6   9   15.00    2.10
  -6   6  -9   10.80    1.30
   6  -6   9   12.70    2.00
  -7   6  -9   30.10    2.00
   7  -6   9   32.40    2.60
  -8   6  -9    4.30    1.00
   8  -6   9    4.10    1.30
  -9   6  -9    0.80    0.70
   9  -6   9    0.00    0.80
  -9  -5   9    2.40    1.00
   8   5  -9    4.40    1.20
  -8  -5   9    5.80    1.20
   7   5  -9    0.80    0.80
  -7  -5   9    0.50    0.70
   6   5  -9    1.00    0.80
  -6  -5   9    1.90    0.70
   5   5  -9    0.30    0.70
   4   5  -9    0.20    0.70
   3   5  -9    0.80    0.70
  -3  -5   9   -0.10    0.50
   2   5  -9    5.80    1.00
  -2  -5   9    4.80    1.00
   1   5  -9    8.70    1.10
  -1  -5   9    9.30    1.40
   0   5  -9    0.60    0.60
   0  -5   9    2.00    0.80
  -1   5  -9    4.40    0.90
   1  -5   9    1.80    0.80
  -2   5  -9    5.90    1.00
   2  -5   9    6.10    1.30
  -3   5  -9    2.70    0.70
   3  -5   9    3.90    1.10
  -4   5  -9    2.20    0.70
   4  -5   9    3.00    1.00
  -5   5  -9    3.90    0.80
   5  -5   9    2.90    1.00
  -6   5  -9    2.80    0.80
   6  -5   9    1.80    0.90
  -7   5  -9    1.60    0.70
   7  -5   9   -0.20    0.80
  -8   5  -9    2.50    0.90
   8  -5   9    2.70    1.10
  -9   5  -9    1.20    0.80
   9  -5   9    1.70    1.00
 -10   5  -9    6.30    1.20
  10  -5   9    9.00    1.70
  -9  -4   9   -0.10    0.70
   8   4  -9    0.90    0.90
  -8  -4   9    0.60    0.70
   7   4  -9    1.90    0.90
  -7  -4   9    3.10    1.00
   6   4  -9   -0.40    0.60
  -6  -4   9    0.10    0.60
   5   4  -9    0.90    0.70
  -5  -4   9    1.00    0.60
   4   4  -9    0.20    0.60
  -4  -4   9   -0.30    0.40
   3   4  -9    0.10    0.50
  -3  -4   9    0.80    0.60
   2   4  -9    5.40    1.00
  -2  -4   9    6.20    1.10
   1   4  -9   54.99    2.40
  -1  -4   9   49.00    2.50
   0   4  -9   21.50    1.50
   0  -4   9   23.80    1.80
  -1   4  -9    0.20    0.60
   1  -4   9    0.30    0.60
  -2   4  -9    7.10    1.00
   2  -4   9    6.90    1.30
  -3   4  -9   31.40    1.70
   3  -4   9   21.20    1.80
  -4   4  -9   26.40    1.60
   4  -4   9   26.40    2.00
  -5   4  -9    4.60    0.90
   5  -4   9    3.70    1.10
  -6   4  -9    0.30    0.50
   6  -4   9    1.90    0.90
  -7   4  -9   18.50    1.70
   7  -4   9   15.50    2.00
  -8   4  -9    0.10    0.50
   8  -4   9   -0.30    0.70
  -9   4  -9    0.40    0.60
   9  -4   9    0.50    0.80
 -10   4  -9    0.80    0.70
  10  -4   9    0.10    0.80
  -9  -3   9    6.20    1.60
   8   3  -9   -0.10    0.80
  -8  -3   9    0.60    0.70
   7   3  -9    1.50    0.90
  -7  -3   9   -0.70    0.60
   6   3  -9    1.30    0.80
  -6  -3   9    1.10    0.70
   5   3  -9    1.30    0.80
  -5  -3   9    1.60    0.70
   4   3  -9    2.20    0.80
  -4  -3   9    2.70    0.70
   3   3  -9    2.40    0.80
  -3  -3   9    3.00    0.70
   2   3  -9    1.40    0.60
  -2  -3   9    2.10    0.50
  -2  -3   9    1.30    0.60
   1   3  -9    7.60    1.00
  -1  -3   9    7.50    1.10
   0   3  -9    9.20    1.10
   0  -3   9    6.20    1.10
  -1   3  -9   13.90    1.30
   1  -3   9   15.50    1.40
  -2   3  -9    8.70    1.00
   2  -3   9    8.60    1.30
  -3   3  -9    6.40    0.90
   3  -3   9    6.80    1.20
  -4   3  -9   34.60    1.70
   4  -3   9   37.30    2.30
  -5   3  -9    2.40    0.70
   5  -3   9    2.70    0.90
  -6   3  -9    3.40    0.80
   6  -3   9    1.30    0.80
  -7   3  -9    1.40    0.60
   7  -3   9    1.30    0.80
  -8   3  -9    6.60    1.10
   8  -3   9    5.50    1.30
  -9   3  -9   10.80    1.40
   9  -3   9    6.20    1.30
 -10   3  -9    1.80    0.80
  10  -3   9   -0.80    0.70
 -11   3  -9    5.50    1.10
   8   2  -9    0.40    0.80
  -8  -2   9    3.20    1.00
   7   2  -9   -0.40    0.70
  -7  -2   9    0.50    0.70
   6   2  -9    0.80    0.80
  -6  -2   9    1.90    0.80
   5   2  -9    0.50    0.70
  -5  -2   9   -0.50    0.50
   4   2  -9    1.30    0.70
  -4  -2   9   -0.10    0.50
   3   2  -9   31.60    1.90
  -3  -2   9   29.90    1.70
   2   2  -9   21.90    1.50
  -2  -2   9   22.60    1.50
  -2  -2   9   21.90    1.30
   1   2  -9    6.30    1.00
  -1  -2   9    5.50    0.90
  -1  -2   9    5.60    0.70
   0   2  -9    6.90    0.90
   0  -2   9   10.30    0.70
   0  -2   9   10.70    1.30
  -1   2  -9    4.10    0.80
   1  -2   9    4.00    0.90
  -2   2  -9    1.00    0.60
   2  -2   9    0.80    0.60
  -3   2  -9   20.30    1.30
   3  -2   9   19.20    1.60
  -4   2  -9    7.20    0.90
   4  -2   9    6.20    1.20
  -5   2  -9   11.40    1.20
   5  -2   9   11.50    1.50
  -6   2  -9   18.90    1.40
   6  -2   9   19.50    1.80
  -7   2  -9    9.00    1.20
   7  -2   9    7.20    1.30
  -8   2  -9    2.10    0.70
   8  -2   9    2.60    1.00
  -9   2  -9    2.40    0.80
   9  -2   9    0.60    0.70
 -10   2  -9    8.70    1.30
  10  -2   9   12.50    1.80
 -11   2  -9   11.30    1.50
  11  -2   9   13.20    2.00
 -12   2  -9   13.20    1.80
   8   1  -9    0.80    0.90
  -8  -1   9    0.10    0.70
   7   1  -9   -0.10    0.70
  -7  -1   9    0.40    0.80
   6   1  -9    2.30    0.90
  -6  -1   9    2.40    0.80
   5   1  -9    0.00    0.70
  -5  -1   9    0.60    0.60
   4   1  -9   40.30    2.20
  -4  -1   9   36.10    2.00
   3   1  -9   83.19    3.10
  -3  -1   9   85.29    3.00
   2   1  -9    0.40    0.50
  -2  -1   9    0.50    0.40
  -2  -1   9   -0.20    0.40
   1   1  -9    1.40    0.60
  -1  -1   9    1.20    0.40
  -1  -1   9    1.50    0.60
   0   1  -9   11.00    1.20
   0  -1   9   10.50    0.80
   0  -1   9    9.80    1.30
  -1   1  -9    5.90    0.90
   1  -1   9    6.50    0.70
   1  -1   9    5.90    1.00
  -2   1  -9    1.40    0.60
   2  -1   9    1.60    0.70
  -3   1  -9    6.40    0.90
   3  -1   9    5.30    1.10
  -4   1  -9   88.69    2.70
   4  -1   9   84.89    3.40
  -5   1  -9   72.09    2.50
   5  -1   9   72.99    3.20
  -6   1  -9    2.00    0.60
   6  -1   9    2.10    0.80
  -7   1  -9    5.40    0.90
   7  -1   9    5.40    1.20
  -8   1  -9    0.30    0.50
   8  -1   9   -0.30    0.60
  -9   1  -9    1.60    0.60
   9  -1   9   -0.20    0.60
 -10   1  -9    0.40    0.60
  10  -1   9    1.00    0.80
 -11   1  -9   -0.20    0.60
  11  -1   9    0.10    0.80
 -12   1  -9   12.00    1.70
   8   0  -9   -0.20    0.70
  -8   0   9   -0.30    0.80
   7   0  -9   -0.10    0.70
  -7   0   9   -0.30    0.70
   6   0  -9    7.10    1.20
  -6   0   9    8.90    1.40
   5   0  -9   -0.30    0.50
  -5   0   9    0.50    0.70
   4   0  -9    2.10    0.80
  -4   0   9    0.80    0.60
   3   0  -9    4.40    0.90
  -3   0   9    4.70    0.90
   2   0  -9    0.10    0.50
  -2   0   9    0.30    0.40
  -2   0   9    0.00    0.40
   1   0  -9    5.70    0.90
  -1   0   9    3.60    0.70
  -1   0   9    4.80    0.90
   0   0  -9    7.80    0.90
   0   0   9    8.00    1.10
   0   0   9    7.50    0.80
  -1   0  -9    7.80    0.90
   1   0   9    4.60    0.90
   1   0   9    7.70    0.80
  -2   0  -9   -0.30    0.40
   2   0   9    0.10    0.20
   2   0   9    0.00    0.50
  -3   0  -9   76.19    2.40
   3   0   9   71.99    3.00
   3   0   9   75.59    1.90
  -4   0  -9    7.20    0.90
   4   0   9    6.90    1.10
  -5   0  -9    3.50    0.70
   5   0   9    3.90    1.00
  -6   0  -9    3.80    0.70
   6   0   9    4.50    1.00
  -7   0  -9   -0.50    0.30
   7   0   9    0.80    0.60
  -8   0  -9   49.40    2.20
   8   0   9   56.99    2.90
  -9   0  -9    0.40    0.50
   9   0   9   -0.40    0.50
 -10   0  -9    0.30    0.50
  10   0   9   -0.90    0.60
 -11   0  -9   21.50    1.70
  11   0   9   21.00    2.20
 -12   0  -9    4.40    1.00
 -13   0  -9   38.00    2.40
   8  -1  -9    0.30    0.80
   7  -1  -9    1.10    0.90
  -7   1   9    0.30    0.70
   6  -1  -9    6.20    1.20
  -6   1   9    5.00    1.10
   5  -1  -9    8.50    1.30
  -5   1   9   13.20    1.70
   4  -1  -9   -0.60    0.50
  -4   1   9   -0.60    0.40
   3  -1  -9    7.50    1.00
  -3   1   9    7.80    1.20
   2  -1  -9    7.20    0.90
   2  -1  -9   10.50    1.20
  -2   1   9   12.00    1.30
   1  -1  -9    7.60    1.00
  -1   1   9    9.30    1.10
  -1   1   9    9.10    1.10
   0  -1  -9    0.60    0.50
   0   1   9    0.50    0.40
   0   1   9    0.40    0.40
  -1  -1  -9    3.20    0.70
   1   1   9    3.40    0.80
   1   1   9    5.20    0.70
  -2  -1  -9    0.70    0.50
   2   1   9    1.60    0.40
   2   1   9    0.50    0.50
  -3  -1  -9   24.20    1.30
   3   1   9   24.20    1.10
   3   1   9   24.50    1.80
  -4  -1  -9    3.70    0.70
   4   1   9    5.20    0.60
   4   1   9    4.00    0.90
  -5  -1  -9   48.30    1.80
   5   1   9   51.99    1.60
   5   1   9   53.19    2.60
  -6  -1  -9    2.30    0.50
   6   1   9    0.90    0.60
  -7  -1  -9    6.60    0.90
   7   1   9    7.70    1.20
  -8  -1  -9    1.20    0.50
   8   1   9    0.60    0.60
  -9  -1  -9    9.10    1.10
   9   1   9    8.80    1.40
 -10  -1  -9    3.80    0.80
  10   1   9    3.50    1.10
 -11  -1  -9    4.70    0.90
  11   1   9    4.50    1.10
 -12  -1  -9    4.50    1.00
 -13  -1  -9    2.10    0.90
   7  -2  -9    0.80    0.90
  -7   2   9    0.70    0.80
   6  -2  -9    2.40    1.00
  -6   2   9    1.10    0.80
   5  -2  -9   -0.50    0.50
  -5   2   9    0.40    0.40
   4  -2  -9    7.90    1.20
  -4   2   9    9.20    1.40
   3  -2  -9    2.20    0.70
  -3   2   9    2.10    0.70
   2  -2  -9    0.30    0.50
  -2   2   9    0.60    0.50
   1  -2  -9    0.30    0.50
   1  -2  -9    0.40    0.50
  -1   2   9    0.20    0.40
   0  -2  -9   12.00    1.10
   0   2   9   14.50    1.10
   0   2   9   10.80    1.20
  -1  -2  -9   17.90    1.10
   1   2   9   19.50    1.50
   1   2   9   19.30    1.20
  -2  -2  -9    1.40    0.50
   2   2   9    2.30    0.50
   2   2   9    2.00    0.70
  -3  -2  -9   12.10    0.90
   3   2   9   11.40    0.80
   3   2   9    8.50    1.20
  -4  -2  -9    5.50    0.70
   4   2   9    3.80    0.60
   4   2   9    4.50    1.00
  -5  -2  -9    6.00    0.80
   5   2   9    4.80    0.60
   5   2   9    4.60    1.00
  -6  -2  -9    8.10    0.80
   6   2   9    6.20    1.20
   6   2   9    6.70    0.70
  -7  -2  -9    6.40    0.80
   7   2   9    9.30    0.80
   7   2   9    7.50    1.30
  -8  -2  -9    3.10    0.60
   8   2   9    3.50    0.90
  -9  -2  -9   16.30    1.20
   9   2   9   15.50    1.80
 -10  -2  -9   24.10    1.50
  10   2   9   21.80    1.90
 -11  -2  -9   13.80    1.40
 -12  -2  -9    0.20    0.50
  12   2   9    0.70    0.80
 -13  -2  -9    0.80    0.70
 -14  -2  -9    1.00    0.70
   7  -3  -9    2.40    0.90
  -7   3   9    0.20    1.20
   6  -3  -9   -0.10    0.70
  -6   3   9    0.40    0.70
   5  -3  -9   -1.30    0.50
  -5   3   9    0.10    0.60
   4  -3  -9    4.20    0.90
  -4   3   9    4.50    1.10
   3  -3  -9    4.00    0.90
  -3   3   9    4.80    1.00
   2  -3  -9    0.20    0.50
  -2   3   9   -0.20    0.40
   1  -3  -9    2.90    0.70
   1  -3  -9    1.70    0.60
  -1   3   9    2.70    0.70
   0  -3  -9    0.50    0.40
   0  -3  -9    0.50    0.60
   0   3   9    0.40    0.40
  -1  -3  -9    0.30    0.40
  -1  -3  -9    1.20    0.70
   1   3   9    0.40    0.40
  -2  -3  -9    7.60    0.80
   2   3   9    6.90    1.00
   2   3   9    7.90    0.90
  -3  -3  -9    0.00    0.40
   3   3   9   -0.10    0.50
   3   3   9    0.40    0.30
  -4  -3  -9    0.30    0.40
   4   3   9    0.40    0.30
   4   3   9    0.10    0.50
  -5  -3  -9   82.79    2.30
   5   3   9   82.69    3.30
   5   3   9   77.89    2.40
  -6  -3  -9    4.20    0.60
   6   3   9    4.00    0.60
   6   3   9    2.30    0.80
  -7  -3  -9   33.30    1.40
   7   3   9   37.90    1.60
   7   3   9   35.60    2.20
  -8  -3  -9    0.50    0.40
   8   3   9   -0.10    0.40
   8   3   9    1.10    0.70
  -9  -3  -9    4.20    0.70
   9   3   9    6.00    1.20
   9   3   9    4.30    0.80
 -10  -3  -9   23.20    1.40
  10   3   9   21.90    1.90
 -11  -3  -9    7.80    1.10
  11   3   9    6.50    1.20
 -12  -3  -9    1.80    0.70
  12   3   9    0.90    0.80
 -13  -3  -9   -0.30    0.50
 -14  -3  -9   23.50    1.80
  -6   4   9    3.60    1.20
  -5   4   9    2.30    1.00
   4  -4  -9    0.90    0.70
  -4   4   9    1.60    0.80
   3  -4  -9    0.80    0.60
  -3   4   9   -0.90    0.50
   2  -4  -9    6.90    1.00
  -2   4   9    4.80    1.00
   1  -4  -9    6.90    1.10
   1  -4  -9    8.40    1.00
  -1   4   9   10.00    1.30
   0  -4  -9   19.20    1.60
   0  -4  -9   21.80    1.20
   0   4   9   20.50    1.50
  -1  -4  -9    0.30    0.40
  -1  -4  -9    0.90    0.70
   1   4   9    1.40    0.60
  -2  -4  -9    0.10    0.30
  -2  -4  -9    0.90    0.60
   2   4   9    1.40    0.50
  -3  -4  -9   12.10    0.80
  -3  -4  -9   12.00    1.50
   3   4   9   13.50    1.00
  -4  -4  -9    1.00    0.40
   4   4   9    0.20    0.60
   4   4   9   -0.10    0.30
  -5  -4  -9   -0.20    0.30
   5   4   9    0.20    0.30
   5   4   9   -0.40    0.50
  -6  -4  -9   37.00    1.40
   6   4   9   35.10    2.20
   6   4   9   37.00    1.60
  -7  -4  -9   16.30    1.00
   7   4   9   13.90    1.60
   7   4   9   16.60    1.10
  -8  -4  -9    8.20    0.80
   8   4   9    9.00    1.40
   8   4   9    8.20    1.00
  -9  -4  -9    3.10    0.60
   9   4   9    2.20    0.90
   9   4   9    3.20    0.70
 -10  -4  -9   14.00    1.10
  10   4   9   13.20    1.70
  10   4   9   15.10    1.30
 -11  -4  -9    4.70    0.80
  11   4   9    5.20    1.10
  11   4   9    4.90    1.10
 -12  -4  -9    4.60    1.30
  -5   5   9    1.90    0.90
  -4   5   9    0.60    0.60
  -3   5   9    1.40    0.70
  -2   5   9    2.00    0.70
   1  -5  -9    6.60    1.10
  -1   5   9    7.30    1.20
   0  -5  -9    4.80    1.00
   0   5   9    8.60    1.20
  -1  -5  -9    1.30    0.70
   1   5   9    0.40    0.50
  -2  -5  -9    6.30    1.20
   2   5   9    6.00    0.90
  -3  -5  -9    5.40    1.10
   3   5   9    2.90    0.60
  -4  -5  -9    1.30    0.80
   4   5   9    2.20    0.60
  -5  -5  -9    1.00    0.70
   5   5   9    1.00    0.50
  -6  -5  -9   -0.30    0.50
   6   5   9    0.20    0.40
  -7  -5  -9    9.10    1.50
   7   5   9   10.60    1.10
  -8  -5  -9    3.10    1.00
   8   5   9    2.90    0.70
  -9  -5  -9    6.20    1.30
   9   5   9    9.80    1.20
 -10  -5  -9    0.60    0.80
  10   5   9    0.00    0.50
 -11  -5  -9    0.70    0.90
  11   5   9    0.80    0.60
 -12  -5  -9    4.30    1.20
  12   5   9    1.80    0.80
  -5   6   9    1.10    0.80
  -4   6   9    1.20    0.80
  -3   6   9    5.60    1.30
  -2   6   9    0.40    0.60
   1  -6  -9    0.90    0.80
  -1   6   9    0.80    0.70
   0  -6  -9    0.60    0.70
   0   6   9    1.40    0.70
  -1  -6  -9    4.60    1.00
   1   6   9    3.10    0.80
  -2  -6  -9    3.60    1.00
   2   6   9    5.00    0.90
  -3  -6  -9   38.10    2.30
   3   6   9   40.70    1.90
  -4  -6  -9  110.59    4.10
   4   6   9  106.59    3.30
  -5  -6  -9    0.60    0.70
   5   6   9   -0.40    0.30
  -6  -6  -9    1.40    0.70
   6   6   9    0.30    0.40
  -7  -6  -9    6.90    1.20
   7   6   9    8.50    1.10
  -8  -6  -9    7.30    1.40
   8   6   9    4.50    0.80
  -9  -6  -9    0.10    0.70
   9   6   9    0.00    0.40
 -10  -6  -9    5.00    1.20
  10   6   9    7.40    1.10
 -11  -6  -9   40.10    2.60
  11   6   9   37.00    2.20
 -12  -6  -9   52.29    3.00
  12   6   9   62.19    2.90
  -4   7   9    2.70    1.10
  -3   7   9    7.40    1.40
  -2   7   9    4.50    1.10
  -1   7   9    2.10    0.80
   0  -7  -9    0.70    0.70
   0   7   9    0.50    0.60
  -1  -7  -9    5.90    1.20
   1   7   9    7.50    1.20
  -2  -7  -9    1.50    0.80
   2   7   9    2.50    0.70
  -3  -7  -9   15.00    1.70
   3   7   9   18.40    1.40
  -4  -7  -9   20.80    2.10
   4   7   9   20.40    1.40
  -5  -7  -9   14.70    1.80
   5   7   9   13.90    1.20
  -6  -7  -9    0.20    0.70
   6   7   9    0.30    0.40
  -7  -7  -9    6.70    1.30
   7   7   9    6.60    1.00
  -8  -7  -9    2.90    1.00
   8   7   9    5.00    0.90
  -9  -7  -9    0.80    0.70
   9   7   9    0.20    0.50
 -10  -7  -9    8.10    1.50
  10   7   9    7.10    1.20
 -11  -7  -9    7.10    1.50
  11   7   9    7.80    1.30
 -12  -7  -9   21.60    2.40
  12   7   9   17.80    1.90
  13   7   9    2.80    1.00
 -14  -7  -9    9.80    1.60
  -3   8   9    0.00    0.70
  -2   8   9    0.40    0.60
  -1   8   9    0.70    0.70
   0  -8  -9    9.70    1.50
   0   8   9   12.20    1.60
  -1  -8  -9    0.80    0.90
   1   8   9    0.90    0.60
  -2  -8  -9    3.30    1.00
   2   8   9    6.40    1.10
  -3  -8  -9    1.90    0.90
   3   8   9    2.10    0.70
  -4  -8  -9    1.70    0.80
   4   8   9    1.20    0.60
  -5  -8  -9    6.70    1.40
   5   8   9    6.20    1.00
  -6  -8  -9    6.90    1.40
   6   8   9    8.40    1.20
  -7  -8  -9   -0.10    0.60
   7   8   9    0.00    0.50
  -8  -8  -9    7.10    1.50
   8   8   9    5.90    1.10
  -9  -8  -9   -0.10    0.70
   9   8   9    0.10    0.40
 -10  -8  -9    1.70    1.00
  10   8   9    0.20    0.60
 -11  -8  -9    4.50    1.30
  11   8   9    4.60    1.10
 -12  -8  -9   11.80    1.90
  12   8   9   12.40    1.60
  13   8   9    2.90    1.10
  14   8   9    0.10    0.80
  -2   9   9    1.50    0.90
  -1   9   9    4.40    1.10
   0  -9  -9    3.50    1.20
   0   9   9    1.60    0.80
  -1  -9  -9    0.80    0.80
   1   9   9    0.20    0.60
  -2  -9  -9    2.40    1.00
   2   9   9    1.70    0.70
  -3  -9  -9    2.90    1.00
   3   9   9    3.10    0.80
  -4  -9  -9   -0.20    0.70
   4   9   9    1.00    0.60
  -5  -9  -9    2.60    1.10
   5   9   9    4.70    1.00
  -6  -9  -9    1.00    0.80
   6   9   9    0.30    0.50
  -7  -9  -9   -0.40    0.80
   7   9   9    0.30    0.60
  -8  -9  -9    9.10    1.60
   8   9   9   10.60    1.40
  -9  -9  -9    3.20    1.10
   9   9   9    5.00    1.00
 -10  -9  -9    2.10    1.00
  10   9   9    2.70    0.90
 -11  -9  -9    0.30    1.00
  11   9   9    0.70    0.70
 -12  -9  -9    1.60    1.00
  12   9   9    1.70    0.90
 -13  -9  -9    0.20    1.00
  13   9   9    0.40    0.70
  14   9   9    0.50    0.90
  -1  10   9    0.20    0.60
   0  10   9    0.60    0.70
  -1 -10  -9    0.80    0.90
   1  10   9    0.50    0.70
  -2 -10  -9    1.20    1.00
   2  10   9    1.90    0.80
  -3 -10  -9    1.80    1.00
   3  10   9    0.50    0.60
  -4 -10  -9    1.50    1.00
   4  10   9    0.40    0.60
  -5 -10  -9    1.20    1.00
   5  10   9    0.60    0.60
  -6 -10  -9    8.10    1.60
   6  10   9    7.90    1.30
  -7 -10  -9   -0.40    0.70
   7  10   9   -0.10    0.50
  -8 -10  -9    4.30    1.40
   8  10   9    2.90    0.80
  -9 -10  -9    0.50    0.90
   9  10   9    0.50    0.60
 -10 -10  -9    0.30    0.90
  10  10   9    0.30    0.60
 -11 -10  -9   -0.80    0.90
  11  10   9    0.60    0.80
 -12 -10  -9    6.60    1.50
  12  10   9    5.90    1.30
 -13 -10  -9   -0.30    1.00
  13  10   9    0.10    0.80
   0  11   9    1.60    1.40
  -1 -11  -9    3.50    1.40
   1  11   9    4.30    1.20
  -2 -11  -9    0.30    1.00
   2  11   9    0.50    0.60
  -3 -11  -9    2.50    1.20
   3  11   9    2.60    0.90
  -4 -11  -9    3.50    1.20
   4  11   9    7.20    1.30
  -5 -11  -9   -0.60    0.90
  -6 -11  -9    8.70    1.70
   6  11   9    7.90    1.30
  -7 -11  -9   38.80    3.00
   7  11   9   37.80    2.30
  -8 -11  -9   -0.70    0.80
   8  11   9    1.30    0.70
  -9 -11  -9    1.50    1.00
   9  11   9    1.10    0.80
 -10 -11  -9    2.40    1.30
  10  11   9    4.50    1.10
 -11 -11  -9    0.20    1.00
  11  11   9    0.20    0.70
 -12 -11  -9    0.20    1.00
  12  11   9   -0.90    0.60
 -13 -11  -9    4.30    1.50
  13  11   9    6.30    1.60
  -2 -12  -9    0.00    1.00
   2  12   9    0.10    0.70
  -3 -12  -9    9.80    1.90
   3  12   9    9.80    1.60
  -4 -12  -9    3.90    1.40
   4  12   9    2.80    0.90
  -5 -12  -9    1.50    1.10
   5  12   9    1.50    0.70
  -6 -12  -9    4.40    1.50
   6  12   9    2.80    0.90
  -7 -12  -9   -1.20    0.90
   7  12   9   -0.40    0.60
  -8 -12  -9    1.70    1.20
   8  12   9    3.50    1.10
  -9 -12  -9    3.80    1.30
   9  12   9    6.60    1.30
 -10 -12  -9    4.20    1.50
  10  12   9    3.50    1.10
 -11 -12  -9   -0.40    1.00
  11  12   9    0.30    0.70
 -12 -12  -9   -0.70    0.90
  12  12   9    2.00    1.50
  -4 -13  -9    2.70    1.50
  -5 -13  -9    1.50    1.30
   5  13   9    2.30    0.90
  -6 -13  -9    2.20    1.30
   6  13   9    0.70    0.70
  -7 -13  -9    6.00    1.80
   7  13   9   12.70    1.80
  -8 -13  -9    3.10    1.40
   8  13   9    3.60    1.20
  -9 -13  -9    8.20    2.00
   9  13   9    7.10    1.50
 -10 -13  -9   23.50    2.90
  10  13   9   26.20    2.90
  -3 -11  10    2.40    1.20
   2  11 -10   -0.20    1.00
   1  11 -10   -1.60    0.80
  -1 -11  10    2.80    1.40
   0  11 -10    0.10    1.40
   4  10 -10    0.30    0.90
   3  10 -10    0.20    0.90
  -3 -10  10    0.20    1.00
   2  10 -10    1.50    1.00
  -2 -10  10    0.20    0.90
   1  10 -10   -0.10    0.90
  -1 -10  10   -0.50    0.80
   0  10 -10    4.50    1.30
   0 -10  10    7.20    1.60
  -1  10 -10   17.20    1.90
   1 -10  10   15.80    2.30
  -2  10 -10    0.20    0.80
   2 -10  10    1.10    1.00
  -3  10 -10   15.10    1.80
   3 -10  10   13.60    3.50
   5   9 -10   -0.50    0.80
   4   9 -10   -1.10    0.80
   3   9 -10    7.00    1.40
  -3  -9  10    6.30    1.50
   2   9 -10   -0.30    0.70
  -2  -9  10   -0.10    0.80
   1   9 -10    0.30    0.90
  -1  -9  10   -0.70    0.80
   0   9 -10    0.50    0.90
   0  -9  10    2.10    1.10
  -1   9 -10    1.40    0.90
   1  -9  10    2.40    1.20
  -2   9 -10    6.40    1.30
   2  -9  10    5.30    1.40
  -3   9 -10    6.00    1.20
   3  -9  10    6.60    1.70
  -4   9 -10    4.00    1.10
   4  -9  10    3.70    1.50
  -5   9 -10    2.10    1.00
   5  -9  10    1.20    1.40
   6   8 -10   -0.30    0.80
   5   8 -10    5.90    1.30
   4   8 -10    1.50    1.00
   3   8 -10    7.40    1.40
  -3  -8  10    8.10    1.60
   2   8 -10   26.30    2.10
  -2  -8  10   27.20    2.40
   1   8 -10    3.50    1.10
  -1  -8  10    6.60    1.40
   0   8 -10   -0.20    0.70
   0  -8  10   -0.70    0.80
  -1   8 -10   18.90    1.90
   1  -8  10   18.30    2.30
  -2   8 -10    1.10    0.80
   2  -8  10    1.60    1.10
  -3   8 -10    1.00    0.70
   3  -8  10    0.50    0.90
  -4   8 -10    4.10    1.00
   4  -8  10    1.80    1.10
  -5   8 -10    2.70    1.00
   5  -8  10    0.30    1.00
  -6   8 -10    0.70    0.80
   6  -8  10   -0.20    0.90
   7   7 -10    0.60    0.90
   6   7 -10   -0.80    0.80
   5   7 -10    9.30    1.50
   4   7 -10   -1.10    0.80
   3   7 -10   18.70    1.90
   2   7 -10   21.30    2.10
  -2  -7  10   15.70    1.90
   1   7 -10    1.80    0.90
  -1  -7  10    0.60    0.80
   0   7 -10    2.90    0.90
   0  -7  10    1.40    0.80
  -1   7 -10   -0.40    0.70
   1  -7  10    0.20    0.80
  -2   7 -10   -0.40    0.60
   2  -7  10   -0.30    0.70
  -3   7 -10    3.00    0.90
   3  -7  10    4.70    1.40
  -4   7 -10    9.60    1.30
   4  -7  10    8.80    1.70
  -5   7 -10   12.70    1.50
   5  -7  10   12.90    2.00
  -6   7 -10    0.50    0.70
   6  -7  10    2.10    1.10
  -7   7 -10    2.60    0.90
   7  -7  10    0.10    1.00
   8  -7  10    1.80    1.30
   7   6 -10    0.50    0.90
   6   6 -10    2.40    1.00
   5   6 -10    1.20    0.90
   4   6 -10   -0.10    0.80
   3   6 -10    2.00    0.90
   2   6 -10    2.10    0.90
  -2  -6  10   -0.30    0.60
   1   6 -10    2.60    0.90
  -1  -6  10    3.10    1.00
   0   6 -10    0.90    0.70
   0  -6  10    0.90    0.80
  -1   6 -10   21.60    1.70
   1  -6  10   16.00    1.90
  -2   6 -10    3.70    0.90
   2  -6  10    2.30    1.00
  -3   6 -10    4.50    1.00
   3  -6  10    3.10    1.20
  -4   6 -10    1.00    0.80
   4  -6  10    2.10    1.10
  -5   6 -10    3.40    0.90
   5  -6  10    5.30    1.40
  -6   6 -10    0.80    0.70
   6  -6  10    0.60    1.00
  -7   6 -10   -0.30    0.60
   7  -6  10    0.40    0.90
  -8   6 -10    2.70    0.90
   8  -6  10    1.60    1.00
   9  -6  10   13.80    2.10
   7   5 -10    0.20    0.80
   6   5 -10    1.20    1.00
   5   5 -10    1.20    0.90
   4   5 -10   -0.90    0.70
   3   5 -10   -0.50    0.60
   2   5 -10   11.70    1.50
  -2  -5  10    8.20    1.30
   1   5 -10    1.60    0.70
  -1  -5  10    1.80    0.80
   0   5 -10   -0.20    0.60
   0  -5  10    1.30    0.90
  -1   5 -10    3.70    0.90
   1  -5  10    3.70    1.10
  -2   5 -10    1.40    0.80
   2  -5  10    3.00    1.00
  -3   5 -10    3.30    0.90
   3  -5  10    3.90    1.20
  -4   5 -10    0.80    0.70
   4  -5  10    1.20    0.90
  -5   5 -10    2.90    0.80
   5  -5  10    4.30    1.20
  -6   5 -10   11.30    1.50
   6  -5  10   12.20    2.00
  -7   5 -10    9.50    1.40
   7  -5  10   10.20    1.80
  -8   5 -10    1.40    0.80
   8  -5  10    1.10    1.00
  -9   5 -10    2.00    0.90
   9  -5  10    1.90    1.10
  10  -5  10    1.30    1.10
  -8  -4  10    0.50    0.80
   7   4 -10   -0.50    0.80
  -7  -4  10    0.90    0.80
   6   4 -10    5.70    1.20
  -6  -4  10    8.40    2.10
   5   4 -10    1.30    0.90
   4   4 -10    2.40    0.90
   3   4 -10    3.50    1.00
   2   4 -10    1.90    0.80
  -2  -4  10    1.00    0.70
   1   4 -10    3.30    1.00
  -1  -4  10    2.10    0.80
   0   4 -10   11.40    1.40
   0  -4  10   11.80    1.50
  -1   4 -10    1.70    0.80
   1  -4  10    3.20    1.00
  -2   4 -10   15.00    1.50
   2  -4  10   20.50    1.90
  -3   4 -10    4.80    1.00
   3  -4  10    2.10    0.90
  -4   4 -10    5.80    1.00
   4  -4  10    6.10    1.30
  -5   4 -10    7.10    1.00
   5  -4  10   10.20    1.70
  -6   4 -10    6.40    1.10
   6  -4  10    6.30    1.40
  -7   4 -10    7.80    1.20
   7  -4  10    6.00    1.40
  -8   4 -10   -0.60    0.60
   8  -4  10    0.60    0.80
  -9   4 -10    0.60    0.70
   9  -4  10    0.50    0.90
 -10   4 -10    0.20    0.60
  10  -4  10   -0.50    0.80
  -8  -3  10    2.30    1.00
   7   3 -10    0.20    0.80
  -7  -3  10    0.20    0.70
   6   3 -10    0.40    0.70
  -6  -3  10    0.80    0.70
   5   3 -10    0.10    0.70
  -5  -3  10    1.90    0.70
   4   3 -10    3.30    1.00
  -4  -3  10    4.70    0.90
   3   3 -10   -1.00    0.60
   2   3 -10   15.70    1.60
  -2  -3  10   16.80    1.50
   1   3 -10   -0.20    0.60
  -1  -3  10   -0.30    0.50
   0   3 -10    1.20    0.80
   0  -3  10    0.60    0.70
  -1   3 -10    6.90    1.10
   1  -3  10    6.20    1.20
  -2   3 -10    3.50    0.90
   2  -3  10    3.10    0.90
  -3   3 -10    8.60    1.10
   3  -3  10    8.60    1.40
  -4   3 -10    9.10    1.20
   4  -3  10    7.40    1.40
  -5   3 -10   11.20    1.20
   5  -3  10   10.80    1.60
  -6   3 -10    0.70    0.60
   6  -3  10   -0.10    0.70
  -7   3 -10    0.40    0.60
   7  -3  10    0.40    0.70
  -8   3 -10   45.20    2.40
   8  -3  10   46.50    3.00
  -9   3 -10    0.40    0.60
   9  -3  10    1.30    1.00
 -10   3 -10    2.30    0.90
  10  -3  10   -1.40    0.70
 -11   3 -10    9.20    1.50
  11  -3  10    8.60    1.70
  -8  -2  10   -0.30    0.90
   7   2 -10   -0.40    0.70
  -7  -2  10    0.40    0.70
   6   2 -10    0.30    0.80
  -6  -2  10   -0.30    0.60
   5   2 -10   13.40    1.70
  -5  -2  10    9.60    1.40
   4   2 -10    0.50    0.80
  -4  -2  10    0.80    0.60
   3   2 -10    2.20    0.80
  -3  -2  10    2.70    0.70
   2   2 -10   14.30    1.50
  -2  -2  10   11.20    1.10
  -2  -2  10   13.10    1.40
   1   2 -10    5.30    1.00
  -1  -2  10    4.20    0.90
   0   2 -10    0.30    0.60
   0  -2  10    0.00    0.50
  -1   2 -10   17.50    1.40
   1  -2  10   16.10    1.70
  -2   2 -10    2.80    0.80
   2  -2  10    4.30    1.00
  -3   2 -10    6.10    0.90
   3  -2  10    6.20    1.20
  -4   2 -10   26.80    1.60
   4  -2  10   22.90    2.00
  -5   2 -10    0.90    0.60
   5  -2  10    2.10    0.90
  -6   2 -10   40.00    1.90
   6  -2  10   40.30    2.60
  -7   2 -10   17.70    1.40
   7  -2  10   15.70    2.00
  -8   2 -10   -0.10    0.50
   8  -2  10    0.60    0.80
  -9   2 -10    0.10    0.60
   9  -2  10    1.40    0.90
 -10   2 -10   11.40    1.50
  10  -2  10   16.30    2.10
 -11   2 -10   12.40    1.70
  11  -2  10   12.00    2.00
 -12   2 -10    2.40    1.50
   7   1 -10    0.20    0.80
  -7  -1  10   -0.10    0.70
   6   1 -10    0.10    0.80
  -6  -1  10    0.60    0.70
   5   1 -10    8.00    1.30
   4   1 -10   10.00    1.40
  -4  -1  10   14.70    1.60
   3   1 -10   13.20    1.50
  -3  -1  10   16.50    1.40
   2   1 -10    0.80    0.60
  -2  -1  10    1.80    0.60
   1   1 -10    4.30    0.90
  -1  -1  10    2.80    0.60
  -1  -1  10    4.20    0.90
   0   1 -10    0.00    0.60
   0  -1  10    1.00    0.40
   0  -1  10    0.80    0.60
  -1   1 -10    2.00    0.80
   1  -1  10    2.50    0.80
  -2   1 -10   15.80    1.30
   2  -1  10   14.80    1.60
  -3   1 -10   11.20    1.20
   3  -1  10   11.70    1.50
  -4   1 -10   25.80    1.50
   4  -1  10   28.80    2.10
  -5   1 -10    0.60    0.50
   5  -1  10    0.50    0.60
  -6   1 -10    6.70    0.90
   6  -1  10    5.50    1.20
  -7   1 -10    0.00    0.40
   7  -1  10   -0.20    0.50
  -8   1 -10   11.90    1.30
   8  -1  10   11.00    1.70
  -9   1 -10    9.50    1.20
   9  -1  10   14.30    1.90
 -10   1 -10    1.10    0.60
  10  -1  10   -0.30    0.80
 -11   1 -10    7.70    1.30
  11  -1  10    8.50    1.60
 -12   1 -10    5.30    1.20
   7   0 -10   -0.10    0.80
  -7   0  10    0.90    0.80
   6   0 -10   -0.20    0.70
  -6   0  10    0.40    0.70
   5   0 -10   29.30    2.10
  -5   0  10   32.30    2.20
   4   0 -10    3.30    0.90
  -4   0  10    4.80    1.00
   3   0 -10    4.70    1.00
  -3   0  10    5.90    1.00
   2   0 -10    0.10    0.50
  -2   0  10    0.10    0.40
   1   0 -10    4.70    0.90
  -1   0  10    3.30    0.80
  -1   0  10    3.40    0.70
   0   0 -10   -0.90    0.50
   0   0  10    0.10    0.40
   0   0  10    0.20    0.30
  -1   0 -10    2.00    0.70
   1   0  10    2.30    0.80
   1   0  10    3.30    0.60
  -2   0 -10    7.30    1.00
   2   0  10    4.40    1.00
   2   0  10    5.10    0.70
  -3   0 -10    4.70    0.80
   3   0  10    3.30    0.90
  -4   0 -10   54.09    2.10
   4   0  10   53.09    2.80
  -5   0 -10  113.89    3.30
   5   0  10  110.89    4.10
  -6   0 -10    6.60    0.90
   6   0  10    7.50    1.40
  -7   0 -10    5.90    0.90
   7   0  10    4.50    1.10
  -8   0 -10    1.10    0.60
   8   0  10    1.60    0.90
  -9   0 -10    1.30    0.60
   9   0  10    1.30    0.80
 -10   0 -10    0.50    0.50
  10   0  10   -0.30    0.70
 -11   0 -10    4.40    1.00
  11   0  10    5.10    1.30
 -12   0 -10    2.10    0.70
 -13   0 -10    0.50    0.70
   7  -1 -10   -0.30    0.80
  -7   1  10    0.30    0.90
   6  -1 -10    0.40    0.80
  -6   1  10   -0.10    0.70
   5  -1 -10    0.40    0.70
  -5   1  10    0.50    0.70
   4  -1 -10    5.40    1.10
  -4   1  10    4.70    1.10
   3  -1 -10    1.00    0.70
  -3   1  10    1.80    0.70
   2  -1 -10   13.70    1.40
  -2   1  10   17.10    1.40
   1  -1 -10    5.20    0.90
  -1   1  10    3.50    0.80
  -1   1  10    4.50    0.80
   0  -1 -10    1.10    0.60
   0   1  10    1.40    0.60
   0   1  10    1.60    0.50
  -1  -1 -10   11.40    1.20
   1   1  10   10.80    1.40
   1   1  10   10.80    0.90
  -2  -1 -10   -0.30    0.50
   2   1  10   -0.30    0.50
   2   1  10    0.40    0.30
  -3  -1 -10    5.00    0.80
   3   1  10    5.40    1.10
   3   1  10    4.90    0.60
  -4  -1 -10   27.50    1.50
   4   1  10   26.00    2.00
  -5  -1 -10    0.70    0.50
   5   1  10    0.00    0.60
  -6  -1 -10    1.00    0.50
   6   1  10    0.40    0.70
  -7  -1 -10    0.10    0.40
   7   1  10   -0.20    0.60
  -8  -1 -10    6.80    0.90
   8   1  10    8.70    1.40
  -9  -1 -10    1.30    0.60
   9   1  10    0.20    0.70
 -10  -1 -10    1.00    0.60
  10   1  10    1.10    0.90
 -11  -1 -10    0.30    0.50
  11   1  10    1.60    1.00
 -12  -1 -10    4.60    1.00
  12   1  10    3.50    1.20
 -13  -1 -10    4.40    1.10
   6  -2 -10    3.80    1.10
  -6   2  10    1.90    0.90
   5  -2 -10   -0.50    0.60
  -5   2  10    0.80    0.70
   4  -2 -10    0.70    0.70
  -4   2  10    0.10    0.50
   3  -2 -10   -0.10    0.60
  -3   2  10   -0.30    0.50
   2  -2 -10    0.00    0.50
  -2   2  10    0.30    0.50
   1  -2 -10   -0.20    0.50
   1  -2 -10    0.20    0.50
  -1   2  10   -0.50    0.40
   0  -2 -10    4.00    0.80
   0   2  10    3.70    0.80
   0   2  10    3.10    0.70
  -1  -2 -10    5.40    0.80
   1   2  10    4.50    0.90
   1   2  10    5.40    0.80
  -2  -2 -10    0.40    0.40
   2   2  10    0.40    0.40
   2   2  10   -0.10    0.50
  -3  -2 -10    0.60    0.50
   3   2  10    0.70    0.40
   3   2  10    0.40    0.60
  -4  -2 -10   24.80    1.30
   4   2  10   23.00    1.10
   4   2  10   23.30    1.80
  -5  -2 -10    1.40    0.50
   5   2  10    0.90    0.70
   5   2  10    1.90    0.50
  -6  -2 -10    6.00    0.80
   6   2  10    6.70    1.30
  -7  -2 -10    0.20    0.40
   7   2  10    1.40    0.80
  -8  -2 -10    4.80    0.80
   8   2  10    5.20    1.20
  -9  -2 -10    1.20    0.50
   9   2  10    1.60    0.90
 -10  -2 -10    4.80    0.80
  10   2  10    3.60    1.10
 -11  -2 -10    2.30    0.70
  11   2  10    2.90    1.00
 -12  -2 -10    0.50    0.60
  12   2  10   -0.10    0.70
 -13  -2 -10   14.70    1.60
  -6   3  10    1.90    1.00
   5  -3 -10    0.00    0.80
  -5   3  10    2.40    1.00
   4  -3 -10    2.50    0.80
  -4   3  10    0.70    0.70
   3  -3 -10    4.50    0.90
  -3   3  10    3.40    0.90
   2  -3 -10    2.90    0.80
  -2   3  10    3.40    0.90
   1  -3 -10   10.20    1.10
   1  -3 -10    9.00    1.30
  -1   3  10    9.30    1.20
   0  -3 -10    3.80    0.90
   0   3  10    3.70    0.80
  -1  -3 -10   19.90    1.20
  -1  -3 -10   19.90    1.70
   1   3  10   18.00    1.30
  -2  -3 -10   30.50    1.40
   2   3  10   30.90    2.00
   2   3  10   25.00    1.40
  -3  -3 -10    0.70    0.50
   3   3  10    0.10    0.30
   3   3  10    0.10    0.60
  -4  -3 -10   13.80    1.00
   4   3  10   13.40    1.00
   4   3  10   11.40    1.40
  -5  -3 -10   20.40    1.20
   5   3  10   23.00    1.90
   5   3  10   18.10    1.10
  -6  -3 -10    6.80    0.80
   6   3  10    8.40    0.90
   6   3  10    6.00    1.20
  -7  -3 -10   44.10    1.70
   7   3  10   41.70    1.70
   7   3  10   43.40    2.50
  -8  -3 -10    7.40    0.90
   8   3  10    4.30    1.10
  -9  -3 -10    2.30    0.60
   9   3  10    4.10    1.10
 -10  -3 -10    0.10    0.40
  10   3  10    0.60    0.70
 -11  -3 -10    4.90    0.90
  11   3  10    4.90    1.20
 -12  -3 -10    5.00    0.90
  12   3  10    4.50    1.20
  -5   4  10   -0.40    0.70
  -4   4  10    1.20    0.70
  -3   4  10   -0.20    0.50
  -2   4  10    9.70    1.40
   1  -4 -10    2.00    1.00
  -1   4  10    2.70    0.80
   0  -4 -10    1.20    0.70
   0   4  10    0.20    0.50
  -1  -4 -10   31.00    2.00
   1   4  10   30.30    1.70
  -2  -4 -10    1.40    0.80
   2   4  10    0.30    0.40
  -3  -4 -10    0.10    0.60
   3   4  10    0.00    0.40
   4   4  10    1.00    0.50
   4   4  10    0.40    0.60
   5   4  10   44.30    2.50
   5   4  10   41.50    1.80
   6   4  10    2.10    0.90
   6   4  10    3.30    0.70
   7   4  10   22.30    1.30
   7   4  10   23.50    2.00
   8   4  10    3.20    1.10
   8   4  10    3.10    0.70
   9   4  10    1.10    0.60
   9   4  10    1.40    0.80
  10   4  10    0.70    0.70
  11   4  10    8.00    1.50
  -4   5  10    6.30    1.30
  -3   5  10    0.50    0.60
  -2   5  10    3.40    0.90
  -1   5  10    1.30    0.70
   0  -5 -10    3.70    1.00
   0   5  10    3.80    0.90
  -1  -5 -10   15.90    1.70
   1   5  10   14.60    1.50
  -2  -5 -10    6.80    1.20
   2   5  10    7.40    1.00
  -3  -5 -10   38.20    2.40
   3   5  10   38.10    1.80
  -4  -5 -10   30.90    2.20
   4   5  10   30.50    1.60
  -5  -5 -10   30.80    2.20
   5   5  10   30.50    1.60
  -6  -5 -10    9.90    1.50
   6   5  10   12.80    1.10
  -7  -5 -10    7.20    1.50
   7   5  10    7.00    0.90
   8   5  10    3.70    0.80
  -9  -5 -10    2.10    1.00
   9   5  10    4.30    0.90
 -10  -5 -10    1.80    1.00
  10   5  10    1.20    0.60
 -11  -5 -10    9.10    1.70
 -12  -5 -10    5.30    1.40
  -4   6  10    4.30    1.20
  -3   6  10   -0.50    0.60
  -2   6  10    3.20    1.00
  -1   6  10    7.00    1.20
   0  -6 -10    0.90    0.70
   0   6  10    0.60    0.60
  -1  -6 -10    0.70    0.70
   1   6  10    1.10    0.60
  -2  -6 -10    0.20    0.70
   2   6  10    1.40    0.60
  -3  -6 -10    3.80    1.00
   3   6  10    3.30    0.80
  -4  -6 -10   38.40    2.50
   4   6  10   35.90    1.80
  -5  -6 -10    0.80    0.80
   5   6  10    1.20    0.50
  -6  -6 -10    0.00    0.70
   6   6  10   -0.10    0.30
  -7  -6 -10    1.80    0.90
   7   6  10    3.20    0.70
  -8  -6 -10   -0.10    0.80
   8   6  10    0.90    0.50
  -9  -6 -10   -0.20    0.80
   9   6  10   -0.80    0.40
 -10  -6 -10   32.50    2.50
  10   6  10   34.70    2.00
 -11  -6 -10   55.59    3.20
  11   6  10   57.79    2.70
 -12  -6 -10    0.60    1.00
  12   6  10    0.80    0.80
 -13  -6 -10    1.60    1.20
  -3   7  10   -0.20    0.80
  -2   7  10    7.20    1.40
  -1   7  10    0.50    0.80
   0  -7 -10   -0.30    0.70
   0   7  10   -0.30    0.40
  -1  -7 -10    2.10    0.90
   1   7  10    2.40    0.80
  -2  -7 -10   74.99    3.40
   2   7  10   69.29    2.90
  -3  -7 -10   -0.90    0.60
   3   7  10    0.00    0.50
  -4  -7 -10   25.60    2.20
   4   7  10   23.30    1.60
  -5  -7 -10   -0.10    0.80
   5   7  10    0.20    0.50
  -6  -7 -10    1.40    0.90
   6   7  10    0.10    0.40
  -7  -7 -10    1.20    0.90
   7   7  10    1.40    0.60
  -8  -7 -10    4.10    1.20
   8   7  10    4.90    0.90
  -9  -7 -10    8.60    1.60
   9   7  10   14.30    1.50
 -10  -7 -10   10.20    1.70
  10   7  10   10.00    1.40
 -11  -7 -10   11.10    1.90
  11   7  10   11.00    1.50
 -12  -7 -10   24.70    2.70
  12   7  10   21.30    1.80
 -13  -7 -10   26.10    2.70
  13   7  10   25.40    2.10
  -2   8  10    1.60    0.90
  -1   8  10    1.10    0.80
   0   8  10    3.50    1.00
  -1  -8 -10    5.30    1.30
   1   8  10    4.90    1.10
  -2  -8 -10    0.30    0.80
   2   8  10    0.90    0.60
  -3  -8 -10    9.40    1.60
   3   8  10    9.80    1.30
  -4  -8 -10    0.40    0.80
   4   8  10   -0.50    0.30
  -5  -8 -10    0.60    0.80
   5   8  10    1.00    0.50
  -6  -8 -10   -0.30    0.60
   6   8  10   -0.10    0.50
  -7  -8 -10   16.10    2.10
   7   8  10   14.80    1.50
  -8  -8 -10    5.30    1.40
   8   8  10    4.10    1.00
  -9  -8 -10    3.80    1.30
   9   8  10    4.30    1.00
 -10  -8 -10    2.60    1.20
  10   8  10    1.00    0.70
 -11  -8 -10   16.60    2.30
  11   8  10   17.50    1.90
 -12  -8 -10    7.50    1.70
  12   8  10    7.30    1.30
 -13  -8 -10    2.20    1.20
  13   8  10    0.90    0.80
  14   8  10    1.70    1.00
  -1   9  10    0.80    0.80
   0   9  10    1.10    0.70
  -1  -9 -10    0.90    0.90
   1   9  10    0.50    0.70
  -2  -9 -10    3.20    1.20
   2   9  10    2.10    0.80
  -3  -9 -10    1.60    0.90
   3   9  10    1.30    0.70
  -4  -9 -10    0.30    0.80
   4   9  10    0.40    0.50
  -5  -9 -10    0.10    0.70
   5   9  10   -0.40    0.40
  -6  -9 -10    4.10    1.20
   6   9  10    4.30    1.00
  -7  -9 -10   17.90    2.30
   7   9  10   20.50    1.60
  -8  -9 -10   18.60    2.40
   8   9  10   15.00    1.60
  -9  -9 -10   11.60    2.00
   9   9  10   13.50    1.60
 -10  -9 -10    0.90    1.10
  10   9  10    0.80    0.80
 -11  -9 -10   11.60    2.00
  11   9  10   11.20    1.50
 -12  -9 -10   13.30    2.10
  12   9  10   15.30    1.90
  13   9  10    0.60    0.90
   0  10  10    0.20    0.70
  -1 -10 -10    4.50    1.40
   1  10  10    5.80    1.30
  -2 -10 -10    2.70    1.20
   2  10  10    2.50    0.90
  -3 -10 -10    0.70    0.90
   3  10  10   -0.10    0.50
  -4 -10 -10    2.20    1.20
   4  10  10    0.70    0.70
  -5 -10 -10    2.50    1.10
   5  10  10    2.90    0.90
  -6 -10 -10    6.90    1.60
   6  10  10    7.50    1.30
  -7 -10 -10    4.30    1.40
   7  10  10    6.30    1.20
  -8 -10 -10    0.50    1.00
   8  10  10    0.80    0.70
  -9 -10 -10    8.10    1.70
   9  10  10   12.30    1.60
 -10 -10 -10    0.20    1.00
  10  10  10    2.50    0.90
 -11 -10 -10    2.80    1.30
  11  10  10    2.70    1.00
 -12 -10 -10    2.00    1.30
  12  10  10    1.20    0.90
 -13 -10 -10   -1.50    0.80
  13  10  10   -0.60    0.70
  -2 -11 -10   -1.20    0.80
   2  11  10   -0.20    0.60
  -3 -11 -10    1.60    1.10
   3  11  10    3.00    1.00
  -4 -11 -10   -0.70    0.80
   4  11  10   -0.10    0.60
  -5 -11 -10    3.00    1.30
   5  11  10    4.80    1.00
  -6 -11 -10    0.40    0.90
   6  11  10    1.00    0.70
  -7 -11 -10   16.90    2.30
   7  11  10   21.30    1.80
  -8 -11 -10    6.70    1.60
   8  11  10    9.20    1.40
  -9 -11 -10   -0.50    1.00
   9  11  10    0.70    0.60
 -10 -11 -10    1.00    1.10
  10  11  10    2.60    0.90
 -11 -11 -10    6.40    1.70
  11  11  10    6.70    1.30
 -12 -11 -10    1.10    1.20
  12  11  10    2.60    1.10
  -3 -12 -10    1.10    1.30
  -4 -12 -10    0.40    1.00
   4  12  10    1.00    0.80
  -5 -12 -10    1.40    1.30
   5  12  10    0.30    0.60
  -6 -12 -10    4.50    1.60
   6  12  10    4.30    1.10
  -7 -12 -10    2.70    1.30
   7  12  10    2.60    0.90
  -8 -12 -10   -0.20    0.90
   8  12  10    2.20    0.90
  -9 -12 -10    6.40    1.90
   9  12  10    9.80    1.50
 -10 -12 -10    6.40    1.80
  10  12  10   10.50    1.70
 -11 -12 -10    7.50    2.00
  11  12  10   10.60    1.80
  -2 -10  11   -0.50    0.90
  -1 -10  11   -1.30    0.90
   0  10 -11    1.30    1.70
   0 -10  11    1.00    1.30
   3   9 -11    2.40    1.10
   2   9 -11    2.80    1.20
  -2  -9  11    3.50    1.20
   1   9 -11    3.70    1.30
  -1  -9  11    4.50    1.40
   0   9 -11    1.90    1.00
   0  -9  11    1.70    1.10
  -1   9 -11   -0.40    0.80
   1  -9  11    0.00    0.90
  -2   9 -11    0.60    0.90
   2  -9  11    0.60    1.10
  -3   9 -11    6.30    1.30
   3  -9  11    5.40    1.60
   4   8 -11    7.80    1.60
   3   8 -11    3.90    1.30
   2   8 -11    5.00    1.20
  -2  -8  11    8.10    1.60
   1   8 -11    0.40    1.00
  -1  -8  11    0.80    0.90
   0   8 -11    6.30    1.40
   0  -8  11    4.80    1.40
  -1   8 -11   -0.30    0.90
   1  -8  11   -0.10    0.90
  -2   8 -11    0.60    0.90
   2  -8  11    0.00    0.90
  -3   8 -11    1.70    1.00
   3  -8  11   -0.40    0.90
  -4   8 -11    1.10    0.90
   4  -8  11   -1.10    0.80
  -5   8 -11   10.40    1.50
   5  -8  11    8.80    1.90
   5   7 -11    6.30    1.40
   4   7 -11   -0.40    0.80
   3   7 -11   -0.30    0.80
   2   7 -11   -0.20    0.90
  -2  -7  11   -0.20    0.80
   1   7 -11   -0.30    0.90
  -1  -7  11    0.80    0.90
   0   7 -11   -0.10    0.80
   0  -7  11    1.70    1.10
  -1   7 -11    1.70    1.00
   1  -7  11    3.00    1.20
  -2   7 -11    1.20    1.00
   2  -7  11    3.10    1.10
  -3   7 -11    0.40    0.80
   3  -7  11    1.50    1.00
  -4   7 -11    6.20    1.20
   4  -7  11    5.70    1.50
  -5   7 -11   36.30    2.30
   5  -7  11   35.10    2.90
  -6   7 -11    5.60    1.30
   6  -7  11    6.00    1.60
   7  -7  11    3.50    2.10
   6   6 -11    0.50    0.90
   5   6 -11    2.20    1.00
   4   6 -11   -0.30    0.80
   3   6 -11    2.50    1.10
   2   6 -11    6.00    1.20
  -2  -6  11    6.20    1.30
   1   6 -11   12.90    1.60
  -1  -6  11   13.60    1.90
   0   6 -11    8.60    1.40
   0  -6  11    8.00    1.40
  -1   6 -11    3.40    1.00
   1  -6  11    5.00    1.30
  -2   6 -11    1.70    0.90
   2  -6  11    1.70    1.00
  -3   6 -11    7.20    1.30
   3  -6  11    7.60    1.70
  -4   6 -11    7.00    1.20
   4  -6  11    9.20    1.70
  -5   6 -11    7.70    1.30
   5  -6  11    6.30    1.60
  -6   6 -11   14.20    1.70
   6  -6  11   20.40    2.50
  -7   6 -11    3.30    0.90
   7  -6  11    3.30    1.30
  -8   6 -11    2.50    1.10
   8  -6  11    1.90    1.20
   6   5 -11    1.60    1.00
   5   5 -11    0.20    0.80
   4   5 -11    0.40    0.80
   3   5 -11    5.60    1.30
   2   5 -11    7.20    1.30
  -2  -5  11   10.00    1.60
   1   5 -11    0.40    0.80
  -1  -5  11    0.60    0.70
   0   5 -11    0.00    0.80
   0  -5  11   -0.60    0.60
  -1   5 -11    0.20    0.70
   1  -5  11    1.80    0.90
  -2   5 -11    1.00    0.80
   2  -5  11    3.10    1.10
  -3   5 -11    2.60    0.80
   3  -5  11    2.70    1.10
  -4   5 -11    4.30    1.00
   4  -5  11    1.00    0.90
  -5   5 -11    2.30    0.90
   5  -5  11    2.00    1.00
  -6   5 -11   -0.30    0.60
   6  -5  11    0.80    0.90
  -7   5 -11    0.50    0.60
   7  -5  11    0.10    0.90
  -8   5 -11   -0.40    0.60
   8  -5  11   -0.10    0.80
  -9   5 -11    5.80    1.90
   9  -5  11    6.70    1.60
   6   4 -11    0.10    0.80
   5   4 -11    0.60    0.80
   4   4 -11    0.40    0.80
   3   4 -11    0.80    0.80
   2   4 -11   25.30    2.00
   1   4 -11    8.80    1.40
  -1  -4  11    8.60    1.40
   0   4 -11   -0.40    0.70
   0  -4  11    0.10    0.60
  -1   4 -11    3.90    1.00
   1  -4  11    4.10    1.20
  -2   4 -11   14.20    1.50
   2  -4  11   12.30    1.70
  -3   4 -11   14.10    1.50
   3  -4  11   19.60    2.10
  -4   4 -11    3.80    1.00
   4  -4  11    6.00    1.40
  -5   4 -11    2.00    0.80
   5  -4  11    2.50    1.00
  -6   4 -11    8.80    1.30
   6  -4  11   11.00    1.70
  -7   4 -11    1.70    0.80
   7  -4  11    1.20    1.00
  -8   4 -11    2.10    0.90
   8  -4  11    2.80    1.20
  -9   4 -11    4.20    1.10
   9  -4  11    4.20    1.40
  10  -4  11    1.80    1.20
   6   3 -11    0.70    0.90
   5   3 -11    4.20    1.20
   4   3 -11    4.30    1.10
   3   3 -11    0.00    0.70
   2   3 -11    2.40    1.00
   1   3 -11    5.10    1.10
  -1  -3  11    5.90    1.20
   0   3 -11    6.80    1.10
   0  -3  11    9.80    1.50
  -1   3 -11    5.80    1.10
  -2   3 -11    4.90    1.10
   2  -3  11    5.00    1.20
  -3   3 -11   22.60    1.60
   3  -3  11   23.70    2.10
  -4   3 -11    1.30    0.70
   4  -3  11    0.30    0.80
  -5   3 -11    3.20    0.90
   5  -3  11    3.80    1.20
  -6   3 -11    0.30    0.60
   6  -3  11    0.10    0.80
  -7   3 -11   12.00    1.40
   7  -3  11   12.30    1.90
  -8   3 -11   12.00    1.50
   8  -3  11   11.70    2.00
  -9   3 -11    1.50    0.70
   9  -3  11    0.10    0.80
 -10   3 -11    0.50    0.70
  10  -3  11    0.80    1.00
  11  -3  11    1.20    1.20
   6   2 -11    0.00    0.80
  -6  -2  11    1.00    0.80
   5   2 -11   -0.10    0.80
  -5  -2  11    1.10    0.70
   4   2 -11   24.20    2.00
  -4  -2  11   14.50    2.40
   3   2 -11   11.10    1.50
   2   2 -11    0.40    0.70
   1   2 -11    4.70    1.00
  -1  -2  11    4.30    1.00
   0   2 -11   -0.50    0.50
   0  -2  11    0.80    0.70
  -1   2 -11   -0.10    0.50
   1  -2  11   -0.80    0.50
  -2   2 -11   16.70    1.60
   2  -2  11   11.80    1.70
  -3   2 -11    0.50    0.60
   3  -2  11    0.40    0.70
  -4   2 -11   14.10    1.40
   4  -2  11   14.30    1.80
  -5   2 -11   24.90    1.60
   5  -2  11   22.40    2.40
  -6   2 -11    0.50    0.60
   6  -2  11    2.40    1.10
  -7   2 -11    4.70    0.90
   7  -2  11    3.30    1.10
  -8   2 -11    1.20    0.60
   8  -2  11    2.00    1.10
  -9   2 -11    3.80    1.00
   9  -2  11    4.00    1.30
 -10   2 -11   13.60    1.60
  10  -2  11   13.30    2.10
 -11   2 -11   12.50    1.60
  11  -2  11   10.90    1.90
   6   1 -11    0.80    0.90
  -6  -1  11    1.30    0.80
   5   1 -11   15.40    1.80
  -5  -1  11   16.40    1.80
   4   1 -11   29.10    2.10
  -4  -1  11   26.00    1.90
   3   1 -11    2.00    0.80
  -3  -1  11   -0.10    0.50
   2   1 -11    0.20    0.60
  -2  -1  11    1.00    0.50
   1   1 -11    6.40    1.00
  -1  -1  11   10.30    1.40
   0   1 -11    3.40    0.90
   0  -1  11    4.00    1.00
  -1   1 -11   -0.10    0.60
   1  -1  11    0.10    0.50
  -2   1 -11    1.00    0.70
   2  -1  11    1.20    0.80
  -3   1 -11   33.20    1.90
   3  -1  11   33.50    2.30
  -4   1 -11   51.69    2.30
   4  -1  11   48.40    2.80
  -5   1 -11    9.90    1.20
   5  -1  11    8.70    1.40
  -6   1 -11   16.30    1.30
   6  -1  11   10.00    1.60
  -7   1 -11    0.90    0.50
   7  -1  11    1.70    0.90
  -8   1 -11    0.40    0.50
   8  -1  11    1.40    0.80
  -9   1 -11    0.40    0.60
   9  -1  11    0.50    0.90
 -10   1 -11    0.80    0.60
  10  -1  11   -0.20    0.80
 -11   1 -11   11.40    1.50
  11  -1  11   11.30    1.90
 -12   1 -11    7.50    1.30
   6   0 -11   -1.30    0.70
  -6   0  11    0.70    0.70
   5   0 -11   -0.90    0.70
  -5   0  11    1.10    0.70
   4   0 -11    1.60    0.90
  -4   0  11    1.70    0.80
   3   0 -11    1.20    0.80
  -3   0  11    1.30    0.70
   2   0 -11    1.80    0.80
  -2   0  11    1.90    0.70
   1   0 -11    5.10    1.00
  -1   0  11    3.20    0.70
  -1   0  11    3.90    0.90
   0   0 -11    3.00    0.80
   0   0  11    2.60    0.80
   0   0  11    2.70    0.60
  -1   0 -11    0.10    0.60
   1   0  11    1.50    0.70
  -2   0 -11   38.90    1.90
   2   0  11   41.30    2.40
  -3   0 -11    4.80    0.90
   3   0  11    4.40    1.10
  -4   0 -11   -1.10    0.40
   4   0  11    1.00    0.70
  -5   0 -11    7.20    1.00
   5   0  11    4.70    1.20
  -6   0 -11    0.10    0.50
   6   0  11   -0.50    0.70
  -7   0 -11   29.80    1.70
   7   0  11   30.70    2.30
  -8   0 -11    0.20    0.50
   8   0  11   -0.20    0.70
  -9   0 -11    0.30    0.50
   9   0  11   -0.40    0.70
 -10   0 -11   17.20    1.60
  10   0  11   15.80    2.10
 -11   0 -11    5.20    1.00
  11   0  11    4.60    1.30
 -12   0 -11   40.20    2.40
  12   0  11   50.09    3.30
   6  -1 -11    3.00    1.00
  -6   1  11    3.00    1.00
   5  -1 -11    0.00    0.80
  -5   1  11    0.50    0.70
   4  -1 -11    5.20    1.20
  -4   1  11    3.00    1.00
   3  -1 -11    3.10    0.90
  -3   1  11    3.10    0.90
   2  -1 -11    2.30    0.80
  -2   1  11    1.60    0.60
   1  -1 -11    0.10    0.60
  -1   1  11   -0.10    0.40
   0  -1 -11    0.30    0.60
   0   1  11    0.20    0.50
   0   1  11    0.20    0.40
  -1  -1 -11    2.10    0.70
   1   1  11    2.20    0.80
   1   1  11    1.80    0.50
  -2  -1 -11   14.00    1.30
   2   1  11   11.30    1.50
   2   1  11   14.40    1.10
  -3  -1 -11    2.90    0.70
   3   1  11    5.40    1.10
  -4  -1 -11   25.00    1.50
   4   1  11   21.20    1.90
  -5  -1 -11    0.90    0.60
   5   1  11    0.70    0.70
  -6  -1 -11   -0.50    0.40
   6   1  11   -0.80    0.60
  -7  -1 -11    0.70    0.50
   7   1  11    0.10    0.70
   8   1  11    6.40    1.40
  -9  -1 -11    5.30    0.90
   9   1  11    3.30    1.20
 -10  -1 -11    2.40    0.70
  10   1  11    2.50    1.10
 -11  -1 -11    5.00    1.00
  11   1  11    3.40    1.30
 -12  -1 -11    3.40    0.90
  12   1  11    1.50    1.10
 -13  -1 -11    7.50    1.30
   5  -2 -11    1.60    0.90
  -5   2  11    2.70    1.00
   4  -2 -11    1.70    0.90
  -4   2  11    2.30    0.90
   3  -2 -11   -0.50    0.60
  -3   2  11    0.10    0.60
   2  -2 -11   -0.40    0.60
  -2   2  11    0.50    0.60
   1  -2 -11    2.80    0.80
  -1   2  11    2.50    0.70
   0  -2 -11    1.90    0.80
   0  -2 -11    3.50    0.80
   0   2  11    2.30    0.70
  -1  -2 -11    1.50    0.60
   1   2  11    2.00    0.60
   1   2  11    1.70    0.70
  -2  -2 -11    2.10    0.70
   2   2  11    1.20    0.40
   2   2  11    0.20    0.60
  -3  -2 -11   -0.40    0.50
   3   2  11    0.30    0.40
   3   2  11    0.10    0.50
  -4  -2 -11    1.10    0.60
   4   2  11    2.10    0.90
  -5  -2 -11   11.90    1.10
   5   2  11   12.70    1.80
  -6  -2 -11    4.80    0.80
   6   2  11    6.10    1.30
  -7  -2 -11    5.60    0.80
   7   2  11    4.40    1.10
  -8  -2 -11    9.10    1.00
   8   2  11   12.80    1.80
  -9  -2 -11   29.10    1.60
   9   2  11   26.30    2.30
 -10  -2 -11   17.70    1.40
  10   2  11   14.80    2.00
 -11  -2 -11    0.70    0.50
  11   2  11    0.00    0.80
 -12  -2 -11    2.30    0.80
  12   2  11    0.90    0.90
 -13  -2 -11    3.00    1.00
  -5   3  11    1.80    0.90
  -4   3  11    4.20    1.10
  -3   3  11    0.10    0.60
   2  -3 -11   -0.40    0.80
  -2   3  11    0.40    0.60
   1  -3 -11   -0.10    0.50
  -1   3  11    0.70    0.60
   0  -3 -11   -0.10    0.50
   0  -3 -11   -0.10    0.60
   0   3  11    0.40    0.50
  -1  -3 -11    1.10    0.80
  -1  -3 -11    0.30    0.50
   1   3  11    1.80    0.60
  -2  -3 -11    1.20    0.60
   2   3  11    1.10    0.50
   2   3  11    1.90    0.80
  -3  -3 -11    0.00    0.50
   3   3  11    0.20    0.40
   3   3  11   -0.10    0.60
  -4  -3 -11   36.70    1.70
   4   3  11   41.10    1.70
   4   3  11   42.20    2.50
  -5  -3 -11    3.50    0.70
   5   3  11    4.70    0.70
   5   3  11    4.90    1.20
  -6  -3 -11   31.60    1.60
   6   3  11   33.30    2.40
  -7  -3 -11   -0.30    0.40
   7   3  11    0.00    0.70
  -8  -3 -11    1.90    0.60
   8   3  11    2.80    1.00
  -9  -3 -11   24.80    1.90
   9   3  11   24.30    2.20
  10   3  11    8.70    1.60
  11   3  11   -0.20    0.70
  12   3  11   -0.20    0.80
  -4   4  11   -0.20    0.70
  -3   4  11    3.70    1.10
  -2   4  11    2.00    0.90
  -1   4  11    4.80    1.00
   0  -4 -11   -0.60    0.60
   0   4  11   -0.70    0.40
  -1  -4 -11    0.90    0.80
   1   4  11    1.30    0.60
  -2  -4 -11    5.90    1.30
   2   4  11    4.80    0.80
  -3  -4 -11   -0.10    0.70
   3   4  11    0.30    0.40
   4   4  11    0.20    0.40
   4   4  11    1.20    0.80
   5   4  11   18.10    1.20
   5   4  11   23.40    2.10
   6   4  11    6.00    0.90
   6   4  11    3.50    1.10
   7   4  11    9.60    1.10
   7   4  11    7.50    1.50
   8   4  11    1.60    0.90
   9   4  11    9.00    1.60
  10   4  11    6.40    1.40
  11   4  11    1.40    0.90
 -13  -4 -11    0.60    1.20
  -3   5  11    0.50    0.80
  -2   5  11    1.90    0.80
  -1   5  11    1.30    0.80
   0  -5 -11   -0.20    0.60
   0   5  11   -0.10    0.60
  -1  -5 -11    2.00    0.80
   1   5  11    2.10    0.80
  -2  -5 -11    3.30    1.00
   2   5  11    2.30    0.70
  -3  -5 -11    3.60    1.10
   3   5  11    3.30    0.80
  -4  -5 -11    1.90    0.90
   4   5  11    2.90    0.70
  -5  -5 -11    1.90    0.90
   5   5  11    0.30    0.40
  -6  -5 -11    8.70    1.60
   6   5  11    8.70    1.10
  -7  -5 -11   -0.40    0.60
   7   5  11   -0.10    0.40
  -8  -5 -11    5.20    1.30
   8   5  11    6.50    1.00
  -9  -5 -11   -0.20    0.70
   9   5  11    0.30    0.60
 -10  -5 -11    0.70    0.90
 -11  -5 -11   -0.70    0.90
 -12  -5 -11    5.30    1.50
 -13  -5 -11   17.90    2.30
  -3   6  11   -0.10    0.70
  -2   6  11   -0.10    0.60
  -1   6  11    2.90    1.00
   0   6  11    1.80    0.70
  -1  -6 -11   -0.20    0.70
   1   6  11   -0.10    0.50
  -2  -6 -11   24.90    2.10
   2   6  11   20.10    1.60
  -3  -6 -11   57.19    3.10
   3   6  11   56.19    2.50
  -4  -6 -11    1.90    0.90
   4   6  11   -0.30    0.40
  -5  -6 -11    0.50    0.80
   5   6  11    0.20    0.40
  -6  -6 -11    5.60    1.40
   6   6  11    8.60    1.10
  -7  -6 -11    1.30    1.00
   7   6  11    0.30    0.50
  -8  -6 -11    0.60    0.80
   8   6  11    0.90    0.60
  -9  -6 -11    2.40    1.10
   9   6  11    2.90    0.80
 -10  -6 -11   20.40    2.40
  10   6  11   22.30    1.70
 -11  -6 -11   58.49    3.60
 -12  -6 -11   12.40    2.00
 -13  -6 -11    0.30    1.00
  -2   7  11    1.80    1.00
  -1   7  11    0.50    0.70
   0   7  11    5.90    1.20
  -1  -7 -11    1.10    0.80
   1   7  11    1.80    0.80
   2   7  11    5.10    1.00
  -3  -7 -11    1.40    1.00
   3   7  11    2.60    0.80
  -4  -7 -11    6.90    1.50
   4   7  11   10.50    1.40
  -5  -7 -11    0.70    0.90
   5   7  11   -0.10    0.40
  -6  -7 -11    2.70    1.00
   6   7  11    2.70    0.70
  -7  -7 -11    9.60    1.70
   7   7  11    5.20    0.90
  -8  -7 -11   -0.90    0.60
   8   7  11   -0.20    0.50
  -9  -7 -11    4.00    1.40
   9   7  11    3.30    0.90
 -10  -7 -11    5.00    1.40
  10   7  11    3.60    1.00
 -11  -7 -11    8.00    1.70
  11   7  11   11.50    1.60
 -12  -7 -11    2.30    1.30
 -13  -7 -11    8.90    1.80
  -1   8  11    6.30    1.40
   0   8  11    1.50    0.80
  -1  -8 -11    2.90    1.20
   1   8  11    3.30    1.00
  -2  -8 -11    4.00    1.20
   2   8  11    1.80    0.80
  -3  -8 -11    1.40    0.90
   3   8  11    2.00    0.80
  -4  -8 -11    1.80    1.10
   4   8  11    1.90    0.80
  -5  -8 -11    2.90    1.10
   5   8  11    6.00    1.00
  -6  -8 -11    1.20    1.00
   6   8  11    0.30    0.50
  -7  -8 -11    4.50    1.50
   7   8  11    5.40    1.00
  -8  -8 -11    1.70    1.10
   8   8  11    0.70    0.60
  -9  -8 -11    1.50    1.00
   9   8  11    2.50    0.80
 -10  -8 -11    4.10    1.30
  10   8  11    3.00    0.90
 -11  -8 -11   11.00    2.10
  11   8  11    5.60    1.20
 -12  -8 -11    2.20    1.40
  12   8  11    1.70    0.90
 -13  -8 -11    0.30    1.10
   0   9  11    0.00    0.70
   1   9  11    0.60    0.70
  -2  -9 -11    0.80    1.00
   2   9  11    2.50    0.90
  -3  -9 -11    0.30    0.90
   3   9  11    0.80    0.60
  -4  -9 -11   -0.90    0.70
   4   9  11   -0.10    0.60
  -5  -9 -11    1.10    1.00
   5   9  11   -0.20    0.50
  -6  -9 -11    2.00    1.20
   6   9  11    0.40    0.60
  -7  -9 -11    3.30    1.30
   7   9  11    5.40    1.10
  -8  -9 -11    3.90    1.40
   8   9  11    2.40    0.80
  -9  -9 -11    0.90    1.10
   9   9  11    0.80    0.70
 -10  -9 -11    0.00    0.90
  10   9  11   -0.30    0.60
 -11  -9 -11   -0.20    1.10
  11   9  11    1.00    0.80
 -12  -9 -11    0.10    1.10
  12   9  11    0.00    0.70
 -13  -9 -11    0.60    1.20
  13   9  11   -0.70    0.70
  -2 -10 -11    0.80    1.00
   2  10  11    1.90    0.90
  -3 -10 -11    1.10    1.10
   3  10  11    1.10    0.70
  -4 -10 -11   -0.20    1.00
   4  10  11   -0.10    0.60
  -5 -10 -11    5.20    1.50
   5  10  11    6.20    1.20
  -6 -10 -11    2.30    1.20
   6  10  11    2.00    0.80
  -7 -10 -11    1.20    1.10
   7  10  11    4.50    1.10
  -8 -10 -11    0.00    0.90
   8  10  11    0.30    0.60
  -9 -10 -11    0.50    1.10
   9  10  11    2.00    0.90
 -10 -10 -11    0.30    1.00
  10  10  11    0.60    0.70
 -11 -10 -11    7.90    1.90
  11  10  11    6.30    1.40
 -12 -10 -11   -0.10    1.10
  12  10  11    0.00    0.70
  -3 -11 -11    0.80    1.10
   3  11  11    1.20    1.30
  -4 -11 -11    0.40    1.10
   4  11  11    0.20    0.60
  -5 -11 -11    5.70    1.70
   5  11  11    6.50    1.20
  -6 -11 -11   19.70    2.60
   6  11  11   20.40    1.80
  -7 -11 -11    1.10    1.10
   7  11  11   -0.10    0.60
  -8 -11 -11   -0.50    1.10
   8  11  11    0.20    0.70
  -9 -11 -11    7.70    1.80
   9  11  11    6.60    1.30
 -10 -11 -11   -0.70    0.90
  10  11  11   -0.30    0.70
 -11 -11 -11    0.30    1.00
  11  11  11    0.40    0.70
  -6 -12 -11    0.30    1.60
  -7 -12 -11    0.50    1.20
   7  12  11    1.30    0.80
  -8 -12 -11    5.60    2.70
   8  12  11    6.20    1.50
   9  12  11    4.40    1.30
  -1  -9  12    0.00    1.00
   0  -9  12    0.20    1.10
   2   8 -12    2.40    1.30
   1   8 -12   -0.30    1.00
  -1  -8  12    0.50    1.00
   0   8 -12   14.00    1.90
   0  -8  12   12.30    2.00
  -1   8 -12   -1.10    0.80
   1  -8  12    1.40    1.10
  -2   8 -12    0.20    0.90
   2  -8  12   -0.20    1.00
  -3   8 -12    0.60    1.00
   3  -8  12    2.00    1.30
   3   7 -12    6.80    1.60
   2   7 -12   -1.00    0.80
   1   7 -12    0.70    1.10
  -1  -7  12    2.90    1.10
   0   7 -12    0.60    0.90
   0  -7  12    0.40    0.90
  -1   7 -12   -1.90    0.70
   1  -7  12    0.30    0.90
  -2   7 -12    4.50    1.20
   2  -7  12    5.00    1.50
  -3   7 -12    5.40    1.30
   3  -7  12    5.70    1.60
  -4   7 -12    6.50    1.40
   4  -7  12    5.60    1.60
  -5   7 -12    0.50    0.80
   5  -7  12    0.10    0.90
   4   6 -12    1.00    1.00
   3   6 -12   -0.80    0.80
   2   6 -12    1.70    1.10
   1   6 -12    0.10    0.80
  -1  -6  12    1.50    1.00
   0   6 -12    7.80    1.50
   0  -6  12    3.80    1.30
  -1   6 -12    3.60    1.10
   1  -6  12    2.60    1.10
  -2   6 -12    3.40    1.10
   2  -6  12    2.90    1.20
  -3   6 -12    1.90    1.00
   3  -6  12    0.30    1.00
  -4   6 -12    4.80    1.20
   4  -6  12    2.00    1.20
  -5   6 -12    1.70    1.00
   5  -6  12    1.10    1.10
  -6   6 -12   -0.40    0.60
   6  -6  12    0.10    1.00
   7  -6  12    1.50    1.20
   5   5 -12   -1.00    1.40
   4   5 -12   -0.80    0.80
   3   5 -12    2.00    1.10
   2   5 -12    0.50    0.90
   1   5 -12   -1.50    0.70
  -1  -5  12   -0.80    0.70
   0   5 -12    0.00    0.80
   0  -5  12   -0.20    0.80
  -1   5 -12    0.10    0.80
   1  -5  12    1.20    0.90
  -2   5 -12    1.00    0.80
   2  -5  12    0.20    0.90
  -3   5 -12   -0.10    0.80
   3  -5  12    0.10    0.90
  -4   5 -12    1.00    0.80
   4  -5  12    0.30    0.90
  -5   5 -12    7.70    1.30
   5  -5  12    7.60    1.60
  -6   5 -12    4.20    1.10
   6  -5  12    2.30    1.30
  -7   5 -12    1.50    0.80
   7  -5  12    1.70    1.20
  -8   5 -12    0.70    0.80
   8  -5  12    0.90    1.10
   5   4 -12   -1.40    0.80
   4   4 -12   -0.30    0.90
   3   4 -12    1.10    0.90
   2   4 -12    0.80    0.80
   1   4 -12    1.20    1.00
  -1  -4  12    3.80    1.10
   0   4 -12   -0.20    0.70
   0  -4  12    0.70    0.80
  -1   4 -12    5.70    1.20
   1  -4  12    5.70    1.40
  -2   4 -12    0.70    0.80
   2  -4  12   -0.20    0.70
  -3   4 -12    4.90    1.10
   3  -4  12    7.30    1.50
  -4   4 -12    2.60    0.90
   4  -4  12    3.10    1.10
  -5   4 -12    4.10    1.00
   5  -4  12    7.10    1.60
  -6   4 -12    3.70    1.00
   6  -4  12    4.70    1.40
   7  -4  12   -0.40    0.90
  -8   4 -12    0.60    0.60
   8  -4  12    2.30    1.20
  -9   4 -12    0.50    0.70
   9  -4  12    0.10    0.90
   5   3 -12    2.30    1.00
   4   3 -12    0.50    0.80
   3   3 -12    8.90    1.40
   2   3 -12   -0.30    0.70
   1   3 -12   -0.40    0.80
  -1  -3  12   -0.70    0.70
   0   3 -12    3.50    1.00
   0  -3  12    2.70    1.00
  -1   3 -12   -0.10    0.60
   1  -3  12   -0.20    0.70
  -2   3 -12    4.90    1.10
   2  -3  12    3.20    1.10
  -3   3 -12    5.60    1.20
   3  -3  12    4.80    1.30
  -4   3 -12    7.30    1.30
   4  -3  12    9.30    1.80
  -5   3 -12    0.80    0.60
   5  -3  12    0.60    0.90
  -6   3 -12    0.10    0.70
   6  -3  12    0.60    0.90
  -7   3 -12   24.50    1.90
   7  -3  12   24.40    2.70
  -8   3 -12    1.40    0.80
   8  -3  12    1.40    1.10
  -9   3 -12    2.60    0.90
   9  -3  12    1.90    1.10
 -10   3 -12    8.00    1.60
  10  -3  12    9.80    1.90
   5   2 -12   -0.80    0.80
   4   2 -12    0.40    0.90
   3   2 -12    8.70    1.40
   2   2 -12    1.50    0.90
   1   2 -12   -1.00    0.60
   0   2 -12    4.80    1.10
   0  -2  12    4.70    1.10
  -1   2 -12    4.40    1.10
   1  -2  12    2.30    0.90
  -2   2 -12    1.80    0.90
   2  -2  12    3.90    1.10
  -3   2 -12   12.40    1.50
   3  -2  12   13.40    1.90
  -4   2 -12    0.50    0.70
   4  -2  12    0.70    0.80
  -5   2 -12   19.30    1.60
   5  -2  12   17.40    2.10
  -6   2 -12    3.50    0.90
   6  -2  12    3.10    1.30
  -7   2 -12    0.70    0.70
   7  -2  12    2.00    1.10
  -8   2 -12    0.40    0.50
   8  -2  12    0.00    0.90
  -9   2 -12    8.80    1.30
   9  -2  12    8.70    1.80
 -10   2 -12    9.30    1.40
  10  -2  12   12.40    2.10
   5   1 -12    4.00    1.20
   4   1 -12    6.90    1.40
   3   1 -12    1.20    0.80
   2   1 -12    0.70    0.80
   1   1 -12    0.00    0.70
   0   1 -12    0.00    0.60
   0  -1  12    0.60    0.70
  -1   1 -12    7.70    1.20
   1  -1  12    5.30    1.20
  -2   1 -12    4.30    0.90
   2  -1  12    4.60    1.20
  -3   1 -12    8.90    1.20
   3  -1  12   12.90    1.80
  -4   1 -12    2.20    0.80
   4  -1  12    1.10    0.80
  -5   1 -12    6.50    1.10
   5  -1  12    6.90    1.50
  -6   1 -12   -0.10    0.50
   6  -1  12    0.80    0.90
  -7   1 -12   11.60    1.40
   7  -1  12    9.10    1.70
  -8   1 -12    0.40    0.60
   8  -1  12    0.50    0.90
  -9   1 -12    2.00    0.80
   9  -1  12    0.80    0.90
 -10   1 -12    4.70    1.00
  10  -1  12    5.60    1.40
 -11   1 -12    6.90    1.20
  11  -1  12    5.70    1.60
   5   0 -12    0.30    0.90
  -5   0  12    1.50    0.90
   4   0 -12    2.10    1.00
  -4   0  12    2.70    1.00
   3   0 -12    1.00    0.80
  -3   0  12    0.60    0.60
   2   0 -12    1.90    0.90
   1   0 -12    0.50    0.70
   0   0 -12    0.10    0.60
   0   0  12    0.40    0.60
  -1   0 -12    3.80    0.90
   1   0  12    2.60    1.00
  -2   0 -12    0.20    0.60
   2   0  12    0.20    0.70
  -3   0 -12   26.70    1.70
   3   0  12   27.00    2.20
  -4   0 -12   41.30    2.10
   4   0  12   43.90    2.80
  -5   0 -12    0.50    0.70
   5   0  12    0.40    0.80
  -6   0 -12    4.60    0.90
   6   0  12    3.90    1.20
  -7   0 -12    2.50    0.80
   7   0  12    1.60    1.10
  -8   0 -12    1.80    0.70
   8   0  12    0.40    0.80
  -9   0 -12    0.60    0.50
   9   0  12    0.30    0.90
 -10   0 -12    5.10    1.00
  10   0  12    1.10    1.10
 -11   0 -12    4.50    1.00
  11   0  12    4.30    1.40
 -12   0 -12    2.20    0.90
  12   0  12    1.80    1.20
   5  -1 -12    1.70    1.00
  -5   1  12    2.20    1.00
   4  -1 -12    0.90    0.90
  -4   1  12    2.20    0.90
   3  -1 -12    4.70    1.20
  -3   1  12    4.90    1.10
   2  -1 -12    3.20    1.00
  -2   1  12    2.80    0.80
   1  -1 -12    0.50    0.70
  -1   1  12    0.60    0.50
   0  -1 -12    3.50    0.90
   0   1  12    5.00    1.10
  -1  -1 -12   -0.10    0.60
   1   1  12    0.60    0.60
  -2  -1 -12    1.30    0.70
   2   1  12    1.90    0.90
  -3  -1 -12    6.00    1.00
   3   1  12    5.10    1.30
  -4  -1 -12    3.90    0.90
   4   1  12    6.50    1.40
  -5  -1 -12    1.90    0.70
   5   1  12    0.60    0.80
  -6  -1 -12    2.20    0.70
   6   1  12    1.90    0.90
  -7  -1 -12    6.40    1.00
   7   1  12    7.50    1.50
  -8  -1 -12    0.50    0.50
   8   1  12   -1.00    0.70
  -9  -1 -12    1.60    0.60
   9   1  12   -0.40    0.70
 -10  -1 -12    0.40    0.60
  10   1  12    0.00    0.90
 -11  -1 -12    1.80    0.70
  11   1  12    3.70    1.30
 -12  -1 -12    8.80    1.30
  12   1  12    6.50    1.60
  -4   2  12   -0.20    0.70
   3  -2 -12    0.90    1.00
  -3   2  12   -0.90    0.50
   2  -2 -12    0.20    0.70
  -2   2  12   -0.30    0.60
   1  -2 -12    0.20    0.60
  -1   2  12    0.50    0.50
   0  -2 -12    0.30    0.70
   0  -2 -12    0.10    0.60
   0   2  12    0.40    0.60
  -1  -2 -12    0.40    0.60
   1   2  12    1.20    0.60
   1   2  12    1.50    0.80
  -2  -2 -12   -0.10    0.60
   2   2  12    0.50    0.70
  -3  -2 -12    8.10    1.10
   3   2  12    7.90    1.40
  -4  -2 -12    2.30    0.70
   4   2  12    1.10    0.90
  -5  -2 -12    0.70    0.60
   5   2  12    0.00    0.70
  -6  -2 -12    1.30    0.70
   6   2  12    0.40    0.90
  -7  -2 -12    0.90    0.60
   7   2  12    1.50    1.00
  -8  -2 -12    1.80    0.70
   8   2  12    2.70    1.10
  -9  -2 -12    4.40    0.90
   9   2  12    2.90    1.20
 -10  -2 -12    2.10    0.70
  10   2  12    1.60    1.10
  11   2  12    0.00    0.90
  12   2  12   25.50    2.70
  -4   3  12    0.90    0.80
  -3   3  12    2.30    0.90
  -2   3  12    4.20    1.10
  -1   3  12    1.70    0.80
   0  -3 -12    5.30    1.60
   0   3  12    5.20    1.00
  -1  -3 -12    9.20    1.50
   1   3  12   11.70    1.40
  -2  -3 -12    3.70    1.10
   3   3  12    7.70    1.00
   3   3  12    5.70    1.30
   4   3  12    7.70    1.40
   5   3  12    2.50    0.90
   6   3  12   36.50    2.60
   7   3  12    8.20    1.50
   8   3  12    0.80    0.90
   9   3  12    0.60    0.80
  10   3  12    6.20    1.50
  11   3  12    2.60    1.10
  12   3  12    0.30    0.90
  13   3  12    2.20    1.10
  -3   4  12    4.60    1.20
  -2   4  12   -0.10    0.70
  -1   4  12    0.10    0.60
   0   4  12    6.00    1.20
  -1  -4 -12    1.70    0.90
   1   4  12    1.10    0.60
  -2  -4 -12   -1.60    0.60
   2   4  12   -0.20    0.40
  -3  -4 -12   -0.90    0.70
   3   4  12    0.50    0.50
  -4  -4 -12   15.00    2.00
   4   4  12   17.90    1.30
   5   4  12    2.40    0.70
   5   4  12    1.50    0.90
   6   4  12   17.40    2.20
   7   4  12    2.70    1.10
   8   4  12   -0.20    0.80
   9   4  12    0.80    0.90
  10   4  12   10.60    1.80
  11   4  12    0.50    0.90
  12   4  12   -0.90    0.80
 -13  -4 -12    0.90    1.20
  -2   5  12    0.00    0.70
  -1   5  12    0.20    0.70
   0   5  12    5.20    1.10
  -1  -5 -12    3.00    1.10
   1   5  12    3.80    0.90
  -2  -5 -12   19.30    2.10
   2   5  12   18.20    1.50
  -3  -5 -12   14.30    1.80
   3   5  12   12.80    1.40
  -4  -5 -12   15.70    2.00
   4   5  12   19.10    1.40
  -5  -5 -12    2.30    1.00
   5   5  12    4.20    0.80
  -6  -5 -12    2.70    1.00
   6   5  12    2.90    0.70
  -7  -5 -12    1.20    1.00
   7   5  12    2.40    0.70
  -8  -5 -12    5.50    1.40
  -9  -5 -12    1.20    1.10
 -10  -5 -12    6.10    1.60
 -11  -5 -12    0.40    1.00
 -12  -5 -12   16.30    2.40
 -13  -5 -12    6.30    1.70
  -2   6  12    1.40    1.00
  -1   6  12    0.30    0.70
   0   6  12    0.10    0.70
  -1  -6 -12   -0.10    0.80
   1   6  12    0.30    0.60
  -2  -6 -12    0.80    0.90
   2   6  12    1.00    0.60
  -3  -6 -12   21.00    2.30
   3   6  12   25.60    1.70
  -4  -6 -12    3.50    1.20
   4   6  12    4.00    0.90
  -5  -6 -12    1.80    1.00
   5   6  12    0.30    0.50
  -6  -6 -12    3.40    1.20
   6   6  12    1.70    0.70
  -7  -6 -12    0.40    0.80
   7   6  12    0.00    0.50
  -8  -6 -12   -0.60    0.80
   8   6  12   -0.50    0.50
  -9  -6 -12   17.30    2.20
 -10  -6 -12   30.80    2.70
 -11  -6 -12    3.30    1.30
 -12  -6 -12    1.90    1.20
 -13  -6 -12    0.10    1.00
  -1   7  12    0.40    0.80
   0   7  12    1.70    0.80
   1   7  12   27.40    2.10
  -2  -7 -12    0.40    0.90
   2   7  12    1.00    0.70
  -3  -7 -12   13.60    2.00
   3   7  12   11.70    1.40
  -4  -7 -12   -0.80    0.70
   4   7  12    0.20    0.50
  -5  -7 -12    0.30    0.90
   5   7  12    1.70    0.70
  -6  -7 -12    0.50    1.00
   6   7  12   -0.40    0.50
  -7  -7 -12    1.60    1.10
   7   7  12    1.60    0.70
  -8  -7 -12    7.80    1.60
   8   7  12   11.20    1.40
  -9  -7 -12    0.80    1.00
   9   7  12    1.60    0.80
 -10  -7 -12    6.60    1.60
 -11  -7 -12   15.90    2.30
 -12  -7 -12   16.10    2.30
 -13  -7 -12    0.20    1.10
   0   8  12    1.60    1.00
   1   8  12    0.40    0.60
  -2  -8 -12    3.60    1.20
   2   8  12    2.90    0.90
  -3  -8 -12    0.10    0.90
   3   8  12   -0.20    0.50
  -4  -8 -12    1.20    0.90
   4   8  12    1.80    0.80
  -5  -8 -12    1.20    1.00
   5   8  12    1.60    0.70
  -6  -8 -12    3.10    1.30
   6   8  12    5.10    1.00
  -7  -8 -12    4.20    1.50
   7   8  12    4.00    1.00
  -8  -8 -12    3.50    1.30
   8   8  12    3.80    0.90
  -9  -8 -12    0.00    1.00
   9   8  12    0.40    0.60
 -10  -8 -12   14.20    2.30
  10   8  12   13.50    1.70
 -11  -8 -12    3.40    1.40
  11   8  12    0.50    0.80
 -12  -8 -12    1.10    1.20
  -2  -9 -12   -0.30    1.00
   2   9  12    0.10    0.70
  -3  -9 -12    0.10    0.90
   3   9  12   -0.10    0.70
  -4  -9 -12   -0.10    0.90
   4   9  12    0.00    0.50
  -5  -9 -12    1.20    1.00
   5   9  12    0.90    0.60
  -6  -9 -12    5.90    1.60
   6   9  12   10.10    1.40
  -7  -9 -12    4.20    1.40
   7   9  12    3.40    1.00
  -8  -9 -12    2.30    1.20
   8   9  12    3.50    1.00
  -9  -9 -12    0.40    1.10
   9   9  12    1.30    0.80
 -10  -9 -12    5.90    1.70
  10   9  12   10.30    1.50
 -11  -9 -12   10.80    2.10
  11   9  12   11.10    1.60
 -12  -9 -12   -0.10    1.20
  12   9  12   -0.10    0.80
  -3 -10 -12    0.40    1.00
   3  10  12    2.10    1.10
  -4 -10 -12    2.30    1.30
   4  10  12    3.80    1.10
  -5 -10 -12    3.40    1.30
   5  10  12    4.60    1.10
  -6 -10 -12    4.40    1.40
   6  10  12    5.20    1.10
  -7 -10 -12   -0.90    0.90
   7  10  12    0.10    0.60
  -8 -10 -12    9.10    2.00
   8  10  12    8.30    1.40
  -9 -10 -12   -0.10    1.00
   9  10  12    0.50    0.70
 -10 -10 -12    1.10    1.10
  10  10  12    0.40    0.70
 -11 -10 -12    1.60    1.50
  11  10  12    2.40    1.00
  -5 -11 -12   -0.40    1.80
  -6 -11 -12    7.80    2.10
   6  11  12   11.10    1.70
  -7 -11 -12    5.80    1.80
   7  11  12    8.90    1.40
  -8 -11 -12    2.50    1.50
   8  11  12   -0.30    0.70
   9  11  12    2.70    1.00
   0   7 -13   -2.00    1.00
   0  -7  13    0.20    0.90
  -1   7 -13   -1.00    0.90
   1  -7  13    2.80    1.20
  -2   7 -13   -0.60    0.90
   2  -7  13    0.50    1.00
   3  -7  13    4.30    1.50
   2   6 -13    9.10    1.70
   1   6 -13    1.20    1.00
   0   6 -13    0.70    0.90
   0  -6  13    1.80    1.10
  -1   6 -13    0.00    0.80
   1  -6  13    0.80    1.00
  -2   6 -13    1.00    1.00
   2  -6  13    2.80    1.20
  -3   6 -13    0.70    0.90
   3  -6  13    1.30    1.20
  -4   6 -13    1.70    1.00
   4  -6  13    1.20    1.10
  -5   6 -13    6.20    1.40
   5  -6  13    6.40    1.80
   3   5 -13    2.90    1.20
   2   5 -13    1.40    1.00
   1   5 -13   -1.40    0.80
   0   5 -13   -1.10    0.70
   0  -5  13   -1.20    0.70
  -1   5 -13    1.50    1.00
   1  -5  13    0.20    1.00
  -2   5 -13    0.50    0.90
   2  -5  13    1.10    1.00
  -3   5 -13    1.10    0.90
   3  -5  13    0.40    0.90
  -4   5 -13    2.70    1.10
   4  -5  13    1.00    1.10
  -5   5 -13   -0.20    0.80
   5  -5  13   -1.10    0.80
  -6   5 -13    1.80    0.90
   6  -5  13    0.80    1.10
   3   4 -13    6.30    1.40
   2   4 -13    2.30    1.10
   1   4 -13    0.20    0.90
   0   4 -13    2.80    1.10
   0  -4  13    3.00    1.20
  -1   4 -13    6.50    1.30
   1  -4  13    5.80    1.50
  -2   4 -13    6.10    1.30
   2  -4  13    5.60    1.40
  -3   4 -13    2.60    1.00
   3  -4  13    2.20    1.20
  -4   4 -13    3.00    1.00
   4  -4  13    0.10    1.00
  -5   4 -13    6.30    1.30
   5  -4  13    7.10    1.70
  -6   4 -13    1.10    0.90
   6  -4  13    2.80    1.20
  -7   4 -13    7.10    1.30
   7  -4  13    9.10    1.90
  -8   4 -13    6.70    1.50
   8  -4  13    6.10    2.50
   4   3 -13   -0.50    1.40
   3   3 -13    1.30    1.00
   2   3 -13    3.00    1.10
   1   3 -13    3.10    1.10
   0   3 -13    2.00    1.00
   0  -3  13    3.50    1.20
  -1   3 -13    1.80    1.00
   1  -3  13    2.90    1.20
  -2   3 -13    8.30    1.40
   2  -3  13    8.90    1.70
  -3   3 -13    0.30    0.80
   3  -3  13   -1.00    0.70
  -4   3 -13    4.60    1.20
   4  -3  13    2.00    1.10
  -5   3 -13   -0.10    0.70
   5  -3  13   -0.90    0.60
  -6   3 -13   13.20    1.60
   6  -3  13   17.10    2.30
  -7   3 -13   10.60    1.50
   7  -3  13    7.10    1.70
  -8   3 -13   -0.40    0.60
   8  -3  13    0.30    1.00
  -9   3 -13    0.00    0.70
   9  -3  13    2.80    2.20
   4   2 -13    3.60    1.20
   3   2 -13    0.20    0.80
   2   2 -13    1.10    0.90
   1   2 -13   -1.40    0.70
   0   2 -13   -0.60    0.70
   0  -2  13    0.40    0.80
  -1   2 -13    5.20    1.20
   1  -2  13    6.00    1.40
  -2   2 -13   -0.80    0.70
   2  -2  13    0.00    0.80
  -3   2 -13    7.60    1.30
   3  -2  13    9.50    1.80
  -4   2 -13   15.20    1.60
   4  -2  13   18.60    2.40
  -5   2 -13    1.00    0.80
   5  -2  13    0.70    1.00
  -6   2 -13    5.20    1.10
   6  -2  13    3.30    1.30
  -7   2 -13    1.40    0.80
   7  -2  13    0.80    1.00
  -8   2 -13    1.30    0.80
   8  -2  13   -0.10    1.00
  -9   2 -13   19.20    1.90
   9  -2  13   16.30    2.40
 -10   2 -13    3.70    1.50
   4   1 -13   -0.30    0.90
   3   1 -13    0.50    0.90
   2   1 -13    2.60    1.10
   1   1 -13    0.10    0.80
   0   1 -13   -0.20    0.80
   0  -1  13    0.50    0.80
  -1   1 -13    0.70    0.80
   1  -1  13    0.00    0.70
  -2   1 -13   11.40    1.50
   2  -1  13   14.50    2.00
  -3   1 -13   28.50    2.00
   3  -1  13   27.60    2.40
  -4   1 -13   15.40    1.60
   4  -1  13   15.40    2.10
  -5   1 -13   15.30    1.60
   5  -1  13   15.20    2.10
  -6   1 -13    1.70    0.80
   6  -1  13    0.10    0.90
  -7   1 -13    0.30    0.60
   7  -1  13    0.30    1.00
  -8   1 -13    0.20    0.60
   8  -1  13    0.20    1.00
  -9   1 -13    1.10    0.70
   9  -1  13    0.60    1.00
 -10   1 -13    6.20    1.20
  10  -1  13    4.50    1.50
   4   0 -13    0.00    0.90
   3   0 -13    0.60    0.90
   2   0 -13    0.50    0.80
   1   0 -13    1.80    0.80
   0   0 -13   -0.20    0.70
  -1   0 -13   16.00    1.60
   1   0  13   21.00    1.90
  -2   0 -13    1.30    0.80
   2   0  13    1.20    0.80
  -3   0 -13    0.90    0.80
   3   0  13    2.00    1.00
  -4   0 -13    5.60    1.10
   4   0  13    5.00    1.30
  -5   0 -13    0.50    0.70
   5   0  13    0.10    0.80
  -6   0 -13   10.60    1.30
   6   0  13   11.50    1.90
  -7   0 -13   -0.10    0.60
   7   0  13    1.40    1.00
  -8   0 -13    0.10    0.60
   8   0  13    1.50    1.10
  -9   0 -13   12.10    1.40
   9   0  13   15.70    2.30
 -10   0 -13    3.00    0.90
  10   0  13    4.20    1.40
 -11   0 -13   29.60    2.00
  11   0  13   31.10    3.30
   3  -1 -13    0.00    0.80
   2  -1 -13   -0.30    0.70
   1  -1 -13    0.00    0.70
   0  -1 -13    1.20    0.80
  -1  -1 -13    5.10    1.10
   1   1  13    7.20    1.40
  -2  -1 -13    0.40    0.70
   2   1  13    0.60    0.80
  -3  -1 -13    8.20    1.20
   3   1  13   12.30    1.80
   4   1  13    0.90    0.80
  -5  -1 -13   -0.50    0.60
   5   1  13    1.30    1.00
  -6  -1 -13    0.70    0.70
   6   1  13    1.30    0.90
  -7  -1 -13    1.60    0.70
   7   1  13    1.10    0.90
  -8  -1 -13    4.30    0.90
   8   1  13    2.70    1.20
  -9  -1 -13    0.70    0.70
   9   1  13    0.80    1.00
 -10  -1 -13    2.90    0.80
  10   1  13    1.60    1.20
  11   1  13    2.10    1.30
  -3   2  13    0.60    0.70
  -2   2  13    0.40    0.70
  -1  -2 -13   -0.10    0.80
   2   2  13    0.30    0.70
   3   2  13    1.60    0.90
   4   2  13    8.10    1.60
   5   2  13    1.80    1.00
   6   2  13    4.20    1.30
   7   2  13    3.90    1.30
   8   2  13   17.10    2.40
   9   2  13   12.70    2.10
  10   2  13    0.60    0.90
  11   2  13    0.80    1.00
  12   2  13    2.00    1.40
  -2   3  13   -0.10    0.70
  -1   3  13    0.10    0.70
   0   3  13    0.50    0.60
  -1  -3 -13    4.50    1.30
   1   3  13    3.90    1.00
  -2  -3 -13    1.20    0.90
   3   3  13   13.00    1.90
   4   3  13    5.90    1.40
   5   3  13   17.60    2.10
   6   3  13    0.40    0.80
   7   3  13    0.00    0.80
   8   3  13   17.50    2.30
   9   3  13    7.70    1.70
  10   3  13    1.10    1.00
  11   3  13    0.40    0.90
  12   3  13   18.30    2.50
  -2   4  13    2.10    0.90
  -1   4  13    0.20    0.70
   0   4  13    0.30    0.60
  -1  -4 -13    1.20    1.00
   1   4  13    2.20    0.80
  -2  -4 -13    0.30    0.80
   2   4  13    1.70    0.70
  -3  -4 -13    0.90    1.00
   3   4  13    3.10    0.90
  -4  -4 -13    9.00    1.70
   6   4  13    4.60    1.30
   7   4  13    3.30    1.20
   8   4  13    7.80    1.70
   9   4  13    6.50    1.50
  10   4  13    1.10    1.00
  11   4  13    1.00    1.00
  -1   5  13    0.00    0.70
   0   5  13    0.90    0.70
   1   5  13    1.90    0.80
  -2  -5 -13    3.10    1.20
   2   5  13    4.30    0.90
  -3  -5 -13    1.20    1.10
   3   5  13    2.40    0.70
  -4  -5 -13    2.30    1.10
  -5  -5 -13    4.70    1.30
  -6  -5 -13   -0.20    0.80
  -7  -5 -13    2.20    1.10
  -8  -5 -13   -0.90    0.80
  -9  -5 -13   -0.20    0.90
 -10  -5 -13    0.90    1.20
 -11  -5 -13   13.90    2.20
 -12  -5 -13    8.40    1.90
   0   6  13    0.20    0.70
   1   6  13   15.60    1.90
  -2  -6 -13   26.50    2.40
   2   6  13   22.10    1.80
  -3  -6 -13    0.60    0.90
   3   6  13   -0.10    0.50
  -4  -6 -13    0.00    0.90
   4   6  13    0.90    0.70
  -5  -6 -13    5.20    1.40
   5   6  13    5.20    1.00
  -6  -6 -13   -0.80    0.80
   6   6  13    0.40    0.50
  -7  -6 -13    2.00    1.10
  -8  -6 -13    2.20    1.20
  -9  -6 -13    8.30    1.70
 -10  -6 -13   38.20    3.10
 -11  -6 -13   11.00    2.00
 -12  -6 -13    2.10    1.30
   1   7  13    1.00    0.70
  -2  -7 -13    0.30    1.00
   2   7  13    0.80    0.70
  -3  -7 -13    2.60    1.20
   3   7  13    7.50    1.20
  -4  -7 -13   -0.80    0.80
   4   7  13    0.40    0.60
  -5  -7 -13    1.30    1.10
   5   7  13   -0.20    0.60
  -6  -7 -13    4.20    1.40
   6   7  13    2.90    0.90
  -7  -7 -13    0.80    1.10
   7   7  13   -0.40    0.50
  -8  -7 -13    4.10    1.50
  -9  -7 -13    0.40    1.00
 -10  -7 -13    4.70    1.60
 -11  -7 -13    1.40    1.20
 -12  -7 -13    6.30    2.60
   2   8  13    0.40    0.70
  -3  -8 -13   -0.80    0.80
   3   8  13    0.10    0.60
  -4  -8 -13    3.40    1.20
   4   8  13    3.70    1.00
  -5  -8 -13   -0.10    0.90
   5   8  13   -0.40    0.50
  -6  -8 -13    2.20    1.20
   6   8  13    1.20    0.70
  -7  -8 -13   -0.20    0.90
   7   8  13    0.70    0.70
  -8  -8 -13    1.40    1.10
   8   8  13    4.50    1.10
  -9  -8 -13    0.40    1.10
   9   8  13    1.00    0.80
 -10  -8 -13    3.60    1.40
 -11  -8 -13    1.70    1.30
  -3  -9 -13    0.20    1.00
  -4  -9 -13   -0.30    0.90
   4   9  13   -0.20    0.60
  -5  -9 -13    0.20    1.00
   5   9  13    0.50    0.70
  -6  -9 -13    0.30    1.00
   6   9  13    1.60    0.70
  -7  -9 -13    2.00    1.30
   7   9  13    1.80    0.80
  -8  -9 -13    1.10    1.20
   8   9  13    1.10    0.70
  -9  -9 -13   -0.90    1.00
   9   9  13   -0.40    0.60
 -10  -9 -13    0.80    1.40
  10   9  13    0.70    0.70
   6  10  13    2.40    0.90
  -7 -10 -13   -0.70    1.70
   7  10  13   -0.10    0.70
   8  10  13    3.40    1.00
   9  10  13   -0.70    0.60
   1  -6  14    0.80    1.20
   2  -6  14    0.50    1.70
   0   5 -14   -1.70    0.90
  -1   5 -14   -2.70    0.80
   1  -5  14    0.50    1.00
  -2   5 -14   -0.40    0.90
   2  -5  14    1.30    1.20
  -3   5 -14   -0.50    0.90
   3  -5  14   -0.40    0.90
  -4   5 -14    4.20    1.30
   4  -5  14    3.20    1.50
   1   4 -14   -1.30    0.80
   0   4 -14   -0.60    0.90
  -1   4 -14   -0.80    0.80
   1  -4  14   -0.90    1.00
  -2   4 -14    4.70    1.30
   2  -4  14    5.90    1.60
  -3   4 -14   -0.70    0.80
   3  -4  14   -0.20    0.90
   4  -4  14    6.30    1.70
  -5   4 -14   -0.60    0.70
   5  -4  14   -0.20    0.90
  -6   4 -14    0.80    0.80
   6  -4  14   -1.10    1.40
   2   3 -14   -1.30    0.90
   1   3 -14    1.50    1.00
   0   3 -14   -0.50    0.80
  -1   3 -14    1.40    1.00
   1  -3  14    1.40    1.10
  -2   3 -14    1.50    1.10
   2  -3  14    3.30    1.30
  -3   3 -14    4.30    1.20
   3  -3  14    3.30    1.40
  -4   3 -14    0.70    0.90
   4  -3  14    1.90    1.20
  -5   3 -14    0.20    0.90
   5  -3  14    1.00    1.20
  -6   3 -14    6.40    1.30
   6  -3  14    9.50    2.00
  -7   3 -14   -0.30    0.70
   7  -3  14    1.10    1.20
   2   2 -14   -1.50    0.80
   1   2 -14   -0.10    0.90
   0   2 -14   -0.20    0.90
  -1   2 -14   -0.10    0.90
   1  -2  14   -0.10    0.80
  -2   2 -14    4.90    1.30
   2  -2  14    6.80    1.50
  -3   2 -14    0.20    0.80
   3  -2  14    0.30    0.90
  -4   2 -14    6.60    1.30
   4  -2  14    7.20    1.70
  -5   2 -14    0.10    0.80
   5  -2  14    0.20    0.90
  -6   2 -14   -0.10    0.80
   6  -2  14    2.90    1.30
  -7   2 -14   -0.60    0.60
   7  -2  14    0.10    1.00
  -8   2 -14    1.90    0.80
   8  -2  14    0.20    1.00
   2   1 -14   -0.10    0.80
   1   1 -14   -1.10    0.60
   0   1 -14    1.10    0.90
  -1   1 -14    3.00    1.10
   1  -1  14    0.00    0.90
  -2   1 -14    5.70    1.30
   2  -1  14    5.50    1.40
  -3   1 -14    2.10    1.00
   3  -1  14    1.80    1.10
  -4   1 -14    4.00    1.10
   4  -1  14    4.80    1.40
  -5   1 -14   -0.50    0.80
   5  -1  14   -0.20    0.70
  -6   1 -14    7.90    1.30
   6  -1  14    9.90    1.80
  -7   1 -14   -0.60    0.70
   7  -1  14   -0.10    1.00
  -8   1 -14    2.00    0.80
   8  -1  14    2.60    1.30
  -9   1 -14    2.10    0.80
   9  -1  14    5.30    1.80
   2   0 -14   -0.40    0.80
   1   0 -14   -0.30    0.70
   0   0 -14   -0.20    0.70
  -1   0 -14   -1.20    0.70
   1   0  14    0.90    0.90
  -2   0 -14    7.80    1.30
   2   0  14    8.60    1.70
  -3   0 -14   10.30    1.50
   3   0  14    8.90    1.70
  -4   0 -14   -1.20    0.60
   4   0  14   -1.20    0.70
  -5   0 -14    2.30    1.00
   5   0  14    2.50    1.20
  -6   0 -14    0.70    0.80
   6   0  14    0.60    1.00
  -7   0 -14   -0.20    0.70
   7   0  14    0.10    0.90
  -8   0 -14    0.60    0.70
   8   0  14    0.60    1.00
  -9   0 -14    0.70    0.70
   9   0  14    2.00    1.30
 -10   0 -14    2.80    0.90
   1   1  14    0.30    1.20
   2   1  14    1.60    0.90
   3   1  14    6.10    1.40
  -4  -1 -14    2.80    1.50
   4   1  14    1.50    1.10
   5   1  14    2.30    1.20
   6   1  14    4.20    1.40
   7   1  14    0.40    0.90
   8   1  14    3.00    1.40
   9   1  14    0.60    1.10
  10   1  14    1.50    1.30
   3   2  14   -0.20    0.80
   4   2  14    0.60    0.90
   5   2  14   -1.40    0.70
   6   2  14    0.20    0.90
   7   2  14    0.20    0.90
   8   2  14    1.70    1.10
   9   2  14    1.10    1.10
  10   2  14    0.30    1.00
  -2  -3 -14    3.00    1.20
  -3  -3 -14    3.30    1.30
   4   3  14    1.30    1.00
   5   3  14   21.40    2.60
   6   3  14    3.20    1.10
   7   3  14    1.50    1.10
   8   3  14   -0.20    1.00
   9   3  14    4.00    1.40
  10   3  14    2.10    1.20
  -2  -4 -14    0.30    1.00
  -3  -4 -14    6.50    1.50
  -4  -4 -14    0.10    0.90
  -5  -4 -14    5.50    1.40
   7   4  14    0.50    0.80
   8   4  14    2.40    1.20
   9   4  14   12.00    2.10
  10   4  14   -0.20    0.90
   1   5  14    5.90    1.20
  -2  -5 -14    4.80    1.40
  -3  -5 -14    8.40    1.70
  -4  -5 -14    2.00    1.10
  -5  -5 -14    1.10    1.10
  -6  -5 -14    1.90    1.20
  -7  -5 -14    3.30    1.20
  -8  -5 -14    1.90    1.30
  -9  -5 -14    3.00    1.30
 -10  -5 -14   -0.80    0.90
   1   6  14    0.40    0.70
   2   6  14   10.00    1.50
  -3  -6 -14    1.70    1.10
   3   6  14    1.30    0.70
  -4  -6 -14   -0.20    0.90
  -5  -6 -14    0.70    1.00
  -6  -6 -14    1.40    1.10
  -7  -6 -14    0.10    0.90
  -8  -6 -14   12.90    2.20
  -9  -6 -14    8.40    1.90
 -10  -6 -14    3.20    1.40
  -3  -7 -14   -0.20    0.90
   3   7  14   -1.10    0.60
  -4  -7 -14    2.10    1.10
   4   7  14    1.90    0.80
  -5  -7 -14    0.40    1.00
   5   7  14   -0.30    0.60
  -6  -7 -14    1.70    1.10
  -7  -7 -14    3.50    1.40
  -8  -7 -14    0.50    1.10
  -9  -7 -14    1.50    1.10
  -4  -8 -14    2.40    1.30
   4   8  14    1.30    0.70
  -5  -8 -14    0.90    1.20
   5   8  14    1.10    0.80
  -6  -8 -14   -0.20    1.00
   6   8  14    0.80    0.70
  -7  -8 -14    1.70    1.30
  -8  -8 -14    0.00    1.10
  -1   3 -15   -0.30    1.60
  -2   3 -15    0.00    1.00
   2  -3  15    0.70    1.10
  -3   3 -15    0.10    1.00
   3  -3  15    3.80    1.30
  -4   3 -15   -1.10    0.80
   4  -3  15   -0.50    1.10
  -5   3 -15    6.60    1.60
   0   2 -15    0.80    1.20
  -1   2 -15   -0.90    0.80
  -2   2 -15    4.10    1.30
   2  -2  15    4.30    1.40
  -3   2 -15    8.80    1.60
   3  -2  15   10.70    2.00
  -4   2 -15    0.20    0.90
   4  -2  15    0.40    0.90
  -5   2 -15    2.00    1.10
   5  -2  15    1.40    1.20
  -6   2 -15   -1.50    0.80
   6  -2  15    0.50    1.80
   0   1 -15    0.50    0.90
  -1   1 -15    2.90    1.20
  -2   1 -15   13.10    1.80
   2  -1  15   10.30    1.90
  -3   1 -15   11.30    1.60
   3  -1  15   12.20    2.10
  -4   1 -15    9.40    1.50
   4  -1  15    8.60    1.90
  -5   1 -15   -0.30    0.90
   5  -1  15    1.90    1.10
  -6   1 -15    2.40    1.00
   6  -1  15    0.50    1.00
  -7   1 -15    0.20    0.90
   7  -1  15    1.50    1.80
   2   0  15    2.30    1.10
  -3   0 -15    2.80    1.50
   3   0  15    2.10    1.10
  -4   0 -15    0.30    1.20
   4   0  15    1.50    1.10
  -5   0 -15    0.30    1.40
   5   0  15    0.60    1.10
   6   0  15    1.30    1.20
   7   0  15    0.10    1.00
   2   1  15    2.90    1.20
   3   1  15    1.20    1.00
   4   1  15    3.10    1.30
   5   1  15   -0.30    0.80
   6   1  15    0.90    1.10
   7   1  15    1.20    1.20
   8   1  15    0.40    1.00
  -2  -2 -15   -0.50    1.00
   3   2  15    4.10    1.30
   4   2  15    0.10    0.80
   5   2  15    0.60    1.10
   6   2  15    0.60    1.00
   7   2  15    8.10    1.80
   8   2  15    6.00    1.70
  -3  -3 -15    6.20    1.50
  -4  -3 -15   11.50    2.00
   5   3  15    1.00    1.00
   6   3  15    0.00    1.00
   7   3  15    7.30    1.80
   8   3  15    1.70    1.20
  -3  -4 -15    6.90    1.60
  -4  -4 -15    3.40    1.30
  -5  -4 -15    2.90    1.30
  -6  -4 -15   -0.40    0.90
  -7  -4 -15    1.10    1.20
  -3  -5 -15   -1.20    0.90
  -4  -5 -15    1.80    1.20
  -5  -5 -15    2.10    1.30
  -6  -5 -15    1.70    1.20
  -7  -5 -15   -0.90    1.00
  -8  -5 -15    0.00    1.00
  -4  -6 -15    2.00    1.40
  -5  -6 -15   -0.30    1.00
  -6  -6 -15    0.80    1.20
  -7  -6 -15    1.40    1.80
_computing_structure_solution     'SHELXT 2014/4 (Sheldrick, 2014)'
;
_shelx_hkl_checksum              61134
_shelx_res_file
;
TITL hate_a.res in P-1
REM Old TITL hate in P-1
REM SHELXT solution in P-1
REM R1 0.128, Rweak 0.006, Alpha 0.040, Orientation as input
REM Formula found by SHELXT: C18 O2
CELL 0.71073 9.2801 9.5498 9.6407 84.218 70.882 66.632
ZERR 2 0.0014 0.0014 0.0014 0.003 0.003 0.003
LATT 1
SFAC C H O
UNIT 36 40 4
L.S. 4
PLAN  20
SIZE 0.2 0.3 0.4
TEMP -153.15
BOND $H
list 4
fmap 2
acta
REM <olex2.extras>
REM <HklSrc "%.\\hate.hkl">
REM </olex2.extras>
WGHT    0.050000    0.150000
FVAR       0.56856
O1    3    0.236546    0.693765    0.127314    11.00000    0.02672    0.01583 =
         0.03730    0.00517   -0.01998   -0.00810
O2    3    0.066105    0.312492    0.046098    11.00000    0.02583    0.01670 =
         0.03972    0.00302   -0.02070   -0.00769
C1    1    0.338194    0.583731    0.167661    11.00000    0.01851    0.01701 =
         0.01969    0.00204   -0.00800   -0.00700
C2    1    0.463802    0.604144    0.218906    11.00000    0.01881    0.01848 =
         0.01916    0.00286   -0.00823   -0.00780
C3    1    0.601144    0.465998    0.244683    11.00000    0.02206    0.02107 =
         0.03354    0.00460   -0.01623   -0.00825
AFIX  23
H3A   2    0.648467    0.493867    0.310791    11.00000   -1.20000
H3B   2    0.689832    0.426762    0.150235    11.00000   -1.20000
AFIX   0
C4    1    0.537852    0.342391    0.313224    11.00000    0.02926    0.02063 =
         0.03063    0.00760   -0.01835   -0.01014
AFIX  23
H4A   2    0.451404    0.380771    0.408990    11.00000   -1.20000
H4B   2    0.629725    0.252388    0.331049    11.00000   -1.20000
AFIX   0
C5    1    0.466326    0.295347    0.212792    11.00000    0.02352    0.01499 =
         0.02639    0.00316   -0.01231   -0.00632
AFIX  23
H5A   2    0.557566    0.240353    0.124699    11.00000   -1.20000
H5B   2    0.414760    0.223853    0.264900    11.00000   -1.20000
AFIX   0
C6    1    0.339685    0.428010    0.164751    11.00000    0.01862    0.01519 =
         0.01848    0.00193   -0.00701   -0.00680
C7    1    0.225259    0.416447    0.114156    11.00000    0.01948    0.01479 =
         0.02166    0.00174   -0.00762   -0.00624
AFIX  43
H7    2    0.150326    0.509884    0.090492    11.00000   -1.20000
AFIX   0
C8    1    0.201640    0.282373    0.091369    11.00000    0.01807    0.01712 =
         0.02336    0.00155   -0.00971   -0.00661
C9    1    0.277161    0.128613    0.101307    11.00000    0.02176    0.01611 =
         0.02964    0.00136   -0.01318   -0.00583
AFIX  43
H9    2    0.373746    0.076529    0.129415    11.00000   -1.20000
AFIX   0
C10   1    0.184368    0.061082    0.061780    11.00000    0.02912    0.01628 =
         0.03770    0.00110   -0.01778   -0.00853
AFIX  43
H10   2    0.206110   -0.044704    0.058776    11.00000   -1.20000
AFIX   0
C11   1    0.059363    0.176371    0.029334    11.00000    0.03115    0.02003 =
         0.04341    0.00152   -0.02188   -0.01183
AFIX  43
H11   2   -0.022486    0.163945   -0.001184    11.00000   -1.20000
AFIX   0
C12   1    0.443790    0.748135    0.241160    11.00000    0.02296    0.02060 =
         0.02574    0.00246   -0.01186   -0.00958
AFIX  43
H12   2    0.350117    0.827495    0.224171    11.00000   -1.20000
AFIX   0
C13   1    0.550115    0.792312    0.287798    11.00000    0.02592    0.02062 =
         0.02646    0.00196   -0.01148   -0.01021
C14   1    0.634625    0.838266    0.325806    11.00000    0.02722    0.02371 =
         0.02810    0.00048   -0.01198   -0.01109
C15   1    0.738839    0.889564    0.376135    11.00000    0.02914    0.02586 =
         0.03380   -0.00151   -0.01503   -0.01380
AFIX  23
H15A  2    0.667413    0.966353    0.457333    11.00000   -1.20000
H15B  2    0.795241    0.940170    0.294594    11.00000   -1.20000
AFIX   0
C16   1    0.868734    0.761201    0.429006    11.00000    0.02263    0.02725 =
         0.02839   -0.00065   -0.00915   -0.01152
AFIX  23
H16A  2    0.813377    0.708255    0.508794    11.00000   -1.20000
H16B  2    0.943502    0.686082    0.347089    11.00000   -1.20000
AFIX   0
C17   1    0.969629    0.820463    0.484714    11.00000    0.02960    0.04264 =
         0.03450   -0.00284   -0.01438   -0.01750
AFIX  23
H17A  2    0.893667    0.901322    0.561265    11.00000   -1.20000
H17B  2    1.030812    0.867024    0.402749    11.00000   -1.20000
AFIX   0
C18   1    1.091772    0.697002    0.548214    11.00000    0.02935    0.06550 =
         0.03731    0.00461   -0.01577   -0.01531
AFIX 137
H18A  2    1.168573    0.617282    0.472566    11.00000   -1.50000
H18B  2    1.031803    0.652476    0.631406    11.00000   -1.50000
H18C  2    1.153891    0.741443    0.581715    11.00000   -1.50000
AFIX   0
HKLF 4
REM  hate_a.res in P-1
REM R1 =  0.0577 for    4496 Fo > 4sig(Fo)  and  0.0903 for all    6779 data
REM    182 parameters refined using      0 restraints
END
WGHT      0.0792      0.0176
REM Highest difference peak  0.451,  deepest hole -0.324,  1-sigma level  0.058
Q1    1   0.4000  0.6000  0.1982  11.00000  0.05    0.45
Q2    1   0.2526  0.2056  0.0960  11.00000  0.05    0.44
Q3    1   0.4554  0.6751  0.2238  11.00000  0.05    0.43
Q4    1   0.4032  0.3650  0.1924  11.00000  0.05    0.42
Q5    1   0.1983  0.3553  0.1120  11.00000  0.05    0.40
Q6    1   0.2823  0.4285  0.1490  11.00000  0.05    0.39
Q7    1   0.3519  0.5001  0.1586  11.00000  0.05    0.38
Q8    1   0.6247  0.7788  0.3136  11.00000  0.05    0.37
Q9    1   0.5770  0.3989  0.2778  11.00000  0.05    0.37
Q10   1   0.5351  0.5330  0.2246  11.00000  0.05    0.36
Q11   1   0.5821  0.8562  0.2808  11.00000  0.05    0.36
Q12   1   0.1213  0.1140  0.0489  11.00000  0.05    0.35
Q13   1   0.5022  0.3088  0.2733  11.00000  0.05    0.34
Q14   1   0.4816  0.7825  0.2719  11.00000  0.05    0.33
Q15   1   0.2348  0.0933  0.0727  11.00000  0.05    0.33
Q16   1   0.7018  0.8635  0.3442  11.00000  0.05    0.31
Q17   1   0.8079  0.8178  0.4095  11.00000  0.05    0.31
Q18   1   0.9327  0.7758  0.4470  11.00000  0.05    0.31
Q19   1   0.2762  0.6601  0.1720  11.00000  0.05    0.29
Q20   1   0.1363  0.2983  0.0648  11.00000  0.05    0.27
;
_shelx_res_checksum              68326
_shelxl_version_number           2.014
loop_
_space_group_symop_operation_xyz
'x, y, z'
'-x, -y, -z'
loop_
_atom_site_type_symbol
_atom_site_label
_atom_site_fract_x
_atom_site_fract_y
_atom_site_fract_z
_atom_site_U_iso_or_equiv
_atom_site_adp_type
_atom_site_calc_flag
_atom_site_occupancy
_atom_site_disorder_assembly
_atom_site_disorder_group
O O1 0.23655(10) 0.69376(8) 0.12731(9) 0.02436(17) Uani d 1 . .
O O2 0.06610(10) 0.31249(8) 0.04610(9) 0.02500(17) Uani d 1 . .
C C1 0.33819(12) 0.58373(11) 0.16766(11) 0.01795(18) Uani d 1 . .
C C2 0.46380(12) 0.60414(11) 0.21891(11) 0.01820(18) Uani d 1 . .
C C3 0.60114(13) 0.46600(12) 0.24468(13) 0.0239(2) Uani d 1 . .
H H3A 0.6485 0.4939 0.3108 0.029 Uiso calc 1 . .
H H3B 0.6898 0.4268 0.1502 0.029 Uiso calc 1 . .
C C4 0.53785(15) 0.34239(12) 0.31322(13) 0.0248(2) Uani d 1 . .
H H4A 0.4514 0.3808 0.4090 0.030 Uiso calc 1 . .
H H4B 0.6297 0.2524 0.3310 0.030 Uiso calc 1 . .
C C5 0.46633(13) 0.29535(11) 0.21279(12) 0.0210(2) Uani d 1 . .
H H5A 0.5576 0.2404 0.1247 0.025 Uiso calc 1 . .
H H5B 0.4148 0.2239 0.2649 0.025 Uiso calc 1 . .
C C6 0.33968(12) 0.42801(11) 0.16475(11) 0.01714(18) Uani d 1 . .
C C7 0.22526(12) 0.41645(11) 0.11416(11) 0.01856(18) Uani d 1 . .
H H7 0.1503 0.5099 0.0905 0.022 Uiso calc 1 . .
C C8 0.20164(12) 0.28237(11) 0.09137(11) 0.01880(18) Uani d 1 . .
C C9 0.27716(13) 0.12861(11) 0.10131(12) 0.0217(2) Uani d 1 . .
H H9 0.3737 0.0765 0.1294 0.026 Uiso calc 1 . .
C C10 0.18437(14) 0.06108(12) 0.06178(13) 0.0259(2) Uani d 1 . .
H H10 0.2061 -0.0447 0.0588 0.031 Uiso calc 1 . .
C C11 0.05936(15) 0.17637(13) 0.02933(14) 0.0282(2) Uani d 1 . .
H H11 -0.0225 0.1639 -0.0012 0.034 Uiso calc 1 . .
C C12 0.44379(13) 0.74814(12) 0.24116(12) 0.0217(2) Uani d 1 . .
H H12 0.3501 0.8275 0.2242 0.026 Uiso calc 1 . .
C C13 0.55011(14) 0.79231(12) 0.28780(12) 0.0232(2) Uani d 1 . .
C C14 0.63463(14) 0.83827(13) 0.32581(13) 0.0250(2) Uani d 1 . .
C C15 0.73884(15) 0.88956(13) 0.37614(14) 0.0270(2) Uani d 1 . .
H H15A 0.6674 0.9664 0.4573 0.032 Uiso calc 1 . .
H H15B 0.7952 0.9402 0.2946 0.032 Uiso calc 1 . .
C C16 0.86873(14) 0.76120(13) 0.42901(13) 0.0250(2) Uani d 1 . .
H H16A 0.8134 0.7083 0.5088 0.030 Uiso calc 1 . .
H H16B 0.9435 0.6861 0.3471 0.030 Uiso calc 1 . .
C C17 0.96963(16) 0.82046(16) 0.48471(15) 0.0330(3) Uani d 1 . .
H H17A 0.8937 0.9013 0.5613 0.040 Uiso calc 1 . .
H H17B 1.0308 0.8670 0.4027 0.040 Uiso calc 1 . .
C C18 1.09177(17) 0.69700(19) 0.54821(16) 0.0439(4) Uani d 1 . .
H H18A 1.1686 0.6173 0.4726 0.066 Uiso calc 1 . .
H H18B 1.0318 0.6525 0.6314 0.066 Uiso calc 1 . .
H H18C 1.1539 0.7414 0.5817 0.066 Uiso calc 1 . .
loop_
_atom_site_aniso_label
_atom_site_aniso_U_11
_atom_site_aniso_U_22
_atom_site_aniso_U_33
_atom_site_aniso_U_12
_atom_site_aniso_U_13
_atom_site_aniso_U_23
O1 0.0267(4) 0.0158(3) 0.0373(4) -0.0081(3) -0.0200(3) 0.0052(3)
O2 0.0258(4) 0.0167(3) 0.0397(5) -0.0077(3) -0.0207(3) 0.0030(3)
C1 0.0185(4) 0.0170(4) 0.0197(4) -0.0070(3) -0.0080(3) 0.0020(3)
C2 0.0188(4) 0.0185(4) 0.0192(4) -0.0078(3) -0.0082(4) 0.0029(3)
C3 0.0221(5) 0.0211(5) 0.0335(6) -0.0082(4) -0.0162(4) 0.0046(4)
C4 0.0293(5) 0.0206(5) 0.0306(6) -0.0101(4) -0.0184(5) 0.0076(4)
C5 0.0235(5) 0.0150(4) 0.0264(5) -0.0063(4) -0.0123(4) 0.0032(4)
C6 0.0186(4) 0.0152(4) 0.0185(4) -0.0068(3) -0.0070(3) 0.0019(3)
C7 0.0195(4) 0.0148(4) 0.0217(5) -0.0062(3) -0.0076(4) 0.0017(3)
C8 0.0181(4) 0.0171(4) 0.0234(5) -0.0066(3) -0.0097(4) 0.0015(3)
C9 0.0218(5) 0.0161(4) 0.0296(5) -0.0058(4) -0.0132(4) 0.0014(4)
C10 0.0291(5) 0.0163(4) 0.0377(6) -0.0085(4) -0.0178(5) 0.0011(4)
C11 0.0312(6) 0.0200(5) 0.0434(7) -0.0118(4) -0.0219(5) 0.0015(4)
C12 0.0230(5) 0.0206(5) 0.0257(5) -0.0096(4) -0.0119(4) 0.0025(4)
C13 0.0259(5) 0.0206(5) 0.0265(5) -0.0102(4) -0.0115(4) 0.0020(4)
C14 0.0272(5) 0.0237(5) 0.0281(5) -0.0111(4) -0.0120(4) 0.0005(4)
C15 0.0291(6) 0.0259(5) 0.0338(6) -0.0138(4) -0.0150(5) -0.0015(4)
C16 0.0226(5) 0.0272(5) 0.0284(5) -0.0115(4) -0.0091(4) -0.0007(4)
C17 0.0296(6) 0.0426(7) 0.0345(6) -0.0175(5) -0.0144(5) -0.0028(5)
C18 0.0293(7) 0.0655(10) 0.0373(7) -0.0153(7) -0.0158(6) 0.0046(7)
loop_
_atom_type_symbol
_atom_type_description
_atom_type_scat_dispersion_real
_atom_type_scat_dispersion_imag
_atom_type_scat_source
C C 0.0033 0.0016 'International Tables Vol C Tables 4.2.6.8 and 6.1.1.4'
H H 0.0000 0.0000 'International Tables Vol C Tables 4.2.6.8 and 6.1.1.4'
O O 0.0106 0.0060 'International Tables Vol C Tables 4.2.6.8 and 6.1.1.4'
loop_
_geom_angle_atom_site_label_1
_geom_angle_atom_site_label_2
_geom_angle_atom_site_label_3
_geom_angle_site_symmetry_1
_geom_angle_site_symmetry_3
_geom_angle
C11 O2 C8 . . 106.96(8)
O1 C1 C2 . . 120.48(9)
O1 C1 C6 . . 120.95(9)
C6 C1 C2 . . 118.56(8)
C1 C2 C3 . . 119.03(9)
C12 C2 C1 . . 116.87(9)
C12 C2 C3 . . 124.09(9)
C2 C3 H3A . . 109.6
C2 C3 H3B . . 109.6
C2 C3 C4 . . 110.44(9)
H3A C3 H3B . . 108.1
C4 C3 H3A . . 109.6
C4 C3 H3B . . 109.6
C3 C4 H4A . . 109.5
C3 C4 H4B . . 109.5
C3 C4 C5 . . 110.80(9)
H4A C4 H4B . . 108.1
C5 C4 H4A . . 109.5
C5 C4 H4B . . 109.5
C4 C5 H5A . . 108.9
C4 C5 H5B . . 108.9
H5A C5 H5B . . 107.7
C6 C5 C4 . . 113.29(8)
C6 C5 H5A . . 108.9
C6 C5 H5B . . 108.9
C1 C6 C5 . . 119.92(9)
C7 C6 C1 . . 115.73(8)
C7 C6 C5 . . 124.33(9)
C6 C7 H7 . . 115.7
C6 C7 C8 . . 128.70(9)
C8 C7 H7 . . 115.7
O2 C8 C7 . . 113.56(8)
C9 C8 O2 . . 108.80(9)
C9 C8 C7 . . 137.64(10)
C8 C9 H9 . . 126.5
C8 C9 C10 . . 107.02(9)
C10 C9 H9 . . 126.5
C9 C10 H10 . . 126.8
C11 C10 C9 . . 106.45(9)
C11 C10 H10 . . 126.8
O2 C11 H11 . . 124.6
C10 C11 O2 . . 110.78(10)
C10 C11 H11 . . 124.6
C2 C12 H12 . . 117.1
C2 C12 C13 . . 125.79(10)
C13 C12 H12 . . 117.1
C14 C13 C12 . . 176.18(12)
C13 C14 C15 . . 177.80(12)
C14 C15 H15A . . 108.8
C14 C15 H15B . . 108.8
C14 C15 C16 . . 113.67(9)
H15A C15 H15B . . 107.7
C16 C15 H15A . . 108.8
C16 C15 H15B . . 108.8
C15 C16 H16A . . 109.3
C15 C16 H16B . . 109.3
H16A C16 H16B . . 107.9
C17 C16 C15 . . 111.74(10)
C17 C16 H16A . . 109.3
C17 C16 H16B . . 109.3
C16 C17 H17A . . 109.0
C16 C17 H17B . . 109.0
C16 C17 C18 . . 113.00(12)
H17A C17 H17B . . 107.8
C18 C17 H17A . . 109.0
C18 C17 H17B . . 109.0
C17 C18 H18A . . 109.5
C17 C18 H18B . . 109.5
C17 C18 H18C . . 109.5
H18A C18 H18B . . 109.5
H18A C18 H18C . . 109.5
H18B C18 H18C . . 109.5
loop_
_geom_bond_atom_site_label_1
_geom_bond_atom_site_label_2
_geom_bond_site_symmetry_2
_geom_bond_distance
O1 C1 . 1.2317(12)
O2 C8 . 1.3793(12)
O2 C11 . 1.3540(13)
C1 C2 . 1.4892(14)
C1 C6 . 1.4847(13)
C2 C3 . 1.4947(14)
C2 C12 . 1.3424(14)
C3 H3A . 0.9900
C3 H3B . 0.9900
C3 C4 . 1.5211(15)
C4 H4A . 0.9900
C4 H4B . 0.9900
C4 C5 . 1.5248(15)
C5 H5A . 0.9900
C5 H5B . 0.9900
C5 C6 . 1.5026(13)
C6 C7 . 1.3494(14)
C7 H7 . 0.9500
C7 C8 . 1.4306(14)
C8 C9 . 1.3623(14)
C9 H9 . 0.9500
C9 C10 . 1.4169(15)
C10 H10 . 0.9500
C10 C11 . 1.3457(15)
C11 H11 . 0.9500
C12 H12 . 0.9500
C12 C13 . 1.4187(15)
C13 C14 . 1.1982(15)
C14 C15 . 1.4635(15)
C15 H15A . 0.9900
C15 H15B . 0.9900
C15 C16 . 1.5231(16)
C16 H16A . 0.9900
C16 H16B . 0.9900
C16 C17 . 1.5154(16)
C17 H17A . 0.9900
C17 H17B . 0.9900
C17 C18 . 1.5161(19)
C18 H18A . 0.9800
C18 H18B . 0.9800
C18 H18C . 0.9800

_cod_database_fobs_code 2021680
