#------------------------------------------------------------------------------
#$Date: 2018-10-25 05:44:09 +0300 (Thu, 25 Oct 2018) $
#$Revision: 211616 $
#$URL: file:///home/coder/svn-repositories/cod/cif/2/02/12/2021293.cif $
#------------------------------------------------------------------------------
#
# This file is available in the Crystallography Open Database (COD),
# http://www.crystallography.net/. The original data for this entry
# were provided by IUCr Journals, http://journals.iucr.org/.
#
# The file may be used within the scientific community so long as
# proper attribution is given to the journal article from which the
# data were obtained.
#
data_2021293
loop_
_publ_author_name
'Sang, Xiao-Jing'
'Feng, Shu-Li'
'Lu, Ying'
'Zhang, Yue-Xian'
'Su, Fang'
'Zhang, Lan-Cui'
'Zhu, Zai-Ming'
_publ_section_title
;
 A new hexamolybdate-based copper--2,2'-biimidazole coordination polymer
 serving as an acid catalyst and support for enzyme immobilization
;
_journal_coeditor_code           JR3022
_journal_issue                   11
_journal_name_full               'Acta Crystallographica Section C'
_journal_page_first
;
;
_journal_paper_doi               10.1107/S2053229618013037
_journal_volume                  74
_journal_year                    2018
_chemical_formula_iupac          '[Cu2 Mo6 O20 (C6 H6 N4)2 (H2 O)2]'
_chemical_formula_moiety         '[Cu2Mo6(C6H6N4)2(H2O)2O20]'
_chemical_formula_sum            'C12 H16 Cu2 Mo6 N8 O22'
_chemical_formula_weight         1327.07
_chemical_name_common
Poly[diaquabis(2,2'-biimidazole)hexa-\m~3~-oxo-octa-\m~2~-oxo-hexaoxodicopper(II)hexamolybdate(VI)]
_space_group_crystal_system      triclinic
_space_group_IT_number           2
_space_group_name_Hall           '-P 1'
_space_group_name_H-M_alt        'P -1'
_symmetry_space_group_name_Hall  '-P 1'
_symmetry_space_group_name_H-M   'P -1'
_atom_sites_solution_hydrogens   mixed
_audit_creation_method           SHELXL-2014/7
_cell_angle_alpha                64.090(5)
_cell_angle_beta                 75.186(5)
_cell_angle_gamma                71.141(5)
_cell_formula_units_Z            1
_cell_length_a                   8.065(3)
_cell_length_b                   10.293(4)
_cell_length_c                   10.837(4)
_cell_measurement_reflns_used    2954
_cell_measurement_temperature    296(2)
_cell_measurement_theta_max      30.95
_cell_measurement_theta_min      2.11
_cell_volume                     758.8(5)
_computing_cell_refinement
;
SMART (Bruker, 2005)
;
_computing_data_collection
;
SMART (Bruker, 2005)
;
_computing_data_reduction
;
SAINT (Bruker, 2005)
;
_computing_molecular_graphics
;
SHELXTL (Sheldrick, 2008)
;
_computing_publication_material
;
SHELXTL (Sheldrick, 2008)
;
_computing_structure_refinement
;
SHELXL2014 (Sheldrick, 2015)
;
_computing_structure_solution
;
SHELXS97 (Sheldrick, 2008)
;
_diffrn_ambient_temperature      296(2)
_diffrn_measured_fraction_theta_full 0.992
_diffrn_measured_fraction_theta_max 0.992
_diffrn_measurement_device_type  'Bruker SMART CCD area detector'
_diffrn_measurement_method       'phi and omega scans'
_diffrn_radiation_type           MoK\a
_diffrn_radiation_wavelength     0.71073
_diffrn_reflns_av_R_equivalents  0.0113
_diffrn_reflns_av_unetI/netI     0.0213
_diffrn_reflns_limit_h_max       9
_diffrn_reflns_limit_h_min       -9
_diffrn_reflns_limit_k_max       5
_diffrn_reflns_limit_k_min       -12
_diffrn_reflns_limit_l_max       11
_diffrn_reflns_limit_l_min       -12
_diffrn_reflns_number            3875
_diffrn_reflns_theta_full        24.997
_diffrn_reflns_theta_max         24.997
_diffrn_reflns_theta_min         2.108
_exptl_absorpt_coefficient_mu    3.872
_exptl_absorpt_correction_T_max  0.7953
_exptl_absorpt_correction_T_min  0.7244
_exptl_absorpt_correction_type   multi-scan
_exptl_absorpt_process_details
;
(SADABS; Sheldrick, 2003)
;
_exptl_crystal_colour            green
_exptl_crystal_density_diffrn    2.904
_exptl_crystal_description       block
_exptl_crystal_F_000             630
_exptl_crystal_size_max          0.089
_exptl_crystal_size_mid          0.074
_exptl_crystal_size_min          0.062
_refine_diff_density_max         0.357
_refine_diff_density_min         -0.486
_refine_ls_extinction_coef       0.00089(19)
_refine_ls_extinction_expression Fc^*^=kFc[1+0.001xFc^2^\l^3^/sin(2\q)]^-1/4^
_refine_ls_extinction_method
;
SHELXL2014 (Sheldrick, 2015)
;
_refine_ls_goodness_of_fit_ref   1.060
_refine_ls_hydrogen_treatment    mixed
_refine_ls_matrix_type           full
_refine_ls_number_parameters     235
_refine_ls_number_reflns         2639
_refine_ls_number_restraints     2
_refine_ls_restrained_S_all      1.059
_refine_ls_R_factor_all          0.0215
_refine_ls_R_factor_gt           0.0180
_refine_ls_shift/su_max          0.002
_refine_ls_shift/su_mean         0.000
_refine_ls_structure_factor_coef Fsqd
_refine_ls_weighting_details
'w=1/[\s^2^(Fo^2^)+(0.0182P)^2^+0.8925P] where P=(Fo^2^+2Fc^2^)/3'
_refine_ls_weighting_scheme      calc
_refine_ls_wR_factor_gt          0.0409
_refine_ls_wR_factor_ref         0.0424
_reflns_number_gt                2409
_reflns_number_total             2639
_reflns_threshold_expression     'I > 2\s(I)'
_cod_data_source_file            jr3022sup1.cif
_cod_data_source_block           I
_cod_database_code               2021293
_shelx_space_group_comment
;
The symmetry employed for this shelxl refinement is uniquely defined
by the following loop, which should always be used as a source of
symmetry information in preference to the above space-group names.
They are only intended as comments.
;
_shelx_estimated_absorpt_t_min   0.724
_shelx_estimated_absorpt_t_max   0.795
_shelx_hkl_file
;
   1   0   0    1.87    0.08
  -2   0   0    5.26    0.15
   2   0   0    5.51    0.17
  -3   0   0  133.28    1.78
   3   0   0  128.56    1.82
  -4   0   0    0.08    0.07
   4   0   0    0.05    0.10
  -5   0   0  115.26    1.66
   5   0   0  116.79    1.74
  -6   0   0    3.47    0.21
   6   0   0    3.87    0.28
   7   0   0    0.61    0.18
   8   0   0   46.17    0.99
   9   0   0    2.55    0.29
  10   0   0    1.58    0.38
   9  -1   0    0.33    0.21
   8  -1   0   14.30    0.53
   7  -1   0   30.12    0.75
   6  -1   0    0.39    0.16
  -6   1   0    0.52    0.13
   5  -1   0  157.47    2.30
  -5   1   0  158.94    2.22
   4  -1   0   39.16    0.72
  -4   1   0   38.74    0.65
   3  -1   0   21.68    0.45
  -3   1   0   22.30    0.41
   2  -1   0  330.88    4.71
  -2   1   0  351.68    4.58
  -1  -1   0    5.91    0.15
   2   1   0    4.43    0.15
   3   1   0   62.87    0.94
  -4  -1   0  120.21    1.64
   4   1   0  114.97    1.68
  -5  -1   0    3.63    0.18
   5   1   0    3.29    0.22
  -6  -1   0   28.90    0.57
   6   1   0   28.69    0.63
   7   1   0   29.81    0.70
   8   1   0    0.58    0.18
   9   1   0    5.22    0.38
  10   1   0    3.95    0.38
   9  -2   0    1.39    0.27
   8  -2   0   -0.08    0.18
   7  -2   0   34.63    0.83
   6  -2   0   51.19    1.01
  -6   2   0   51.35    0.91
   5  -2   0    3.63    0.28
  -5   2   0    3.02    0.21
   4  -2   0   18.63    0.47
  -4   2   0   19.23    0.41
   3  -2   0   54.70    0.92
  -3   2   0   55.83    0.86
   2  -2   0   77.65    1.16
  -2   2   0   77.67    1.11
   1  -2   0  242.82    3.25
  -1   2   0  240.55    3.17
   0  -2   0    0.22    0.09
  -1  -2   0   52.50    0.76
  -2  -2   0 1000.00   13.37
   3   2   0    0.10    0.08
   4   2   0    1.69    0.14
   5   2   0   45.84    0.81
  -6  -2   0    1.30    0.14
   6   2   0    1.39    0.18
   7   2   0   65.77    1.18
   8   2   0    0.19    0.15
   9   2   0    0.91    0.22
  10   2   0   18.51    0.65
   8  -3   0   54.06    1.20
   7  -3   0    1.20    0.23
   6  -3   0   19.39    0.58
  -6   3   0   18.48    0.49
   5  -3   0   37.97    0.82
  -5   3   0   39.14    0.74
   4  -3   0    0.14    0.13
  -4   3   0    0.15    0.10
   3  -3   0  316.28    4.31
  -3   3   0  320.07    4.25
   2  -3   0  145.91    2.07
  -2   3   0  147.11    2.03
   1  -3   0    4.53    0.14
   0  -3   0  304.06    4.21
   0  -3   0  311.40    4.04
  -1  -3   0    0.35    0.10
  -2  -3   0   17.14    0.35
  -3  -3   0    0.88    0.11
  -4  -3   0   18.47    0.42
   4   3   0   18.50    0.41
   5   3   0  114.99    1.70
   6   3   0    2.23    0.20
  -7  -3   0    2.30    0.21
   7   3   0    2.52    0.23
   8   3   0   29.71    0.73
   9   3   0    0.03    0.17
  10   3   0    2.32    0.30
   8  -4   0   38.29    0.99
   7  -4   0    0.37    0.20
   6  -4   0    3.91    0.34
  -6   4   0    3.26    0.25
   5  -4   0  112.17    1.86
  -5   4   0  116.20    1.77
   4  -4   0   19.87    0.55
  -4   4   0   18.64    0.48
   3  -4   0   60.58    1.05
  -3   4   0   58.66    0.99
   2  -4   0   39.71    0.61
   2  -4   0   39.77    0.75
   1  -4   0    2.88    0.13
   0  -4   0   91.95    1.38
   0  -4   0   95.32    1.33
  -1  -4   0   26.41    0.50
  -2  -4   0   15.12    0.35
  -3  -4   0  114.99    1.66
  -4  -4   0  126.74    1.84
  -5  -4   0    5.11    0.26
  -6  -4   0    3.59    0.27
  -7  -4   0    1.06    0.19
   7   4   0    1.08    0.19
   8   4   0    0.86    0.20
   9   4   0    9.76    0.47
 -10  -4   0    1.06    0.23
   7  -5   0   24.72    0.77
   6  -5   0   21.96    0.69
   5  -5   0   14.62    0.53
   4  -5   0   16.53    0.53
   3  -5   0    0.96    0.20
   2  -5   0   20.92    0.53
   1  -5   0  176.89    2.54
   1  -5   0  181.40    2.42
   0  -5   0   26.29    0.49
  -1  -5   0    0.68    0.11
  -1  -5   0    0.59    0.14
  -2  -5   0  106.70    1.58
  -3  -5   0    0.15    0.12
  -4  -5   0    4.17    0.24
  -5  -5   0    0.02    0.13
  -6  -5   0    5.88    0.33
  -7  -5   0   59.90    1.13
  -8  -5   0    2.95    0.28
  -9  -5   0    4.19    0.34
   7  -6   0    4.89    0.43
   6  -6   0   41.49    1.02
   5  -6   0    5.34    0.39
   4  -6   0    8.20    0.42
   3  -6   0  143.18    2.22
   2  -6   0    0.98    0.19
   1  -6   0   25.18    0.48
   1  -6   0   23.94    0.58
   0  -6   0   58.25    0.93
   0  -6   0   55.81    1.00
  -1  -6   0   18.34    0.48
  -1  -6   0   17.85    0.43
  -2  -6   0  106.94    1.64
  -2  -6   0  110.06    1.66
  -3  -6   0    1.55    0.19
  -4  -6   0    6.47    0.33
  -5  -6   0   62.65    1.10
  -6  -6   0    4.09    0.29
  -7  -6   0    4.15    0.31
  -8  -6   0    6.33    0.39
  -9  -6   0   11.37    0.50
  -9  -6   0   10.62    0.50
   6  -7   0   12.88    0.60
   5  -7   0   34.39    0.90
   4  -7   0    2.32    0.27
   3  -7   0   28.32    0.73
   2  -7   0   -0.06    0.17
   1  -7   0    3.46    0.28
   0  -7   0   51.34    0.89
   0  -7   0   53.10    0.99
  -1  -7   0   42.86    0.80
  -1  -7   0   41.44    0.85
  -2  -7   0   12.11    0.43
  -2  -7   0   11.90    0.39
  -3  -7   0   13.90    0.44
  -3  -7   0   13.52    0.46
  -4  -7   0    7.39    0.37
  -5  -7   0    0.79    0.19
  -6  -7   0    0.02    0.16
  -7  -7   0    2.15    0.26
  -8  -7   0    0.92    0.22
  -9  -7   0    0.84    0.23
 -10  -7   0    1.05    0.25
   5  -8   0   11.02    0.55
   4  -8   0   24.61    0.75
   3  -8   0    9.33    0.46
   2  -8   0    5.02    0.36
   1  -8   0   39.61    0.87
   0  -8   0    2.81    0.22
   0  -8   0    3.04    0.28
  -1  -8   0    2.80    0.23
  -1  -8   0    2.59    0.26
  -2  -8   0    9.41    0.43
  -2  -8   0    9.79    0.38
  -3  -8   0    7.22    0.39
  -3  -8   0    7.07    0.35
  -4  -8   0   42.08    0.89
  -4  -8   0   41.29    0.89
  -5  -8   0    0.93    0.21
  -5  -8   0    1.35    0.21
  -6  -8   0    0.63    0.20
  -6  -8   0    0.41    0.19
  -7  -8   0    6.58    0.42
  -7  -8   0    7.09    0.43
  -8  -8   0    6.14    0.44
  -9  -8   0    0.37    0.22
 -10  -8   0    0.81    0.26
   4  -9   0    2.44    0.32
   3  -9   0   29.75    0.84
   2  -9   0    0.17    0.19
   1  -9   0   10.04    0.46
   0  -9   0    1.20    0.24
  -1  -9   0    6.20    0.32
  -1  -9   0    6.22    0.41
  -2  -9   0   53.53    1.08
  -2  -9   0   51.80    1.02
  -3  -9   0    0.91    0.23
  -3  -9   0    1.01    0.20
  -4  -9   0    9.83    0.45
  -4  -9   0    9.44    0.46
  -5  -9   0   17.73    0.59
  -5  -9   0   17.92    0.59
  -6  -9   0    5.89    0.43
  -6  -9   0    6.41    0.41
  -7  -9   0    0.06    0.19
  -7  -9   0   -0.40    0.20
  -8  -9   0    4.74    0.40
  -9  -9   0    6.78    0.49
   3 -10   0   17.64    0.70
   2 -10   0    4.10    0.36
   1 -10   0   17.81    0.62
   0 -10   0   23.09    0.70
  -1 -10   0    1.01    0.24
  -2 -10   0    8.07    0.41
  -2 -10   0    8.27    0.46
  -3 -10   0    1.40    0.27
  -3 -10   0    1.72    0.25
  -4 -10   0    4.10    0.34
  -4 -10   0    3.91    0.35
  -5 -10   0   -0.17    0.21
  -5 -10   0    0.30    0.20
  -6 -10   0    0.04    0.23
  -6 -10   0    0.19    0.20
  -7 -10   0    0.09    0.21
  -8 -10   0   -0.14    0.20
   1 -11   0    3.49    0.36
   0 -11   0    0.27    0.22
  -1 -11   0    0.77    0.25
  -2 -11   0    8.15    0.49
  -2 -11   0    7.01    0.55
  -3 -11   0    3.05    0.35
  -3 -11   0    2.43    0.29
  -4 -11   0   13.24    0.57
  -4 -11   0   13.95    0.62
  -5 -11   0    2.74    0.33
  -5 -11   0    2.13    0.33
  -6 -11   0    0.50    0.23
  -7 -11   0    4.68    0.43
  -1 -12   0   13.63    0.71
  -2 -12   0   15.90    0.65
  -3 -12   0    3.49    0.35
  -3 -12   0    3.63    0.39
  -4 -12   0    2.10    0.34
  -4 -12   0    1.71    0.30
  -5 -12   0    8.30    0.53
  -6 -12   0    9.07    0.56
  -4 -13   0    4.29    0.41
  -5 -12   1    6.99    0.52
  -4 -12   1   29.45    0.88
  -7 -11   1   10.14    0.60
  -6 -11   1   18.79    0.83
  -6 -11   1   18.41    0.70
  -5 -11   1    2.51    0.34
  -5 -11   1    1.74    0.34
  -4 -11   1   23.74    0.77
  -4 -11   1   25.79    0.84
  -3 -11   1    3.01    0.36
  -3 -11   1    2.57    0.31
  -2 -11   1    2.59    0.33
  -1 -11   1   15.32    0.63
   0 -11   1   19.67    0.71
  -8 -10   1    0.91    0.27
  -7 -10   1    3.30    0.39
  -7 -10   1    3.30    0.36
  -6 -10   1    3.06    0.37
  -6 -10   1    3.14    0.34
  -5 -10   1    5.28    0.44
  -5 -10   1    5.87    0.42
  -4 -10   1    4.63    0.41
  -4 -10   1    4.81    0.38
  -3 -10   1    0.82    0.21
  -3 -10   1    0.37    0.24
  -2 -10   1   62.26    1.20
  -2 -10   1   61.78    1.28
  -1 -10   1   21.22    0.70
   0 -10   1    2.04    0.30
   1 -10   1   25.62    0.77
   2 -10   1    1.10    0.26
  -9  -9   1    3.27    0.38
  -8  -9   1    0.58    0.23
  -7  -9   1   15.47    0.62
  -7  -9   1   16.04    0.65
  -6  -9   1    6.60    0.48
  -6  -9   1    7.87    0.44
  -5  -9   1   17.15    0.63
  -5  -9   1   16.63    0.59
  -4  -9   1   60.07    1.23
  -4  -9   1   60.81    1.20
  -3  -9   1   10.94    0.45
  -3  -9   1   11.51    0.52
  -2  -9   1   56.54    1.17
  -2  -9   1   56.12    1.09
  -1  -9   1    1.73    0.22
  -1  -9   1    1.76    0.27
   0  -9   1   14.95    0.56
   1  -9   1   46.36    1.04
   2  -9   1   21.87    0.71
   3  -9   1   40.95    1.00
   4  -9   1   10.88    0.79
  -9  -8   1   15.73    0.64
  -8  -8   1    3.00    0.34
  -7  -8   1   37.14    0.91
  -6  -8   1    3.64    0.33
  -5  -8   1    2.21    0.28
  -4  -8   1   28.15    0.74
  -3  -8   1    6.40    0.42
  -3  -8   1    6.45    0.35
  -2  -8   1   59.22    1.15
  -2  -8   1   59.34    1.09
  -1  -8   1   11.69    0.48
  -1  -8   1   11.24    0.40
   0  -8   1   48.93    1.02
   1  -8   1   62.77    1.21
   2  -8   1    2.11    0.26
   3  -8   1    2.18    0.28
   4  -8   1    8.11    0.47
   5  -8   1   15.86    0.64
 -10  -7   1    3.32    0.35
  -9  -7   1   17.04    0.66
  -8  -7   1    1.21    0.25
  -7  -7   1    0.25    0.20
  -6  -7   1    4.99    0.36
  -5  -7   1   29.42    0.72
  -4  -7   1   67.73    1.23
  -3  -7   1    5.32    0.36
  -2  -7   1   70.16    1.27
  -2  -7   1   73.41    1.23
  -1  -7   1   48.99    0.98
  -1  -7   1   50.35    0.91
   0  -7   1   26.80    0.57
   0  -7   1   25.88    0.67
   1  -7   1    4.52    0.34
   2  -7   1   26.50    0.69
   3  -7   1   64.37    1.25
   4  -7   1   19.70    0.65
   5  -7   1   19.54    0.67
   6  -7   1   15.30    0.64
  -9  -6   1    1.43    0.27
  -8  -6   1   10.87    0.50
  -7  -6   1   45.20    0.97
  -6  -6   1   25.10    0.66
  -5  -6   1   82.29    1.40
  -4  -6   1    8.21    0.39
  -3  -6   1    0.25    0.16
  -2  -6   1   57.17    1.04
  -1  -6   1   13.53    0.45
   0  -6   1  134.31    1.93
   0  -6   1  135.07    2.04
   1  -6   1   23.84    0.49
   1  -6   1   24.94    0.61
   2  -6   1   21.91    0.60
   3  -6   1  103.24    1.71
   4  -6   1   43.29    0.96
   5  -6   1    1.88    0.28
   6  -6   1   10.91    0.53
   7  -6   1    1.58    0.42
 -10  -5   1   21.70    1.06
  -9  -5   1    8.76    0.49
  -8  -5   1    0.44    0.19
  -7  -5   1   89.47    1.55
  -6  -5   1    0.25    0.16
  -5  -5   1   28.68    0.66
  -4  -5   1   37.97    0.76
  -3  -5   1   22.49    0.54
  -2  -5   1  188.38    2.66
  -1  -5   1    3.87    0.26
   0  -5   1   30.87    0.64
   0  -5   1   31.08    0.57
   1  -5   1   68.33    1.16
   1  -5   1   71.74    1.04
   2  -5   1    3.56    0.28
   3  -5   1   20.40    0.57
   4  -5   1    0.08    0.18
   5  -5   1   25.55    0.70
  -6   5  -1   21.21    0.61
   6  -5   1   21.76    0.69
   7  -5   1    2.22    0.30
 -10  -4   1    0.43    0.21
  -9  -4   1   18.54    0.65
  -8  -4   1    8.97    0.44
  -7  -4   1   35.66    0.82
  -6  -4   1    2.29    0.24
  -5  -4   1   61.72    1.08
  -4  -4   1   79.87    1.28
  -3  -4   1   76.72    1.21
  -2  -4   1    9.05    0.30
  -1  -4   1   27.39    0.55
   1  -4   1   80.72    1.15
   1  -4   1   81.22    1.26
   2  -4   1   66.60    0.92
   2  -4   1   63.48    1.08
  -3   4  -1   59.68    1.02
   3  -4   1   59.55    1.06
  -4   4  -1   19.65    0.50
   4  -4   1   18.71    0.55
  -5   4  -1   29.15    0.67
   5  -4   1   29.03    0.73
  -6   4  -1   23.11    0.61
   6  -4   1   22.88    0.68
  -7   4  -1    8.26    0.41
   7  -4   1    8.53    0.47
   8  -4   1    4.12    0.38
  10   3  -1   13.49    0.58
   9   3  -1   31.52    0.82
   8   3  -1   43.59    0.95
   7   3  -1   12.26    0.45
   6   3  -1    6.17    0.32
   5   3  -1   99.32    1.54
  -4  -3   1   -0.01    0.12
  -3  -3   1   72.26    1.12
  -2  -3   1   75.34    1.13
  -1  -3   1    0.92    0.12
   0  -3   1  225.66    3.04
   1  -3   1   27.68    0.44
   1  -3   1   27.80    0.53
  -2   3  -1   77.03    1.17
  -3   3  -1   58.94    0.97
   3  -3   1   60.17    1.02
  -4   3  -1    3.39    0.22
   4  -3   1    3.21    0.24
  -5   3  -1   35.64    0.73
   5  -3   1   35.99    0.79
  -6   3  -1    0.85    0.16
   6  -3   1    1.46    0.23
  -7   3  -1    1.24    0.19
   7  -3   1    0.75    0.20
   8  -3   1   16.01    0.61
  10   2  -1   36.78    0.96
   9   2  -1   -0.04    0.17
   8   2  -1    2.22    0.25
   7   2  -1   38.40    0.82
   6   2  -1    6.46    0.33
  -6  -2   1    6.39    0.31
   5   2  -1  100.47    1.54
   4   2  -1   10.96    0.32
   3   2  -1   43.58    0.72
  -2  -2   1   87.35    1.26
  -1  -2   1    4.57    0.18
  -1   2  -1    3.73    0.16
   1  -2   1    3.45    0.18
  -2   2  -1    9.94    0.25
   2  -2   1    9.57    0.28
  -3   2  -1  123.51    1.77
   3  -2   1  125.32    1.81
  -4   2  -1    1.40    0.14
   4  -2   1    1.32    0.17
  -5   2  -1    8.61    0.31
   5  -2   1    7.67    0.35
  -6   2  -1   15.67    0.45
   6  -2   1   16.13    0.51
  -7   2  -1    1.29    0.19
   7  -2   1    1.60    0.23
   8  -2   1    0.50    0.20
   9  -2   1    2.30    0.31
   9   1  -1    0.60    0.21
   8   1  -1   14.89    0.54
   7   1  -1  107.33    1.74
   6   1  -1   18.82    0.51
   5   1  -1    6.18    0.29
  -5  -1   1    5.57    0.20
   4   1  -1   56.23    0.92
  -4  -1   1   56.55    0.84
   3   1  -1    0.21    0.09
   2   1  -1   21.90    0.40
  -1  -1   1   71.73    1.01
   0  -1   1  146.21    1.94
  -1   1  -1  140.13    1.87
   1  -1   1  140.16    1.88
  -2   1  -1   74.95    1.06
   2  -1   1   72.80    1.08
  -3   1  -1   44.54    0.72
   3  -1   1   43.83    0.74
  -4   1  -1    7.19    0.24
   4  -1   1    7.36    0.27
  -5   1  -1    7.96    0.28
   5  -1   1    7.64    0.33
  -6   1  -1    6.34    0.29
   6  -1   1    7.07    0.34
  -7   1  -1   15.78    0.46
   7  -1   1   16.38    0.52
   8  -1   1    0.43    0.19
   9  -1   1    1.03    0.23
   9   0  -1   12.25    0.53
   8   0  -1   42.22    0.94
   7   0  -1    0.64    0.18
   6   0  -1    3.90    0.29
   5   0  -1   45.88    0.85
  -5   0   1   45.81    0.74
   4   0  -1    6.31    0.25
  -4   0   1    5.77    0.18
   3   0  -1   40.88    0.69
  -3   0   1   41.64    0.61
   2   0  -1   26.88    0.46
   2   0  -1   26.81    0.43
   1   0  -1   55.12    0.77
   0   0   1  228.51    3.11
   1   0   1   16.27    0.26
  -2   0  -1   58.20    0.84
   2   0   1   57.23    0.84
  -3   0  -1   17.39    0.35
   3   0   1   16.93    0.36
  -4   0  -1   13.64    0.32
   4   0   1   13.53    0.34
  -5   0  -1  104.74    1.54
   5   0   1  103.93    1.58
  -6   0  -1   17.17    0.43
   6   0   1   16.84    0.48
  -7   0  -1    1.10    0.16
   7   0   1    1.28    0.20
   8   0   1    5.53    0.35
   9   0   1   17.21    0.60
  10   0   1    0.51    0.23
   9  -1  -1    2.45    0.31
   8  -1  -1   26.28    0.74
   7  -1  -1   13.35    0.49
   6  -1  -1   15.08    0.49
   5  -1  -1  209.36    2.96
  -5   1   1  207.79    2.83
   4  -1  -1    7.63    0.29
  -4   1   1    7.76    0.22
   3  -1  -1    0.81    0.08
   3  -1  -1    0.70    0.11
  -3   1   1    0.63    0.08
   2  -1  -1   91.17    1.23
   2  -1  -1   89.19    1.29
  -2   1   1   91.33    1.22
   1  -1  -1    0.09    0.07
   0  -1  -1  250.15    3.35
   1   1   1    0.16    0.03
  -2  -1  -1   21.95    0.38
   2   1   1   22.35    0.36
  -3  -1  -1  140.76    1.92
   3   1   1  142.32    1.92
  -4  -1  -1    1.72    0.13
   4   1   1    2.31    0.16
  -5  -1  -1    9.09    0.28
   5   1   1    9.38    0.31
  -6  -1  -1    0.17    0.10
   6   1   1    0.37    0.14
  -7  -1  -1    4.95    0.26
   7   1   1    4.15    0.28
   8   1   1    1.10    0.20
   9   1   1    0.15    0.17
   9  -2  -1    4.16    0.38
   8  -2  -1   -0.17    0.17
   7  -2  -1   51.73    1.08
   6  -2  -1   13.65    0.48
   5  -2  -1    4.09    0.28
  -5   2   1    4.43    0.21
   4  -2  -1    1.89    0.19
   4  -2  -1    1.83    0.12
  -4   2   1    1.76    0.13
   3  -2  -1    8.54    0.29
   3  -2  -1    8.76    0.20
  -3   2   1    8.37    0.22
   2  -2  -1   75.96    1.05
   2  -2  -1   76.37    1.14
  -2   2   1   77.25    1.08
   1  -2  -1   70.02    1.01
   0  -2  -1   26.63    0.42
   0  -2  -1   27.61    0.44
  -1  -2  -1   62.08    0.84
  -1  -2  -1   62.47    0.87
  -2  -2  -1    1.10    0.10
  -2  -2  -1    1.09    0.09
   2   2   1    1.32    0.11
   3   2   1    5.02    0.17
   4   2   1   18.83    0.39
  -5  -2  -1    1.25    0.13
   5   2   1    1.24    0.14
  -6  -2  -1   20.87    0.47
   6   2   1   19.34    0.48
  -7  -2  -1   25.03    0.55
   7   2   1   24.08    0.59
   8   2   1   22.33    0.60
   9   2   1    1.26    0.23
  10   2   1    0.04    0.22
   8  -3  -1   19.47    0.67
   7  -3  -1    8.64    0.45
   6  -3  -1   16.21    0.54
   5  -3  -1   28.01    0.68
  -5   3   1   29.05    0.58
   4  -3  -1   15.98    0.46
  -4   3   1   15.24    0.37
   3  -3  -1  213.67    2.82
   3  -3  -1  214.98    2.99
  -3   3   1  215.17    2.90
   2  -3  -1    1.23    0.13
   2  -3  -1    1.74    0.11
   1  -3  -1    0.10    0.09
   1  -3  -1    0.19    0.07
   0  -3  -1   26.64    0.44
   0  -3  -1   26.75    0.46
  -1  -3  -1   10.63    0.25
  -1  -3  -1   11.03    0.25
  -2  -3  -1  137.72    1.84
  -2  -3  -1  135.36    1.87
  -3  -3  -1   -0.15    0.07
   4   3   1    1.00    0.12
   5   3   1   45.25    0.78
   6   3   1   41.21    0.77
  -7  -3  -1    1.74    0.18
   7   3   1    1.65    0.19
   8   3   1    1.00    0.18
   9   3   1   24.46    0.67
   8  -4  -1   51.73    1.19
   7  -4  -1   -0.10    0.18
   6  -4  -1    0.11    0.17
   5  -4  -1   72.29    1.30
  -5   4   1   70.14    1.17
   4  -4  -1    0.41    0.15
   3  -4  -1   12.83    0.40
   2  -4  -1    1.03    0.15
   2  -4  -1    1.40    0.10
   1  -4  -1    5.51    0.18
   1  -4  -1    5.03    0.23
   0  -4  -1   78.09    1.15
   0  -4  -1   78.50    1.13
  -1  -4  -1    0.50    0.10
  -1  -4  -1    0.43    0.10
  -2  -4  -1   -0.06    0.08
  -2  -4  -1   -0.07    0.08
  -3  -4  -1   38.24    0.64
  -3  -4  -1   39.19    0.68
  -4  -4  -1  125.18    1.78
  -5  -4  -1    1.89    0.17
   6   4   1    0.21    0.13
   7   4   1    4.98    0.29
  -8  -4  -1    0.79    0.17
  -8  -4  -1    0.73    0.20
   8   4   1    0.67    0.17
   9   4   1    1.93    0.25
   7  -5  -1   19.32    0.68
   6  -5  -1    0.22    0.19
   5  -5  -1   31.69    0.79
   4  -5  -1    4.41    0.33
   3  -5  -1    0.45    0.17
   2  -5  -1   60.40    0.91
   1  -5  -1   16.11    0.35
   1  -5  -1   15.98    0.41
   0  -5  -1    7.18    0.23
   0  -5  -1    7.43    0.27
  -1  -5  -1    0.16    0.09
  -1  -5  -1    0.28    0.11
  -2  -5  -1    3.32    0.20
  -2  -5  -1    2.78    0.18
  -3  -5  -1    9.68    0.31
  -3  -5  -1    9.94    0.29
  -4  -5  -1   18.45    0.42
  -4  -5  -1   17.40    0.45
  -5  -5  -1    0.17    0.12
  -6  -5  -1    0.70    0.16
  -7  -5  -1    5.27    0.31
  -7  -5  -1    6.60    0.33
  -8  -5  -1   40.82    0.89
  -8  -5  -1   41.12    0.88
   7  -6  -1    9.59    0.53
   6  -6  -1   24.66    0.76
   5  -6  -1    0.77    0.21
   4  -6  -1    0.22    0.17
   3  -6  -1   28.25    0.70
   2  -6  -1   13.84    0.45
   1  -6  -1    7.23    0.25
   1  -6  -1    7.96    0.32
   0  -6  -1   -0.01    0.12
   0  -6  -1   -0.13    0.09
  -1  -6  -1   49.60    0.85
  -1  -6  -1   50.63    0.87
  -2  -6  -1   58.35    0.98
  -2  -6  -1   59.37    0.99
  -3  -6  -1   28.15    0.58
  -3  -6  -1   27.45    0.59
  -4  -6  -1    8.91    0.32
  -4  -6  -1    9.35    0.35
  -5  -6  -1    7.97    0.35
  -5  -6  -1    7.98    0.32
  -6  -6  -1  104.66    1.69
  -6  -6  -1  104.94    1.64
  -7  -6  -1    3.90    0.28
  -7  -6  -1    4.07    0.30
  -8  -6  -1    2.24    0.25
  -8  -6  -1    2.98    0.29
  -9  -6  -1   28.57    0.75
   6  -7  -1    3.85    0.37
   5  -7  -1   11.23    0.52
   4  -7  -1   10.98    0.49
   3  -7  -1   42.66    0.93
   2  -7  -1    6.85    0.37
   1  -7  -1   21.06    0.56
   1  -7  -1   20.76    0.46
   0  -7  -1   45.71    0.87
   0  -7  -1   45.77    0.81
  -1  -7  -1   29.63    0.65
  -1  -7  -1   30.77    0.62
  -2  -7  -1    2.20    0.22
  -2  -7  -1    1.93    0.19
  -3  -7  -1    0.12    0.15
  -3  -7  -1   -0.07    0.13
  -4  -7  -1   37.12    0.78
  -4  -7  -1   36.25    0.75
  -5  -7  -1    0.11    0.15
  -5  -7  -1    0.06    0.15
  -6  -7  -1    0.54    0.17
  -6  -7  -1    0.15    0.15
  -7  -7  -1    0.03    0.16
  -7  -7  -1    0.07    0.16
  -8  -7  -1    0.85    0.21
  -9  -7  -1   13.64    0.55
   5  -8  -1   10.12    0.52
   4  -8  -1    3.54    0.33
   3  -8  -1    0.19    0.17
   2  -8  -1    2.06    0.25
   1  -8  -1    3.07    0.27
   0  -8  -1    7.91    0.32
   0  -8  -1    8.38    0.39
  -1  -8  -1    0.20    0.13
  -1  -8  -1    0.25    0.17
  -2  -8  -1    4.39    0.29
  -2  -8  -1    4.33    0.33
  -3  -8  -1   23.50    0.61
  -3  -8  -1   24.39    0.62
  -4  -8  -1    8.86    0.41
  -4  -8  -1    8.65    0.39
  -5  -8  -1   12.54    0.46
  -5  -8  -1   12.42    0.46
  -6  -8  -1    3.10    0.27
  -6  -8  -1    2.77    0.29
  -7  -8  -1    2.02    0.27
  -8  -8  -1   83.82    1.56
  -9  -8  -1   -0.12    0.19
 -10  -8  -1   -0.05    0.20
   4  -9  -1    1.25    0.27
   3  -9  -1    3.20    0.33
   2  -9  -1   18.95    0.61
   1  -9  -1   10.59    0.46
   0  -9  -1    8.33    0.42
  -1  -9  -1   14.18    0.46
  -1  -9  -1   14.62    0.52
  -2  -9  -1    4.39    0.31
  -2  -9  -1    4.57    0.32
  -3  -9  -1   53.88    1.05
  -3  -9  -1   52.80    1.05
  -4  -9  -1    1.00    0.21
  -4  -9  -1    1.12    0.22
  -5  -9  -1    0.76    0.22
  -5  -9  -1    0.38    0.20
  -6  -9  -1   50.18    1.09
  -6  -9  -1   51.52    1.07
  -7  -9  -1    1.20    0.24
  -8  -9  -1    9.54    0.52
  -9  -9  -1    1.86    0.30
 -10  -9  -1    0.19    0.24
   3 -10  -1    8.13    0.50
   2 -10  -1    6.62    0.44
   1 -10  -1    0.35    0.19
   0 -10  -1    4.25    0.33
  -1 -10  -1   45.93    0.99
  -1 -10  -1   44.83    0.93
  -2 -10  -1    0.48    0.21
  -2 -10  -1    0.22    0.17
  -3 -10  -1    2.48    0.28
  -3 -10  -1    3.04    0.31
  -4 -10  -1   22.45    0.68
  -4 -10  -1   22.79    0.67
  -5 -10  -1    0.34    0.20
  -5 -10  -1    0.15    0.22
  -6 -10  -1   17.29    0.63
  -7 -10  -1    3.80    0.36
  -8 -10  -1    0.45    0.24
  -9 -10  -1   13.24    0.65
   2 -11  -1    0.42    0.23
   1 -11  -1    2.63    0.31
   0 -11  -1    8.70    0.48
  -1 -11  -1    0.30    0.21
  -2 -11  -1    0.10    0.20
  -2 -11  -1    0.66    0.19
  -3 -11  -1    5.50    0.39
  -3 -11  -1    5.95    0.40
  -4 -11  -1    3.54    0.34
  -4 -11  -1    3.77    0.35
  -5 -11  -1   39.62    0.98
  -6 -11  -1    2.00    0.31
  -7 -11  -1    0.24    0.23
  -8 -11  -1   29.26    0.90
   0 -12  -1   23.92    0.77
  -1 -12  -1    0.31    0.23
  -2 -12  -1    0.46    0.24
  -3 -12  -1   48.34    1.11
  -3 -12  -1   48.27    1.10
  -4 -12  -1   -0.11    0.21
  -5 -12  -1   12.29    0.59
  -6 -12  -1   16.04    0.67
  -7 -12  -1    0.07    0.23
  -4 -13  -1    0.16    0.25
  -5 -13  -1   -0.15    0.22
  -4 -12   2   27.73    0.86
  -6 -11   2   16.61    0.69
  -5 -11   2    0.52    0.23
  -4 -11   2   28.86    0.84
  -3 -11   2   -0.11    0.20
  -3 -11   2    0.06    0.30
  -2 -11   2    4.66    0.46
  -7 -10   2    0.49    0.24
  -6 -10   2   15.36    0.70
  -6 -10   2   15.48    0.64
  -5 -10   2   11.84    0.63
  -5 -10   2   12.25    0.56
  -4 -10   2    9.20    0.55
  -4 -10   2    8.45    0.48
  -3 -10   2    3.99    0.34
  -3 -10   2    3.24    0.37
  -2 -10   2   21.39    0.74
  -2 -10   2   21.19    0.79
  -1 -10   2    1.76    0.31
   0 -10   2    2.97    0.35
   1 -10   2    1.28    0.27
  -8  -9   2    0.56    0.24
  -7  -9   2   35.95    0.98
  -6  -9   2    6.24    0.48
  -5  -9   2    1.31    0.29
  -4  -9   2   28.59    0.83
  -4  -9   2   28.64    0.77
  -3  -9   2   -0.06    0.16
  -3  -9   2   -0.16    0.22
  -2  -9   2   47.63    0.99
  -2  -9   2   47.22    1.09
  -1  -9   2    0.15    0.22
   0  -9   2    5.10    0.39
   1  -9   2   55.32    1.19
   2  -9   2    0.13    0.20
   3  -9   2    9.74    0.52
  -8  -8   2    4.71    0.41
  -7  -8   2   21.38    0.72
  -6  -8   2    1.53    0.29
  -5  -8   2    2.28    0.31
  -4  -8   2   48.93    1.07
  -3  -8   2   11.15    0.51
  -2  -8   2   18.83    0.55
  -2  -8   2   18.93    0.63
  -1  -8   2   37.64    0.79
  -1  -8   2   37.76    0.90
   0  -8   2    0.06    0.20
   1  -8   2    4.39    0.35
   2  -8   2    0.35    0.20
   3  -8   2    8.08    0.46
   4  -8   2    0.90    0.24
  -8  -7   2    4.86    0.40
  -7  -7   2    6.05    0.44
  -6  -7   2    7.23    0.43
  -5  -7   2   36.38    0.86
  -4  -7   2   19.87    0.61
  -3  -7   2    3.25    0.30
  -2  -7   2   11.07    0.48
  -1  -7   2    2.30    0.27
   0  -7   2   12.25    0.49
   0  -7   2   12.24    0.38
   1  -7   2   15.22    0.53
   2  -7   2    1.51    0.24
   3  -7   2   33.80    0.85
   4  -7   2    1.73    0.28
   5  -7   2    0.07    0.21
  -9  -6   2    9.04    0.53
  -8  -6   2    1.70    0.28
  -7  -6   2   41.29    0.95
  -6  -6   2   15.10    0.54
  -5  -6   2   21.28    0.61
  -4  -6   2    0.40    0.19
  -3  -6   2    5.80    0.36
  -2  -6   2   97.65    1.60
  -1  -6   2    5.23    0.36
   0  -6   2   14.47    0.50
   1  -6   2   28.84    0.70
   2  -6   2   15.30    0.51
   3  -6   2    6.43    0.38
   4  -6   2    4.19    0.34
   5  -6   2   26.89    0.78
   6  -6   2    6.60    0.45
  -9  -5   2    6.68    0.47
  -8  -5   2    0.43    0.20
  -7  -5   2   42.50    0.96
  -6  -5   2    2.07    0.25
  -5  -5   2   44.70    0.91
  -4  -5   2   60.14    1.09
  -3  -5   2   15.55    0.47
  -2  -5   2   31.71    0.69
  -1  -5   2   38.44    0.78
   0  -5   2   31.92    0.69
   1  -5   2    1.36    0.12
   1  -5   2    1.41    0.20
   2  -5   2    0.06    0.16
   3  -5   2   35.05    0.80
   4  -5   2   12.61    0.48
  -5   5  -2    0.66    0.19
   5  -5   2    0.34    0.19
  -6   5  -2    1.83    0.25
   6  -5   2    1.62    0.27
  -7   5  -2   10.32    0.47
   7  -5   2   10.03    0.53
  -9  -4   2   15.31    0.62
  -8  -4   2    7.28    0.42
  -7  -4   2   39.98    0.91
  -6  -4   2    5.54    0.34
  -5  -4   2   20.14    0.55
  -4  -4   2   59.16    1.04
  -3  -4   2    0.68    0.15
  -2  -4   2    0.94    0.15
  -1  -4   2   45.12    0.82
   0  -4   2   40.62    0.76
   1  -4   2    6.29    0.30
   2  -4   2    0.31    0.14
  -3   4  -2   22.72    0.55
   3  -4   2   22.74    0.58
  -4   4  -2   32.43    0.71
   4  -4   2   33.11    0.77
  -5   4  -2    0.05    0.14
   5  -4   2    0.20    0.17
  -6   4  -2    0.24    0.16
   6  -4   2    0.25    0.19
  -7   4  -2   21.20    0.65
   7  -4   2   22.14    0.70
  -8   4  -2    0.72    0.23
   8  -4   2    1.01    0.26
   9   3  -2   15.06    0.60
  -9  -3   2   15.89    0.60
   8   3  -2   17.05    0.58
   7   3  -2    4.32    0.32
  -7  -3   2    4.73    0.34
  -6  -3   2    1.56    0.23
  -5  -3   2   42.43    0.86
  -4  -3   2   10.91    0.37
  -3  -3   2   46.29    0.82
  -2  -3   2   72.79    1.14
  -1  -3   2   26.76    0.53
  -1   3  -2   46.93    0.77
   1  -3   2   44.06    0.79
  -2   3  -2   92.44    1.39
   2  -3   2   92.14    1.26
   2  -3   2   91.83    1.41
  -3   3  -2    0.15    0.10
   3  -3   2   -0.09    0.12
  -4   3  -2    3.28    0.23
   4  -3   2    3.39    0.25
  -5   3  -2   23.18    0.57
   5  -3   2   21.74    0.60
  -6   3  -2   19.31    0.54
   6  -3   2   20.41    0.61
  -7   3  -2   17.55    0.55
   7  -3   2   16.17    0.59
  -8   3  -2    3.82    0.32
   8  -3   2    3.30    0.34
   9   2  -2    0.17    0.20
   8   2  -2   12.86    0.51
   7   2  -2   23.53    0.64
   6   2  -2    7.15    0.35
   5   2  -2   75.37    1.26
   4   2  -2   49.28    0.86
  -3  -2   2    1.40    0.16
  -2  -2   2   17.65    0.39
  -1  -2   2   73.96    1.10
   0  -2   2   51.13    0.81
  -1   2  -2    7.06    0.22
   1  -2   2    7.29    0.25
  -2   2  -2    3.13    0.18
   2  -2   2    3.11    0.19
  -3   2  -2    2.34    0.17
   3  -2   2    2.39    0.18
  -4   2  -2   27.09    0.57
   4  -2   2   28.19    0.61
  -5   2  -2    0.15    0.12
   5  -2   2    0.54    0.16
  -6   2  -2   27.10    0.63
   6  -2   2   26.23    0.66
  -7   2  -2   22.95    0.60
   7  -2   2   22.41    0.65
  -8   2  -2    9.21    0.41
   8  -2   2    9.30    0.46
   9  -2   2    5.87    0.43
   9   1  -2    2.54    0.30
   8   1  -2    3.67    0.32
   7   1  -2   27.67    0.70
   6   1  -2    5.62    0.33
   5   1  -2    0.37    0.14
   4   1  -2    0.35    0.12
   3   1  -2   25.91    0.51
   2   1  -2   26.86    0.49
   1   1  -2    3.61    0.16
  -1  -1   2    3.83    0.18
   0   1  -2    6.10    0.17
   0   1  -2    6.02    0.16
   0  -1   2    5.98    0.20
  -1   1  -2    4.65    0.17
   1  -1   2    4.54    0.20
  -2   1  -2   23.78    0.44
   2  -1   2   24.30    0.45
  -3   1  -2    3.03    0.17
   3  -1   2    3.19    0.19
  -4   1  -2  119.57    1.73
   4  -1   2  118.29    1.75
  -5   1  -2    7.19    0.29
   5  -1   2    6.64    0.30
  -6   1  -2    9.94    0.36
   6  -1   2    9.88    0.39
  -7   1  -2    3.63    0.26
   7  -1   2    3.24    0.27
  -8   1  -2    1.86    0.23
   8  -1   2    2.19    0.26
   9  -1   2   27.74    0.79
   9   0  -2    1.95    0.29
   8   0  -2    4.03    0.33
   7   0  -2    2.23    0.25
   6   0  -2   15.20    0.49
   5   0  -2   18.70    0.50
   4   0  -2    0.24    0.12
  -4   0   2    0.20    0.06
   3   0  -2    0.41    0.09
   3   0  -2    0.46    0.11
   2   0  -2   42.87    0.69
   2   0  -2   43.06    0.67
   1   0  -2   36.27    0.57
   0   0  -2    7.67    0.18
   0   0   2    7.59    0.18
  -1   0  -2  184.53    2.47
   1   0   2  191.30    2.49
  -2   0  -2  105.82    1.47
   2   0   2  105.61    1.45
  -3   0  -2    0.63    0.10
   3   0   2    0.75    0.10
  -4   0  -2   40.97    0.71
   4   0   2   41.00    0.71
  -5   0  -2    0.22    0.10
   5   0   2   -0.02    0.11
  -6   0  -2   61.61    1.04
   6   0   2   60.50    1.06
  -7   0  -2   35.15    0.73
   7   0   2   33.10    0.75
  -8   0  -2   13.91    0.46
   8   0   2   15.03    0.52
   9   0   2   37.06    0.89
   9  -1  -2    0.19    0.21
   8  -1  -2   37.22    0.91
   7  -1  -2   12.56    0.49
   6  -1  -2    0.83    0.20
   5  -1  -2   12.93    0.42
   4  -1  -2   33.85    0.66
   4  -1  -2   32.66    0.58
  -4   1   2   33.18    0.53
   3  -1  -2   20.43    0.44
   3  -1  -2   20.02    0.39
  -3   1   2   19.97    0.33
   2  -1  -2    2.55    0.14
   2  -1  -2    2.53    0.15
   1  -1  -2  151.41    2.06
   1  -1  -2  156.69    2.06
   0  -1  -2   56.54    0.77
   0  -1  -2   55.82    0.79
   1   1   2   60.05    0.79
  -2  -1  -2   83.41    1.17
  -2  -1  -2   82.27    1.16
   2   1   2   85.30    1.13
  -3  -1  -2    0.16    0.06
  -3  -1  -2    0.02    0.07
   3   1   2    0.04    0.07
  -4  -1  -2  152.04    2.14
  -4  -1  -2  155.80    2.06
   4   1   2  154.04    2.12
  -5  -1  -2   10.62    0.31
  -5  -1  -2   10.14    0.25
   5   1   2   10.22    0.31
  -6  -1  -2   76.62    1.23
   6   1   2   75.68    1.24
  -7  -1  -2   34.24    0.71
   7   1   2   34.23    0.73
  -8  -1  -2    4.19    0.29
   8   1   2    4.13    0.30
   9   1   2    4.91    0.34
   8  -2  -2    3.81    0.34
   7  -2  -2    9.08    0.44
   6  -2  -2    8.67    0.41
   5  -2  -2    3.42    0.27
   4  -2  -2    0.07    0.07
   4  -2  -2    0.00    0.11
  -4   2   2    0.15    0.07
   3  -2  -2    0.08    0.07
   3  -2  -2   -0.10    0.09
  -3   2   2   -0.03    0.05
   2  -2  -2    1.31    0.10
   2  -2  -2    1.29    0.12
   1  -2  -2   12.66    0.26
   1  -2  -2   11.64    0.27
   0  -2  -2   26.36    0.44
   0  -2  -2   26.78    0.41
  -1  -2  -2  116.73    1.56
  -1  -2  -2  113.62    1.48
  -2  -2  -2   48.42    0.72
   2   2   2   48.03    0.66
  -3  -2  -2   78.97    1.13
   3   2   2   80.30    1.10
  -4  -2  -2   16.43    0.34
   4   2   2   17.26    0.35
  -5  -2  -2    4.69    0.21
  -5  -2  -2    4.61    0.19
   5   2   2    4.32    0.20
  -6  -2  -2   77.08    1.22
  -6  -2  -2   75.15    1.15
   6   2   2   76.00    1.21
  -7  -2  -2    8.66    0.33
   7   2   2    8.68    0.34
  -8  -2  -2   42.70    0.86
   8   2   2   44.04    0.88
   9   2   2   17.63    0.55
   8  -3  -2    0.13    0.19
   7  -3  -2    0.02    0.18
   6  -3  -2    8.68    0.42
   5  -3  -2   24.75    0.63
   4  -3  -2   21.20    0.54
   4  -3  -2   21.32    0.41
  -4   3   2   21.89    0.44
   3  -3  -2    0.40    0.12
   3  -3  -2    0.40    0.08
   2  -3  -2   48.60    0.74
   2  -3  -2   47.53    0.81
   1  -3  -2   38.33    0.61
   1  -3  -2   38.25    0.63
   0  -3  -2   -0.01    0.08
   0  -3  -2    0.18    0.07
  -1  -3  -2  220.16    2.94
  -1  -3  -2  221.15    2.93
  -2  -3  -2    0.06    0.07
  -2  -3  -2    0.05    0.05
  -3  -3  -2   65.96    0.93
  -3  -3  -2   64.81    0.98
  -4  -3  -2  109.20    1.55
   4   3   2  106.75    1.50
  -5  -3  -2   25.16    0.51
   5   3   2   25.72    0.50
  -6  -3  -2  116.33    1.72
  -6  -3  -2  117.70    1.75
   6   3   2  117.24    1.73
  -7  -3  -2   20.16    0.48
  -7  -3  -2   20.26    0.52
   7   3   2   19.82    0.51
  -8  -3  -2    4.17    0.29
   8   3   2    4.00    0.29
   8  -4  -2   10.87    0.55
   7  -4  -2   20.24    0.67
   6  -4  -2    5.63    0.39
   5  -4  -2    4.30    0.33
   4  -4  -2   47.18    0.93
   3  -4  -2   27.86    0.50
   3  -4  -2   28.11    0.62
   2  -4  -2   26.70    0.55
   2  -4  -2   26.32    0.48
   1  -4  -2   22.64    0.46
   1  -4  -2   23.30    0.44
   0  -4  -2    1.71    0.13
   0  -4  -2    1.27    0.11
  -1  -4  -2   64.08    0.98
  -1  -4  -2   65.87    0.94
  -2  -4  -2    0.26    0.07
  -2  -4  -2    0.26    0.09
  -3  -4  -2   96.67    1.34
  -3  -4  -2   96.01    1.41
  -4  -4  -2  189.90    2.58
  -4  -4  -2  191.09    2.64
  -5  -4  -2    6.40    0.27
  -5  -4  -2    6.17    0.24
   5   4   2    6.33    0.23
  -6  -4  -2    0.87    0.15
   6   4   2    0.96    0.14
  -7  -4  -2    8.29    0.35
  -7  -4  -2    8.86    0.34
   7   4   2    8.50    0.33
  -8  -4  -2   11.03    0.41
   8   4   2   11.65    0.42
   7  -5  -2    0.16    0.21
   6  -5  -2    8.73    0.46
   5  -5  -2    1.41    0.23
   4  -5  -2    0.38    0.18
   3  -5  -2    0.00    0.14
   2  -5  -2    7.94    0.25
   2  -5  -2    9.00    0.33
   1  -5  -2  120.24    1.68
   1  -5  -2  116.94    1.73
   0  -5  -2   13.93    0.34
   0  -5  -2   14.03    0.34
  -1  -5  -2   11.33    0.30
  -1  -5  -2   11.92    0.30
  -2  -5  -2   20.14    0.41
  -2  -5  -2   20.67    0.44
  -3  -5  -2  131.78    1.92
  -3  -5  -2  134.79    1.85
  -4  -5  -2   41.81    0.76
  -4  -5  -2   41.49    0.70
  -5  -5  -2    9.30    0.33
  -5  -5  -2    9.02    0.29
  -6  -5  -2   28.19    0.63
  -6  -5  -2   29.01    0.60
  -7  -5  -2   20.36    0.52
  -7  -5  -2   19.92    0.53
  -8  -5  -2   41.08    0.85
  -8  -5  -2   40.57    0.86
   7  -6  -2    0.53    0.23
   6  -6  -2    0.81    0.23
   5  -6  -2   14.44    0.55
   4  -6  -2    8.53    0.41
   3  -6  -2    3.28    0.28
   2  -6  -2   38.41    0.80
   2  -6  -2   39.85    0.69
   1  -6  -2    7.48    0.26
   1  -6  -2    7.70    0.31
   0  -6  -2   37.93    0.67
   0  -6  -2   37.14    0.69
  -1  -6  -2   51.09    0.85
  -1  -6  -2   52.27    0.87
  -2  -6  -2   16.85    0.42
  -2  -6  -2   16.90    0.40
  -3  -6  -2  139.01    2.03
  -3  -6  -2  138.94    1.97
  -4  -6  -2   29.76    0.57
  -4  -6  -2   29.33    0.63
  -5  -6  -2   26.32    0.61
  -5  -6  -2   26.06    0.55
  -6  -6  -2   72.12    1.20
  -6  -6  -2   74.82    1.27
  -7  -6  -2   -0.03    0.13
  -7  -6  -2    0.16    0.15
  -8  -6  -2   10.02    0.43
  -9  -6  -2   23.38    0.66
   6  -7  -2    8.04    0.49
   5  -7  -2    0.07    0.18
   4  -7  -2   24.62    0.70
   3  -7  -2    1.58    0.21
   2  -7  -2   23.07    0.61
   1  -7  -2   21.09    0.55
   1  -7  -2   20.82    0.48
   0  -7  -2    3.64    0.22
   0  -7  -2    2.86    0.23
  -1  -7  -2  277.67    3.78
  -1  -7  -2  275.45    3.77
  -2  -7  -2    0.95    0.16
  -2  -7  -2    0.76    0.15
  -3  -7  -2    0.09    0.12
  -3  -7  -2    0.00    0.13
  -4  -7  -2   63.48    1.06
  -4  -7  -2   63.57    1.13
  -5  -7  -2    7.83    0.33
  -5  -7  -2    8.25    0.37
  -6  -7  -2   43.20    0.90
  -6  -7  -2   42.93    0.83
  -7  -7  -2    0.68    0.19
  -8  -7  -2   15.20    0.54
  -9  -7  -2   30.96    0.81
   5  -8  -2    0.01    0.19
   4  -8  -2   21.44    0.68
   3  -8  -2    5.80    0.38
   2  -8  -2    4.14    0.32
   1  -8  -2   34.48    0.77
   0  -8  -2   15.76    0.49
   0  -8  -2   15.49    0.43
  -1  -8  -2    8.61    0.37
  -1  -8  -2    9.08    0.34
  -2  -8  -2    7.85    0.36
  -2  -8  -2    8.36    0.35
  -3  -8  -2   34.78    0.75
  -3  -8  -2   32.67    0.71
  -4  -8  -2   21.55    0.55
  -4  -8  -2   20.63    0.57
  -5  -8  -2   29.30    0.72
  -5  -8  -2   28.98    0.66
  -6  -8  -2   16.77    0.55
  -7  -8  -2   14.88    0.54
  -8  -8  -2   34.03    0.86
  -9  -8  -2   -0.04    0.19
 -10  -8  -2    3.60    0.36
   4  -9  -2    7.45    0.46
   3  -9  -2    1.47    0.26
   2  -9  -2   19.34    0.61
   1  -9  -2    3.19    0.29
   0  -9  -2   33.89    0.71
   0  -9  -2   33.12    0.76
  -1  -9  -2   13.48    0.47
  -1  -9  -2   12.62    0.43
  -2  -9  -2   24.58    0.63
  -2  -9  -2   26.14    0.64
  -3  -9  -2  135.95    2.11
  -3  -9  -2  133.86    2.06
  -4  -9  -2    6.30    0.35
  -4  -9  -2    5.51    0.34
  -5  -9  -2    0.63    0.23
  -5  -9  -2    0.48    0.19
  -6  -9  -2   46.11    1.02
  -7  -9  -2    3.01    0.30
  -8  -9  -2   38.91    0.97
  -9  -9  -2    1.28    0.27
 -10  -9  -2    3.75    0.37
   3 -10  -2    1.11    0.25
   2 -10  -2   51.26    1.11
   1 -10  -2    1.75    0.25
   0 -10  -2    0.14    0.17
  -1 -10  -2   59.01    1.11
  -1 -10  -2   60.85    1.16
  -2 -10  -2    2.91    0.27
  -2 -10  -2    3.82    0.31
  -3 -10  -2    9.20    0.42
  -3 -10  -2    9.42    0.44
  -4 -10  -2    1.54    0.24
  -4 -10  -2    1.64    0.25
  -5 -10  -2    3.32    0.33
  -6 -10  -2   56.88    1.20
  -7 -10  -2    1.06    0.24
  -8 -10  -2    1.12    0.26
  -9 -10  -2   16.31    0.66
   2 -11  -2    0.07    0.20
   1 -11  -2    3.99    0.35
   0 -11  -2    4.26    0.35
  -1 -11  -2   25.35    0.71
  -2 -11  -2    3.04    0.30
  -2 -11  -2    2.11    0.26
  -3 -11  -2    6.25    0.41
  -3 -11  -2    6.43    0.42
  -4 -11  -2   39.15    0.95
  -5 -11  -2   35.68    0.92
  -6 -11  -2   -0.03    0.20
  -7 -11  -2    0.21    0.21
  -8 -11  -2   14.74    0.64
   1 -12  -2    5.65    0.53
   0 -12  -2   52.40    1.18
  -1 -12  -2    0.59    0.23
  -2 -12  -2    2.11    0.29
  -3 -12  -2   39.87    0.97
  -4 -12  -2    1.57    0.28
  -5 -12  -2   15.12    0.63
  -6 -12  -2    3.88    0.39
  -7 -12  -2    0.34    0.24
  -3 -13  -2   39.61    1.01
  -4 -13  -2   -0.14    0.22
  -5 -13  -2    0.34    0.25
  -6 -13  -2   33.51    0.99
  -4 -14  -2    1.75    0.32
  -5 -11   3    1.86    0.31
  -4 -11   3   14.81    0.62
  -6 -10   3    8.94    0.53
  -5 -10   3    2.34    0.33
  -4 -10   3    1.47    0.27
  -4 -10   3    1.32    0.33
  -3 -10   3    0.69    0.22
  -3 -10   3    0.78    0.31
  -2 -10   3    0.31    0.27
  -1 -10   3    1.19    0.30
   0 -10   3    0.17    0.24
  -6  -9   3   -0.06    0.27
  -5  -9   3    2.85    0.37
  -4  -9   3    0.39    0.26
  -3  -9   3    7.25    0.51
  -2  -9   3   12.73    0.48
  -2  -9   3   13.31    0.60
  -1  -9   3    2.01    0.31
   0  -9   3    1.84    0.29
   1  -9   3    6.71    0.48
   2  -9   3   36.87    0.97
  -7  -8   3   11.80    0.59
  -6  -8   3   -0.04    0.23
  -5  -8   3    9.75    0.53
  -4  -8   3   12.06    0.57
  -3  -8   3    1.91    0.30
  -2  -8   3   -0.12    0.22
  -1  -8   3   10.10    0.40
  -1  -8   3    9.77    0.52
   0  -8   3   26.09    0.76
   1  -8   3    0.45    0.23
   2  -8   3    1.96    0.29
   3  -8   3   11.91    0.57
   4  -8   3    0.33    0.22
  -8  -7   3    1.05    0.32
  -7  -7   3    1.59    0.29
  -6  -7   3    2.39    0.32
  -5  -7   3    0.44    0.22
  -4  -7   3    0.84    0.23
  -3  -7   3    0.39    0.22
  -2  -7   3    0.60    0.22
  -1  -7   3    2.81    0.29
   0  -7   3    2.40    0.29
   1  -7   3    0.03    0.18
   2  -7   3    0.43    0.20
   3  -7   3    6.14    0.41
   4  -7   3   48.03    1.09
   5  -7   3    0.76    0.25
  -8  -6   3   -0.26    0.21
  -7  -6   3    1.03    0.25
  -6  -6   3    9.70    0.49
  -5  -6   3    4.11    0.34
  -4  -6   3    0.22    0.19
  -3  -6   3    3.30    0.31
  -2  -6   3    8.98    0.45
  -1  -6   3   26.60    0.71
   0  -6   3    4.17    0.32
   1  -6   3   -0.08    0.18
   2  -6   3   69.26    1.28
   3  -6   3    0.85    0.21
   4  -6   3   10.20    0.48
   5  -6   3   17.65    0.64
   6  -6   3    0.76    0.25
  -8  -5   3    7.80    0.49
  -7  -5   3    7.03    0.43
  -6  -5   3    2.72    0.30
  -5  -5   3    8.85    0.43
  -4  -5   3   25.10    0.66
  -3  -5   3   25.94    0.66
  -2  -5   3    0.50    0.18
  -1  -5   3    6.64    0.37
   0  -5   3   51.82    0.99
   1  -5   3    1.88    0.24
   2  -5   3   57.72    1.09
   3  -5   3    0.36    0.18
  -4   5  -3    3.86    0.30
   4  -5   3    3.75    0.32
  -5   5  -3   57.52    1.16
   5  -5   3   59.28    1.20
  -6   5  -3   21.69    0.67
   6  -5   3   21.71    0.70
  -7   5  -3   16.16    0.60
   7  -5   3   14.37    0.62
  -8   5  -3    7.06    0.46
  -9  -4   3    7.99    0.52
  -8  -4   3    2.37    0.31
  -7  -4   3    0.00    0.17
  -6  -4   3    8.25    0.41
  -5  -4   3   21.83    0.61
  -4  -4   3    0.15    0.16
  -3  -4   3    8.21    0.34
  -2  -4   3    0.38    0.15
  -1  -4   3    0.51    0.16
   0  -4   3   22.46    0.56
   1  -4   3   57.23    1.02
  -2   4  -3   29.22    0.63
   2  -4   3   29.01    0.66
  -3   4  -3    4.20    0.28
   3  -4   3    4.77    0.32
  -4   4  -3   61.88    1.14
   4  -4   3   63.14    1.17
  -5   4  -3    3.62    0.28
   5  -4   3    3.87    0.33
  -6   4  -3    9.90    0.45
   6  -4   3    9.81    0.48
  -7   4  -3    4.87    0.36
   7  -4   3    4.37    0.37
  -8   4  -3    0.18    0.20
   8  -4   3    0.64    0.25
  -9  -3   3    0.47    0.23
  -8  -3   3    1.97    0.28
  -7  -3   3    0.24    0.19
  -6  -3   3    9.67    0.43
  -5  -3   3    4.48    0.33
  -4  -3   3    4.67    0.29
  -3  -3   3    0.15    0.13
  -2  -3   3   16.35    0.43
  -1  -3   3  169.75    2.41
   0  -3   3    1.28    0.15
  -1   3  -3   13.37    0.35
   1  -3   3   13.67    0.40
  -2   3  -3   91.19    1.42
   2  -3   3   92.81    1.43
  -3   3  -3    0.95    0.14
   3  -3   3    1.14    0.18
  -4   3  -3  100.24    1.59
   4  -3   3  100.89    1.62
  -5   3  -3    0.27    0.14
   5  -3   3   -0.20    0.15
  -6   3  -3    4.51    0.30
   6  -3   3    3.75    0.32
  -7   3  -3   92.68    1.62
   7  -3   3   93.94    1.68
  -8   3  -3    8.05    0.44
   8  -3   3    7.80    0.46
   9   2  -3    2.91    0.34
   8   2  -3    9.03    0.46
   7   2  -3    7.48    0.40
   6   2  -3   12.45    0.45
   5   2  -3    0.45    0.16
  -5  -2   3    0.49    0.17
  -4  -2   3   18.46    0.50
  -3  -2   3  139.49    2.04
  -2  -2   3    5.96    0.25
  -1  -2   3   89.87    1.34
   0  -2   3    4.62    0.22
  -1   2  -3   16.31    0.36
   1  -2   3   15.79    0.39
  -2   2  -3  175.14    2.43
   2  -2   3  174.46    2.44
  -3   2  -3   47.53    0.83
   3  -2   3   47.17    0.84
  -4   2  -3   43.87    0.82
   4  -2   3   43.50    0.83
  -5   2  -3   18.47    0.50
   5  -2   3   18.75    0.53
  -6   2  -3   23.76    0.61
   6  -2   3   24.34    0.65
  -7   2  -3   17.41    0.55
   7  -2   3   17.88    0.59
  -8   2  -3   -0.09    0.15
   8  -2   3    0.43    0.20
  -9   2  -3    0.16    0.19
   9  -2   3   -0.03    0.21
   9   1  -3   11.80    0.55
   8   1  -3   10.05    0.48
   7   1  -3    3.03    0.29
   6   1  -3    6.74    0.35
   5   1  -3   10.52    0.39
   4   1  -3    1.73    0.18
   3   1  -3   36.25    0.68
   2   1  -3   16.41    0.37
  -2  -1   3   16.10    0.39
   1   1  -3   31.24    0.54
  -1  -1   3   31.01    0.56
   0   1  -3    5.24    0.17
   0   1  -3    5.44    0.17
   0  -1   3    5.52    0.21
  -1   1  -3   96.39    1.32
  -1   1  -3   96.75    1.37
   1  -1   3   96.11    1.38
  -2   1  -3   38.74    0.57
  -2   1  -3   38.68    0.66
   2  -1   3   39.54    0.66
  -3   1  -3    2.41    0.18
   3  -1   3    2.58    0.19
  -4   1  -3   31.10    0.62
   4  -1   3   30.97    0.62
  -5   1  -3    7.87    0.31
   5  -1   3    7.60    0.33
  -6   1  -3   80.23    1.34
   6  -1   3   80.16    1.36
  -7   1  -3    0.96    0.18
   7  -1   3    0.99    0.20
  -8   1  -3    3.84    0.30
   8  -1   3    4.18    0.33
  -9   1  -3   51.90    1.09
   9  -1   3   54.91    1.17
   9   0  -3    4.98    0.40
   8   0  -3    0.74    0.22
   7   0  -3   -0.10    0.16
   6   0  -3    5.85    0.35
   5   0  -3    0.26    0.15
   4   0  -3   48.66    0.88
   3   0  -3   26.69    0.54
   3   0  -3   26.12    0.51
   2   0  -3    1.07    0.11
   2   0  -3    1.12    0.12
   1   0  -3  184.51    2.47
  -1   0   3  182.25    2.48
   0   0  -3   47.44    0.68
   0   0  -3   47.80    0.72
   0   0   3   46.92    0.72
  -1   0  -3   93.67    1.31
  -1   0  -3   94.00    1.29
   1   0   3   94.19    1.31
  -2   0  -3    2.40    0.10
  -2   0  -3    2.55    0.15
   2   0   3    2.52    0.15
  -3   0  -3   25.36    0.49
   3   0   3   25.68    0.47
  -4   0  -3  271.26    3.65
   4   0   3  267.90    3.63
  -5   0  -3   29.72    0.61
   5   0   3   30.24    0.62
  -6   0  -3   27.44    0.62
   6   0   3   27.72    0.62
  -7   0  -3   71.86    1.25
   7   0   3   73.07    1.26
  -8   0  -3    1.92    0.23
   8   0   3    2.31    0.25
  -9   0  -3   22.41    0.64
   9   0   3   23.13    0.69
   8  -1  -3    0.39    0.21
   7  -1  -3   13.00    0.51
   6  -1  -3   65.95    1.21
   5  -1  -3   15.29    0.48
   4  -1  -3   67.75    1.13
   4  -1  -3   67.88    1.06
   3  -1  -3   58.49    0.95
   3  -1  -3   57.31    0.91
   2  -1  -3    1.73    0.13
   2  -1  -3    1.96    0.14
   1  -1  -3  147.05    1.98
   1  -1  -3  143.04    1.97
   0  -1  -3   33.63    0.51
   0   1   3   33.45    0.52
  -1  -1  -3   97.46    1.32
  -1  -1  -3   95.20    1.33
   1   1   3   97.51    1.29
  -2  -1  -3  123.57    1.69
  -2  -1  -3  125.83    1.73
   2   1   3  128.86    1.68
  -3  -1  -3    3.78    0.14
  -3  -1  -3    3.66    0.18
   3   1   3    3.86    0.15
  -4  -1  -3  133.24    1.78
  -4  -1  -3  129.33    1.88
   4   1   3  132.79    1.84
  -5  -1  -3   41.95    0.64
  -5  -1  -3   40.90    0.76
   5   1   3   40.64    0.72
  -6  -1  -3    8.05    0.32
   6   1   3    8.35    0.32
  -7  -1  -3   44.53    0.87
   7   1   3   44.54    0.86
  -8  -1  -3   20.11    0.55
   8   1   3   19.30    0.56
  -9  -1  -3    8.96    0.41
   8  -2  -3   24.72    0.75
   7  -2  -3    1.28    0.23
   6  -2  -3   33.12    0.79
   5  -2  -3    0.58    0.17
   5  -2  -3    0.97    0.13
   4  -2  -3    6.80    0.24
   4  -2  -3    6.20    0.30
   3  -2  -3   47.91    0.84
   3  -2  -3   48.13    0.78
   2  -2  -3   32.28    0.59
   2  -2  -3   32.75    0.56
   1  -2  -3   60.50    0.91
   1  -2  -3   63.04    0.92
   0  -2  -3   48.62    0.70
  -1  -2  -3  149.83    1.99
   1   2   3  143.54    1.91
  -2  -2  -3   88.17    1.24
   2   2   3   88.29    1.15
  -3  -2  -3   31.27    0.52
   3   2   3   32.28    0.48
  -4  -2  -3    8.18    0.23
   4   2   3    8.33    0.22
  -5  -2  -3   10.48    0.27
  -5  -2  -3   10.38    0.32
   5   2   3   10.01    0.29
  -6  -2  -3  221.53    3.05
   6   2   3  213.17    2.99
  -7  -2  -3   17.64    0.49
   7   2   3   17.06    0.46
  -8  -2  -3    6.71    0.34
   8   2   3    7.37    0.35
  -9  -2  -3   27.96    0.70
   8  -3  -3    2.22    0.32
   7  -3  -3    4.83    0.37
   6  -3  -3   14.87    0.53
   5  -3  -3    3.41    0.29
   4  -3  -3  145.91    2.05
   4  -3  -3  145.19    2.17
   3  -3  -3   41.61    0.77
   3  -3  -3   41.68    0.70
   2  -3  -3   84.57    1.28
   2  -3  -3   85.46    1.24
   1  -3  -3   91.60    1.33
   1  -3  -3   93.40    1.33
   0  -3  -3    3.76    0.17
   0  -3  -3    3.90    0.14
  -1  -3  -3  175.54    2.35
  -1  -3  -3  171.56    2.25
  -2  -3  -3   53.40    0.82
  -3  -3  -3   74.49    1.10
   3   3   3   73.82    1.00
  -4  -3  -3  212.93    2.89
   4   3   3  214.90    2.83
  -5  -3  -3   35.42    0.63
   5   3   3   35.10    0.60
  -6  -3  -3   62.57    1.02
  -6  -3  -3   63.19    1.08
   6   3   3   64.02    1.02
  -7  -3  -3   28.60    0.65
   7   3   3   28.24    0.60
  -8  -3  -3    2.92    0.25
  -9  -3  -3   37.94    0.85
   7  -4  -3   26.00    0.77
   6  -4  -3   39.77    0.92
   5  -4  -3    9.21    0.42
   4  -4  -3   68.94    1.21
   3  -4  -3    3.60    0.26
   3  -4  -3    3.68    0.19
   2  -4  -3   39.01    0.72
   2  -4  -3   39.40    0.67
   1  -4  -3  185.24    2.51
   1  -4  -3  182.59    2.52
   0  -4  -3   12.47    0.31
   0  -4  -3   12.67    0.29
  -1  -4  -3   52.56    0.83
  -1  -4  -3   52.66    0.76
  -2  -4  -3   50.66    0.71
  -2  -4  -3   50.76    0.81
  -3  -4  -3   69.16    1.06
  -3  -4  -3   68.93    0.95
  -4  -4  -3  204.86    2.71
  -4  -4  -3  203.64    2.80
  -5  -4  -3    9.91    0.31
   5   4   3   10.10    0.27
  -6  -4  -3   15.83    0.42
   6   4   3   14.86    0.38
  -7  -4  -3   17.84    0.50
  -7  -4  -3   17.33    0.46
   7   4   3   17.59    0.55
  -8  -4  -3   40.32    0.85
  -9  -4  -3   21.90    0.62
   7  -5  -3    1.31    0.27
   6  -5  -3   21.35    0.68
   5  -5  -3    7.28    0.40
   4  -5  -3   50.04    0.99
   3  -5  -3   17.08    0.49
   3  -5  -3   17.01    0.39
   2  -5  -3  101.94    1.54
   2  -5  -3   97.83    1.46
   1  -5  -3  113.87    1.66
   1  -5  -3  112.34    1.63
   0  -5  -3    7.45    0.25
   0  -5  -3    7.00    0.24
  -1  -5  -3    5.55    0.23
  -1  -5  -3    5.45    0.19
  -2  -5  -3    6.72    0.25
  -2  -5  -3    6.76    0.20
  -3  -5  -3  175.67    2.34
  -3  -5  -3  175.45    2.46
  -4  -5  -3  116.60    1.74
  -4  -5  -3  118.28    1.63
  -5  -5  -3    1.76    0.18
  -5  -5  -3    2.08    0.15
  -6  -5  -3   49.34    0.90
  -6  -5  -3   48.65    0.84
  -7  -5  -3   15.75    0.46
  -8  -5  -3    8.13    0.37
  -8  -5  -3    8.00    0.37
  -9  -5  -3    2.23    0.25
   7  -6  -3   23.48    1.05
   6  -6  -3   44.54    1.04
   5  -6  -3    8.50    0.43
   4  -6  -3   32.62    0.79
   3  -6  -3   36.99    0.80
   2  -6  -3   38.98    0.78
   2  -6  -3   38.69    0.70
   1  -6  -3    1.91    0.19
   1  -6  -3    1.89    0.17
   0  -6  -3   16.55    0.40
   0  -6  -3   16.50    0.41
  -1  -6  -3  127.68    1.82
  -1  -6  -3  129.92    1.87
  -2  -6  -3   53.81    0.92
  -2  -6  -3   54.72    0.85
  -3  -6  -3   90.10    1.40
  -3  -6  -3   90.53    1.31
  -4  -6  -3   58.14    0.91
  -5  -6  -3    1.84    0.20
  -5  -6  -3    2.29    0.16
  -6  -6  -3   68.70    1.19
  -7  -6  -3    0.52    0.16
  -8  -6  -3   15.78    0.52
  -9  -6  -3   18.03    0.57
   6  -7  -3    3.94    0.37
   5  -7  -3    4.40    0.37
   4  -7  -3   39.77    0.91
   3  -7  -3   12.69    0.47
   2  -7  -3   54.14    1.02
   1  -7  -3   73.10    1.23
   1  -7  -3   72.57    1.18
   0  -7  -3   18.66    0.46
   0  -7  -3   18.34    0.47
  -1  -7  -3  154.69    2.22
  -1  -7  -3  152.80    2.18
  -2  -7  -3    1.82    0.17
  -2  -7  -3    1.88    0.18
  -3  -7  -3   19.63    0.50
  -3  -7  -3   19.17    0.44
  -4  -7  -3   50.02    0.86
  -4  -7  -3   51.41    0.95
  -5  -7  -3   10.25    0.40
  -5  -7  -3   10.03    0.34
  -6  -7  -3   74.50    1.31
  -7  -7  -3    4.30    0.31
  -8  -7  -3    4.69    0.34
  -9  -7  -3    8.32    0.44
   5  -8  -3   17.83    0.66
   4  -8  -3   87.84    1.61
   3  -8  -3    1.39    0.24
   2  -8  -3   11.86    0.45
   1  -8  -3   50.52    0.90
   1  -8  -3   48.85    0.96
   0  -8  -3    8.54    0.37
   0  -8  -3    8.44    0.34
  -1  -8  -3   65.78    1.14
  -1  -8  -3   69.51    1.14
  -2  -8  -3    0.52    0.15
  -2  -8  -3    0.03    0.14
  -3  -8  -3   44.51    0.89
  -3  -8  -3   44.77    0.82
  -4  -8  -3   32.84    0.74
  -4  -8  -3   32.25    0.67
  -5  -8  -3    7.73    0.38
  -6  -8  -3   10.70    0.44
  -7  -8  -3    0.35    0.18
  -8  -8  -3   15.23    0.55
  -9  -8  -3   -0.06    0.18
   4  -9  -3    0.89    0.23
   3  -9  -3    1.24    0.24
   2  -9  -3   30.90    0.77
   1  -9  -3   15.07    0.52
   0  -9  -3   50.46    0.98
   0  -9  -3   50.01    0.95
  -1  -9  -3   32.58    0.71
  -1  -9  -3   32.57    0.72
  -2  -9  -3    8.97    0.39
  -2  -9  -3    8.75    0.36
  -3  -9  -3   36.29    0.74
  -3  -9  -3   35.72    0.80
  -4  -9  -3    1.12    0.21
  -5  -9  -3   23.57    0.66
  -6  -9  -3   29.29    0.77
  -7  -9  -3   -0.30    0.16
  -8  -9  -3   23.33    0.73
  -9  -9  -3    8.40    0.48
 -10  -9  -3    0.32    0.23
   4 -10  -3   25.82    1.11
   3 -10  -3   16.46    0.63
   2 -10  -3   65.94    1.31
   1 -10  -3    4.78    0.36
   0 -10  -3    0.93    0.21
  -1 -10  -3   37.18    0.80
  -1 -10  -3   36.25    0.81
  -2 -10  -3    0.58    0.17
  -2 -10  -3    0.68    0.18
  -3 -10  -3   37.40    0.87
  -3 -10  -3   38.95    0.87
  -4 -10  -3    4.06    0.34
  -5 -10  -3    2.36    0.28
  -6 -10  -3   23.36    0.71
  -7 -10  -3    2.96    0.31
  -8 -10  -3    0.22    0.22
  -9 -10  -3   -0.11    0.22
 -10 -10  -3    0.12    0.24
   2 -11  -3    5.68    0.44
   1 -11  -3    0.40    0.21
   0 -11  -3    6.39    0.39
  -1 -11  -3   24.77    0.67
  -1 -11  -3   23.73    0.65
  -2 -11  -3    2.50    0.27
  -2 -11  -3    2.33    0.26
  -3 -11  -3    7.47    0.43
  -4 -11  -3    4.22    0.35
  -5 -11  -3    0.55    0.22
  -6 -11  -3    1.37    0.26
  -7 -11  -3    3.20    0.35
  -8 -11  -3    1.63    0.30
  -9 -11  -3    0.17    0.24
   1 -12  -3   12.90    0.58
   0 -12  -3   22.99    0.71
  -1 -12  -3    7.95    0.49
  -2 -12  -3    1.71    0.26
  -3 -12  -3    9.54    0.48
  -4 -12  -3    0.10    0.20
  -5 -12  -3   16.66    0.66
  -6 -12  -3    6.45    0.47
  -7 -12  -3    0.51    0.25
  -8 -12  -3    8.41    0.56
  -3 -13  -3   20.12    0.71
  -4 -13  -3    2.50    0.34
  -5 -13  -3    0.21    0.24
  -6 -13  -3    2.51    0.35
  -4 -14  -3    0.26    0.24
  -5 -14  -3   -0.29    0.27
  -4 -11   4    0.91    0.27
  -4 -10   4    0.25    0.21
  -3 -10   4    1.46    0.26
  -4  -9   4    1.81    0.35
  -3  -9   4   14.17    0.67
  -2  -9   4    0.77    0.29
  -1  -9   4   28.27    0.87
   0  -9   4    5.22    0.43
   1  -9   4    4.45    0.42
  -6  -8   4    5.74    0.47
  -5  -8   4   13.43    0.63
  -4  -8   4    0.47    0.26
  -3  -8   4   56.79    1.26
  -2  -8   4    0.90    0.29
  -1  -8   4    0.48    0.25
   0  -8   4   50.53    1.14
   1  -8   4    1.63    0.29
   2  -8   4   15.55    0.64
   3  -8   4    2.91    0.35
  -7  -7   4    0.03    0.24
  -6  -7   4   -0.21    0.23
  -5  -7   4   53.01    1.18
  -4  -7   4    5.50    0.42
  -3  -7   4    0.05    0.22
  -2  -7   4    6.72    0.46
  -1  -7   4    8.94    0.49
   0  -7   4   28.03    0.79
   1  -7   4   19.27    0.65
   2  -7   4    6.10    0.42
   3  -7   4   32.72    0.87
   4  -7   4   40.33    1.01
   5  -7   4    0.37    0.27
  -7  -6   4    6.45    0.47
  -6  -6   4   22.62    0.73
  -5  -6   4    1.99    0.28
  -4  -6   4    8.20    0.46
  -3  -6   4   11.76    0.52
  -2  -6   4    8.39    0.45
  -1  -6   4  103.67    1.77
   0  -6   4    0.80    0.22
   1  -6   4    1.37    0.25
   2  -6   4   60.36    1.19
   3  -6   4   -0.12    0.18
   4  -6   4   22.29    0.70
   5  -6   4    5.89    0.45
   6  -6   4    3.38    0.37
  -8  -5   4    8.36    0.51
  -7  -5   4    0.66    0.24
  -6  -5   4   59.38    1.22
  -5  -5   4    0.51    0.21
  -4  -5   4   -0.30    0.17
  -3  -5   4  128.88    2.05
  -2  -5   4    0.41    0.21
  -1  -5   4    5.44    0.36
   0  -5   4   40.23    0.88
   1  -5   4    5.93    0.39
   2  -5   4  108.91    1.78
   3  -5   4    7.42    0.40
  -4   5  -4    2.15    0.26
   4  -5   4    2.35    0.28
  -5   5  -4   67.14    1.30
   5  -5   4   66.02    1.32
  -6   5  -4    6.99    0.43
   6  -5   4    6.50    0.43
  -7   5  -4   16.18    0.64
   7  -5   4   16.08    0.67
  -8   5  -4   -0.15    0.22
  -8  -4   4   41.56    1.04
  -7  -4   4    7.00    0.44
  -6  -4   4   -0.02    0.18
  -5  -4   4   64.89    1.23
  -4  -4   4    2.62    0.27
  -3  -4   4   51.21    1.00
  -2  -4   4    0.95    0.20
  -1  -4   4    7.17    0.37
   0  -4   4  108.31    1.72
   1  -4   4   93.04    1.53
  -2   4  -4    1.13    0.18
   2  -4   4    1.20    0.21
  -3   4  -4    8.59    0.36
   3  -4   4    8.96    0.42
  -4   4  -4   29.42    0.71
   4  -4   4   28.69    0.73
  -5   4  -4    5.81    0.36
   5  -4   4    5.44    0.37
  -6   4  -4   20.51    0.64
   6  -4   4   20.22    0.66
  -7   4  -4    0.56    0.21
   7  -4   4    0.37    0.22
  -8   4  -4    7.12    0.46
   8  -4   4    6.43    0.55
  -9   4  -4   22.38    0.76
  -8  -3   4    4.78    0.41
  -7  -3   4    0.28    0.19
  -6  -3   4    7.19    0.41
  -5  -3   4   21.46    0.61
  -4  -3   4   86.26    1.46
  -3  -3   4    0.81    0.18
  -2  -3   4   10.46    0.38
  -1  -3   4  201.32    2.86
   0  -3   4    0.47    0.15
  -1   3  -4   30.70    0.62
   1  -3   4   31.39    0.67
  -2   3  -4   65.88    1.13
   2  -3   4   69.85    1.16
  -3   3  -4    2.32    0.20
   3  -3   4    2.57    0.24
  -4   3  -4  126.84    1.97
   4  -3   4  127.79    1.99
  -5   3  -4    5.41    0.32
   5  -3   4    5.09    0.33
  -6   3  -4    0.23    0.16
   6  -3   4    0.27    0.18
  -7   3  -4   58.15    1.18
   7  -3   4   59.02    1.22
  -8   3  -4    0.12    0.19
   8  -3   4    0.09    0.20
  -9   3  -4   10.20    0.52
   8   2  -4    1.11    0.25
  -8  -2   4    1.42    0.26
   7   2  -4   -0.23    0.16
  -7  -2   4    0.41    0.20
  -6  -2   4  101.44    1.74
  -5  -2   4    3.68    0.29
  -4  -2   4    1.14    0.20
  -3  -2   4  160.89    2.35
  -2  -2   4    4.61    0.26
  -1  -2   4  181.35    2.55
   0  -2   4    0.59    0.14
  -1   2  -4    0.32    0.09
   1  -2   4    0.51    0.14
  -2   2  -4  250.67    3.47
   2  -2   4  258.99    3.50
  -3   2  -4   21.74    0.52
   3  -2   4   22.50    0.53
  -4   2  -4   14.59    0.43
   4  -2   4   13.44    0.44
  -5   2  -4    2.42    0.22
   5  -2   4    2.54    0.25
  -6   2  -4    2.54    0.25
   6  -2   4    2.51    0.25
  -7   2  -4   17.94    0.58
   7  -2   4   18.21    0.59
  -8   2  -4    1.16    0.22
   8  -2   4    0.98    0.23
  -9   2  -4    0.29    0.19
   8   1  -4   56.56    1.22
   7   1  -4   10.80    0.49
   6   1  -4   13.04    0.49
   5   1  -4    0.76    0.18
   4   1  -4    2.54    0.23
  -3  -1   4  159.45    2.32
   2   1  -4  124.89    1.83
  -2  -1   4  129.22    1.86
   1   1  -4   11.52    0.31
  -1  -1   4   11.53    0.33
   0   1  -4   52.78    0.83
   0   1  -4   52.70    0.81
   0  -1   4   53.66    0.86
  -1   1  -4   93.24    1.29
  -1   1  -4   89.38    1.32
   1  -1   4   90.28    1.35
  -2   1  -4   12.66    0.33
  -2   1  -4   12.93    0.26
   2  -1   4   13.08    0.34
  -3   1  -4   15.10    0.39
  -3   1  -4   15.38    0.27
   3  -1   4   15.54    0.40
  -4   1  -4    1.06    0.16
   4  -1   4    1.62    0.17
  -5   1  -4    6.52    0.31
   5  -1   4    6.52    0.32
  -6   1  -4   62.01    1.12
   6  -1   4   61.33    1.12
  -7   1  -4    0.97    0.19
   7  -1   4    1.09    0.21
  -8   1  -4    1.97    0.24
   8  -1   4    2.05    0.26
  -9   1  -4   12.37    0.52
   8   0  -4    9.67    0.50
   7   0  -4   25.71    0.72
   6   0  -4    0.57    0.19
   5   0  -4    9.21    0.39
   4   0  -4  160.30    2.34
   3   0  -4   12.13    0.34
   3   0  -4   12.81    0.37
   2   0  -4    1.19    0.13
   2   0  -4    1.43    0.15
   1   0  -4  100.15    1.45
  -1   0   4   99.67    1.46
   0   0  -4   45.20    0.67
   0   0  -4   44.64    0.72
   0   0   4   44.62    0.72
  -1   0  -4  121.16    1.64
  -1   0  -4  118.53    1.65
   1   0   4  117.53    1.65
  -2   0  -4    0.43    0.09
  -2   0  -4    0.34    0.07
   2   0   4    0.37    0.09
  -3   0  -4    1.37    0.10
  -3   0  -4    1.47    0.14
   3   0   4    1.43    0.13
  -4   0  -4  110.90    1.65
   4   0   4  110.65    1.62
  -5   0  -4    3.01    0.22
   5   0   4    3.03    0.23
  -6   0  -4    7.02    0.33
   6   0   4    8.17    0.33
  -7   0  -4   13.03    0.45
   7   0   4   13.21    0.44
  -8   0  -4    1.76    0.23
   8   0   4    2.21    0.25
  -9   0  -4   15.99    0.55
 -10   0  -4    0.70    0.27
   8  -1  -4   -0.06    0.20
   7  -1  -4    0.00    0.18
   6  -1  -4   92.88    1.60
   5  -1  -4   14.13    0.47
   4  -1  -4   45.98    0.82
   4  -1  -4   46.12    0.87
   3  -1  -4    1.29    0.15
   3  -1  -4    1.73    0.15
   2  -1  -4    0.00    0.09
   2  -1  -4    0.16    0.10
   1  -1  -4  334.57    4.35
   1  -1  -4  324.29    4.36
   0  -1  -4   99.70    1.42
   0  -1  -4  103.23    1.36
   0   1   4   97.85    1.40
  -1  -1  -4    4.93    0.16
  -1  -1  -4    5.13    0.18
   1   1   4    4.98    0.16
  -2  -1  -4   45.23    0.70
  -2  -1  -4   45.30    0.73
   2   1   4   45.99    0.68
  -3  -1  -4   14.19    0.35
  -3  -1  -4   14.75    0.29
   3   1   4   14.96    0.31
  -4  -1  -4   56.19    0.94
  -4  -1  -4   56.11    0.83
   4   1   4   57.85    0.89
  -5  -1  -4    0.06    0.11
   5   1   4   -0.04    0.10
  -6  -1  -4    3.04    0.23
   6   1   4    3.52    0.24
  -7  -1  -4   36.82    0.78
   7   1   4   35.69    0.74
  -8  -1  -4    0.49    0.17
  -9  -1  -4    4.17    0.33
 -10  -1  -4    2.93    0.30
   8  -2  -4   14.75    0.60
   7  -2  -4   -0.12    0.17
   6  -2  -4   59.27    1.16
   5  -2  -4   31.18    0.64
   5  -2  -4   31.81    0.74
   4  -2  -4   23.29    0.57
   4  -2  -4   22.55    0.50
   3  -2  -4   97.09    1.43
   3  -2  -4   93.89    1.47
   2  -2  -4   73.98    1.14
   2  -2  -4   74.10    1.13
   1  -2  -4   32.76    0.58
   1  -2  -4   32.69    0.56
   0  -2  -4   36.11    0.61
   0  -2  -4   35.78    0.56
  -1  -2  -4    1.00    0.11
   1   2   4    1.47    0.09
  -2  -2  -4   13.46    0.30
  -2  -2  -4   12.37    0.29
   2   2   4   13.03    0.22
  -3  -2  -4   14.43    0.34
  -3  -2  -4   14.59    0.32
   3   2   4   15.08    0.27
  -4  -2  -4   16.58    0.41
  -4  -2  -4   17.27    0.36
   4   2   4   17.29    0.33
  -5  -2  -4   21.46    0.50
  -5  -2  -4   22.33    0.43
   5   2   4   22.04    0.44
  -6  -2  -4   21.85    0.54
   6   2   4   21.84    0.48
  -7  -2  -4   -0.05    0.13
   7   2   4   -0.06    0.12
  -8  -2  -4    0.50    0.17
  -9  -2  -4    1.74    0.23
 -10  -2  -4    4.93    0.36
   7  -3  -4   30.95    0.83
   6  -3  -4    9.64    0.45
   5  -3  -4   10.93    0.44
   4  -3  -4   62.96    1.04
   4  -3  -4   65.50    1.14
   3  -3  -4   24.00    0.50
   3  -3  -4   23.85    0.55
   2  -3  -4   47.03    0.79
   2  -3  -4   47.22    0.81
   1  -3  -4    3.07    0.17
   1  -3  -4    3.08    0.18
   0  -3  -4    0.16    0.08
   0  -3  -4    0.19    0.06
  -1  -3  -4  150.07    1.96
  -2  -3  -4    0.84    0.10
  -3  -3  -4    5.63    0.21
  -4  -3  -4   50.21    0.81
   4   3   4   50.26    0.73
  -5  -3  -4   10.69    0.30
  -5  -3  -4    9.17    0.32
   5   3   4   10.44    0.26
  -6  -3  -4   25.82    0.52
  -6  -3  -4   26.34    0.60
   6   3   4   25.70    0.51
  -7  -3  -4    0.58    0.16
  -8  -3  -4   13.35    0.47
  -9  -3  -4   23.22    0.65
 -10  -3  -4   10.64    0.49
   7  -4  -4   12.49    0.54
   6  -4  -4   11.67    0.50
   5  -4  -4    1.19    0.22
   4  -4  -4   89.80    1.50
   4  -4  -4   89.61    1.38
   3  -4  -4   35.27    0.67
   3  -4  -4   36.36    0.74
   2  -4  -4   37.42    0.69
   2  -4  -4   37.47    0.68
   1  -4  -4  226.68    3.07
   1  -4  -4  226.87    3.09
   0  -4  -4    3.33    0.19
   0  -4  -4    3.55    0.16
  -1  -4  -4    1.62    0.10
  -1  -4  -4    1.65    0.15
  -2  -4  -4   26.65    0.52
  -3  -4  -4   20.52    0.44
  -4  -4  -4   52.54    0.88
  -4  -4  -4   53.91    0.76
  -5  -4  -4    0.65    0.13
   5   4   4    0.80    0.09
  -6  -4  -4    9.25    0.32
  -6  -4  -4    8.26    0.34
  -7  -4  -4   18.07    0.51
  -7  -4  -4   18.48    0.47
  -8  -4  -4    4.50    0.32
  -9  -4  -4   -0.09    0.14
 -10  -4  -4    3.42    0.32
   7  -5  -4    5.94    0.44
   6  -5  -4   37.33    0.92
   5  -5  -4   25.48    0.70
   4  -5  -4   16.20    0.52
   3  -5  -4   55.46    1.01
   3  -5  -4   54.63    0.93
   2  -5  -4   10.98    0.33
   2  -5  -4   11.10    0.37
   1  -5  -4   24.30    0.50
   1  -5  -4   23.85    0.50
   0  -5  -4    4.97    0.23
   0  -5  -4    5.27    0.21
  -1  -5  -4    6.06    0.19
  -1  -5  -4    6.51    0.25
  -2  -5  -4   12.44    0.24
  -2  -5  -4   11.38    0.33
  -3  -5  -4   58.15    0.97
  -3  -5  -4   60.06    0.82
  -4  -5  -4    0.81    0.14
  -4  -5  -4    0.61    0.08
  -5  -5  -4    3.14    0.22
  -5  -5  -4    2.96    0.19
  -6  -5  -4    1.10    0.17
  -7  -5  -4    6.44    0.32
  -8  -5  -4    0.28    0.16
  -9  -5  -4    0.78    0.20
 -10  -5  -4    4.45    0.35
   6  -6  -4   10.39    0.51
   5  -6  -4    4.51    0.36
   4  -6  -4    0.43    0.18
   3  -6  -4    1.27    0.21
   2  -6  -4   41.47    0.77
   2  -6  -4   42.74    0.83
   1  -6  -4   20.09    0.47
   1  -6  -4   19.60    0.48
   0  -6  -4    0.23    0.11
   0  -6  -4    0.16    0.10
  -1  -6  -4   76.04    1.21
  -1  -6  -4   76.15    1.13
  -2  -6  -4    0.28    0.12
  -2  -6  -4    0.19    0.08
  -3  -6  -4    1.74    0.18
  -3  -6  -4    1.98    0.14
  -4  -6  -4   10.41    0.26
  -4  -6  -4   10.19    0.35
  -5  -6  -4   43.13    0.84
  -6  -6  -4   15.29    0.46
  -7  -6  -4    1.81    0.21
  -8  -6  -4    2.71    0.26
  -9  -6  -4    4.71    0.34
 -10  -6  -4   27.61    0.78
   6  -7  -4   -0.06    0.21
   5  -7  -4   10.55    0.49
   4  -7  -4   50.03    1.05
   3  -7  -4   20.53    0.60
   2  -7  -4    0.59    0.17
   2  -7  -4    0.39    0.14
   1  -7  -4   94.12    1.48
   1  -7  -4   93.14    1.46
   0  -7  -4    8.59    0.32
   0  -7  -4    8.37    0.32
  -1  -7  -4   26.81    0.53
  -1  -7  -4   27.04    0.59
  -2  -7  -4    4.73    0.22
  -2  -7  -4    4.72    0.26
  -3  -7  -4   35.39    0.73
  -3  -7  -4   34.94    0.61
  -4  -7  -4   39.72    0.80
  -5  -7  -4    6.60    0.34
  -6  -7  -4    1.70    0.22
  -7  -7  -4   15.97    0.52
  -8  -7  -4   13.98    0.50
  -9  -7  -4    2.51    0.28
 -10  -7  -4    4.80    0.38
   5  -8  -4    6.70    0.44
   4  -8  -4   16.91    0.60
   3  -8  -4    4.70    0.35
   2  -8  -4    6.00    0.35
   1  -8  -4    6.87    0.34
   1  -8  -4    7.51    0.32
   0  -8  -4    4.31    0.27
   0  -8  -4    4.87    0.29
  -1  -8  -4   48.22    0.91
  -1  -8  -4   48.82    0.87
  -2  -8  -4   20.32    0.47
  -2  -8  -4   20.37    0.53
  -3  -8  -4    0.79    0.18
  -4  -8  -4    0.25    0.17
  -5  -8  -4    6.06    0.35
  -6  -8  -4    1.38    0.22
  -7  -8  -4   18.84    0.59
  -8  -8  -4    0.45    0.19
  -9  -8  -4    3.17    0.32
 -10  -8  -4    0.54    0.21
   4  -9  -4    4.94    0.41
   3  -9  -4    0.23    0.19
   2  -9  -4   29.10    0.74
   1  -9  -4    7.60    0.38
   0  -9  -4    0.04    0.14
   0  -9  -4    0.15    0.15
  -1  -9  -4   26.79    0.61
  -1  -9  -4   26.47    0.64
  -2  -9  -4   18.28    0.47
  -2  -9  -4   17.48    0.52
  -3  -9  -4    0.95    0.19
  -4  -9  -4    4.36    0.33
  -5  -9  -4   23.42    0.66
  -6  -9  -4   13.60    0.52
  -7  -9  -4   35.13    0.87
  -8  -9  -4    0.10    0.19
  -9  -9  -4    9.20    0.49
 -10  -9  -4   17.35    0.67
   4 -10  -4   35.00    1.03
   3 -10  -4    0.17    0.19
   2 -10  -4    5.68    0.40
   1 -10  -4    6.65    0.40
   0 -10  -4   35.18    0.78
   0 -10  -4   35.14    0.79
  -1 -10  -4    9.44    0.40
  -1 -10  -4    9.19    0.40
  -2 -10  -4    0.97    0.19
  -3 -10  -4   11.07    0.45
  -4 -10  -4   18.39    0.59
  -5 -10  -4   13.91    0.53
  -6 -10  -4    1.36    0.25
  -7 -10  -4   18.92    0.66
  -8 -10  -4   12.91    0.57
  -9 -10  -4    1.60    0.30
 -10 -10  -4    5.03    0.44
   3 -11  -4    1.77    0.31
   2 -11  -4   17.13    0.63
   1 -11  -4    1.09    0.23
   0 -11  -4    2.31    0.27
  -1 -11  -4    3.06    0.29
  -2 -11  -4    9.41    0.44
  -3 -11  -4   -0.33    0.16
  -4 -11  -4   14.82    0.57
  -5 -11  -4    7.49    0.44
  -6 -11  -4    0.16    0.20
  -7 -11  -4    2.01    0.30
  -8 -11  -4    0.40    0.24
  -9 -11  -4    9.04    0.56
   1 -12  -4    0.78    0.24
  -2 -12  -4   22.60    0.67
  -3 -12  -4    0.15    0.19
  -4 -12  -4    5.71    0.42
  -5 -12  -4    0.11    0.21
  -6 -12  -4    5.17    0.43
  -7 -12  -4   22.00    0.76
  -8 -12  -4    1.39    0.30
  -3 -13  -4    1.08    0.26
  -4 -13  -4   23.04    0.77
  -5 -13  -4    9.64    0.57
  -6 -13  -4    5.25    0.46
  -7 -13  -4   14.20    0.68
  -3 -14  -4    0.21    0.25
  -4 -14  -4    2.38    0.34
  -5 -14  -4    7.55    0.52
  -4  -8   5   13.13    0.66
  -3  -8   5   49.18    1.21
  -2  -8   5   -0.02    0.26
  -1  -8   5    1.61    0.32
   0  -8   5   17.74    0.69
   1  -8   5    1.33    0.29
   2  -8   5   34.03    0.95
  -6  -7   5    0.17    0.30
  -5  -7   5   35.51    0.98
  -4  -7   5    0.43    0.25
  -3  -7   5    9.38    0.53
  -2  -7   5    0.30    0.24
  -1  -7   5   10.00    0.54
   0  -7   5   39.98    1.00
   1  -7   5    0.60    0.25
   2  -7   5    4.64    0.40
   3  -7   5    4.71    0.40
   4  -7   5    2.56    0.34
  -6  -6   5   18.05    0.69
  -5  -6   5   20.26    0.70
  -4  -6   5   27.83    0.81
  -3  -6   5   23.32    0.73
  -2  -6   5   24.44    0.74
  -1  -6   5   34.02    0.88
   0  -6   5    0.84    0.25
   1  -6   5    2.65    0.30
   2  -6   5    9.67    0.48
   3  -6   5    4.35    0.36
   4  -6   5   16.18    0.62
   5  -6   5    9.22    0.51
  -7  -5   5   17.50    0.69
  -6  -5   5   43.39    1.04
  -5  -5   5    3.19    0.32
  -4  -5   5    0.13    0.20
  -3  -5   5   32.25    0.82
  -2  -5   5    0.44    0.22
  -1  -5   5   28.64    0.76
   0  -5   5    7.44    0.43
   1  -5   5    3.32    0.30
   2  -5   5   49.72    1.03
   3  -5   5   11.08    0.48
   4  -5   5    0.21    0.19
  -5   5  -5    2.63    0.28
   5  -5   5    3.02    0.32
  -6   5  -5    3.90    0.35
   6  -5   5    3.58    0.36
  -7   5  -5   10.74    0.55
  -7  -4   5    0.57    0.25
  -6  -4   5    2.61    0.32
  -5  -4   5   10.75    0.49
  -4  -4   5    2.40    0.26
  -3  -4   5   83.49    1.47
  -2  -4   5    1.81    0.25
   0  -4   5   71.74    1.29
   1  -4   5    0.65    0.21
  -2   4  -5    1.68    0.21
   2  -4   5    2.41    0.26
  -3   4  -5    0.87    0.19
   3  -4   5    1.19    0.22
  -4   4  -5   -0.14    0.15
   4  -4   5    0.04    0.17
  -5   4  -5    9.55    0.45
   5  -4   5   10.62    0.47
  -6   4  -5    3.40    0.32
   6  -4   5    3.37    0.33
  -7   4  -5    0.37    0.22
   7  -4   5    0.21    0.21
  -8   4  -5    0.48    0.24
  -8  -3   5   11.66    0.60
  -7  -3   5    2.49    0.31
  -6  -3   5    5.37    0.40
  -5  -3   5   58.30    1.17
  -4  -3   5   17.65    0.56
  -3  -3   5    2.56    0.26
  -2  -3   5    5.29    0.33
  -1  -3   5    2.95    0.25
   0  -3   5    0.37    0.17
  -1   3  -5   28.72    0.61
   1  -3   5   27.80    0.66
  -2   3  -5   32.26    0.69
   2  -3   5   31.71    0.72
  -3   3  -5    0.31    0.14
   3  -3   5    0.50    0.18
  -4   3  -5   19.10    0.55
   4  -3   5   19.78    0.57
  -5   3  -5   20.61    0.60
   5  -3   5   20.51    0.61
  -6   3  -5    8.94    0.43
   6  -3   5    9.81    0.47
  -7   3  -5    0.28    0.18
   7  -3   5    0.45    0.21
  -8   3  -5   14.89    0.60
   8  -3   5   15.40    0.62
  -9   3  -5    6.85    0.46
  -8  -2   5    3.77    0.38
  -7  -2   5    5.95    0.44
  -6  -2   5   31.74    0.82
  -5  -2   5    4.69    0.35
  -4  -2   5   12.84    0.47
  -3  -2   5   18.29    0.53
  -2  -2   5    2.23    0.23
  -1  -2   5  152.45    2.23
   0  -2   5    7.09    0.33
  -1   2  -5    5.34    0.24
   1  -2   5    5.61    0.30
  -2   2  -5  123.21    1.83
   2  -2   5  123.36    1.86
  -3   2  -5   53.80    0.96
   3  -2   5   52.34    0.97
  -4   2  -5   22.28    0.57
   4  -2   5   22.39    0.58
  -5   2  -5    0.24    0.16
   5  -2   5    0.21    0.16
  -6   2  -5   12.83    0.47
   6  -2   5   11.80    0.47
  -7   2  -5   14.18    0.53
   7  -2   5   13.27    0.52
  -8   2  -5    4.13    0.36
  -9   2  -5    0.43    0.22
   8   1  -5   32.38    0.89
   7   1  -5   -0.09    0.19
   6   1  -5   32.36    0.80
   5   1  -5    0.08    0.17
  -5  -1   5    0.02    0.16
  -4  -1   5    1.46    0.22
  -3  -1   5  147.18    2.20
   2   1  -5   -0.02    0.11
  -2  -1   5    0.10    0.13
   1   1  -5    0.25    0.10
  -1  -1   5    0.47    0.13
   0   1  -5   30.98    0.59
   0   1  -5   32.03    0.56
   0  -1   5   31.59    0.61
  -1   1  -5    4.96    0.21
  -1   1  -5    4.98    0.20
   1  -1   5    4.95    0.25
  -2   1  -5   13.94    0.37
  -2   1  -5   13.60    0.31
   2  -1   5   13.90    0.39
  -3   1  -5    2.96    0.22
  -3   1  -5    2.81    0.14
   3  -1   5    2.10    0.19
  -4   1  -5    0.08    0.13
   4  -1   5    0.12    0.13
  -5   1  -5    0.02    0.13
   5  -1   5    0.22    0.15
  -6   1  -5    0.09    0.15
   6  -1   5   -0.14    0.13
  -7   1  -5   14.11    0.50
   7  -1   5   13.96    0.50
  -8   1  -5    7.11    0.40
  -9   1  -5    2.90    0.32
 -10   1  -5   10.07    0.51
   8   0  -5   24.82    0.78
   7   0  -5   11.50    0.51
   6   0  -5    1.44    0.23
   5   0  -5   23.31    0.63
   4   0  -5   10.41    0.40
   4   0  -5   10.15    0.37
   3   0  -5    8.23    0.33
   3   0  -5    8.30    0.31
   2   0  -5   35.77    0.69
  -2   0   5   36.98    0.71
   1   0  -5    3.91    0.20
  -1   0   5    3.77    0.21
   0   0  -5   56.30    0.84
   0   0  -5   55.36    0.90
   0   0   5   56.65    0.90
  -1   0  -5   72.68    1.09
  -1   0  -5   73.59    1.10
   1   0   5   73.42    1.11
  -2   0  -5   15.52    0.33
  -2   0  -5   15.86    0.37
   2   0   5   15.29    0.37
  -3   0  -5    1.03    0.10
  -3   0  -5    0.96    0.13
   3   0   5    1.08    0.13
   4   0   5    4.86    0.25
  -5   0  -5   64.31    1.12
   5   0   5   64.03    1.08
  -6   0  -5   15.29    0.48
   6   0   5   15.91    0.46
  -7   0  -5    1.31    0.20
   7   0   5    1.35    0.21
  -8   0  -5   21.43    0.63
  -9   0  -5    5.92    0.41
 -10   0  -5   11.69    0.54
   8  -1  -5   -0.17    0.20
   7  -1  -5    0.14    0.19
   6  -1  -5   20.56    0.62
   5  -1  -5    0.97    0.18
   4  -1  -5   65.61    1.15
   4  -1  -5   65.87    1.12
   3  -1  -5    0.38    0.13
   3  -1  -5    0.55    0.14
   2  -1  -5    0.13    0.10
   2  -1  -5    0.02    0.11
   1  -1  -5  230.78    3.17
  -1   1   5  234.07    3.16
   0  -1  -5   13.60    0.26
   0  -1  -5   12.44    0.32
   0   1   5   13.03    0.31
  -1  -1  -5    4.40    0.17
  -1  -1  -5    4.40    0.19
   1   1   5    4.62    0.18
  -2  -1  -5    5.53    0.20
  -2  -1  -5    5.40    0.21
   2   1   5    5.54    0.20
  -3  -1  -5  118.67    1.64
  -3  -1  -5  117.15    1.71
   3   1   5  116.37    1.64
  -4  -1  -5   27.05    0.47
  -4  -1  -5   26.83    0.57
   4   1   5   27.01    0.51
  -5  -1  -5    5.09    0.28
   5   1   5    5.80    0.25
  -6  -1  -5    9.97    0.38
   6   1   5    9.17    0.34
  -7  -1  -5    1.73    0.21
  -8  -1  -5   31.20    0.77
  -9  -1  -5    0.34    0.19
 -10  -1  -5    0.64    0.22
   8  -2  -5    6.16    0.52
   7  -2  -5    0.36    0.21
   6  -2  -5   55.05    1.12
   5  -2  -5    0.00    0.15
   5  -2  -5    0.05    0.12
   4  -2  -5    2.26    0.20
   4  -2  -5    2.32    0.23
   3  -2  -5   63.62    1.07
   3  -2  -5   65.96    1.10
   2  -2  -5   10.27    0.32
   2  -2  -5   10.33    0.32
   1  -2  -5    7.17    0.24
   1  -2  -5    7.25    0.26
   0  -2  -5   13.08    0.33
   0  -2  -5   13.06    0.29
   0  -2  -5   13.51    0.26
  -1  -2  -5   27.91    0.53
  -1  -2  -5   29.17    0.49
   1   2   5   28.43    0.46
  -2  -2  -5   25.09    0.48
  -2  -2  -5   24.81    0.48
   2   2   5   25.82    0.41
  -3  -2  -5    1.21    0.12
  -3  -2  -5    1.00    0.12
   3   2   5    1.07    0.09
  -4  -2  -5    0.34    0.11
  -4  -2  -5    0.40    0.09
   4   2   5    0.57    0.09
  -5  -2  -5    0.50    0.11
  -5  -2  -5    0.65    0.14
   5   2   5    0.66    0.11
  -6  -2  -5   32.51    0.71
  -7  -2  -5   20.72    0.57
  -8  -2  -5    0.87    0.20
  -9  -2  -5    0.38    0.18
 -10  -2  -5   15.40    0.59
   7  -3  -5    4.45    0.37
   6  -3  -5    0.49    0.20
   5  -3  -5    6.57    0.30
   5  -3  -5    6.61    0.37
   4  -3  -5    4.64    0.31
   4  -3  -5    4.37    0.25
   3  -3  -5    2.96    0.22
   3  -3  -5    1.95    0.19
   2  -3  -5   82.69    1.30
   2  -3  -5   84.07    1.29
   1  -3  -5    0.35    0.11
   1  -3  -5    0.14    0.09
   0  -3  -5    0.24    0.10
   0  -3  -5    0.14    0.07
  -1  -3  -5   19.99    0.43
   1   3   5   19.68    0.34
  -2  -3  -5  118.17    1.69
  -3  -3  -5    0.17    0.09
  -3  -3  -5    0.30    0.10
  -4  -3  -5    0.29    0.10
  -4  -3  -5    0.27    0.11
   4   3   5    0.35    0.06
  -5  -3  -5   93.65    1.40
  -5  -3  -5   94.43    1.48
  -6  -3  -5    6.53    0.33
  -6  -3  -5    6.55    0.32
  -7  -3  -5    7.23    0.35
  -8  -3  -5   14.32    0.50
  -9  -3  -5    0.12    0.17
 -10  -3  -5   51.08    1.12
 -11  -3  -5    2.57    0.44
   7  -4  -5    5.77    0.43
   6  -4  -5    3.23    0.31
   5  -4  -5    4.37    0.33
   4  -4  -5   49.73    0.91
   4  -4  -5   50.49    0.98
   3  -4  -5    1.90    0.21
   3  -4  -5    1.43    0.17
   2  -4  -5   12.08    0.36
   2  -4  -5   11.79    0.36
   1  -4  -5   83.15    1.26
   1  -4  -5   83.75    1.30
   0  -4  -5  185.06    2.56
   0  -4  -5  181.54    2.47
  -1  -4  -5    4.84    0.14
  -2  -4  -5    0.83    0.13
  -3  -4  -5   87.29    1.32
  -4  -4  -5   26.88    0.55
  -5  -4  -5   41.33    0.75
  -6  -4  -5    1.09    0.16
  -6  -4  -5    1.11    0.18
  -7  -4  -5    0.32    0.15
  -8  -4  -5   74.22    1.34
  -9  -4  -5    6.57    0.40
 -10  -4  -5    0.91    0.22
 -11  -4  -5   11.36    0.55
   7  -5  -5    3.94    0.39
   6  -5  -5   25.37    0.75
   5  -5  -5    2.94    0.29
   4  -5  -5    6.83    0.38
   3  -5  -5    3.17    0.23
   3  -5  -5    3.51    0.27
   2  -5  -5   64.66    1.09
   2  -5  -5   64.31    1.07
   1  -5  -5    2.77    0.19
   1  -5  -5    2.39    0.19
   0  -5  -5    0.43    0.12
   0  -5  -5    0.38    0.09
  -1  -5  -5    9.48    0.22
  -1  -5  -5    9.22    0.31
  -2  -5  -5    3.03    0.10
  -2  -5  -5    2.97    0.21
  -3  -5  -5   21.06    0.49
  -4  -5  -5   82.61    1.30
  -5  -5  -5    0.09    0.12
  -6  -5  -5   12.73    0.40
  -7  -5  -5   38.12    0.82
  -7  -5  -5   37.94    0.76
  -8  -5  -5    3.24    0.28
  -9  -5  -5    1.54    0.24
 -10  -5  -5   11.68    0.53
 -11  -5  -5    9.01    0.48
   6  -6  -5    0.31    0.21
   5  -6  -5    2.60    0.30
   4  -6  -5    3.87    0.31
   3  -6  -5    1.16    0.17
   3  -6  -5    0.91    0.18
   2  -6  -5    5.10    0.29
   2  -6  -5    4.31    0.27
   1  -6  -5   32.11    0.65
   1  -6  -5   31.44    0.65
   0  -6  -5    0.19    0.12
   0  -6  -5    0.38    0.11
  -1  -6  -5    0.38    0.09
  -1  -6  -5    0.34    0.13
  -2  -6  -5  106.76    1.64
  -2  -6  -5  108.41    1.47
  -3  -6  -5    0.02    0.12
  -4  -6  -5    0.71    0.15
  -5  -6  -5   62.95    1.09
  -6  -6  -5    1.35    0.19
  -7  -6  -5   52.38    0.99
  -8  -6  -5    0.59    0.17
  -8  -6  -5    0.59    0.19
  -9  -6  -5    8.46    0.43
 -10  -6  -5   69.77    1.38
 -11  -6  -5    1.29    0.26
   6  -7  -5    0.80    0.25
   5  -7  -5    7.51    0.45
   4  -7  -5   11.44    0.49
   3  -7  -5   22.74    0.62
   2  -7  -5    0.09    0.15
   2  -7  -5    0.13    0.13
   1  -7  -5    0.66    0.16
   1  -7  -5    0.70    0.16
   0  -7  -5  113.29    1.73
   0  -7  -5  112.81    1.68
  -1  -7  -5    1.03    0.17
  -1  -7  -5    0.94    0.13
  -2  -7  -5    2.11    0.20
  -2  -7  -5    2.66    0.17
  -3  -7  -5    8.86    0.35
  -4  -7  -5    3.17    0.24
  -5  -7  -5  125.03    1.94
  -6  -7  -5   19.57    0.56
  -7  -7  -5    5.91    0.34
  -8  -7  -5   51.24    1.04
  -9  -7  -5   12.71    0.53
 -10  -7  -5   16.62    0.62
 -11  -7  -5    0.17    0.19
   5  -8  -5   20.05    0.70
   4  -8  -5    0.11    0.18
   3  -8  -5    4.74    0.35
   2  -8  -5   15.06    0.50
   1  -8  -5    0.38    0.15
   1  -8  -5    0.17    0.14
   0  -8  -5   13.11    0.41
   0  -8  -5   13.51    0.43
  -1  -8  -5   13.98    0.45
  -1  -8  -5   13.89    0.39
  -2  -8  -5   15.63    0.48
  -3  -8  -5   49.99    0.96
  -4  -8  -5   28.19    0.68
  -5  -8  -5   13.41    0.47
  -6  -8  -5    6.30    0.36
  -7  -8  -5   14.37    0.51
  -8  -8  -5   21.68    0.65
  -9  -8  -5   23.53    0.70
 -10  -8  -5    0.02    0.19
 -11  -8  -5    4.28    0.40
   4  -9  -5    0.29    0.21
   3  -9  -5    1.15    0.23
   2  -9  -5    0.91    0.20
   1  -9  -5   36.87    0.81
   1  -9  -5   35.97    0.77
   0  -9  -5    0.15    0.15
   0  -9  -5    0.53    0.16
  -1  -9  -5    4.41    0.30
  -1  -9  -5    4.70    0.28
  -2  -9  -5   64.05    1.17
  -3  -9  -5    3.42    0.28
  -4  -9  -5    4.99    0.34
  -5  -9  -5    1.56    0.24
  -6  -9  -5    0.35    0.18
  -7  -9  -5  133.54    2.18
  -8  -9  -5    8.59    0.45
  -9  -9  -5    3.04    0.33
 -11  -9  -5    0.30    0.23
   4 -10  -5    4.63    0.40
   3 -10  -5   43.23    1.02
   2 -10  -5    0.65    0.21
   1 -10  -5    8.33    0.41
   0 -10  -5   32.75    0.74
   0 -10  -5   31.36    0.75
  -1 -10  -5    1.42    0.21
  -2 -10  -5   51.96    1.04
  -3 -10  -5    8.93    0.42
  -4 -10  -5   11.14    0.47
  -5 -10  -5   70.29    1.35
  -6 -10  -5   14.95    0.57
  -7 -10  -5   29.22    0.81
  -8 -10  -5   11.62    0.54
  -9 -10  -5   -0.11    0.21
 -10 -10  -5   22.85    0.77
   3 -11  -5    8.76    0.51
   2 -11  -5    1.30    0.25
   1 -11  -5    6.85    0.41
  -1 -11  -5   19.47    0.60
  -2 -11  -5    3.46    0.31
  -3 -11  -5   20.39    0.63
  -4 -11  -5   16.42    0.59
  -5 -11  -5   19.59    0.66
  -6 -11  -5    7.88    0.47
  -7 -11  -5    0.05    0.21
  -8 -11  -5   13.80    0.62
  -9 -11  -5   28.53    0.89
 -10 -11  -5    4.31    0.53
   2 -12  -5    3.59    0.46
  -1 -12  -5    0.55    0.22
  -2 -12  -5   13.14    0.53
  -3 -12  -5    0.57    0.21
  -4 -12  -5   44.41    1.05
  -5 -12  -5   16.48    0.64
  -6 -12  -5    1.84    0.31
  -7 -12  -5   42.08    1.09
  -8 -12  -5    3.57    0.40
  -9 -12  -5    7.47    0.80
  -2 -13  -5   43.17    1.04
  -3 -13  -5    6.78    0.45
  -4 -13  -5   12.82    0.59
  -5 -13  -5   21.13    0.76
  -6 -13  -5    2.09    0.32
  -7 -13  -5   22.09    0.83
  -3 -14  -5    0.31    0.24
  -4 -14  -5    0.61    0.26
  -5 -14  -5   12.09    0.63
  -2  -8   6   -0.08    0.34
  -1  -8   6   20.81    0.80
   0  -8   6   11.29    0.65
  -4  -7   6    0.52    0.30
  -3  -7   6   19.38    0.76
  -2  -7   6    4.65    0.44
  -1  -7   6    1.10    0.30
   0  -7   6    2.42    0.34
   1  -7   6    3.52    0.36
   2  -7   6    4.43    0.40
   3  -7   6    1.90    0.32
  -5  -6   6   10.93    0.58
  -4  -6   6   -0.19    0.21
  -3  -6   6    6.46    0.48
  -2  -6   6    4.51    0.39
  -1  -6   6    0.53    0.26
   0  -6   6    0.31    0.25
   1  -6   6   38.34    0.97
   2  -6   6    8.26    0.47
   3  -6   6    2.20    0.30
   4  -6   6    0.21    0.21
   5  -6   6    6.04    0.51
  -6  -5   6   10.80    0.58
  -5  -5   6    5.40    0.41
  -4  -5   6   14.34    0.61
  -3  -5   6    3.48    0.34
  -2  -5   6    0.36    0.23
  -1  -5   6   32.89    0.87
   0  -5   6   10.17    0.50
   1  -5   6    7.17    0.44
   2  -5   6    0.43    0.21
   3  -5   6   20.08    0.66
   4  -5   6   12.57    0.53
  -5   5  -6    2.72    0.32
   5  -5   6    2.97    0.33
  -6   5  -6   15.92    0.64
   6  -5   6   16.71    0.67
  -7   5  -6    1.76    0.31
  -7  -4   6    0.00    0.25
  -6  -4   6   10.56    0.54
  -5  -4   6    3.15    0.33
  -4  -4   6    0.77    0.22
  -3  -4   6   12.68    0.52
  -2  -4   6   19.46    0.62
  -1  -4   6    7.91    0.43
   0  -4   6   13.16    0.53
   1  -4   6   19.16    0.60
   2  -4   6    1.66    0.25
  -3   4  -6    4.73    0.33
   3  -4   6    4.79    0.36
  -4   4  -6    0.01    0.17
   4  -4   6    0.30    0.19
  -5   4  -6    4.01    0.34
   5  -4   6    3.94    0.34
  -6   4  -6    9.74    0.49
   6  -4   6   10.69    0.52
  -7   4  -6    0.41    0.23
   7  -4   6    0.39    0.22
  -8   4  -6   13.62    0.69
  -7  -3   6    0.20    0.24
  -6  -3   6    2.25    0.29
  -5  -3   6    1.20    0.25
  -4  -3   6    1.16    0.24
  -3  -3   6    0.70    0.21
  -2  -3   6   17.86    0.58
  -1  -3   6   11.34    0.46
   0  -3   6    3.67    0.30
   1  -3   6    7.69    0.40
  -2   3  -6   22.34    0.58
   2  -3   6   22.49    0.62
  -3   3  -6   18.72    0.54
   3  -3   6   19.38    0.56
  -4   3  -6    9.52    0.41
   4  -3   6    9.66    0.42
  -5   3  -6   15.21    0.53
   5  -3   6   15.55    0.55
  -6   3  -6   34.89    0.86
   6  -3   6   32.83    0.84
  -7   3  -6    5.34    0.41
   7  -3   6    5.80    0.40
  -8   3  -6   30.02    0.86
  -7  -2   6    1.51    0.28
  -6  -2   6    1.00    0.25
  -5  -2   6    4.36    0.35
  -4  -2   6   19.70    0.60
  -3  -2   6    3.96    0.31
  -2  -2   6   26.25    0.65
  -1  -2   6    1.87    0.23
   0  -2   6   57.52    1.05
  -1   2  -6   44.69    0.81
   1  -2   6   42.96    0.86
  -2   2  -6    9.81    0.36
   2  -2   6    9.43    0.40
  -3   2  -6   93.24    1.50
   3  -2   6   91.86    1.50
  -4   2  -6    9.82    0.40
   4  -2   6   10.49    0.41
  -5   2  -6   -0.07    0.15
   5  -2   6    0.00    0.15
  -6   2  -6   23.75    0.67
   6  -2   6   23.02    0.66
  -7   2  -6    5.68    0.39
  -8   2  -6   27.73    0.80
  -9   2  -6    6.69    0.46
  -7  -1   6    2.41    0.32
  -6  -1   6   13.11    0.55
  -5  -1   6   11.86    0.50
  -4  -1   6    2.69    0.28
  -3  -1   6    2.29    0.24
   2   1  -6   64.62    1.11
  -2  -1   6   63.63    1.13
   1   1  -6    7.59    0.30
  -1  -1   6    6.99    0.33
   0   1  -6    5.54    0.23
   0   1  -6    5.49    0.25
   0  -1   6    5.16    0.28
  -1   1  -6   25.52    0.52
  -1   1  -6   26.08    0.53
   1  -1   6   25.75    0.58
  -2   1  -6    9.89    0.33
  -2   1  -6    9.99    0.29
   2  -1   6    9.37    0.36
  -3   1  -6    9.95    0.36
   3  -1   6   10.34    0.37
  -4   1  -6    0.11    0.14
   4  -1   6    0.12    0.15
  -5   1  -6   25.32    0.64
   5  -1   6   25.74    0.62
  -6   1  -6   49.21    1.00
   6  -1   6   48.33    0.97
  -7   1  -6    3.87    0.33
  -8   1  -6   21.60    0.68
  -9   1  -6    7.80    0.46
 -10   1  -6   17.77    1.00
   7   0  -6    1.63    0.27
   6   0  -6    0.64    0.21
   5   0  -6    1.20    0.22
   4   0  -6   19.17    0.53
   4   0  -6   18.22    0.55
  -4   0   6   18.57    0.57
   3   0  -6    9.59    0.36
  -3   0   6   10.46    0.41
   2   0  -6   22.82    0.54
  -2   0   6   23.77    0.57
   1   0  -6    0.99    0.14
  -1   0   6    0.81    0.15
   0   0  -6   13.92    0.37
   0   0  -6   14.91    0.33
   0   0   6   14.87    0.40
  -1   0  -6   16.86    0.38
  -1   0  -6   16.78    0.40
   1   0   6   16.47    0.41
  -2   0  -6   64.56    0.99
  -2   0  -6   63.89    1.03
   2   0   6   63.19    1.03
  -3   0  -6   91.63    1.42
  -3   0  -6   92.16    1.32
   3   0   6   89.87    1.38
  -4   0  -6   65.68    1.12
   4   0   6   64.45    1.07
  -5   0  -6   71.72    1.26
   5   0   6   74.52    1.22
  -6   0  -6    1.09    0.19
  -7   0  -6    0.49    0.19
  -8   0  -6   33.58    0.84
  -9   0  -6    7.47    0.44
 -10   0  -6   31.21    0.87
   7  -1  -6    8.56    0.48
   6  -1  -6    0.88    0.22
   5  -1  -6    9.24    0.42
   4  -1  -6    1.32    0.21
   4  -1  -6    0.74    0.16
   3  -1  -6   39.08    0.79
   3  -1  -6   38.89    0.78
   2  -1  -6   27.89    0.61
   1  -1  -6   17.45    0.44
  -1   1   6   18.54    0.45
   0  -1  -6  101.84    1.40
   0  -1  -6   99.15    1.50
   0   1   6  100.78    1.48
  -1  -1  -6   11.01    0.28
  -1  -1  -6   11.43    0.32
   1   1   6   11.20    0.30
  -2  -1  -6   10.93    0.30
  -2  -1  -6   10.82    0.30
   2   1   6   11.43    0.30
  -3  -1  -6   57.81    0.96
  -3  -1  -6   57.60    0.90
   3   1   6   56.09    0.90
  -4  -1  -6    0.87    0.15
  -4  -1  -6    0.78    0.11
   4   1   6    1.02    0.14
  -5  -1  -6   46.12    0.89
   5   1   6   46.38    0.81
  -6  -1  -6    9.73    0.38
  -7  -1  -6   12.10    0.46
  -8  -1  -6   72.80    1.37
  -9  -1  -6    0.34    0.20
 -10  -1  -6    0.91    0.25
   7  -2  -6    1.65    0.28
   6  -2  -6    2.16    0.29
   5  -2  -6   49.77    0.96
   5  -2  -6   48.35    1.01
   4  -2  -6    0.96    0.20
   4  -2  -6    0.83    0.17
   3  -2  -6    2.82    0.22
   3  -2  -6    3.62    0.27
   2  -2  -6   75.36    1.21
   2  -2  -6   74.46    1.22
   1  -2  -6    6.67    0.28
   1  -2  -6    7.05    0.26
   0  -2  -6    0.01    0.08
   0  -2  -6    0.01    0.06
   0   2   6   -0.07    0.08
  -1  -2  -6   10.43    0.31
  -1  -2  -6   10.31    0.26
   1   2   6   10.36    0.26
  -2  -2  -6   26.59    0.53
  -2  -2  -6   26.30    0.51
   2   2   6   26.88    0.46
  -3  -2  -6  116.24    1.66
  -3  -2  -6  115.65    1.69
   3   2   6  113.74    1.59
  -4  -2  -6   15.65    0.36
  -4  -2  -6   15.11    0.42
   4   2   6   15.35    0.33
  -5  -2  -6   41.45    0.81
  -6  -2  -6  123.62    1.92
  -7  -2  -6   10.33    0.42
  -8  -2  -6    9.11    0.43
  -9  -2  -6    0.07    0.18
 -10  -2  -6   13.18    0.56
 -11  -2  -6   15.15    0.63
   7  -3  -6    6.22    0.46
   6  -3  -6    5.70    0.39
   5  -3  -6    1.14    0.22
   5  -3  -6    1.37    0.19
   4  -3  -6   19.32    0.55
   4  -3  -6   19.26    0.51
   3  -3  -6    0.28    0.15
   3  -3  -6    0.18    0.14
   2  -3  -6    6.39    0.29
   2  -3  -6    5.80    0.27
   1  -3  -6   16.85    0.43
   1  -3  -6   17.00    0.40
   0  -3  -6   27.30    0.56
   0  -3  -6   26.81    0.50
   0  -3  -6   28.07    0.46
  -1  -3  -6  196.72    2.79
  -1  -3  -6  206.07    2.72
   1   3   6  203.34    2.68
  -2  -3  -6   92.55    1.38
  -2  -3  -6   93.60    1.41
   2   3   6   95.52    1.27
  -3  -3  -6   12.14    0.34
  -3  -3  -6   12.24    0.33
   3   3   6   11.72    0.22
  -4  -3  -6    5.86    0.24
  -4  -3  -6    5.48    0.26
  -5  -3  -6   36.58    0.67
  -5  -3  -6   36.35    0.74
  -6  -3  -6    2.84    0.23
  -7  -3  -6   34.99    0.79
  -8  -3  -6    7.73    0.40
  -9  -3  -6    7.46    0.42
 -10  -3  -6   52.99    1.16
 -11  -3  -6    6.94    0.48
   7  -4  -6    2.22    0.31
   6  -4  -6    2.06    0.28
   5  -4  -6    3.25    0.30
   4  -4  -6    4.91    0.32
   4  -4  -6    5.20    0.29
   3  -4  -6   61.90    1.10
   3  -4  -6   61.33    1.08
   2  -4  -6    6.97    0.30
   2  -4  -6    7.26    0.30
   1  -4  -6   12.27    0.34
   1  -4  -6   12.12    0.37
   0  -4  -6  168.68    2.29
   0  -4  -6  167.36    2.40
  -1  -4  -6   17.05    0.43
  -1  -4  -6   18.04    0.33
  -2  -4  -6   23.69    0.52
  -3  -4  -6   40.99    0.74
  -4  -4  -6    8.44    0.30
  -4  -4  -6    8.54    0.31
  -5  -4  -6  159.29    2.31
  -5  -4  -6  155.11    2.25
  -6  -4  -6    1.10    0.16
  -6  -4  -6    1.12    0.19
  -7  -4  -6    6.96    0.36
  -8  -4  -6   83.57    1.48
  -9  -4  -6    0.61    0.20
 -10  -4  -6   12.72    0.55
 -11  -4  -6    8.67    0.49
   6  -5  -6    0.44    0.22
   5  -5  -6   44.86    0.99
   4  -5  -6    0.28    0.14
   4  -5  -6   -0.06    0.15
   3  -5  -6    2.24    0.22
   3  -5  -6    2.16    0.23
   2  -5  -6   60.98    1.05
   2  -5  -6   60.30    1.06
   1  -5  -6   -0.01    0.11
   1  -5  -6    0.03    0.13
   0  -5  -6   99.38    1.53
   0  -5  -6   97.49    1.42
  -1  -5  -6    0.77    0.14
  -1  -5  -6    0.71    0.09
  -2  -5  -6    8.68    0.31
  -3  -5  -6  298.11    4.07
  -4  -5  -6   16.46    0.44
  -5  -5  -6    3.16    0.23
  -6  -5  -6    6.53    0.31
  -6  -5  -6    6.70    0.34
  -7  -5  -6    4.30    0.31
  -7  -5  -6    4.27    0.27
  -8  -5  -6   20.31    0.62
  -9  -5  -6    7.20    0.41
 -10  -5  -6   10.19    0.50
 -11  -5  -6   12.21    0.57
   6  -6  -6    4.17    0.37
   5  -6  -6   -0.16    0.18
   4  -6  -6    2.98    0.29
   3  -6  -6    1.96    0.23
   3  -6  -6    1.84    0.21
   2  -6  -6   58.57    1.06
   2  -6  -6   60.90    1.07
   1  -6  -6   86.73    1.40
   1  -6  -6   84.58    1.34
   0  -6  -6    4.16    0.26
   0  -6  -6    4.07    0.21
  -1  -6  -6   69.08    1.02
  -1  -6  -6   68.37    1.15
  -2  -6  -6   59.17    1.04
  -3  -6  -6    1.25    0.18
  -4  -6  -6   13.44    0.42
  -5  -6  -6   21.90    0.55
  -6  -6  -6    6.85    0.33
  -7  -6  -6   83.35    1.40
  -8  -6  -6    3.07    0.30
  -9  -6  -6    7.89    0.43
 -10  -6  -6   45.83    1.07
 -11  -6  -6   -0.05    0.21
   5  -7  -6    4.63    0.38
   4  -7  -6    3.08    0.30
   3  -7  -6   70.42    1.29
   2  -7  -6    0.55    0.16
   2  -7  -6    0.33    0.14
   1  -7  -6    2.29    0.22
   1  -7  -6    2.70    0.22
   0  -7  -6   64.61    1.12
   0  -7  -6   63.47    1.04
  -1  -7  -6    2.58    0.23
  -1  -7  -6    2.36    0.18
  -2  -7  -6   95.73    1.54
  -3  -7  -6    7.11    0.34
  -4  -7  -6   10.25    0.39
  -5  -7  -6  176.35    2.60
  -6  -7  -6    0.81    0.18
  -7  -7  -6    2.71    0.26
  -8  -7  -6   25.01    0.67
  -9  -7  -6    1.30    0.24
 -10  -7  -6   25.48    0.78
 -11  -7  -6   -0.16    0.19
   5  -8  -6   44.92    1.07
   4  -8  -6    1.20    0.24
   3  -8  -6   11.58    0.46
   2  -8  -6   11.24    0.42
   2  -8  -6   11.30    0.43
   1  -8  -6    1.26    0.19
   0  -8  -6  136.74    1.98
   0  -8  -6  132.20    2.05
  -1  -8  -6   26.75    0.65
  -2  -8  -6    0.32    0.17
  -3  -8  -6  121.57    1.91
  -4  -8  -6    0.46    0.18
  -5  -8  -6    5.84    0.35
  -6  -8  -6    0.38    0.17
  -7  -8  -6    1.84    0.24
  -8  -8  -6   47.99    1.02
  -9  -8  -6   13.40    0.54
 -10  -8  -6    0.27    0.21
 -11  -8  -6    2.39    0.32
   4  -9  -6    6.03    0.43
   3  -9  -6    1.07    0.22
   2  -9  -6   41.45    0.91
   1  -9  -6   40.04    0.83
   1  -9  -6   38.80    0.84
   0  -9  -6    1.63    0.32
   0  -9  -6    2.70    0.25
  -1  -9  -6    8.08    0.38
  -2  -9  -6   24.38    0.64
  -3  -9  -6   11.65    0.45
  -4  -9  -6   28.34    0.71
  -5  -9  -6    3.00    0.30
  -6  -9  -6   13.51    0.52
  -7  -9  -6   89.69    1.60
  -8  -9  -6    0.13    0.18
  -9  -9  -6    3.00    0.32
 -10  -9  -6   10.01    0.54
   4 -10  -6    1.09    0.30
   3 -10  -6   37.50    0.92
   2 -10  -6    2.46    0.29
   1 -10  -6   18.93    0.65
   0 -10  -6   17.60    0.54
  -1 -10  -6    1.65    0.22
  -2 -10  -6  136.08    2.15
  -3 -10  -6   -0.02    0.16
  -4 -10  -6    0.01    0.17
  -5 -10  -6   70.51    1.35
  -6 -10  -6    0.40    0.20
  -7 -10  -6   25.51    0.76
  -8 -10  -6    1.57    0.28
  -9 -10  -6    1.50    0.28
 -10 -10  -6   30.71    0.89
   3 -11  -6   48.54    1.12
   0 -11  -6   78.75    1.41
  -1 -11  -6    7.43    0.41
  -2 -11  -6    5.36    0.37
  -3 -11  -6   18.45    0.61
  -4 -11  -6    0.23    0.20
  -5 -11  -6   28.56    0.80
  -6 -11  -6   16.63    0.63
  -7 -11  -6   -0.18    0.19
  -8 -11  -6   13.64    0.62
  -9 -11  -6    7.07    0.51
 -10 -11  -6   -0.13    0.23
  -1 -12  -6    4.09    0.35
  -2 -12  -6    7.81    0.46
  -3 -12  -6    6.24    0.42
  -4 -12  -6   56.88    1.22
  -5 -12  -6    0.27    0.22
  -6 -12  -6   -0.12    0.21
  -7 -12  -6   18.59    0.71
  -8 -12  -6    0.83    0.29
  -9 -12  -6    8.13    0.56
  -2 -13  -6   49.59    1.13
  -3 -13  -6    0.08    0.22
  -4 -13  -6   13.31    0.61
  -5 -13  -6    7.29    0.50
  -6 -13  -6    1.87    0.32
  -7 -13  -6   16.59    0.71
  -3 -14  -6    0.30    0.24
  -4 -14  -6    1.24    0.30
  -5 -14  -6   17.25    0.73
  -6 -14  -6    3.12    0.40
  -2  -7   7    6.65    0.54
  -1  -7   7   26.86    0.89
   0  -7   7   11.97    0.65
   1  -7   7    2.13    0.34
  -4  -6   7    2.24    0.35
  -3  -6   7    2.97    0.38
  -2  -6   7   13.68    0.65
  -1  -6   7    5.33    0.44
   0  -6   7    2.03    0.33
   2  -6   7    0.10    0.22
   3  -6   7   42.70    1.07
   4  -6   7    4.29    0.41
  -5  -5   7    1.21    0.30
  -4  -5   7   17.50    0.68
  -3  -5   7    3.24    0.38
  -2  -5   7   32.87    0.90
  -1  -5   7   -0.20    0.22
   0  -5   7    3.68    0.37
   1  -5   7  100.32    1.80
   2  -5   7    8.17    0.47
   3  -5   7    6.77    0.44
   4  -5   7   21.65    0.72
   5  -5   7    0.43    0.23
  -6  -4   7    5.76    0.47
  -5  -4   7    3.11    0.34
  -4  -4   7   11.86    0.55
  -3  -4   7   10.17    0.52
  -2  -4   7   18.21    0.63
  -1  -4   7   58.98    1.21
   0  -4   7   15.67    0.58
   1  -4   7   28.22    0.78
   2  -4   7   -0.06    0.18
  -3   4  -7    7.22    0.39
   3  -4   7    6.77    0.41
  -4   4  -7   12.66    0.52
   4  -4   7   12.80    0.52
  -5   4  -7   31.19    0.85
   5  -4   7   30.57    0.83
  -6   4  -7   10.74    0.54
   6  -4   7   11.08    0.53
  -7   4  -7    0.38    0.25
  -6  -3   7    4.70    0.41
  -5  -3   7   13.20    0.57
  -4  -3   7   18.59    0.64
  -3  -3   7    0.16    0.20
  -2  -3   7   14.42    0.54
  -1  -3   7   11.23    0.48
   0  -3   7   30.89    0.78
   1  -3   7   16.04    0.55
  -2   3  -7    0.29    0.15
   2  -3   7    0.20    0.19
  -3   3  -7   93.33    1.60
   3  -3   7   95.27    1.61
  -4   3  -7   15.68    0.54
   4  -3   7   14.94    0.53
  -5   3  -7    0.63    0.19
   5  -3   7    0.98    0.22
  -6   3  -7   14.67    0.57
   6  -3   7   14.68    0.62
  -7   3  -7    0.44    0.21
  -8   3  -7   25.02    0.81
  -6  -2   7    1.59    0.29
  -5  -2   7    3.43    0.34
  -4  -2   7    3.51    0.33
  -3  -2   7    2.33    0.28
  -2  -2   7   60.37    1.15
  -1  -2   7   45.05    0.93
   0  -2   7   11.53    0.45
  -1   2  -7  103.56    1.61
   1  -2   7  103.32    1.68
  -2   2  -7    5.25    0.29
   2  -2   7    4.68    0.34
  -3   2  -7   49.40    0.97
   3  -2   7   50.41    0.98
  -4   2  -7    3.11    0.27
   4  -2   7    2.69    0.26
  -5   2  -7   24.10    0.67
   5  -2   7   24.13    0.66
  -6   2  -7   56.32    1.17
  -7   2  -7   12.38    0.53
  -8   2  -7   13.33    0.58
  -7  -1   7   17.58    0.69
  -6  -1   7    1.01    0.25
  -5  -1   7   21.66    0.68
  -4  -1   7   49.47    1.04
  -3  -1   7   36.65    0.83
   2   1  -7   98.47    1.58
  -2  -1   7   95.12    1.60
   1   1  -7   11.29    0.39
  -1  -1   7   10.85    0.42
   0   1  -7    0.07    0.11
   0   1  -7    0.11    0.12
   0  -1   7    0.22    0.16
  -1   1  -7   39.35    0.73
  -1   1  -7   38.68    0.73
   1  -1   7   37.78    0.79
  -2   1  -7   21.03    0.52
  -2   1  -7   22.18    0.48
   2  -1   7   21.36    0.56
  -3   1  -7   51.22    0.96
   3  -1   7   52.36    0.97
  -4   1  -7   33.07    0.75
   4  -1   7   33.81    0.73
  -5   1  -7   48.10    0.98
   5  -1   7   46.50    0.94
  -6   1  -7   33.69    0.82
  -7   1  -7    2.15    0.27
  -8   1  -7    2.56    0.31
  -9   1  -7    1.19    0.27
  -7   0   7   14.48    0.63
  -6   0   7    2.21    0.29
  -5   0   7    5.39    0.40
   4   0  -7   37.22    0.82
  -4   0   7   36.95    0.86
   3   0  -7    9.37    0.38
  -3   0   7    8.15    0.39
   2   0  -7    0.20    0.14
  -2   0   7    0.44    0.16
   1   0  -7    0.70    0.16
  -1   0   7    0.55    0.15
   0   0  -7   59.20    1.02
   0   0  -7   59.57    0.94
   0   0   7   60.06    1.03
  -1   0  -7   83.12    1.29
  -1   0  -7   81.69    1.26
   1   0   7   82.50    1.31
  -2   0  -7    0.33    0.11
  -2   0  -7    0.15    0.11
   2   0   7    0.04    0.14
  -3   0  -7  112.79    1.72
  -3   0  -7  114.27    1.64
   3   0   7  110.66    1.69
  -4   0  -7    9.18    0.36
   4   0   7    8.62    0.35
  -5   0  -7   30.53    0.72
  -6   0  -7   -0.37    0.13
  -7   0  -7   11.18    0.48
  -8   0  -7   52.59    1.14
  -9   0  -7    2.95    0.33
 -10   0  -7   14.07    0.94
   7  -1  -7    6.26    0.46
   6  -1  -7    4.42    0.37
   5  -1  -7   38.31    0.90
   4  -1  -7    6.98    0.35
   4  -1  -7    6.42    0.37
   3  -1  -7   32.27    0.72
  -3   1   7   32.66    0.75
   2  -1  -7  136.44    2.03
  -2   1   7  131.23    2.02
   1  -1  -7   41.80    0.80
  -1   1   7   41.27    0.79
   0  -1  -7  120.91    1.81
   0  -1  -7  120.69    1.69
   0   1   7  122.68    1.79
  -1  -1  -7   19.71    0.42
  -1  -1  -7   20.41    0.47
   1   1   7   19.27    0.45
  -2  -1  -7    0.20    0.10
  -2  -1  -7    0.22    0.11
   2   1   7    0.35    0.13
  -3  -1  -7   66.81    1.12
  -3  -1  -7   69.16    1.06
   3   1   7   66.61    1.07
  -4  -1  -7   34.84    0.72
  -5  -1  -7   49.38    0.96
  -6  -1  -7   64.51    1.20
  -7  -1  -7   12.43    0.48
  -8  -1  -7   23.94    0.70
  -9  -1  -7    3.34    0.34
 -10  -1  -7    3.72    0.36
   7  -2  -7   20.80    0.72
   6  -2  -7   13.64    0.55
   5  -2  -7   56.33    1.14
   5  -2  -7   55.87    1.09
   4  -2  -7   10.12    0.42
   4  -2  -7   10.20    0.40
   3  -2  -7    2.75    0.25
   3  -2  -7    2.81    0.24
   2  -2  -7   70.16    1.21
   2  -2  -7   70.84    1.18
   1  -2  -7    0.43    0.14
  -1   2   7    0.41    0.14
   0  -2  -7   26.11    0.45
   0  -2  -7   25.30    0.57
   0   2   7   25.87    0.53
  -1  -2  -7   40.31    0.68
  -1  -2  -7   40.45    0.75
   1   2   7   40.44    0.69
  -2  -2  -7   51.30    0.88
  -2  -2  -7   52.82    0.87
   2   2   7   51.68    0.83
  -3  -2  -7  113.02    1.62
  -3  -2  -7  113.30    1.66
   3   2   7  104.62    1.63
  -4  -2  -7    9.38    0.34
  -4  -2  -7    9.30    0.30
  -5  -2  -7   40.51    0.82
  -6  -2  -7   20.55    0.57
  -7  -2  -7    1.58    0.23
  -8  -2  -7   11.67    0.49
  -9  -2  -7    1.89    0.27
 -10  -2  -7   11.03    0.54
   6  -3  -7    1.17    0.24
   5  -3  -7    0.84    0.21
   5  -3  -7    0.43    0.17
   4  -3  -7   31.71    0.73
   4  -3  -7   32.62    0.77
   3  -3  -7   24.44    0.60
   3  -3  -7   22.45    0.59
   2  -3  -7   37.09    0.73
   2  -3  -7   35.84    0.75
   1  -3  -7    3.72    0.26
   1  -3  -7    3.75    0.23
   0  -3  -7  108.61    1.51
   0  -3  -7  107.47    1.65
   0   3   7  107.79    1.58
  -1  -3  -7  119.17    1.80
  -1  -3  -7  122.60    1.71
   1   3   7  121.56    1.69
  -2  -3  -7   57.44    0.98
  -2  -3  -7   57.98    0.93
   2   3   7   57.55    0.86
  -3  -3  -7    2.05    0.18
  -3  -3  -7    1.70    0.16
  -4  -3  -7   -0.05    0.10
  -4  -3  -7    0.04    0.11
  -5  -3  -7   52.99    0.97
  -5  -3  -7   51.38    0.88
  -6  -3  -7   34.27    0.77
  -7  -3  -7   16.40    0.53
  -8  -3  -7   17.50    0.58
  -9  -3  -7    1.14    0.24
 -10  -3  -7    7.76    0.47
 -11  -3  -7    2.90    0.55
   6  -4  -7    2.31    0.30
   5  -4  -7   35.04    0.80
   5  -4  -7   34.77    0.85
   4  -4  -7   42.32    0.90
   4  -4  -7   42.89    0.88
   3  -4  -7   35.12    0.75
   3  -4  -7   34.09    0.75
   2  -4  -7   10.00    0.39
   2  -4  -7   10.51    0.37
   1  -4  -7    2.60    0.22
   1  -4  -7    2.49    0.19
   0  -4  -7   83.18    1.24
   0  -4  -7   83.86    1.35
  -1  -4  -7    2.86    0.21
   1   4   7    3.17    0.16
  -2  -4  -7   69.17    1.08
  -2  -4  -7   67.74    1.13
  -3  -4  -7   90.59    1.42
  -3  -4  -7   91.80    1.40
  -4  -4  -7   19.91    0.50
  -4  -4  -7   20.09    0.49
  -5  -4  -7   86.88    1.43
  -5  -4  -7   86.59    1.36
  -6  -4  -7   33.04    0.69
  -6  -4  -7   35.68    0.77
  -7  -4  -7    1.68    0.23
  -8  -4  -7    5.69    0.37
  -9  -4  -7    1.07    0.23
 -10  -4  -7   13.08    0.57
 -11  -4  -7    2.07    0.32
   6  -5  -7    4.08    0.36
   5  -5  -7   47.60    1.04
   4  -5  -7    3.69    0.30
   4  -5  -7    4.12    0.30
   3  -5  -7    9.41    0.39
   3  -5  -7    9.80    0.39
   2  -5  -7   58.88    1.06
   2  -5  -7   56.28    1.02
   1  -5  -7   19.62    0.52
   1  -5  -7   19.62    0.47
   0  -5  -7  103.37    1.62
   0  -5  -7  102.67    1.50
  -1  -5  -7   11.08    0.38
  -1  -5  -7   10.51    0.26
  -2  -5  -7   20.35    0.51
  -3  -5  -7  158.51    2.31
  -4  -5  -7    1.29    0.18
  -5  -5  -7    3.79    0.27
  -5  -5  -7    3.79    0.26
  -6  -5  -7    0.29    0.14
  -6  -5  -7    0.16    0.15
  -7  -5  -7    0.81    0.19
  -8  -5  -7   24.38    0.69
  -9  -5  -7    0.24    0.19
 -10  -5  -7    4.96    0.40
 -11  -5  -7   -0.35    0.19
   6  -6  -7    5.50    0.43
   5  -6  -7   12.65    0.53
   4  -6  -7    1.53    0.23
   3  -6  -7   24.40    0.63
   3  -6  -7   23.94    0.63
   2  -6  -7   76.76    1.33
   2  -6  -7   77.83    1.29
   1  -6  -7   17.72    0.45
   1  -6  -7   16.72    0.50
   0  -6  -7    1.24    0.14
   0  -6  -7    1.69    0.21
  -1  -6  -7    4.96    0.30
  -2  -6  -7   27.70    0.63
  -3  -6  -7   26.43    0.62
  -4  -6  -7   17.54    0.50
  -5  -6  -7   36.22    0.76
  -6  -6  -7    0.22    0.14
  -7  -6  -7   16.53    0.54
  -7  -6  -7   16.19    0.50
  -8  -6  -7   16.25    0.57
  -9  -6  -7    5.85    0.40
 -10  -6  -7    1.13    0.25
 -11  -6  -7    2.33    0.33
   5  -7  -7   13.41    0.57
   4  -7  -7    5.96    0.39
   3  -7  -7   38.20    0.85
   3  -7  -7   38.60    0.84
   2  -7  -7    3.72    0.29
   2  -7  -7    4.03    0.29
   1  -7  -7   24.96    0.62
   1  -7  -7   24.32    0.57
   0  -7  -7   39.63    0.76
   0  -7  -7   41.19    0.84
  -1  -7  -7   22.09    0.58
  -2  -7  -7   76.97    1.31
  -3  -7  -7   22.44    0.59
  -4  -7  -7    2.85    0.26
  -5  -7  -7   21.25    0.58
  -6  -7  -7   10.48    0.43
  -7  -7  -7   17.67    0.55
  -8  -7  -7    4.83    0.34
  -8  -7  -7    4.50    0.35
  -9  -7  -7    2.03    0.28
 -10  -7  -7   12.74    0.57
 -11  -7  -7    2.03    0.31
   5  -8  -7   28.94    0.83
   4  -8  -7    1.45    0.25
   3  -8  -7   40.45    0.90
   2  -8  -7   11.66    0.45
   2  -8  -7   11.88    0.45
   1  -8  -7    7.27    0.33
   1  -8  -7    7.55    0.37
   0  -8  -7   69.96    1.25
  -1  -8  -7    1.45    0.21
  -2  -8  -7    1.62    0.22
  -3  -8  -7   10.40    0.42
  -4  -8  -7    1.73    0.22
  -5  -8  -7   16.06    0.52
  -6  -8  -7    0.10    0.16
  -7  -8  -7    0.99    0.22
  -8  -8  -7    4.37    0.34
  -9  -8  -7    1.81    0.27
 -10  -8  -7    0.41    0.22
 -11  -8  -7    3.09    0.40
   4  -9  -7    1.57    0.27
   3  -9  -7    1.42    0.25
   2  -9  -7   17.92    0.55
   1  -9  -7    3.22    0.28
   0  -9  -7    1.18    0.20
  -1  -9  -7   12.45    0.46
  -2  -9  -7   11.35    0.45
  -3  -9  -7   15.07    0.51
  -4  -9  -7    1.81    0.25
  -5  -9  -7    6.10    0.39
  -6  -9  -7    0.44    0.19
  -7  -9  -7    0.05    0.18
  -8  -9  -7    4.40    0.36
  -9  -9  -7    6.82    0.43
 -10  -9  -7    0.83    0.25
   3 -10  -7    9.78    0.48
   1 -10  -7   32.11    0.78
   0 -10  -7    6.32    0.36
  -1 -10  -7    3.30    0.30
  -2 -10  -7   27.86    0.74
  -3 -10  -7   18.96    0.60
  -4 -10  -7    5.22    0.38
  -5 -10  -7    2.96    0.30
  -6 -10  -7    6.22    0.43
  -7 -10  -7   12.87    0.54
  -8 -10  -7    5.10    0.40
  -9 -10  -7    4.79    0.41
   0 -11  -7   21.59    0.64
  -1 -11  -7    4.28    0.33
  -2 -11  -7    3.85    0.34
  -3 -11  -7    0.48    0.20
  -4 -11  -7    0.82    0.22
  -5 -11  -7   15.19    0.59
  -6 -11  -7    2.04    0.29
  -7 -11  -7    0.28    0.22
  -8 -11  -7    0.32    0.22
  -9 -11  -7   12.40    0.62
 -10 -11  -7    0.42    0.26
  -1 -12  -7    2.38    0.28
  -2 -12  -7    2.06    0.28
  -3 -12  -7    1.79    0.28
  -4 -12  -7    0.00    0.21
  -5 -12  -7    7.44    0.47
  -6 -12  -7    4.59    0.40
  -7 -12  -7    0.34    0.24
  -8 -12  -7    7.31    0.51
  -9 -12  -7    1.31    0.31
  -2 -13  -7    3.36    0.36
  -3 -13  -7    7.85    0.49
  -4 -13  -7    8.77    0.52
  -5 -13  -7    1.28    0.30
  -6 -13  -7    6.91    0.51
  -7 -13  -7    4.62    0.44
  -8 -13  -7   10.49    0.95
  -2 -14  -7    5.51    0.45
  -3 -14  -7   -0.25    0.22
  -4 -14  -7    2.13    0.33
  -5 -14  -7    3.07    0.39
  -6 -14  -7   12.61    0.73
  -2  -6   8   10.92    0.66
  -1  -6   8   13.67    0.68
   0  -6   8   15.67    0.69
   1  -6   8    0.64    0.28
   2  -6   8   13.07    0.61
  -4  -5   8    2.60    0.37
  -3  -5   8    2.00    0.36
  -2  -5   8   40.37    1.05
  -1  -5   8    1.82    0.33
   0  -5   8    0.15    0.25
   1  -5   8   66.76    1.39
   2  -5   8    0.08    0.23
   3  -5   8   13.03    0.58
   4  -5   8    3.16    0.36
  -5  -4   8   -0.09    0.27
  -4  -4   8   46.73    1.14
  -3  -4   8    6.29    0.47
  -2  -4   8    7.00    0.48
  -1  -4   8   29.55    0.85
   0  -4   8    4.59    0.40
   1  -4   8   38.24    0.95
   2  -4   8   10.49    0.52
   3  -4   8    1.61    0.26
  -4   4  -8   32.36    0.86
   4  -4   8   32.00    0.86
  -5   4  -8    7.14    0.47
   5  -4   8    7.26    0.48
  -6   4  -8    2.80    0.34
  -5  -3   8   13.36    0.61
  -4  -3   8   10.81    0.55
  -3  -3   8    2.42    0.31
  -2  -3   8   -0.08    0.20
  -1  -3   8   33.88    0.87
   0  -3   8   32.56    0.84
   1  -3   8    9.31    0.49
  -2   3  -8    1.51    0.22
   2  -3   8    1.49    0.25
  -3   3  -8   19.67    0.62
   3  -3   8   20.60    0.63
  -4   3  -8   -0.29    0.16
   4  -3   8    0.08    0.18
  -5   3  -8    6.14    0.41
  -6   3  -8   -0.01    0.18
  -7   3  -8    0.78    0.24
  -6  -2   8    3.11    0.37
  -5  -2   8   22.97    0.75
  -4  -2   8    0.11    0.21
  -3  -2   8    1.49    0.25
  -2  -2   8   79.19    1.46
  -1  -2   8    7.62    0.42
   0  -2   8    3.80    0.32
  -1   2  -8   12.62    0.42
   1  -2   8   13.32    0.51
  -2   2  -8    0.09    0.14
   2  -2   8    0.27    0.19
  -3   2  -8   36.82    0.82
   3  -2   8   37.78    0.84
  -4   2  -8    2.63    0.27
   4  -2   8    2.78    0.27
  -5   2  -8    5.22    0.36
  -6   2  -8   40.00    0.96
  -7   2  -8    1.53    0.26
  -8   2  -8    1.83    0.30
  -6  -1   8    4.13    0.39
  -5  -1   8    5.04    0.41
  -4  -1   8   45.94    1.03
  -3  -1   8    6.27    0.39
   2   1  -8   33.53    0.77
  -2  -1   8   33.31    0.80
   1   1  -8    0.10    0.14
  -1  -1   8   -0.18    0.15
   0   1  -8   21.73    0.56
   0  -1   8   23.11    0.61
  -1   1  -8   65.86    1.11
  -1   1  -8   65.88    1.12
   1  -1   8   65.32    1.18
  -2   1  -8    4.08    0.25
  -2   1  -8    3.85    0.27
   2  -1   8    4.70    0.33
  -3   1  -8   11.97    0.42
   3  -1   8   12.63    0.45
  -4   1  -8   14.69    0.50
   4  -1   8   14.18    0.64
  -5   1  -8    2.09    0.24
  -6   1  -8    2.58    0.29
  -7   1  -8    0.53    0.22
  -8   1  -8    2.38    0.32
  -6   0   8    7.97    0.49
  -5   0   8   -0.45    0.17
  -4   0   8   29.20    0.77
   3   0  -8   17.63    0.55
  -3   0   8   17.93    0.57
   2   0  -8    7.46    0.36
  -2   0   8    8.00    0.39
   1   0  -8   14.73    0.46
  -1   0   8   14.32    0.47
   0   0  -8   31.69    0.68
   0   0   8   30.12    0.69
  -1   0  -8    2.97    0.22
  -1   0  -8    2.82    0.22
   1   0   8    2.94    0.25
  -2   0  -8    0.16    0.12
  -2   0  -8    0.04    0.11
   2   0   8    0.16    0.16
  -3   0  -8    0.10    0.17
  -3   0  -8    0.06    0.13
   3   0   8    0.28    0.15
  -4   0  -8    0.01    0.13
  -5   0  -8   13.62    0.48
  -6   0  -8    0.46    0.19
  -7   0  -8   -0.12    0.17
  -8   0  -8   13.44    0.56
  -9   0  -8   11.20    0.55
  -6   1   8    1.33    0.27
  -5   1   8   36.39    0.92
   4  -1  -8   16.69    0.55
  -4   1   8   16.67    0.58
   3  -1  -8    0.54    0.17
  -3   1   8    0.56    0.18
   2  -1  -8   45.41    0.91
  -2   1   8   45.83    0.92
   1  -1  -8    0.65    0.17
  -1   1   8    0.83    0.17
   0  -1  -8   24.96    0.59
   0   1   8   24.92    0.58
  -1  -1  -8    2.36    0.17
  -1  -1  -8    2.17    0.20
   1   1   8    1.96    0.19
  -2  -1  -8   42.44    0.78
  -2  -1  -8   41.34    0.77
   2   1   8   41.95    0.78
  -3  -1  -8   64.26    1.05
  -3  -1  -8   63.45    1.10
  -4  -1  -8    0.35    0.14
  -5  -1  -8    2.68    0.24
  -6  -1  -8   29.71    0.74
  -7  -1  -8   18.10    0.60
  -8  -1  -8    0.95    0.22
  -9  -1  -8    1.44    0.26
   6  -2  -8   10.27    0.53
   5  -2  -8   31.48    0.82
   5  -2  -8   31.69    0.79
   4  -2  -8   18.66    0.58
   4  -2  -8   18.75    0.58
   3  -2  -8    2.36    0.23
   3  -2  -8    3.72    0.29
  -3   2   8    2.93    0.27
   2  -2  -8   34.04    0.74
  -2   2   8   31.53    0.72
   1  -2  -8    1.58    0.20
  -1   2   8    1.38    0.18
   0  -2  -8   22.06    0.55
   0   2   8   21.64    0.50
  -1  -2  -8   58.38    1.02
  -1  -2  -8   55.77    0.91
   1   2   8   57.24    0.94
  -2  -2  -8    0.04    0.12
  -2  -2  -8    0.08    0.10
  -3  -2  -8    0.88    0.15
  -3  -2  -8    1.16    0.16
  -4  -2  -8    3.37    0.22
  -4  -2  -8    2.43    0.22
  -5  -2  -8    4.08    0.28
  -6  -2  -8    2.73    0.27
  -7  -2  -8    0.69    0.20
  -8  -2  -8    2.61    0.29
  -9  -2  -8    1.53    0.26
 -10  -2  -8    1.04    0.27
   6  -3  -8    2.01    0.30
   6  -3  -8    2.37    0.28
   5  -3  -8    3.31    0.30
   5  -3  -8    3.56    0.33
   4  -3  -8   13.77    0.49
   4  -3  -8   12.82    0.49
   3  -3  -8    9.41    0.41
   3  -3  -8   10.22    0.41
   2  -3  -8   16.62    0.48
   2  -3  -8   16.89    0.51
   1  -3  -8   14.70    0.46
  -1   3   8   15.10    0.44
   0  -3  -8    2.44    0.22
   0   3   8    2.37    0.19
  -1  -3  -8    0.51    0.14
   1   3   8    0.55    0.12
  -2  -3  -8    0.04    0.12
  -2  -3  -8    0.10    0.10
  -3  -3  -8    2.14    0.19
  -3  -3  -8    2.18    0.20
  -4  -3  -8    6.69    0.29
  -4  -3  -8    6.73    0.31
  -5  -3  -8   34.27    0.75
  -5  -3  -8   33.74    0.70
  -6  -3  -8    4.39    0.31
  -7  -3  -8    1.40    0.22
  -8  -3  -8    1.14    0.23
  -9  -3  -8   24.03    0.73
 -10  -3  -8    0.78    0.25
   6  -4  -8    0.41    0.23
   5  -4  -8   31.82    0.78
   5  -4  -8   30.49    0.81
   4  -4  -8    8.47    0.41
   4  -4  -8    9.09    0.41
   3  -4  -8    5.90    0.34
   3  -4  -8    5.88    0.33
   2  -4  -8   13.71    0.46
   2  -4  -8   13.96    0.43
   1  -4  -8    1.64    0.18
   1  -4  -8    1.72    0.21
   0  -4  -8   10.04    0.38
   0   4   8    9.98    0.32
  -1  -4  -8    0.30    0.10
  -1  -4  -8    0.37    0.14
  -2  -4  -8   17.81    0.43
  -2  -4  -8   17.67    0.48
  -3  -4  -8   61.13    1.05
  -3  -4  -8   58.77    1.02
  -4  -4  -8    1.90    0.20
  -4  -4  -8    1.30    0.18
  -5  -4  -8    0.44    0.16
  -5  -4  -8    0.47    0.14
  -6  -4  -8   10.42    0.42
  -7  -4  -8   41.77    0.92
  -8  -4  -8    0.39    0.20
  -9  -4  -8   12.38    0.54
 -10  -4  -8    1.29    0.28
   6  -5  -8    0.48    0.24
   5  -5  -8   14.80    0.57
   4  -5  -8    1.04    0.21
   4  -5  -8    1.01    0.20
   3  -5  -8    9.56    0.40
   3  -5  -8    9.51    0.41
   2  -5  -8   26.40    0.66
   2  -5  -8   25.91    0.62
   1  -5  -8    0.06    0.15
   1  -5  -8    0.13    0.12
   0  -5  -8   11.80    0.42
   0  -5  -8   11.88    0.34
  -1  -5  -8   41.20    0.83
  -2  -5  -8   33.20    0.72
  -3  -5  -8    7.92    0.30
  -3  -5  -8    7.97    0.34
  -4  -5  -8   12.60    0.42
  -4  -5  -8   13.04    0.41
  -5  -5  -8   14.16    0.43
  -5  -5  -8   14.16    0.46
  -6  -5  -8   -0.13    0.13
  -6  -5  -8   -0.08    0.13
  -7  -5  -8    3.36    0.30
  -8  -5  -8    4.65    0.36
  -9  -5  -8   11.67    0.53
 -10  -5  -8    2.74    0.32
   5  -6  -8   12.99    0.56
   4  -6  -8    8.60    0.41
   4  -6  -8    8.60    0.43
   3  -6  -8    6.38    0.38
   3  -6  -8    6.05    0.36
   2  -6  -8    6.21    0.32
   2  -6  -8    6.24    0.36
   1  -6  -8    2.38    0.25
   1  -6  -8    2.84    0.22
   0  -6  -8    0.09    0.16
  -1  -6  -8    1.12    0.20
  -2  -6  -8    0.69    0.18
  -3  -6  -8    8.92    0.39
  -4  -6  -8    0.10    0.15
  -5  -6  -8    6.85    0.34
  -6  -6  -8   17.93    0.55
  -6  -6  -8   17.05    0.51
  -7  -6  -8    4.58    0.32
  -7  -6  -8    4.28    0.33
  -8  -6  -8    2.93    0.30
  -9  -6  -8   31.75    0.86
 -10  -6  -8   -0.05    0.20
   5  -7  -8    3.64    0.35
   4  -7  -8   -0.10    0.17
   3  -7  -8    5.58    0.35
   3  -7  -8    5.75    0.35
   2  -7  -8    2.57    0.24
   2  -7  -8    2.07    0.24
   1  -7  -8    8.20    0.38
   0  -7  -8   10.55    0.43
  -1  -7  -8    3.15    0.27
  -2  -7  -8   10.73    0.42
  -3  -7  -8   24.79    0.64
  -4  -7  -8   60.52    1.13
  -5  -7  -8    2.40    0.25
  -6  -7  -8   26.41    0.67
  -7  -7  -8   15.45    0.54
  -7  -7  -8   14.66    0.51
  -8  -7  -8    3.51    0.33
  -9  -7  -8   24.56    0.77
 -10  -7  -8    3.30    0.36
   4  -8  -8    0.19    0.18
   3  -8  -8   13.90    0.52
   2  -8  -8   28.98    0.74
   1  -8  -8    6.03    0.36
   0  -8  -8    0.75    0.19
  -1  -8  -8    5.65    0.34
  -2  -8  -8   10.49    0.43
  -3  -8  -8    0.31    0.17
  -4  -8  -8   18.00    0.56
  -5  -8  -8    0.50    0.18
  -6  -8  -8    7.15    0.39
  -7  -8  -8    5.65    0.39
  -8  -8  -8    5.66    0.38
  -8  -8  -8    5.97    0.40
  -9  -8  -8   22.37    0.73
 -10  -8  -8    1.18    0.28
   4  -9  -8    3.31    0.34
   2  -9  -8    0.21    0.18
   1  -9  -8    4.11    0.33
   0  -9  -8    3.82    0.31
  -1  -9  -8    0.45    0.18
  -2  -9  -8    0.78    0.21
  -3  -9  -8   10.14    0.46
  -4  -9  -8    4.57    0.34
  -5  -9  -8    0.81    0.21
  -6  -9  -8   35.10    0.86
  -7  -9  -8   15.64    0.58
  -8  -9  -8    8.68    0.46
  -9  -9  -8    1.72    0.28
  -9  -9  -8    1.74    0.38
 -10  -9  -8   -0.22    0.19
   1 -10  -8    2.95    0.30
   0 -10  -8    4.13    0.32
  -1 -10  -8   18.81    0.60
  -2 -10  -8    5.35    0.38
  -3 -10  -8   22.10    0.67
  -4 -10  -8   16.76    0.58
  -5 -10  -8    0.00    0.18
  -6 -10  -8   25.71    0.76
  -7 -10  -8   -0.16    0.20
  -8 -10  -8   10.01    0.53
  -9 -10  -8   19.78    0.70
 -10 -10  -8    1.40    0.29
   0 -11  -8   -0.05    0.17
  -1 -11  -8   21.60    0.66
  -2 -11  -8    5.03    0.37
  -3 -11  -8   10.14    0.49
  -4 -11  -8   26.53    0.77
  -5 -11  -8    2.98    0.32
  -6 -11  -8   20.49    0.70
  -7 -11  -8    4.22    0.39
  -8 -11  -8   11.96    0.58
  -9 -11  -8   24.36    0.82
 -10 -11  -8    0.65    0.27
  -1 -12  -8    9.45    0.49
  -2 -12  -8    0.39    0.21
  -3 -12  -8   17.27    0.64
  -4 -12  -8   26.23    0.79
  -5 -12  -8    3.94    0.37
  -6 -12  -8    6.42    0.48
  -7 -12  -8    1.80    0.32
  -8 -12  -8   16.60    0.69
  -9 -12  -8    1.95    0.34
  -1 -13  -8    8.88    0.50
  -2 -13  -8    2.74    0.32
  -3 -13  -8   22.01    0.76
  -4 -13  -8    2.81    0.36
  -5 -13  -8    8.84    0.53
  -6 -13  -8   34.51    1.00
  -7 -13  -8    3.48    0.42
  -2 -14  -8    0.81    0.27
  -3 -14  -8   15.99    0.69
  -4 -14  -8    7.26    0.54
  -5 -14  -8    8.17    0.54
  -6 -14  -8   38.61    1.59
  -2  -5   9   18.43    0.80
  -1  -5   9    2.75    0.40
   0  -5   9   -0.08    0.27
   1  -5   9    4.15    0.40
   2  -5   9    5.15    0.44
   3  -5   9   18.46    0.71
  -3  -4   9    0.67    0.28
  -2  -4   9    4.86    0.43
  -1  -4   9    7.17    0.52
   0  -4   9    7.93    0.54
   1  -4   9   25.04    0.80
   2  -4   9    0.87    0.26
   3  -4   9    0.21    0.21
  -5   4  -9    8.89    0.54
  -4  -3   9    3.72    0.39
  -2  -3   9    0.14    0.23
  -1  -3   9   10.34    0.55
   0  -3   9    3.83    0.37
   1  -3   9    1.44    0.29
   2  -3   9    0.33    0.21
  -3   3  -9    3.27    0.31
   3  -3   9    2.73    0.30
  -4   3  -9    3.24    0.33
  -5   3  -9    9.40    0.51
  -6   3  -9    0.14    0.22
  -5  -2   9   12.65    0.61
  -4  -2   9    0.29    0.24
  -3  -2   9   -0.24    0.20
  -2  -2   9   14.21    0.57
  -1  -2   9    3.55    0.33
   0  -2   9    6.18    0.41
   1  -2   9    1.01    0.25
  -2   2  -9   16.24    0.52
   2  -2   9   16.29    0.57
  -3   2  -9    5.61    0.35
   3  -2   9    5.29    0.38
  -4   2  -9    4.94    0.36
  -5   2  -9    5.73    0.39
  -6   2  -9    0.08    0.20
  -7   2  -9   30.50    0.88
  -5  -1   9    3.79    0.39
  -4  -1   9   14.69    0.61
  -3  -1   9    2.11    0.29
  -2  -1   9   12.86    0.52
   1   1  -9    0.58    0.19
  -1  -1   9    0.39    0.20
   0   1  -9    3.30    0.28
   0  -1   9    3.08    0.29
  -1   1  -9    8.01    0.35
   1  -1   9    8.00    0.42
  -2   1  -9    8.49    0.36
  -2   1  -9    7.04    0.44
   2  -1   9    8.70    0.40
  -3   1  -9    0.01    0.14
  -4   1  -9    0.39    0.18
  -5   1  -9   38.43    0.90
  -6   1  -9    0.33    0.20
  -7   1  -9    0.94    0.25
  -8   1  -9    1.28    0.28
  -5   0   9    4.88    0.41
  -4   0   9   19.33    0.65
   3   0  -9    0.54    0.21
  -3   0   9    0.35    0.19
   2   0  -9    1.48    0.21
  -2   0   9    1.26    0.23
   1   0  -9    2.29    0.24
  -1   0   9    2.03    0.24
   0   0  -9    3.28    0.27
   0   0   9    3.59    0.28
  -1   0  -9    4.43    0.29
   1   0   9    4.30    0.32
  -2   0  -9    1.03    0.16
  -2   0  -9    1.06    0.17
   2   0   9    1.33    0.22
  -3   0  -9   12.11    0.42
  -4   0  -9   19.29    0.56
  -5   0  -9    0.64    0.19
  -6   0  -9    5.70    0.38
  -7   0  -9    0.15    0.20
  -8   0  -9    4.39    0.40
  -5   1   9    7.60    0.48
   4  -1  -9    1.63    0.25
  -4   1   9    1.65    0.26
   3  -1  -9    2.11    0.25
  -3   1   9    2.04    0.26
   2  -1  -9    0.71    0.19
  -2   1   9    0.54    0.18
   1  -1  -9   10.98    0.43
  -1   1   9   11.09    0.42
   0  -1  -9    4.36    0.29
   0   1   9    4.09    0.30
  -1  -1  -9   10.55    0.40
   1   1   9   10.75    0.39
  -2  -1  -9   15.30    0.44
  -2  -1  -9   14.96    0.42
  -3  -1  -9    0.85    0.16
  -3  -1  -9    1.03    0.16
  -4  -1  -9   37.77    0.81
  -5  -1  -9   -0.01    0.15
  -6  -1  -9    1.13    0.21
  -7  -1  -9   45.99    1.03
  -8  -1  -9    0.11    0.20
  -9  -1  -9    5.11    0.43
  -6   2   9    4.08    0.46
   5  -2  -9    5.98    0.40
  -5   2   9    6.22    0.44
   4  -2  -9    0.15    0.17
  -4   2   9    0.22    0.19
   3  -2  -9   17.86    0.57
  -3   2   9   18.53    0.58
   2  -2  -9   16.59    0.53
  -2   2   9   17.60    0.53
   1  -2  -9   14.27    0.48
  -1   2   9   14.41    0.46
   0  -2  -9    2.76    0.24
   0   2   9    2.56    0.22
  -1  -2  -9    3.02    0.25
  -2  -2  -9   98.63    1.56
  -2  -2  -9   96.72    1.50
  -3  -2  -9    1.87    0.20
  -3  -2  -9    2.26    0.20
  -4  -2  -9   -0.04    0.12
  -4  -2  -9   -0.18    0.11
  -5  -2  -9   19.63    0.56
  -6  -2  -9    6.03    0.36
  -7  -2  -9   22.59    0.68
  -8  -2  -9    2.27    0.30
  -9  -2  -9    0.37    0.23
   5  -3  -9    4.59    0.36
   5  -3  -9    3.50    0.34
   4  -3  -9    7.12    0.42
   4  -3  -9    7.19    0.40
   3  -3  -9    1.36    0.22
   3  -3  -9    1.64    0.23
  -3   3   9    1.47    0.22
   2  -3  -9    4.90    0.34
  -2   3   9    4.79    0.31
   1  -3  -9    0.23    0.15
  -1   3   9    0.43    0.15
   0  -3  -9   18.62    0.54
   0   3   9   19.62    0.60
  -1  -3  -9   20.65    0.56
  -2  -3  -9   13.19    0.43
  -2  -3  -9   12.66    0.37
  -3  -3  -9    2.04    0.20
  -3  -3  -9    1.94    0.19
  -4  -3  -9    1.76    0.20
  -4  -3  -9    1.56    0.18
  -5  -3  -9   17.28    0.52
  -6  -3  -9   38.71    0.87
  -7  -3  -9    0.20    0.18
  -8  -3  -9    1.72    0.26
  -9  -3  -9   29.31    0.85
 -10  -3  -9    2.10    0.31
   5  -4  -9    0.40    0.22
   5  -4  -9    0.54    0.21
   4  -4  -9   13.29    0.51
   4  -4  -9   13.71    0.52
   3  -4  -9    0.80    0.20
   3  -4  -9    0.37    0.18
   2  -4  -9    0.83    0.17
   2  -4  -9    0.70    0.19
   1  -4  -9   10.18    0.43
  -1   4   9    9.47    0.36
   0  -4  -9    1.26    0.19
  -1  -4  -9   54.64    1.03
  -2  -4  -9    0.04    0.14
  -2  -4  -9   -0.04    0.10
  -3  -4  -9    0.93    0.15
  -3  -4  -9    1.09    0.18
  -4  -4  -9   87.38    1.45
  -4  -4  -9   91.02    1.45
  -5  -4  -9    1.33    0.19
  -5  -4  -9    1.26    0.18
  -6  -4  -9    1.85    0.23
  -7  -4  -9   34.75    0.85
  -8  -4  -9    4.90    0.37
  -9  -4  -9   42.02    1.04
 -10  -4  -9    1.10    0.27
   5  -5  -9    1.98    0.28
   5  -5  -9    2.37    0.29
   4  -5  -9    1.60    0.25
   4  -5  -9    1.68    0.25
   3  -5  -9    4.78    0.35
   3  -5  -9    4.67    0.34
   2  -5  -9   10.38    0.44
   2  -5  -9   10.43    0.40
   1  -5  -9   32.82    0.77
   0  -5  -9   24.01    0.63
  -1  -5  -9    1.41    0.19
  -2  -5  -9   79.76    1.37
  -2  -5  -9   79.14    1.26
  -3  -5  -9    1.62    0.18
  -3  -5  -9    1.44    0.21
  -4  -5  -9   48.57    0.94
  -4  -5  -9   49.14    0.93
  -5  -5  -9    0.25    0.14
  -5  -5  -9    0.55    0.16
  -6  -5  -9    0.63    0.19
  -6  -5  -9    0.95    0.17
  -7  -5  -9   84.91    1.52
  -8  -5  -9   13.92    0.56
  -9  -5  -9    6.54    0.45
 -10  -5  -9    9.54    0.55
   5  -6  -9    0.43    0.23
   4  -6  -9    6.48    0.41
   4  -6  -9    6.55    0.41
   3  -6  -9   29.44    0.77
   3  -6  -9   29.25    0.74
   2  -6  -9   14.21    0.52
   2  -6  -9   14.89    0.50
   1  -6  -9   18.90    0.58
   0  -6  -9    7.43    0.38
  -1  -6  -9    1.40    0.20
  -2  -6  -9   26.87    0.67
  -3  -6  -9   28.99    0.69
  -4  -6  -9    7.83    0.34
  -4  -6  -9    7.46    0.36
  -5  -6  -9   32.24    0.73
  -5  -6  -9   32.09    0.74
  -6  -6  -9   56.54    1.06
  -6  -6  -9   55.67    1.11
  -7  -6  -9    7.81    0.42
  -8  -6  -9    0.97    0.22
  -9  -6  -9   15.30    0.61
 -10  -6  -9    5.92    0.46
   5  -7  -9    1.76    0.33
   4  -7  -9    9.18    0.46
   3  -7  -9    0.02    0.17
   3  -7  -9    0.02    0.16
   2  -7  -9    9.60    0.44
   1  -7  -9    0.13    0.17
   0  -7  -9    0.34    0.17
  -1  -7  -9   59.51    1.15
  -2  -7  -9   11.64    0.45
  -3  -7  -9    0.25    0.17
  -4  -7  -9   71.93    1.30
  -5  -7  -9    7.82    0.39
  -6  -7  -9   53.43    1.05
  -6  -7  -9   50.44    1.05
  -7  -7  -9    0.49    0.19
  -7  -7  -9    0.23    0.18
  -8  -7  -9    1.60    0.27
  -9  -7  -9   93.34    1.75
 -10  -7  -9    1.27    0.28
   3  -8  -9    0.17    0.18
   2  -8  -9   17.10    0.58
   1  -8  -9   87.07    1.55
   0  -8  -9    9.85    0.46
  -1  -8  -9   26.65    0.70
  -2  -8  -9   18.90    0.58
  -3  -8  -9    0.27    0.18
  -4  -8  -9   76.46    1.38
  -5  -8  -9   24.75    0.68
  -6  -8  -9   10.26    0.46
  -7  -8  -9   49.50    1.05
  -8  -8  -9   14.18    0.57
  -8  -8  -9   14.28    0.58
  -9  -8  -9   13.35    0.59
 -10  -8  -9    0.76    0.26
   2  -9  -9    2.94    0.31
   1  -9  -9   13.46    0.54
   0  -9  -9    0.63    0.21
  -1  -9  -9    5.56    0.37
  -2  -9  -9   10.72    0.46
  -3  -9  -9   45.32    0.98
  -4  -9  -9   22.64    0.66
  -5  -9  -9    3.12    0.31
  -6  -9  -9   23.94    0.71
  -7  -9  -9   16.82    0.59
  -8  -9  -9   18.30    0.64
  -9  -9  -9   -0.40    0.19
 -10  -9  -9   -0.03    0.21
   1 -10  -9    3.49    0.33
   0 -10  -9   -0.22    0.16
  -1 -10  -9   64.61    1.28
  -2 -10  -9   17.18    0.59
  -3 -10  -9   27.43    0.75
  -4 -10  -9   10.78    0.50
  -5 -10  -9   -0.04    0.18
  -6 -10  -9   64.79    1.31
  -7 -10  -9   13.23    0.56
  -8 -10  -9    2.84    0.33
  -9 -10  -9   30.16    0.86
   1 -11  -9   25.79    0.98
   0 -11  -9    0.47    0.22
  -1 -11  -9   26.36    0.76
  -2 -11  -9    1.07    0.25
  -3 -11  -9   15.03    0.58
  -4 -11  -9   45.34    1.07
  -5 -11  -9   11.11    0.53
  -6 -11  -9   29.16    0.84
  -7 -11  -9   14.36    0.61
  -8 -11  -9    0.85    0.27
  -9 -11  -9   10.77    0.59
   0 -12  -9    6.89    0.44
  -1 -12  -9   19.27    0.67
  -2 -12  -9    8.13    0.46
  -3 -12  -9   21.33    0.70
  -4 -12  -9   26.27    0.81
  -5 -12  -9    4.79    0.41
  -6 -12  -9    0.45    0.25
  -7 -12  -9    4.11    0.40
  -8 -12  -9   17.87    0.74
  -9 -12  -9    3.12    0.45
  -1 -13  -9   10.26    0.53
  -2 -13  -9    2.86    0.34
  -3 -13  -9   18.83    0.70
  -4 -13  -9    3.22    0.38
  -5 -13  -9    7.54    0.52
  -6 -13  -9   40.57    1.09
  -7 -13  -9    1.46    0.32
  -2 -14  -9    5.13    0.44
  -3 -14  -9   17.41    0.71
  -4 -14  -9   13.43    0.65
  -5 -14  -9    3.93    0.43
  -1  -4  10    0.10    0.30
   0  -4  10   11.12    0.64
   1  -4  10    0.39    0.28
   2  -4  10   25.24    0.80
  -3  -3  10    1.96    0.35
  -2  -3  10    0.42    0.26
  -1  -3  10    1.74    0.33
   0  -3  10   26.92    0.84
   1  -3  10    1.75    0.32
   2  -3  10    2.87    0.34
  -4   3 -10    8.06    0.47
  -5   3 -10    2.56    0.32
  -4  -2  10    6.64    0.57
  -3  -2  10    4.69    0.42
  -2  -2  10   11.00    0.56
  -1  -2  10   10.68    0.56
   0  -2  10    5.49    0.43
   1  -2  10    0.52    0.24
  -2   2 -10   12.07    0.57
  -3   2 -10   14.71    0.55
  -4   2 -10   28.89    0.79
  -5   2 -10   17.20    0.63
  -6   2 -10    7.17    0.47
  -4  -1  10    1.09    0.27
  -3  -1  10   21.13    0.72
  -2  -1  10    0.88    0.25
  -1  -1  10   17.21    0.61
   0   1 -10    4.90    0.34
   0  -1  10    5.13    0.38
  -1   1 -10    2.45    0.26
   1  -1  10    2.47    0.29
  -2   1 -10   80.09    1.66
  -3   1 -10   -0.01    0.15
  -4   1 -10    1.51    0.24
  -5   1 -10   29.41    0.80
  -6   1 -10    1.50    0.27
  -7   1 -10   22.68    0.76
  -5   0  10    3.25    0.59
  -4   0  10   -0.06    0.20
   3   0 -10   26.93    0.76
  -3   0  10   26.61    0.78
   2   0 -10    0.65    0.21
  -2   0  10    0.56    0.22
   1   0 -10    0.38    0.17
  -1   0  10    0.30    0.21
   0   0 -10   45.41    0.95
   0   0  10   45.61    0.97
  -1   0 -10    2.60    0.25
  -2   0 -10    0.98    0.18
  -3   0 -10    5.36    0.34
  -4   0 -10   12.16    0.47
  -5   0 -10   46.51    1.02
  -6   0 -10   13.01    0.55
  -7   0 -10    6.50    0.45
  -8   0 -10   12.36    0.59
   4  -1 -10    6.77    0.44
  -4   1  10    6.50    0.44
   3  -1 -10    2.83    0.30
  -3   1  10    3.19    0.32
   2  -1 -10   17.74    0.59
  -2   1  10   19.42    0.61
   1  -1 -10   12.51    0.48
  -1   1  10   12.15    0.47
   0  -1 -10    0.91    0.19
   0   1  10    0.76    0.23
  -1  -1 -10   32.83    0.75
  -2  -1 -10   17.30    0.50
  -3  -1 -10   22.99    0.59
  -3  -1 -10   22.60    0.65
  -4  -1 -10   90.48    1.54
  -5  -1 -10    0.94    0.21
  -6  -1 -10   -0.14    0.17
  -7  -1 -10   23.70    0.74
  -8  -1 -10    0.05    0.21
   5  -2 -10    0.32    0.21
  -5   2  10    0.35    0.22
   4  -2 -10    5.30    0.39
  -4   2  10    4.21    0.36
   3  -2 -10   10.17    0.48
  -3   2  10    9.98    0.47
   2  -2 -10    1.00    0.21
  -2   2  10    0.82    0.21
   1  -2 -10   61.88    1.20
  -1   2  10   63.09    1.16
   0  -2 -10    0.61    0.17
  -1  -2 -10    0.34    0.15
  -2  -2 -10  123.84    1.93
  -3  -2 -10    0.21    0.13
  -3  -2 -10   -0.12    0.12
  -4  -2 -10   13.24    0.45
  -5  -2 -10   12.31    0.47
  -6  -2 -10    1.65    0.23
  -7  -2 -10   57.24    1.21
  -8  -2 -10    0.67    0.23
  -9  -2 -10    1.59    0.29
   5  -3 -10    0.99    0.25
  -5   3  10    0.99    0.24
   4  -3 -10    1.07    0.23
  -4   3  10    1.34    0.26
   3  -3 -10   56.13    1.15
  -3   3  10   55.46    1.14
   2  -3 -10    0.18    0.17
  -2   3  10    0.16    0.17
   1  -3 -10    0.00    0.16
   0  -3 -10   51.12    1.03
  -1  -3 -10   11.37    0.44
  -2  -3 -10   36.40    0.79
  -3  -3 -10   12.16    0.40
  -3  -3 -10   11.22    0.41
  -4  -3 -10    7.49    0.34
  -4  -3 -10    6.72    0.33
  -5  -3 -10   38.98    0.85
  -6  -3 -10   38.58    0.89
  -7  -3 -10    0.58    0.20
  -8  -3 -10    0.05    0.20
  -9  -3 -10    8.08    0.52
   5  -4 -10   14.44    0.62
   5  -4 -10   14.32    0.60
   4  -4 -10   23.08    0.69
   4  -4 -10   21.22    0.68
   3  -4 -10    0.01    0.18
   3  -4 -10   -0.06    0.17
  -3   4  10    0.22    0.17
   2  -4 -10    3.32    0.31
   1  -4 -10    3.77    0.30
   0  -4 -10   34.91    0.82
  -1  -4 -10   86.16    1.48
  -2  -4 -10    0.55    0.16
  -3  -4 -10    1.31    0.20
  -3  -4 -10    1.29    0.17
  -4  -4 -10   63.25    1.14
  -4  -4 -10   64.08    1.15
  -5  -4 -10   -0.12    0.13
  -5  -4 -10   -0.11    0.13
  -6  -4 -10   15.71    0.54
  -7  -4 -10   16.78    0.59
  -8  -4 -10    0.76    0.23
  -9  -4 -10   43.56    1.07
   5  -5 -10    0.79    0.24
   5  -5 -10    0.79    0.24
   4  -5 -10   27.72    0.78
   4  -5 -10   29.22    0.80
   3  -5 -10    5.58    0.37
   3  -5 -10    6.15    0.40
   2  -5 -10    3.92    0.33
   1  -5 -10  111.29    1.87
   0  -5 -10    0.46    0.17
  -1  -5 -10    0.04    0.15
  -2  -5 -10   55.22    1.07
  -3  -5 -10    1.58    0.22
  -3  -5 -10    1.36    0.18
  -4  -5 -10   57.61    1.06
  -4  -5 -10   57.45    1.09
  -5  -5 -10    0.11    0.14
  -5  -5 -10    0.20    0.15
  -6  -5 -10    1.65    0.24
  -7  -5 -10   60.57    1.23
  -8  -5 -10    4.41    0.38
  -9  -5 -10    0.88    0.25
   4  -6 -10   -0.13    0.17
   4  -6 -10   -0.02    0.19
   3  -6 -10   51.23    1.11
   2  -6 -10   10.48    0.49
   1  -6 -10   20.31    0.63
   0  -6 -10    0.33    0.18
  -1  -6 -10    0.49    0.18
  -2  -6 -10   73.24    1.34
  -3  -6 -10   27.01    0.62
  -3  -6 -10   25.59    0.68
  -4  -6 -10    0.46    0.18
  -4  -6 -10    0.40    0.15
  -5  -6 -10   17.22    0.54
  -5  -6 -10   18.17    0.55
  -6  -6 -10    9.91    0.44
  -6  -6 -10   10.34    0.42
  -7  -6 -10    5.96    0.39
  -8  -6 -10    4.71    0.37
  -9  -6 -10    7.71    0.51
 -10  -6 -10    3.07    0.37
   4  -7 -10    3.78    0.40
   3  -7 -10   13.87    0.56
   2  -7 -10   38.50    0.93
   1  -7 -10    0.41    0.19
   0  -7 -10   23.77    0.69
  -1  -7 -10   72.32    1.36
  -2  -7 -10    2.07    0.25
  -3  -7 -10    1.01    0.22
  -4  -7 -10   32.40    0.73
  -4  -7 -10   31.20    0.77
  -5  -7 -10    3.86    0.30
  -5  -7 -10    3.76    0.29
  -6  -7 -10   42.22    0.94
  -6  -7 -10   42.13    0.92
  -7  -7 -10    0.58    0.21
  -7  -7 -10    0.64    0.19
  -8  -7 -10    0.97    0.24
  -9  -7 -10   41.44    1.05
 -10  -7 -10    1.13    0.28
   3  -8 -10    1.53    0.27
   2  -8 -10    0.08    0.18
   1  -8 -10   68.53    1.34
   0  -8 -10    0.48    0.19
  -1  -8 -10   28.49    0.76
  -2  -8 -10    1.78    0.26
  -3  -8 -10    0.82    0.21
  -4  -8 -10   90.06    1.58
  -5  -8 -10    2.98    0.29
  -6  -8 -10    3.38    0.30
  -6  -8 -10    3.25    0.30
  -7  -8 -10   19.85    0.62
  -7  -8 -10   19.64    0.65
  -8  -8 -10    0.21    0.20
  -9  -8 -10    9.01    0.52
 -10  -8 -10   -0.07    0.35
   2  -9 -10    0.68    0.22
   1  -9 -10   40.71    0.98
   0  -9 -10   10.06    0.49
  -1  -9 -10    0.17    0.19
  -2  -9 -10   49.45    1.06
  -3  -9 -10   20.57    0.64
  -4  -9 -10    0.14    0.19
  -5  -9 -10    0.46    0.21
  -6  -9 -10    2.77    0.29
  -7  -9 -10   11.89    0.53
  -8  -9 -10   11.81    0.55
  -8  -9 -10   11.63    0.55
  -9  -9 -10    0.25    0.22
   1 -10 -10    1.25    0.25
   0 -10 -10    7.48    0.45
  -1 -10 -10   19.79    0.66
  -2 -10 -10    0.73    0.22
  -3 -10 -10   17.88    0.62
  -4 -10 -10   -0.42    0.17
  -5 -10 -10    0.58    0.22
  -6 -10 -10   50.73    1.13
  -7 -10 -10    0.42    0.23
  -8 -10 -10    0.90    0.26
  -9 -10 -10    4.00    0.40
   1 -11 -10    9.49    0.51
   0 -11 -10   -0.09    0.20
  -1 -11 -10   39.96    0.98
  -2 -11 -10    2.13    0.28
  -3 -11 -10    2.33    0.31
  -4 -11 -10   39.04    0.97
  -5 -11 -10    0.29    0.22
  -6 -11 -10    4.87    0.42
  -7 -11 -10    1.08    0.28
  -8 -11 -10    2.35    0.34
  -9 -11 -10    4.44    0.43
   0 -12 -10   13.42    0.58
  -1 -12 -10    3.13    0.35
  -2 -12 -10   18.54    0.67
  -3 -12 -10    0.34    0.23
  -4 -12 -10    4.02    0.39
  -5 -12 -10    3.83    0.39
  -6 -12 -10    4.79    0.43
  -7 -12 -10    2.03    0.33
  -8 -12 -10    1.83    0.33
  -1 -13 -10    1.27    0.27
  -2 -13 -10   -0.08    0.20
  -3 -13 -10   12.93    0.60
  -4 -13 -10    2.29    0.35
  -5 -13 -10    0.61    0.27
  -6 -13 -10   13.91    0.66
  -7 -13 -10    3.28    0.43
  -2 -14 -10    0.24    0.26
  -3 -14 -10    2.92    0.38
  -4 -14 -10    7.91    0.61
  -1  -3  11   20.61    0.84
   0  -3  11   21.80    0.82
  -5   3 -11    5.71    0.69
  -2  -2  11    7.61    0.53
  -1  -2  11   13.44    0.65
   0  -2  11   -0.30    0.26
  -3   2 -11   16.87    0.87
  -4   2 -11    9.88    0.50
  -5   2 -11   13.50    0.61
  -3  -1  11   32.88    0.94
  -2  -1  11   11.46    0.59
  -1  -1  11   25.73    0.79
  -3   1 -11    0.56    0.26
  -4   1 -11    2.41    0.28
  -5   1 -11   15.08    0.59
  -6   1 -11    2.87    0.34
  -4   0  11   14.07    0.82
  -3   0  11   47.23    1.11
   2   0 -11    3.52    0.34
  -2   0  11    4.11    0.38
   1   0 -11    3.19    0.31
  -1   0  11    3.52    0.43
   0   0 -11   11.42    0.47
  -1   0 -11    3.77    0.30
  -3   0 -11    1.48    0.33
  -4   0 -11   20.67    0.63
  -5   0 -11   23.29    0.70
  -6   0 -11    1.37    0.26
  -7   0 -11    0.58    0.25
  -4   1  11    7.71    0.52
   3  -1 -11    0.35    0.20
  -3   1  11   -0.03    0.21
   2  -1 -11    2.14    0.28
  -2   1  11    1.14    0.25
   1  -1 -11   14.76    0.55
   0  -1 -11   32.74    0.81
  -1  -1 -11   15.70    0.53
  -2  -1 -11   35.57    0.80
  -4  -1 -11   10.49    0.45
  -5  -1 -11    0.54    0.20
  -6  -1 -11    8.98    0.47
  -7  -1 -11    9.96    0.52
  -8  -1 -11    0.36    0.25
   4  -2 -11   12.79    0.59
  -4   2  11   13.29    0.60
   3  -2 -11   19.26    0.66
  -3   2  11   18.68    0.65
   2  -2 -11   17.33    0.61
   1  -2 -11   42.24    0.96
   0  -2 -11   12.32    0.49
  -1  -2 -11    0.10    0.16
  -2  -2 -11   20.18    0.58
  -3  -2 -11    0.55    0.16
  -4  -2 -11   37.17    0.83
  -5  -2 -11    8.77    0.42
  -6  -2 -11    1.45    0.24
  -7  -2 -11   13.15    0.56
  -8  -2 -11    1.71    0.30
   5  -3 -11    1.45    0.28
   4  -3 -11    4.08    0.36
  -4   3  11    3.44    0.34
   3  -3 -11   31.89    0.86
   2  -3 -11   -0.25    0.17
   1  -3 -11    5.69    0.40
   0  -3 -11    5.70    0.37
  -1  -3 -11    9.87    0.44
  -2  -3 -11   61.42    1.16
  -3  -3 -11    0.21    0.15
  -4  -3 -11    5.67    0.37
  -4  -3 -11    6.46    0.35
  -5  -3 -11    8.06    0.40
  -6  -3 -11    0.54    0.19
  -7  -3 -11    0.09    0.19
  -8  -3 -11    7.66    0.48
   5  -4 -11    8.83    0.51
   4  -4 -11   10.05    0.52
   3  -4 -11    5.94    0.42
   2  -4 -11    8.40    0.45
   1  -4 -11   16.87    0.59
   0  -4 -11   36.52    0.87
  -1  -4 -11   19.48    0.60
  -2  -4 -11   12.44    0.48
  -3  -4 -11    0.44    0.17
  -4  -4 -11    0.63    0.17
  -4  -4 -11    0.62    0.18
  -6  -4 -11   23.49    0.68
  -7  -4 -11    4.78    0.37
  -8  -4 -11    0.91    0.23
  -9  -4 -11    3.51    0.36
   5  -5 -11    6.42    0.46
   4  -5 -11   29.12    0.85
   3  -5 -11    6.02    0.43
   2  -5 -11    1.93    0.27
   1  -5 -11   27.05    0.76
   0  -5 -11    0.14    0.18
  -1  -5 -11   13.56    0.52
  -2  -5 -11    2.15    0.26
  -3  -5 -11    0.27    0.17
  -4  -5 -11   35.59    0.80
  -4  -5 -11   36.50    0.83
  -5  -5 -11    7.93    0.39
  -5  -5 -11    8.51    0.41
  -6  -5 -11    1.19    0.21
  -7  -5 -11    1.86    0.26
  -8  -5 -11   13.54    0.59
  -9  -5 -11    3.19    0.36
   4  -6 -11    0.04    0.21
   3  -6 -11   13.02    0.58
   2  -6 -11    0.29    0.20
   1  -6 -11   29.91    0.81
   0  -6 -11    0.44    0.19
  -1  -6 -11    5.08    0.37
  -2  -6 -11   25.17    0.70
  -3  -6 -11    0.90    0.22
  -4  -6 -11    3.50    0.31
  -4  -6 -11    2.77    0.25
  -5  -6 -11    0.10    0.15
  -5  -6 -11    0.06    0.17
  -6  -6 -11   16.17    0.58
  -6  -6 -11   17.13    0.57
  -7  -6 -11    2.93    0.31
  -8  -6 -11    1.78    0.28
  -9  -6 -11    0.03    0.22
   4  -7 -11    0.24    0.22
   3  -7 -11   19.03    0.69
   2  -7 -11   14.88    0.60
   1  -7 -11    0.88    0.24
   0  -7 -11    7.62    0.44
  -1  -7 -11    0.61    0.21
  -2  -7 -11    1.48    0.25
  -3  -7 -11    8.40    0.43
  -4  -7 -11    0.13    0.15
  -4  -7 -11   -0.27    0.17
  -5  -7 -11    0.76    0.21
  -5  -7 -11    0.39    0.17
  -6  -7 -11    3.74    0.32
  -6  -7 -11    4.86    0.36
  -7  -7 -11    7.86    0.44
  -8  -7 -11    3.11    0.33
  -9  -7 -11    0.26    0.22
   3  -8 -11    1.73    0.29
   2  -8 -11    1.50    0.28
   1  -8 -11    8.43    0.47
   0  -8 -11    2.09    0.29
  -1  -8 -11   28.93    0.79
  -2  -8 -11    9.38    0.47
  -3  -8 -11    0.10    0.19
  -4  -8 -11    8.73    0.39
  -4  -8 -11    8.00    0.44
  -5  -8 -11   29.71    0.75
  -5  -8 -11   30.66    0.79
  -6  -8 -11    0.60    0.21
  -6  -8 -11    1.07    0.22
  -7  -8 -11    1.17    0.24
  -7  -8 -11    1.21    0.23
  -8  -8 -11   18.90    0.68
  -9  -8 -11    4.30    0.41
   2  -9 -11    0.48    0.23
   1  -9 -11   28.39    0.83
   0  -9 -11    1.03    0.24
  -1  -9 -11    0.28    0.21
  -2  -9 -11   13.89    0.56
  -3  -9 -11   16.43    0.60
  -4  -9 -11    0.01    0.19
  -5  -9 -11    1.51    0.26
  -6  -9 -11    6.21    0.43
  -6  -9 -11    6.66    0.41
  -7  -9 -11   -0.01    0.19
  -7  -9 -11    0.38    0.21
  -8  -9 -11    0.31    0.21
  -9  -9 -11    2.89    0.36
   2 -10 -11    2.01    0.31
   1 -10 -11    2.02    0.30
   0 -10 -11    0.37    0.21
  -1 -10 -11    0.31    0.22
  -2 -10 -11    1.08    0.25
  -3 -10 -11    3.01    0.34
  -4 -10 -11    5.56    0.41
  -5 -10 -11    0.84    0.24
  -6 -10 -11    0.10    0.20
  -7 -10 -11   21.34    0.72
  -8 -10 -11    1.28    0.27
  -8 -10 -11    1.13    0.28
  -9 -10 -11    0.26    0.37
   1 -11 -11    0.46    0.24
   0 -11 -11    0.85    0.26
  -1 -11 -11   12.81    0.58
  -2 -11 -11   14.26    0.60
  -3 -11 -11    0.23    0.22
  -4 -11 -11    2.91    0.34
  -5 -11 -11   30.77    0.87
  -6 -11 -11    3.87    0.38
  -7 -11 -11    0.56    0.25
  -8 -11 -11   16.37    0.67
  -9 -11 -11    0.07    0.24
   0 -12 -11    3.13    0.35
  -1 -12 -11    0.66    0.26
  -2 -12 -11    1.85    0.30
  -3 -12 -11   13.53    0.60
  -4 -12 -11    0.33    0.24
  -5 -12 -11    0.63    0.26
  -6 -12 -11    0.09    0.24
  -7 -12 -11   -0.16    0.23
  -8 -12 -11   19.03    0.76
  -1 -13 -11   -0.14    0.22
  -2 -13 -11   -0.01    0.21
  -3 -13 -11   -0.05    0.22
  -4 -13 -11    5.53    0.46
  -5 -13 -11    0.04    0.24
  -6 -13 -11    2.00    0.36
  -5   1 -12    6.51    0.45
   1   0 -12    6.77    0.46
   0   0 -12    2.99    0.32
  -1   0 -12    1.06    0.22
  -5   0 -12    1.62    0.28
  -6   0 -12    4.54    0.40
   3  -1 -12    2.29    0.32
   2  -1 -12    0.03    0.21
   1  -1 -12    3.40    0.34
   0  -1 -12    1.58    0.25
  -1  -1 -12    0.33    0.19
  -2  -1 -12    4.79    0.35
  -5  -1 -12    0.67    0.22
  -6  -1 -12    6.43    0.45
  -7  -1 -12    1.55    0.30
   4  -2 -12    3.97    0.40
   3  -2 -12   10.64    0.54
   2  -2 -12   -0.08    0.18
   1  -2 -12    0.87    0.24
   0  -2 -12    4.03    0.34
  -1  -2 -12   14.23    0.53
  -2  -2 -12    6.48    0.39
  -5  -2 -12   15.76    0.57
  -6  -2 -12   10.50    0.51
  -7  -2 -12    3.54    0.36
   4  -3 -12    0.60    0.24
   3  -3 -12    1.92    0.30
   2  -3 -12    2.00    0.28
   1  -3 -12   13.19    0.55
   0  -3 -12    5.75    0.41
  -1  -3 -12   -0.10    0.17
  -2  -3 -12    2.02    0.26
  -3  -3 -12   13.78    0.49
  -5  -3 -12    4.84    0.35
  -6  -3 -12   11.73    0.53
  -7  -3 -12    0.24    0.21
  -8  -3 -12    2.68    0.34
   4  -4 -12    0.93    0.26
   3  -4 -12    1.62    0.29
   2  -4 -12    0.23    0.21
   1  -4 -12    1.53    0.27
   0  -4 -12    0.25    0.19
  -1  -4 -12    1.87    0.27
  -2  -4 -12    0.26    0.18
  -3  -4 -12   12.75    0.50
  -4  -4 -12    0.45    0.18
  -5  -4 -12    1.92    0.25
  -6  -4 -12    0.37    0.19
  -7  -4 -12    2.68    0.31
  -8  -4 -12   32.06    0.91
   4  -5 -12    1.24    0.29
   3  -5 -12    9.32    0.52
   2  -5 -12    6.57    0.46
   1  -5 -12    0.68    0.23
   0  -5 -12    3.29    0.33
  -1  -5 -12   21.54    0.68
  -2  -5 -12    5.75    0.40
  -3  -5 -12    5.25    0.37
  -4  -5 -12    0.52    0.18
  -5  -5 -12   25.79    0.85
  -5  -5 -12   24.87    0.69
  -6  -5 -12   29.41    0.80
  -7  -5 -12   11.30    0.53
  -8  -5 -12   21.32    0.74
   4  -6 -12    4.73    0.42
   3  -6 -12    1.40    0.28
   2  -6 -12    1.85    0.30
   1  -6 -12    7.93    0.48
   0  -6 -12    6.42    0.43
  -1  -6 -12    6.07    0.42
  -2  -6 -12    2.52    0.28
  -3  -6 -12   18.58    0.62
  -4  -6 -12    0.80    0.22
  -5  -6 -12    5.49    0.38
  -5  -6 -12    5.77    0.36
  -6  -6 -12   12.71    0.52
  -7  -6 -12    1.35    0.25
  -8  -6 -12    4.39    0.40
   4  -7 -12   -0.10    0.21
   3  -7 -12    0.08    0.22
   2  -7 -12    3.37    0.37
   1  -7 -12    0.12    0.21
   0  -7 -12    6.07    0.44
  -1  -7 -12    6.25    0.43
  -2  -7 -12    0.25    0.20
  -3  -7 -12    6.14    0.41
  -4  -7 -12    0.44    0.19
  -5  -7 -12   19.83    0.62
  -5  -7 -12   20.06    0.64
  -6  -7 -12   16.24    0.58
  -6  -7 -12   17.03    0.59
  -7  -7 -12    8.77    0.47
  -8  -7 -12   23.30    0.77
  -9  -7 -12   10.99    0.65
   3  -8 -12    2.53    0.34
   2  -8 -12    8.95    0.51
   1  -8 -12    0.41    0.23
   0  -8 -12    8.02    0.48
  -1  -8 -12    4.06    0.38
  -2  -8 -12   14.75    0.58
  -3  -8 -12   23.63    0.73
  -4  -8 -12   13.76    0.56
  -5  -8 -12   51.60    1.08
  -5  -8 -12   51.03    1.12
  -6  -8 -12    9.61    0.48
  -6  -8 -12    9.58    0.49
  -7  -8 -12    0.15    0.20
  -8  -8 -12   17.35    0.67
  -9  -8 -12    1.38    0.46
   3  -9 -12    3.05    0.36
   2  -9 -12    5.41    0.44
   1  -9 -12    0.84    0.25
   0  -9 -12   24.40    0.78
  -1  -9 -12    6.42    0.45
  -2  -9 -12    1.26    0.27
  -3  -9 -12   36.37    0.94
  -4  -9 -12    0.32    0.21
  -5  -9 -12    0.93    0.25
  -5  -9 -12    1.13    0.22
  -6  -9 -12    4.54    0.38
  -6  -9 -12    4.74    0.39
  -7  -9 -12    8.63    0.50
  -7  -9 -12    8.23    0.48
  -8  -9 -12   28.15    0.86
   2 -10 -12    8.44    0.54
   1 -10 -12    0.31    0.23
   0 -10 -12    5.53    0.43
  -1 -10 -12    7.25    0.48
  -2 -10 -12    6.05    0.45
  -3 -10 -12    5.79    0.44
  -4 -10 -12    7.36    0.49
  -5 -10 -12   25.44    0.78
  -6 -10 -12   17.08    0.62
  -6 -10 -12   18.66    0.67
  -7 -10 -12   26.71    0.82
  -7 -10 -12   27.70    0.83
  -8 -10 -12    5.61    0.44
  -8 -10 -12    5.85    0.46
   1 -11 -12    1.64    0.31
   0 -11 -12   10.29    0.57
  -1 -11 -12    7.60    0.51
  -2 -11 -12   42.52    1.07
  -3 -11 -12    4.84    0.41
  -4 -11 -12    2.94    0.35
  -5 -11 -12   29.59    0.87
  -6 -11 -12    0.19    0.23
  -7 -11 -12    5.71    0.45
  -7 -11 -12    5.94    0.45
  -8 -11 -12   13.81    0.64
  -8 -11 -12   13.66    0.81
   0 -12 -12   20.71    0.81
  -1 -12 -12    0.79    0.27
  -2 -12 -12    0.73    0.25
  -3 -12 -12   19.21    0.72
  -4 -12 -12    2.14    0.32
  -5 -12 -12   13.98    0.63
  -6 -12 -12   -0.32    0.22
  -7 -12 -12    6.87    0.53
  -1   0 -13    9.34    0.55
   2  -1 -13    0.17    0.23
   1  -1 -13    7.81    0.51
   0  -1 -13   15.31    0.60
  -1  -1 -13    1.28    0.25
  -6  -1 -13   -0.17    0.20
   2  -2 -13   21.13    0.74
   1  -2 -13    3.30    0.35
   0  -2 -13    2.33    0.30
  -1  -2 -13   12.35    0.52
  -2  -2 -13    0.04    0.18
  -6  -2 -13   46.71    1.11
   3  -3 -13    0.79    0.28
   2  -3 -13    8.93    0.52
   1  -3 -13    1.39    0.28
   0  -3 -13    0.77    0.24
  -1  -3 -13   37.12    0.93
  -2  -3 -13   13.78    0.56
  -3  -3 -13    7.25    0.43
  -6  -3 -13   21.68    0.72
  -7  -3 -13    1.52    0.29
   3  -4 -13    3.77    0.40
   2  -4 -13    6.34    0.47
   1  -4 -13    8.92    0.51
   0  -4 -13   30.82    0.87
  -1  -4 -13   13.14    0.56
  -2  -4 -13    0.20    0.19
  -3  -4 -13    3.00    0.31
  -6  -4 -13    2.75    0.31
  -7  -4 -13    0.68    0.24
   3  -5 -13    3.14    0.38
   2  -5 -13   16.31    0.67
   1  -5 -13    1.19    0.28
   0  -5 -13   20.63    0.70
  -1  -5 -13    2.03    0.30
  -2  -5 -13    0.26    0.21
  -3  -5 -13   47.20    1.06
  -4  -5 -13    9.64    0.46
  -6  -5 -13   39.16    0.95
  -7  -5 -13    2.55    0.32
  -8  -5 -13   25.84    0.85
   3  -6 -13    0.07    0.27
   2  -6 -13   23.83    0.80
   1  -6 -13    3.04    0.35
   0  -6 -13   15.90    0.63
  -1  -6 -13   41.09    1.02
  -2  -6 -13   16.11    0.61
  -3  -6 -13   17.74    0.64
  -4  -6 -13    0.36    0.21
  -5  -6 -13    0.14    0.18
  -6  -6 -13   18.30    0.64
  -7  -6 -13   13.59    0.60
  -8  -6 -13    7.77    0.52
   2  -7 -13   16.57    0.70
   1  -7 -13    0.28    0.23
   0  -7 -13    9.28    0.53
  -1  -7 -13   10.17    0.53
  -2  -7 -13    7.34    0.47
  -3  -7 -13    0.81    0.24
  -4  -7 -13    2.57    0.31
  -5  -7 -13   45.50    1.04
  -6  -7 -13   12.99    0.54
  -7  -7 -13    1.39    0.26
  -8  -7 -13   13.03    0.60
   2  -8 -13    1.31    0.30
   1  -8 -13    2.35    0.33
   0  -8 -13   33.22    0.93
  -1  -8 -13    3.46    0.37
  -2  -8 -13    7.10    0.47
  -3  -8 -13   42.68    1.04
  -4  -8 -13   14.64    0.60
  -5  -8 -13   25.01    0.78
  -6  -8 -13    3.55    0.36
  -6  -8 -13    2.88    0.31
  -7  -8 -13    2.92    0.32
  -8  -8 -13   19.78    0.73
   1  -9 -13    9.99    0.56
   0  -9 -13   20.56    0.75
  -1  -9 -13    9.98    0.54
  -2  -9 -13    1.15    0.28
  -3  -9 -13   28.04    0.84
  -4  -9 -13    2.30    0.32
  -5  -9 -13    8.30    0.50
  -6  -9 -13   15.74    0.63
  -6  -9 -13   14.74    0.59
  -7  -9 -13    7.92    0.48
  -7  -9 -13    9.65    0.54
  -8  -9 -13   11.20    0.57
   1 -10 -13    1.18    0.37
   0 -10 -13    0.35    0.25
  -1 -10 -13   10.44    0.59
  -2 -10 -13   22.65    0.78
  -3 -10 -13   17.87    0.71
  -4 -10 -13   -0.03    0.22
  -5 -10 -13   18.97    0.72
  -6 -10 -13    7.23    0.51
  -6 -10 -13    6.95    0.46
  -7 -10 -13    5.91    0.44
  -7 -10 -13    6.73    0.50
  -1 -11 -13    9.41    0.55
  -2 -11 -13   19.65    0.75
  -3 -11 -13    8.47    0.53
  -4 -11 -13    0.30    0.24
  -5 -11 -13   17.84    0.70
  -6 -11 -13    0.14    0.23
  -6 -11 -13    0.04    0.22
  -7 -11 -13    8.70    0.54
  -7 -11 -13    8.75    0.52
  -3 -12 -13   19.88    1.13
  -4 -12 -13    6.47    0.56
  -5 -12 -13   13.89    1.08
   0  -1 -14   12.40    0.60
  -1  -1 -14    0.33    0.22
   1  -2 -14    2.68    0.40
   0  -2 -14    7.00    0.47
  -1  -2 -14    4.30    0.38
  -2  -2 -14    9.14    0.59
   1  -3 -14   -0.19    0.20
   0  -3 -14    0.07    0.21
  -1  -3 -14   39.05    1.00
  -2  -3 -14    5.19    0.41
   1  -4 -14   11.51    0.58
   0  -4 -14   14.54    0.64
  -1  -4 -14   12.50    0.58
  -2  -4 -14    1.59    0.29
  -3  -4 -14    0.95    0.25
  -7  -4 -14    2.12    0.46
   1  -5 -14    3.47    0.39
   0  -5 -14   32.02    0.94
  -1  -5 -14    0.20    0.22
  -2  -5 -14    0.58    0.24
  -3  -5 -14   30.56    0.84
  -4  -5 -14   -0.01    0.20
  -7  -5 -14    0.01    0.21
   1  -6 -14    3.87    0.41
   0  -6 -14    2.65    0.35
  -1  -6 -14   23.73    0.78
  -2  -6 -14    0.79    0.26
  -3  -6 -14   16.59    0.64
  -4  -6 -14   -0.13    0.19
  -7  -6 -14    2.03    0.30
   1  -7 -14    0.65    0.30
   0  -7 -14    0.11    0.24
  -1  -7 -14    9.76    0.55
  -2  -7 -14    9.70    0.53
  -3  -7 -14    0.38    0.22
  -4  -7 -14    5.16    0.43
  -5  -7 -14   10.76    0.52
  -7  -7 -14    0.72    0.25
   0  -8 -14   21.30    0.79
  -1  -8 -14    0.95    0.28
  -2  -8 -14    0.09    0.23
  -3  -8 -14   10.24    0.55
  -4  -8 -14   -0.18    0.21
  -5  -8 -14   12.30    0.57
  -6  -8 -14    0.44    0.23
  -7  -8 -14    2.36    0.31
  -1  -9 -14    3.50    0.40
  -2  -9 -14    3.30    0.38
  -3  -9 -14   21.17    0.75
  -4  -9 -14    1.29    0.29
  -5  -9 -14    3.98    0.40
  -6  -9 -14    9.45    0.53
  -7  -9 -14    1.10    0.25
  -2 -10 -14    4.61    0.43
  -3 -10 -14    4.14    0.41
  -4 -10 -14    1.41    0.30
  -5 -10 -14    0.22    0.24
  -6 -10 -14    0.02    0.21
  -7 -10 -14    0.95    0.26
  -7 -10 -14    1.55    0.34
  -2  -3 -15    1.57    0.29
  -1  -4 -15    1.37    0.31
  -2  -4 -15    0.91    0.26
  -1  -5 -15    1.70    0.33
  -2  -5 -15    0.04    0.22
  -3  -5 -15    0.78    0.26
  -1  -6 -15    3.91    0.54
  -2  -6 -15   11.26    0.58
  -3  -6 -15    1.82    0.31
  -4  -6 -15    2.87    0.34
  -2  -7 -15    1.69    0.32
  -3  -7 -15   -0.11    0.22
  -4  -7 -15    0.24    0.23
  -5  -7 -15    2.51    0.48
  -2  -8 -15    1.54    0.52
  -3  -8 -15   -0.11    0.21
  -4  -8 -15   11.57    0.61
  -5  -8 -15    0.31    0.23
  -4  -9 -15   10.65    0.94
  -5  -9 -15    0.33    0.39
   0   0   0    0.00    0.00
;
_shelx_hkl_checksum              21021
_shelx_res_file
;
    1.res created by SHELXL-2014/7
TITL 1 in P1                     New: P-1
CELL  0.71073    8.0650   10.2930   10.8370    64.090    75.186    71.141
ZERR 1           0.0030    0.0040    0.0040     0.005     0.005     0.005
LATT   1
SFAC  C   2.31000  20.84392   1.02000  10.20751   1.58860   0.56870   0.86500 =
         51.65125   0.21560   0.00330   0.00160    11.500   0.68000  12.01000
SFAC  H   0.49300  10.51091   0.32291  26.12573   0.14019   3.14236   0.04081 =
         57.79977   0.00304   0.00000   0.00000     0.624   0.35000   1.00800
SFAC Cu  13.33801   3.58280   7.16761   0.24700   5.61581  11.39661   1.67350 =
         64.81267   1.19100   0.32010   1.26510  5180.000   1.52000  63.55000
SFAC Mo   3.70250   0.27720  17.23563   1.09580  12.88761  11.00401   3.74290 =
         61.65846   4.38750  -1.68320   0.68570  3000.000   1.47000  95.94000
SFAC  N  12.21261   0.00570   3.13220   9.89331   2.01250  28.99754   1.16630 =
          0.58260 -11.52901   0.00610   0.00330    19.600   0.68000  14.01000
SFAC  O   3.04850  13.27711   2.28680   5.70111   1.54630   0.32390   0.86700 =
         32.90894   0.25080   0.01060   0.00600    32.500   0.68000  16.00000
SFAC  P   6.43451   1.90670   4.17910  27.15704   1.78000   0.52600   1.49080 =
         68.16457   1.11490   0.10230   0.09420   410.000   1.05000  30.97000
UNIT    12    16   2   6   8  22   0
TEMP    23
size 0.089 0.074 0.062
dfix 0.85 0.01 o1w h1wa o1w h1wb
omit -3 50
L.S. 5
FMAP 2
PLAN 20
ACTA
conf
BOND $H
htab
eqiv $1 -x+2, -y, -z+1
eqiv $2 -x+2, -y, -z
eqiv $3 x-1, y, z
htab n3 o9_$1
htab n4 o8_$1
htab n4 o6_$1
htab o1w o4_$2
htab o1w o7_$3
WGHT    0.018200    0.892500
EXTI    0.000890
FVAR       0.09443
MO1   4    0.983966    0.337189    0.031770    11.00000    0.00964    0.00824 =
         0.01472   -0.00442   -0.00385   -0.00114
MO2   4    0.605521    0.616151   -0.145978    11.00000    0.01055    0.00962 =
         0.01067   -0.00288   -0.00322   -0.00216
MO3   4    1.365207    0.351134   -0.136943    11.00000    0.01202    0.01383 =
         0.01426   -0.00763   -0.00265   -0.00256
CU1   3    0.749093    0.039492    0.260780    11.00000    0.02048    0.01212 =
         0.01554   -0.00461   -0.00799    0.00063
O1    6    0.807247    0.388387   -0.056397    11.00000    0.01344    0.01480 =
         0.01902   -0.00797   -0.00504   -0.00108
O2    6    0.460378    0.467348   -0.084459    11.00000    0.01203    0.01515 =
         0.01244   -0.00443   -0.00358   -0.00384
O3    6    0.430407    0.774481   -0.187341    11.00000    0.01611    0.01500 =
         0.01885   -0.00504   -0.00621   -0.00142
O4    6    1.170361    0.261147   -0.093727    11.00000    0.01478    0.01543 =
         0.02340   -0.01313   -0.00294   -0.00266
O5    6    0.705321    0.609349   -0.302294    11.00000    0.02131    0.02190 =
         0.01720   -0.00760   -0.00087   -0.00528
O6    6    1.250685    0.313846    0.093051    11.00000    0.01325    0.01252 =
         0.01665   -0.00568   -0.00486   -0.00166
O7    6    1.534054    0.192039   -0.102675    11.00000    0.01992    0.02083 =
         0.02833   -0.01420   -0.00680    0.00085
O8    6    0.966424    0.169440    0.169294    11.00000    0.01857    0.01112 =
         0.02190   -0.00094   -0.00819   -0.00460
O9    6    0.903548    0.471248    0.119741    11.00000    0.01305    0.01218 =
         0.01709   -0.00647   -0.00295   -0.00282
O10   6    1.387000    0.437326   -0.312323    11.00000    0.02690    0.03490 =
         0.01680   -0.00834   -0.00436   -0.00904
N1    5    0.916568   -0.154181    0.360076    11.00000    0.02393    0.01687 =
         0.02234   -0.00596   -0.00731   -0.00088
N2    5    0.700725    0.054870    0.441943    11.00000    0.02280    0.01964 =
         0.01633   -0.00466   -0.00737   -0.00034
N3    5    1.042218   -0.295046    0.549914    11.00000    0.02620    0.02063 =
         0.02504   -0.00305   -0.01485    0.00091
AFIX  43
H3B   2    1.067376   -0.326807    0.632286    11.00000   -1.20000
AFIX   0
N4    5    0.770272   -0.034076    0.652020    11.00000    0.03199    0.03057 =
         0.01489   -0.00533   -0.01010   -0.00019
AFIX  43
H4B   2    0.820873   -0.091346    0.724854    11.00000   -1.20000
AFIX   0
C1    1    0.921253   -0.171064    0.488782    11.00000    0.02013    0.01377 =
         0.01882    0.00029   -0.00688   -0.00355
C2    1    0.802543   -0.055321    0.534078    11.00000    0.02018    0.01720 =
         0.01609   -0.00173   -0.00396   -0.00655
C3    1    1.040737   -0.274491    0.339439    11.00000    0.03331    0.02108 =
         0.03402   -0.01511   -0.00868    0.00264
AFIX  43
H3A   2    1.066954   -0.292822    0.258948    11.00000   -1.20000
AFIX   0
C4    1    1.118277   -0.361698    0.456579    11.00000    0.02906    0.02157 =
         0.04071   -0.01228   -0.01570    0.00664
AFIX  43
H4A   2    1.206080   -0.449695    0.470693    11.00000   -1.20000
AFIX   0
C5    1    0.599628    0.151189    0.505766    11.00000    0.02783    0.02186 =
         0.02315   -0.00950   -0.00834    0.00491
AFIX  43
H5A   2    0.516870    0.239054    0.466105    11.00000   -1.20000
AFIX   0
C6    1    0.641205    0.096250    0.635705    11.00000    0.03436    0.03428 =
         0.02476   -0.01805   -0.00407   -0.00091
AFIX  43
H6A   2    0.592031    0.138445    0.701264    11.00000   -1.20000
AFIX   0
O1W   6    0.769759    0.008602    0.092343    11.00000    0.04311    0.01674 =
         0.02996   -0.01449   -0.01965    0.00697
H1WA  2    0.794560   -0.075927    0.087916    11.00000    0.03075
H1WB  2    0.689484    0.065709    0.041928    11.00000    0.03390
HKLF 4
REM  1 in P1                     New: P-1
REM R1 =  0.0180 for    2409 Fo > 4sig(Fo)  and  0.0215 for all    2639 data
REM    235 parameters refined using      2 restraints
END
WGHT      0.0182      0.8672
REM Instructions for potential hydrogen bonds
HTAB N3 O9_$1
HTAB N4 O6_$1
HTAB N4 O8_$1
HTAB C3 O1_$2
EQIV $4 -x+1, -y+1, -z
HTAB C5 O5_$4
EQIV $5 x-1, y, z+1
HTAB C6 O7_$5
HTAB O1W O4_$2
HTAB O1W O7_$3
REM Highest difference peak  0.357,  deepest hole -0.486,  1-sigma level  0.092
Q1    1   0.9146  0.5571  0.0622  11.00000  0.05    0.36
Q2    1   0.4339  0.8331 -0.1634  11.00000  0.05    0.35
Q3    1   0.4007  0.4800 -0.0242  11.00000  0.05    0.34
Q4    1   0.8029  0.3968 -0.1163  11.00000  0.05    0.33
Q5    1   0.4163  0.4219 -0.1026  11.00000  0.05    0.32
Q6    1   0.7409 -0.0406  0.1979  11.00000  0.05    0.32
Q7    1   0.7744  0.0169  0.4752  11.00000  0.05    0.32
Q8    1   0.9693 -0.1561  0.3851  11.00000  0.05    0.32
Q9    1   0.5373  0.7784 -0.2178  11.00000  0.05    0.32
Q10   1   0.4511  0.5564 -0.1152  11.00000  0.05    0.32
Q11   1   1.0673 -0.4761  0.4617  11.00000  0.05    0.31
Q12   1   0.9576  0.2677  0.1648  11.00000  0.05    0.30
Q13   1   1.0791  0.2987 -0.0420  11.00000  0.05    0.30
Q14   1   0.9568  0.4218  0.0791  11.00000  0.05    0.30
Q15   1   0.6566  0.1048  0.4654  11.00000  0.05    0.29
Q16   1   0.5733  0.1818  0.7429  11.00000  0.05    0.29
Q17   1   1.5018  0.1973 -0.0357  11.00000  0.05    0.29
Q18   1   1.3697  0.3592 -0.2689  11.00000  0.05    0.29
Q19   1   0.7201 -0.0030  0.3793  11.00000  0.05    0.29
Q20   1   0.9503 -0.2064  0.3320  11.00000  0.05    0.29
;
_shelx_res_checksum              46806
loop_
_space_group_symop_operation_xyz
'x, y, z'
'-x, -y, -z'
loop_
_atom_site_type_symbol
_atom_site_label
_atom_site_fract_x
_atom_site_fract_y
_atom_site_fract_z
_atom_site_U_iso_or_equiv
_atom_site_adp_type
_atom_site_calc_flag
_atom_site_occupancy
Mo Mo1 0.98397(3) 0.33719(3) 0.03177(3) 0.01070(8) Uani d 1
Mo Mo2 0.60552(3) 0.61615(3) -0.14598(3) 0.01038(8) Uani d 1
Mo Mo3 1.36521(3) 0.35113(3) -0.13694(3) 0.01252(8) Uani d 1
Cu Cu1 0.74909(5) 0.03949(4) 0.26078(4) 0.01640(10) Uani d 1
O O1 0.8072(3) 0.3884(2) -0.0564(2) 0.0153(5) Uani d 1
O O2 0.4604(3) 0.4673(2) -0.0845(2) 0.0130(5) Uani d 1
O O3 0.4304(3) 0.7745(2) -0.1873(2) 0.0171(5) Uani d 1
O O4 1.1704(3) 0.2611(2) -0.0937(2) 0.0160(5) Uani d 1
O O5 0.7053(3) 0.6093(3) -0.3023(2) 0.0205(5) Uani d 1
O O6 1.2507(3) 0.3138(2) 0.0931(2) 0.0139(5) Uani d 1
O O7 1.5341(3) 0.1920(3) -0.1027(2) 0.0221(5) Uani d 1
O O8 0.9664(3) 0.1694(2) 0.1693(2) 0.0179(5) Uani d 1
O O9 0.9035(3) 0.4712(2) 0.1197(2) 0.0137(5) Uani d 1
O O10 1.3870(3) 0.4373(3) -0.3123(2) 0.0261(6) Uani d 1
N N1 0.9166(4) -0.1542(3) 0.3601(3) 0.0219(6) Uani d 1
N N2 0.7007(4) 0.0549(3) 0.4419(3) 0.0208(6) Uani d 1
N N3 1.0422(4) -0.2950(3) 0.5499(3) 0.0255(7) Uani d 1
H H3B 1.0674 -0.3268 0.6323 0.031 Uiso calc 1
N N4 0.7703(4) -0.0341(4) 0.6520(3) 0.0277(7) Uani d 1
H H4B 0.8209 -0.0913 0.7249 0.033 Uiso calc 1
C C1 0.9213(4) -0.1711(4) 0.4888(3) 0.0193(7) Uani d 1
C C2 0.8025(4) -0.0553(4) 0.5341(3) 0.0188(7) Uani d 1
C C3 1.0407(5) -0.2745(4) 0.3394(4) 0.0294(9) Uani d 1
H H3A 1.0670 -0.2928 0.2589 0.035 Uiso calc 1
C C4 1.1183(5) -0.3617(4) 0.4566(4) 0.0315(9) Uani d 1
H H4A 1.2061 -0.4497 0.4707 0.038 Uiso calc 1
C C5 0.5996(5) 0.1512(4) 0.5058(4) 0.0259(8) Uani d 1
H H5A 0.5169 0.2391 0.4661 0.031 Uiso calc 1
C C6 0.6412(5) 0.0962(4) 0.6357(4) 0.0306(9) Uani d 1
H H6A 0.5920 0.1384 0.7013 0.037 Uiso calc 1
O O1W 0.7698(4) 0.0086(3) 0.0923(3) 0.0286(6) Uani d 1
H H1WA 0.795(5) -0.076(2) 0.088(4) 0.031(11) Uiso d 1
H H1WB 0.689(4) 0.066(4) 0.042(4) 0.034(12) Uiso d 1
loop_
_atom_site_aniso_label
_atom_site_aniso_U_11
_atom_site_aniso_U_22
_atom_site_aniso_U_33
_atom_site_aniso_U_12
_atom_site_aniso_U_13
_atom_site_aniso_U_23
Mo1 0.00964(14) 0.00824(14) 0.01472(15) -0.00114(10) -0.00385(10) -0.00442(11)
Mo2 0.01055(14) 0.00962(14) 0.01067(14) -0.00216(10) -0.00322(10) -0.00288(11)
Mo3 0.01202(14) 0.01383(15) 0.01426(15) -0.00256(11) -0.00265(11) -0.00763(12)
Cu1 0.0205(2) 0.0121(2) 0.0155(2) 0.00063(17) -0.00799(17) -0.00461(17)
O1 0.0134(11) 0.0148(11) 0.0190(12) -0.0011(9) -0.0050(9) -0.0080(10)
O2 0.0120(11) 0.0151(11) 0.0124(11) -0.0038(9) -0.0036(9) -0.0044(10)
O3 0.0161(12) 0.0150(12) 0.0188(12) -0.0014(10) -0.0062(9) -0.0050(10)
O4 0.0148(11) 0.0154(12) 0.0234(12) -0.0027(9) -0.0029(9) -0.0131(10)
O5 0.0213(12) 0.0219(13) 0.0172(12) -0.0053(10) -0.0009(10) -0.0076(11)
O6 0.0132(11) 0.0125(11) 0.0166(12) -0.0017(9) -0.0049(9) -0.0057(9)
O7 0.0199(13) 0.0208(13) 0.0283(14) 0.0009(10) -0.0068(10) -0.0142(11)
O8 0.0186(12) 0.0111(11) 0.0219(12) -0.0046(9) -0.0082(10) -0.0009(10)
O9 0.0130(11) 0.0122(11) 0.0171(12) -0.0028(9) -0.0030(9) -0.0065(10)
O10 0.0269(14) 0.0349(15) 0.0168(12) -0.0090(12) -0.0044(10) -0.0083(11)
N1 0.0239(15) 0.0169(15) 0.0223(16) -0.0009(13) -0.0073(13) -0.0060(13)
N2 0.0228(15) 0.0196(15) 0.0163(15) -0.0003(12) -0.0074(12) -0.0047(13)
N3 0.0262(16) 0.0206(16) 0.0250(17) 0.0009(13) -0.0148(13) -0.0031(14)
N4 0.0320(17) 0.0306(18) 0.0149(15) -0.0002(14) -0.0101(13) -0.0053(14)
C1 0.0201(17) 0.0138(17) 0.0188(18) -0.0036(14) -0.0069(14) 0.0003(14)
C2 0.0202(17) 0.0172(17) 0.0161(17) -0.0065(14) -0.0040(14) -0.0017(14)
C3 0.033(2) 0.021(2) 0.034(2) 0.0026(17) -0.0087(17) -0.0151(18)
C4 0.029(2) 0.022(2) 0.041(2) 0.0066(16) -0.0157(18) -0.0123(19)
C5 0.028(2) 0.0219(19) 0.0231(19) 0.0049(16) -0.0083(16) -0.0095(16)
C6 0.034(2) 0.034(2) 0.025(2) -0.0009(18) -0.0041(17) -0.0181(18)
O1W 0.0431(17) 0.0167(14) 0.0300(15) 0.0070(12) -0.0196(13) -0.0145(12)
loop_
_atom_type_symbol
_atom_type_description
_atom_type_scat_dispersion_real
_atom_type_scat_dispersion_imag
_atom_type_scat_source
C C 0.0033 0.0016 'International Tables Vol C Tables 4.2.6.8 and 6.1.1.4'
H H 0.0000 0.0000 'International Tables Vol C Tables 4.2.6.8 and 6.1.1.4'
Cu Cu 0.3201 1.2651 'International Tables Vol C Tables 4.2.6.8 and 6.1.1.4'
Mo Mo -1.6832 0.6857 'International Tables Vol C Tables 4.2.6.8 and 6.1.1.4'
N N 0.0061 0.0033 'International Tables Vol C Tables 4.2.6.8 and 6.1.1.4'
O O 0.0106 0.0060 'International Tables Vol C Tables 4.2.6.8 and 6.1.1.4'
P P 0.1023 0.0942 'International Tables Vol C Tables 4.2.6.8 and 6.1.1.4'
loop_
_geom_angle_atom_site_label_1
_geom_angle_atom_site_label_2
_geom_angle_atom_site_label_3
_geom_angle_site_symmetry_1
_geom_angle_site_symmetry_3
_geom_angle
O1 Mo1 O8 . . 105.53(10)
O1 Mo1 O9 . . 99.82(10)
O8 Mo1 O9 . . 101.97(11)
O1 Mo1 O4 . . 98.42(10)
O8 Mo1 O4 . . 99.33(10)
O9 Mo1 O4 . . 146.97(9)
O1 Mo1 O9 . 2_765 93.92(9)
O8 Mo1 O9 . 2_765 160.21(9)
O9 Mo1 O9 . 2_765 77.76(10)
O4 Mo1 O9 . 2_765 73.73(9)
O1 Mo1 O6 . . 164.31(9)
O8 Mo1 O6 . . 89.31(9)
O9 Mo1 O6 . . 81.63(8)
O4 Mo1 O6 . . 73.66(8)
O9 Mo1 O6 2_765 . 71.01(8)
O1 Mo1 Mo3 . . 119.19(8)
O8 Mo1 Mo3 . . 116.11(8)
O9 Mo1 Mo3 . . 111.74(7)
O4 Mo1 Mo3 . . 35.38(6)
O9 Mo1 Mo3 2_765 . 48.38(5)
O6 Mo1 Mo3 . . 47.29(6)
O1 Mo1 Mo1 . 2_765 98.47(7)
O8 Mo1 Mo1 . 2_765 141.00(8)
O9 Mo1 Mo1 . 2_765 42.95(7)
O4 Mo1 Mo1 . 2_765 107.11(7)
O9 Mo1 Mo1 2_765 2_765 34.80(6)
O6 Mo1 Mo1 . 2_765 71.83(5)
Mo3 Mo1 Mo1 . 2_765 75.714(13)
O5 Mo2 O3 . . 103.81(11)
O5 Mo2 O6 . 2_765 105.88(11)
O3 Mo2 O6 . 2_765 99.09(10)
O5 Mo2 O2 . . 99.76(10)
O3 Mo2 O2 . . 96.41(10)
O6 Mo2 O2 2_765 . 145.72(9)
O5 Mo2 O2 . 2_665 157.22(10)
O3 Mo2 O2 . 2_665 98.12(9)
O6 Mo2 O2 2_765 2_665 76.26(9)
O2 Mo2 O2 . 2_665 71.39(9)
O5 Mo2 O1 . . 84.46(10)
O3 Mo2 O1 . . 170.22(9)
O6 Mo2 O1 2_765 . 83.37(9)
O2 Mo2 O1 . . 76.79(8)
O2 Mo2 O1 2_665 . 73.17(8)
O5 Mo2 Mo3 . 2_765 147.98(8)
O3 Mo2 Mo3 . 2_765 92.04(7)
O6 Mo2 Mo3 2_765 2_765 43.33(7)
O2 Mo2 Mo3 . 2_765 105.98(6)
O2 Mo2 Mo3 2_665 2_765 34.67(6)
O1 Mo2 Mo3 . 2_765 83.25(6)
O10 Mo3 O7 . . 105.13(12)
O10 Mo3 O4 . . 103.31(11)
O7 Mo3 O4 . . 98.59(11)
O10 Mo3 O2 . 1_655 102.58(11)
O7 Mo3 O2 . 1_655 99.05(10)
O4 Mo3 O2 . 1_655 143.45(9)
O10 Mo3 O6 . . 158.41(10)
O7 Mo3 O6 . . 96.44(10)
O4 Mo3 O6 . . 73.93(8)
O2 Mo3 O6 1_655 . 72.48(8)
O10 Mo3 O9 . 2_765 90.22(10)
O7 Mo3 O9 . 2_765 163.34(10)
O4 Mo3 O9 . 2_765 71.06(9)
O2 Mo3 O9 1_655 2_765 83.52(8)
O6 Mo3 O9 . 2_765 68.49(7)
O10 Mo3 Mo1 . . 119.29(8)
O7 Mo3 Mo1 . . 119.71(9)
O4 Mo3 Mo1 . . 36.00(6)
O2 Mo3 Mo1 1_655 . 107.91(7)
O6 Mo3 Mo1 . . 47.03(5)
O9 Mo3 Mo1 2_765 . 44.76(6)
O10 Mo3 Mo2 . 2_765 142.83(9)
O7 Mo3 Mo2 . 2_765 91.19(8)
O4 Mo3 Mo2 . 2_765 107.00(7)
O2 Mo3 Mo2 1_655 2_765 41.02(6)
O6 Mo3 Mo2 . 2_765 33.08(5)
O9 Mo3 Mo2 2_765 2_765 79.92(5)
Mo1 Mo3 Mo2 . 2_765 77.48(2)
O1W Cu1 O3 . 2_665 88.80(10)
O1W Cu1 N2 . . 171.61(13)
O3 Cu1 N2 2_665 . 91.04(10)
O1W Cu1 N1 . . 97.25(11)
O3 Cu1 N1 2_665 . 172.79(11)
N2 Cu1 N1 . . 82.40(12)
O1W Cu1 O8 . . 92.83(11)
O3 Cu1 O8 2_665 . 90.16(9)
N2 Cu1 O8 . . 95.57(11)
N1 Cu1 O8 . . 93.43(11)
Mo1 O1 Mo2 . . 131.51(11)
Mo3 O2 Mo2 1_455 . 146.84(12)
Mo3 O2 Mo2 1_455 2_665 104.30(9)
Mo2 O2 Mo2 . 2_665 108.61(9)
Mo2 O3 Cu1 . 2_665 171.89(14)
Mo3 O4 Mo1 . . 108.63(10)
Mo2 O6 Mo1 2_765 . 151.38(11)
Mo2 O6 Mo3 2_765 . 103.60(10)
Mo1 O6 Mo3 . . 85.69(7)
Mo1 O8 Cu1 . . 133.36(11)
Mo1 O9 Mo1 . 2_765 102.24(10)
Mo1 O9 Mo3 . 2_765 133.99(10)
Mo1 O9 Mo3 2_765 2_765 86.86(8)
C1 N1 C3 . . 106.1(3)
C1 N1 Cu1 . . 111.6(2)
C3 N1 Cu1 . . 142.1(3)
C2 N2 C5 . . 106.2(3)
C2 N2 Cu1 . . 113.6(2)
C5 N2 Cu1 . . 140.0(2)
C1 N3 C4 . . 107.4(3)
C1 N3 H3B . . 126.3
C4 N3 H3B . . 126.3
C2 N4 C6 . . 107.6(3)
C2 N4 H4B . . 126.2
C6 N4 H4B . . 126.2
N1 C1 N3 . . 110.8(3)
N1 C1 C2 . . 116.3(3)
N3 C1 C2 . . 132.8(3)
N2 C2 N4 . . 110.7(3)
N2 C2 C1 . . 115.8(3)
N4 C2 C1 . . 133.5(3)
C4 C3 N1 . . 108.7(3)
C4 C3 H3A . . 125.7
N1 C3 H3A . . 125.7
C3 C4 N3 . . 107.0(3)
C3 C4 H4A . . 126.5
N3 C4 H4A . . 126.5
C6 C5 N2 . . 108.7(3)
C6 C5 H5A . . 125.7
N2 C5 H5A . . 125.7
C5 C6 N4 . . 106.9(3)
C5 C6 H6A . . 126.6
N4 C6 H6A . . 126.6
Cu1 O1W H1WA . . 125(3)
Cu1 O1W H1WB . . 115(3)
H1WA O1W H1WB . . 108(4)
loop_
_geom_bond_atom_site_label_1
_geom_bond_atom_site_label_2
_geom_bond_site_symmetry_2
_geom_bond_distance
Mo1 O1 . 1.730(2)
Mo1 O8 . 1.739(2)
Mo1 O9 . 1.868(2)
Mo1 O4 . 1.961(2)
Mo1 O9 2_765 2.230(2)
Mo1 O6 . 2.320(2)
Mo1 Mo3 . 3.1621(11)
Mo1 Mo1 2_765 3.1980(14)
Mo2 O5 . 1.701(2)
Mo2 O3 . 1.746(2)
Mo2 O6 2_765 1.853(2)
Mo2 O2 . 2.007(2)
Mo2 O2 2_665 2.236(2)
Mo2 O1 . 2.332(2)
Mo2 Mo3 2_765 3.3005(12)
Mo3 O10 . 1.699(2)
Mo3 O7 . 1.720(2)
Mo3 O4 . 1.932(2)
Mo3 O2 1_655 1.938(2)
Mo3 O6 . 2.330(2)
Mo3 O9 2_765 2.367(2)
Mo3 Mo2 2_765 3.3005(12)
Cu1 O1W . 1.944(3)
Cu1 O3 2_665 1.965(2)
Cu1 N2 . 1.968(3)
Cu1 N1 . 2.021(3)
Cu1 O8 . 2.305(2)
O2 Mo3 1_455 1.938(2)
O2 Mo2 2_665 2.236(2)
O3 Cu1 2_665 1.965(2)
O6 Mo2 2_765 1.853(2)
O9 Mo1 2_765 2.230(2)
O9 Mo3 2_765 2.367(2)
N1 C1 . 1.337(4)
N1 C3 . 1.383(5)
N2 C2 . 1.336(4)
N2 C5 . 1.384(4)
N3 C1 . 1.344(4)
N3 C4 . 1.374(5)
N3 H3B . 0.8600
N4 C2 . 1.337(5)
N4 C6 . 1.378(5)
N4 H4B . 0.8600
C1 C2 . 1.453(5)
C3 C4 . 1.362(5)
C3 H3A . 0.9300
C4 H4A . 0.9300
C5 C6 . 1.356(5)
C5 H5A . 0.9300
C6 H6A . 0.9300
O1W H1WA . 0.848(10)
O1W H1WB . 0.847(10)
loop_
_geom_hbond_atom_site_label_D
_geom_hbond_atom_site_label_H
_geom_hbond_atom_site_label_A
_geom_hbond_site_symmetry_A
_geom_hbond_distance_DH
_geom_hbond_distance_HA
_geom_hbond_distance_DA
_geom_hbond_angle_DHA
N3 H3B O9 2_756 0.86 2.47 3.303(4) 163.9
N4 H4B O8 2_756 0.86 2.05 2.834(4) 150.7
N4 H4B O6 2_756 0.86 2.41 3.013(4) 127.9
O1W H1WA O4 2_755 0.848(10) 1.809(12) 2.654(3) 174(4)
O1W H1WB O7 1_455 0.847(10) 1.972(13) 2.809(3) 170(4)
loop_
_geom_torsion_atom_site_label_1
_geom_torsion_atom_site_label_2
_geom_torsion_atom_site_label_3
_geom_torsion_atom_site_label_4
_geom_torsion_site_symmetry_1
_geom_torsion_site_symmetry_4
_geom_torsion
O8 Mo1 O1 Mo2 . . 135.03(15)
O9 Mo1 O1 Mo2 . . 29.57(16)
O4 Mo1 O1 Mo2 . . -122.78(15)
O9 Mo1 O1 Mo2 2_765 . -48.67(15)
O6 Mo1 O1 Mo2 . . -64.4(4)
Mo3 Mo1 O1 Mo2 . . -92.25(14)
Mo1 Mo1 O1 Mo2 2_765 . -13.94(15)
O1 Mo1 O8 Cu1 . . -10.07(19)
O9 Mo1 O8 Cu1 . . 93.81(16)
O4 Mo1 O8 Cu1 . . -111.59(16)
O9 Mo1 O8 Cu1 2_765 . -179.13(17)
O6 Mo1 O8 Cu1 . . 175.10(16)
Mo3 Mo1 O8 Cu1 . . -144.49(12)
Mo1 Mo1 O8 Cu1 2_765 . 115.81(14)
O1 Mo1 O9 Mo1 . 2_765 -91.91(10)
O8 Mo1 O9 Mo1 . 2_765 159.76(9)
O4 Mo1 O9 Mo1 . 2_765 30.7(2)
O9 Mo1 O9 Mo1 2_765 2_765 -0.0010(10)
O6 Mo1 O9 Mo1 . 2_765 72.26(9)
Mo3 Mo1 O9 Mo1 . 2_765 35.09(9)
O1 Mo1 O9 Mo3 . 2_765 5.65(17)
O8 Mo1 O9 Mo3 . 2_765 -102.68(15)
O4 Mo1 O9 Mo3 . 2_765 128.26(16)
O9 Mo1 O9 Mo3 2_765 2_765 97.56(16)
O6 Mo1 O9 Mo3 . 2_765 169.82(16)
Mo3 Mo1 O9 Mo3 . 2_765 132.65(12)
Mo1 Mo1 O9 Mo3 2_765 2_765 97.56(16)
C3 N1 C1 N3 . . 0.3(4)
Cu1 N1 C1 N3 . . -175.7(2)
C3 N1 C1 C2 . . 179.0(3)
Cu1 N1 C1 C2 . . 3.1(4)
C4 N3 C1 N1 . . -0.4(4)
C4 N3 C1 C2 . . -178.9(4)
C5 N2 C2 N4 . . 0.4(4)
Cu1 N2 C2 N4 . . 176.5(2)
C5 N2 C2 C1 . . 180.0(3)
Cu1 N2 C2 C1 . . -3.9(4)
C6 N4 C2 N2 . . 0.0(4)
C6 N4 C2 C1 . . -179.5(4)
N1 C1 C2 N2 . . 0.5(5)
N3 C1 C2 N2 . . 178.9(4)
N1 C1 C2 N4 . . 179.9(4)
N3 C1 C2 N4 . . -1.7(7)
C1 N1 C3 C4 . . -0.1(4)
Cu1 N1 C3 C4 . . 173.8(3)
N1 C3 C4 N3 . . -0.1(5)
C1 N3 C4 C3 . . 0.3(4)
C2 N2 C5 C6 . . -0.7(4)
Cu1 N2 C5 C6 . . -175.1(3)
N2 C5 C6 N4 . . 0.7(5)
C2 N4 C6 C5 . . -0.4(4)

_cod_database_fobs_code 2021293
