#------------------------------------------------------------------------------
#$Date: 2020-01-31 07:51:43 +0200 (Fri, 31 Jan 2020) $
#$Revision: 247406 $
#$URL: file:///home/coder/svn-repositories/cod/cif/2/02/19/2021967.cif $
#------------------------------------------------------------------------------
#
# This file is available in the Crystallography Open Database (COD),
# http://www.crystallography.net/. The original data for this entry
# were provided by IUCr Journals, http://journals.iucr.org/.
#
# The file may be used within the scientific community so long as
# proper attribution is given to the journal article from which the
# data were obtained.
#
data_2021967
loop_
_publ_author_name
'Zheng, Wenxu'
'Wu, Kechen'
_publ_section_title
;
 Anion-directed assemblies of europium(III) coordination polymers based on
 1<i>H</i>-benzimidazole-5,6-dicarboxylate: structures and luminescence
 properties
;
_journal_coeditor_code           JX3052
_journal_issue                   2
_journal_name_full               'Acta Crystallographica Section C'
_journal_page_first
;
;
_journal_paper_doi               10.1107/S2053229620000637
_journal_volume                  76
_journal_year                    2020
_chemical_formula_iupac          '[Eu (C9 H5 N2 O4) (S O4)]'
_chemical_formula_moiety         'C9 H5 Eu N2 O8 S'
_chemical_formula_sum            'C9 H5 Eu N2 O8 S'
_chemical_formula_weight         453.17
_chemical_name_systematic
Poly[(\m~3~-1<i>H</i>-benzimidazol-3-ium-5,6-dicarboxylato-\k^5^<i>O</i>^5^:<i>O</i>^5'^,<i>O</i>^6^:<i>O</i>^6^,<i>O</i>^6'^)(\m~3~-sulfato-\k^3^<i>O</i>,<i>O</i>',<i>O</i>'')europium(III)]
_space_group_crystal_system      triclinic
_space_group_IT_number           2
_space_group_name_Hall           '-P 1'
_space_group_name_H-M_alt        'P -1'
_atom_sites_solution_hydrogens   mixed
_atom_sites_solution_primary     iterative
_audit_creation_method
;
Olex2 1.2
(compiled 2018.05.29 svn.r3508 for OlexSys, GUI svn.r5506)
;
_cell_angle_alpha                101.579(4)
_cell_angle_beta                 106.761(4)
_cell_angle_gamma                95.588(4)
_cell_formula_units_Z            2
_cell_length_a                   6.9610(7)
_cell_length_b                   7.9482(9)
_cell_length_c                   10.9901(13)
_cell_measurement_reflns_used    6853
_cell_measurement_temperature    298(2)
_cell_measurement_theta_max      25.74
_cell_measurement_theta_min      2.65
_cell_volume                     562.51(11)
_computing_cell_refinement
;
APEX2 (Bruker, 2012)
;
_computing_data_collection
;
SAINT (Bruker, 2012)
;
_computing_data_reduction
;
SAINT (Bruker, 2012)
;
_computing_molecular_graphics
;
OLEX2 (Dolomanov <i>et al.</i>,  2009)
;
_computing_publication_material
;
OLEX2 (Dolomanov <i>et al.</i>,  2009)
;
_computing_structure_refinement
;
SHELXL2013 (Sheldrick, 2015)
;
_computing_structure_solution
;
olex2.solve (Bourhis <i>et al.</i>,  2015)
;
_diffrn_ambient_temperature      298.15
_diffrn_measured_fraction_theta_full 0.998
_diffrn_measured_fraction_theta_max 0.998
_diffrn_measurement_device_type  'Bruker APEXII CCD'
_diffrn_measurement_method       '\f and \w scans'
_diffrn_radiation_type           MoK\a
_diffrn_radiation_wavelength     0.71073
_diffrn_reflns_av_R_equivalents  0.0578
_diffrn_reflns_av_unetI/netI     0.0416
_diffrn_reflns_limit_h_max       8
_diffrn_reflns_limit_h_min       -8
_diffrn_reflns_limit_k_max       9
_diffrn_reflns_limit_k_min       -9
_diffrn_reflns_limit_l_max       13
_diffrn_reflns_limit_l_min       -13
_diffrn_reflns_number            10824
_diffrn_reflns_theta_full        25.242
_diffrn_reflns_theta_max         25.675
_diffrn_reflns_theta_min         2.652
_diffrn_source                   6853
_diffrn_standards_number         0
_exptl_absorpt_coefficient_mu    5.809
_exptl_absorpt_correction_T_max  0.0921
_exptl_absorpt_correction_T_min  0.0583
_exptl_absorpt_correction_type   multi-scan
_exptl_absorpt_process_details
;
(<i>SADABS</i>; Bruker, 2012)
;
_exptl_crystal_colour            'clear brown'
_exptl_crystal_density_diffrn    2.676
_exptl_crystal_description       block
_exptl_crystal_F_000             432
_exptl_crystal_size_max          0.14
_exptl_crystal_size_mid          0.12
_exptl_crystal_size_min          0.1
_refine_diff_density_max         0.938
_refine_diff_density_min         -1.085
_refine_ls_extinction_method     none
_refine_ls_goodness_of_fit_ref   1.111
_refine_ls_hydrogen_treatment    mixed
_refine_ls_matrix_type           full
_refine_ls_number_parameters     196
_refine_ls_number_reflns         2149
_refine_ls_number_restraints     2
_refine_ls_restrained_S_all      1.111
_refine_ls_R_factor_all          0.0343
_refine_ls_R_factor_gt           0.0278
_refine_ls_shift/su_max          0.000
_refine_ls_shift/su_mean         0.000
_refine_ls_structure_factor_coef Fsqd
_refine_ls_weighting_details
;
w=1/[\s^2^(Fo^2^)+(0.0103P)^2^+1.9181P] where P=(Fo^2^+2Fc^2^)/3
;
_refine_ls_weighting_scheme      calc
_refine_ls_wR_factor_gt          0.0555
_refine_ls_wR_factor_ref         0.0583
_reflns_number_gt                1954
_reflns_number_total             2149
_reflns_threshold_expression     'I > 2\s(I)'
_cod_data_source_file            jx3052sup1.cif
_cod_data_source_block           2
_cod_database_code               2021967
_shelx_space_group_comment
;
The symmetry employed for this shelxl refinement is uniquely defined
by the following loop, which should always be used as a source of
symmetry information in preference to the above space-group names.
They are only intended as comments.
;
_shelx_estimated_absorpt_t_min   0.497
_shelx_estimated_absorpt_t_max   0.594
_shelx_hkl_file
;
  -1   0   0  908.81   37.40
  -1   0   0  896.31   38.60
   1   0   0  921.81   37.70
   1   0   0  898.81   37.10
  -2   0   0 4955.70  183.88
  -2   0   0 4891.31  186.48
   2   0   0 4682.73  183.38
   2   0   0 4725.63  185.78
   2   0   0 4787.42  184.28
  -3   0   0 2125.19   93.19
  -3   0   0 2129.89   96.69
   3   0   0 2518.05  102.79
   3   0   0 2194.18   96.69
  -4   0   0  235.58   22.70
  -4   0   0  251.97   20.70
   4   0   0  260.37   23.10
  -5   0   0   -1.20    5.80
  -5   0   0    8.00    5.80
   5   0   0   10.90    7.20
   5   0   0   -1.60    6.80
  -6   0   0  702.03   48.90
  -6   0   0  680.83   44.40
   6   0   0  743.73   64.59
   6   0   0  639.14   47.20
  -7   0   0  398.76   33.70
  -7   0   0  372.96   36.80
   7   0   0  380.56   50.49
  -8   0   0   58.19   17.50
  -8   0   0   70.79   18.80
   8   0   0   49.10   25.50
   8  -1   0  381.36   54.59
  -8   1   0  245.58   41.40
  -8   1   0  310.17   31.80
   7  -1   0   26.10   17.80
  -7   1   0   36.00   15.10
   6  -1   0   89.19   27.70
  -6   1   0   97.89   23.00
  -6   1   0  106.09   20.50
   5  -1   0  603.84   53.79
  -5   1   0  532.25   42.30
  -5   1   0  585.14   37.70
   4  -1   0  839.42   61.09
  -4   1   0  864.91   46.00
   3  -1   0  399.76   27.00
   3  -1   0  402.26   34.80
  -3   1   0  375.56   28.50
  -3   1   0  405.96   25.00
   2  -1   0 3165.28  136.69
   2  -1   0 3088.29  124.59
  -2   1   0 3363.06  131.89
  -2   1   0 3121.29  124.89
  -2   1   0 3246.78  135.39
   1  -1   0  367.66   18.60
   1  -1   0  386.46   24.20
   1  -1   0  353.66   17.60
  -1   1   0  391.16   23.70
   0  -1   0  391.16   18.00
   0   1   0  464.25   27.00
   0   1   0  374.96   18.20
   0   1   0  365.96   19.90
  -1  -1   0 1040.90   44.20
  -1  -1   0 1052.59   50.09
  -1  -1   0 1037.50   48.00
  -1  -1   0 1148.79   48.00
   1   1   0 1042.10   50.19
   1   1   0 1100.19   49.30
   1   1   0 1072.89   44.60
  -2  -1   0   82.29    7.60
  -2  -1   0   78.79    9.50
  -2  -1   0  114.39   14.00
  -2  -1   0   77.49   10.30
   2   1   0   75.99   11.80
   2   1   0  103.69   11.30
   2   1   0   86.09   11.00
   2   1   0   80.99    8.00
  -3  -1   0   98.99   11.90
  -3  -1   0   93.89   15.20
  -3  -1   0   98.69    9.10
   3   1   0   87.39   13.40
   3   1   0   76.69   13.70
   3   1   0   84.89    9.00
   3   1   0  102.19   18.30
  -4  -1   0  527.45   41.60
  -4  -1   0  575.84   35.60
   4   1   0  634.04   42.00
   4   1   0  521.95   37.70
  -5  -1   0  939.91   51.59
  -5  -1   0  877.91   48.40
   5   1   0  875.11   55.29
   5   1   0  886.71   57.29
  -6  -1   0  219.78   24.00
   6   1   0  208.58   28.60
   6   1   0  226.18   27.30
  -7  -1   0 1007.40   59.79
   7   1   0  865.71   63.89
   7   1   0  913.71   62.19
   7   1   0 1028.10   83.59
   8  -2   0  163.28   41.70
  -8   2   0  119.99   21.90
  -8   2   0  153.08   33.90
   7  -2   0  558.14   53.89
   7  -2   0  651.43   68.89
  -7   2   0  644.04   45.50
  -7   2   0  664.73   54.89
   6  -2   0  459.55   53.89
  -6   2   0  480.05   43.30
  -6   2   0  527.55   37.80
   5  -2   0  384.66   44.80
  -5   2   0  382.96   29.50
  -5   2   0  398.46   36.20
   4  -2   0 1513.55   90.79
  -4   2   0 1508.75   80.89
  -4   2   0 1552.04   72.49
   3  -2   0  890.81   57.99
   3  -2   0  857.61   44.00
  -3   2   0  913.41   56.69
  -3   2   0  883.91   51.69
  -3   2   0  890.71   45.30
   2  -2   0  539.55   38.80
   2  -2   0  514.55   28.10
   2  -2   0  531.75   27.40
  -2   2   0  525.05   37.20
  -2   2   0  498.35   32.90
   1  -2   0  190.18   11.80
   1  -2   0  205.38   14.80
   1  -2   0  224.98   23.30
   1  -2   0  200.68   14.80
  -1   2   0  194.48   12.30
  -1   2   0  193.58   14.00
  -1   2   0  170.78   15.10
  -1   2   0  202.58   21.10
   0  -2   0  165.88   15.00
   0  -2   0  183.38   15.80
   0  -2   0  219.08   23.80
   0  -2   0  158.58   11.60
   0   2   0  141.69   14.90
   0   2   0  175.18   14.80
   0   2   0  159.48   11.70
   0   2   0  150.38   11.00
  -1  -2   0   79.89   11.50
  -1  -2   0   68.09   12.20
  -1  -2   0   73.39    8.20
   1   2   0   75.39    8.60
   1   2   0   91.39   13.00
   1   2   0   98.59   12.20
  -2  -2   0  351.76   21.60
  -2  -2   0  354.56   28.70
  -2  -2   0  367.86   27.40
   2   2   0  354.16   27.50
   2   2   0  350.76   29.60
   2   2   0  371.06   22.60
  -3  -2   0 1605.44   77.69
  -3  -2   0 1572.04   68.89
  -3  -2   0 1566.84   82.89
  -3  -2   0 1679.43   75.69
   3   2   0 1545.25   70.09
   3   2   0 1618.04   83.59
   3   2   0 1543.85   79.39
   3   2   0 1529.65   78.19
  -4  -2   0  118.69   15.50
  -4  -2   0   80.49   11.80
  -4  -2   0   85.59   18.30
  -4  -2   0   88.09   15.70
   4   2   0  110.39   20.30
   4   2   0   96.19   12.30
   4   2   0   96.19   18.30
  -5  -2   0 1218.78   62.99
  -5  -2   0  926.71   64.29
   5   2   0 1195.68   72.89
   5   2   0 1104.19   71.99
   5   2   0 1119.59   55.69
  -6  -2   0  383.56   33.10
  -6  -2   0  349.27   37.20
   6   2   0  473.95   43.00
   6   2   0  440.76   48.00
  -7  -2   0   64.59   17.00
   7   2   0   71.49   19.40
   7   2   0   89.19   23.40
   8  -3   0  177.78   43.70
  -8   3   0  138.99   23.70
  -8   3   0  184.58   33.50
   7  -3   0  148.79   30.10
   7  -3   0  192.38   42.90
  -7   3   0  177.58   23.70
  -7   3   0  203.08   46.90
   6  -3   0 1238.38   92.19
  -6   3   0 1197.18   78.19
  -6   3   0 1225.68   68.39
   5  -3   0  292.67   38.50
  -5   3   0  279.17   31.30
   4  -3   0  858.11   67.59
  -4   3   0 1017.10   61.49
  -4   3   0  947.41   65.69
   3  -3   0 1875.11   95.89
   3  -3   0 2109.19  114.49
  -3   3   0 2176.68  108.19
  -3   3   0 2074.99   99.79
   2  -3   0   24.60   10.70
   2  -3   0   -1.70    3.80
   2  -3   0   17.00    6.10
  -2   3   0    1.80    7.10
  -2   3   0    6.00    4.00
  -2   3   0    0.00    4.10
   1  -3   0  636.84   31.40
   1  -3   0  749.62   52.69
   1  -3   0  613.14   36.20
   1  -3   0  627.44   36.70
  -1   3   0  602.74   31.90
  -1   3   0  595.14   34.90
  -1   3   0  690.43   49.60
  -1   3   0  571.24   34.90
   0  -3   0 1939.71   90.29
   0  -3   0 2094.89   92.59
   0  -3   0 1889.81   82.19
   0  -3   0 2173.58  111.39
   0   3   0 1806.32   90.39
   0   3   0 1988.30   88.79
   0   3   0 1914.51   82.99
  -1  -3   0 1512.25   75.69
  -1  -3   0 1512.75   74.69
  -1  -3   0 1382.16   64.29
   1   3   0 1458.95   72.49
   1   3   0 1447.26   75.89
   1   3   0 1391.46   65.19
  -2  -3   0   55.79    9.40
  -2  -3   0   57.49   13.30
  -2  -3   0   68.89   15.20
  -2  -3   0   42.00   11.00
   2   3   0   41.40   12.30
   2   3   0   40.90   11.70
   2   3   0   56.09    9.80
  -3  -3   0 2510.85  111.19
  -3  -3   0 2439.76  122.09
  -3  -3   0 2461.95  114.49
  -3  -3   0 2288.77  101.99
   3   3   0 2338.57  103.59
   3   3   0 2320.47  114.29
   3   3   0 2492.75  121.29
  -4  -3   0  756.82   46.30
  -4  -3   0  658.43   53.39
  -4  -3   0  654.33   38.50
  -4  -3   0  640.84   46.40
   4   3   0  615.84   48.90
   4   3   0  655.13   39.70
   4   3   0  752.12   55.59
  -5  -3   0    6.00   10.50
  -5  -3   0    2.70    7.00
   5   3   0   10.20   11.40
   5   3   0   -2.30   10.50
   5   3   0   24.50    7.70
  -6  -3   0  284.67   33.00
  -6  -3   0  336.77   26.20
  -6  -3   0  274.97   34.70
   6   3   0  312.57   26.90
   6   3   0  286.77   39.40
   6   3   0  348.77   40.50
  -7  -3   0  255.07   28.80
   7   3   0  204.78   39.60
   7   3   0  217.08   38.50
   7  -4   0   82.69   27.30
   7  -4   0   71.29   19.90
  -7   4   0   79.09   23.80
   6  -4   0   24.80   15.10
   6  -4   0   35.70   19.10
  -6   4   0   39.00   16.30
   5  -4   0  551.94   55.59
   5  -4   0  517.55   38.90
  -5   4   0  525.75   51.19
  -5   4   0  490.15   44.50
   4  -4   0  307.87   25.90
   4  -4   0  315.97   40.60
  -4   4   0  341.47   33.00
  -4   4   0  318.37   38.00
   3  -4   0   -3.10    5.10
   3  -4   0    6.90   11.50
   3  -4   0   14.20    5.90
  -3   4   0   -1.80    6.30
  -3   4   0    5.60    5.20
  -3   4   0   -0.10    6.10
  -3   4   0   -4.30    9.00
  -3   4   0   -0.60    5.80
   2  -4   0 2265.77  125.69
   2  -4   0 2098.39  106.69
   2  -4   0 2287.67  101.19
  -2   4   0 2318.87  118.49
  -2   4   0 2134.89   96.09
   1  -4   0  676.63   43.40
   1  -4   0  661.03   36.20
   1  -4   0  732.13   45.00
   1  -4   0  713.43   59.59
  -1   4   0  788.82   60.89
  -1   4   0  690.33   44.90
  -1   4   0  660.93   40.20
  -1   4   0  702.43   38.10
  -1   4   0  722.53   42.50
   0  -4   0  235.18   18.60
   0  -4   0  250.77   24.80
   0  -4   0  255.47   25.70
   0   4   0  246.78   26.10
   0   4   0  267.27   36.50
   0   4   0  203.98   22.10
   0   4   0  211.88   18.90
  -1  -4   0 1768.32   80.29
  -1  -4   0 1882.41   93.39
   1   4   0 1795.72   89.79
   1   4   0 1798.12   94.39
   1   4   0 1808.02   82.09
   1   4   0 1664.33  110.29
  -2  -4   0  665.43   48.20
  -2  -4   0  584.44   36.50
   2   4   0  613.24   49.20
   2   4   0  614.24   38.50
   2   4   0  646.14   45.80
  -3  -4   0  186.68   19.60
  -3  -4   0  175.38   29.10
  -3  -4   0  213.18   28.00
  -3  -4   0  182.48   24.30
   3   4   0  174.28   19.30
   3   4   0  209.28   26.60
   3   4   0  164.88   31.30
  -4  -4   0  742.53   43.40
  -4  -4   0  730.83   50.39
  -4  -4   0  682.43   58.89
  -4  -4   0  759.52   54.89
   4   4   0  710.43   44.20
   4   4   0  677.93   57.89
   4   4   0  728.03   55.39
  -5  -4   0   93.99   17.30
  -5  -4   0  106.09   23.10
  -5  -4   0  144.19   29.00
  -5  -4   0  115.99   20.10
   5   4   0   92.79   17.00
   5   4   0   74.19   20.50
   5   4   0  103.09   25.20
  -6  -4   0  -18.50   14.40
  -6  -4   0   -1.60    6.80
   6   4   0   31.10   16.40
   6   4   0    5.60    9.60
   6   4   0   14.80   17.20
   7  -5   0  261.97   59.39
   7  -5   0  263.67   54.29
  -7   5   0  320.77   40.60
   6  -5   0  322.97   35.40
   6  -5   0  358.26   53.69
  -6   5   0  339.37   50.99
   5  -5   0   13.60    9.70
   5  -5   0   36.20   17.20
  -5   5   0   27.90   16.70
  -5   5   0   12.20   10.20
   4  -5   0 1181.58   64.99
   4  -5   0 1105.79   58.29
   4  -5   0 1178.98   91.69
  -4   5   0 1190.08   73.39
  -4   5   0 1168.38   82.09
   3  -5   0  961.80   52.89
   3  -5   0  920.71   55.99
   3  -5   0  987.40   81.09
  -3   5   0  975.30   60.89
  -3   5   0  927.41   70.99
   2  -5   0   55.89   12.00
   2  -5   0   49.40   23.20
   2  -5   0   66.39   10.90
   2  -5   0   49.40   13.00
  -2   5   0   46.50   12.50
  -2   5   0   45.30   21.80
  -2   5   0   51.79   13.00
  -2   5   0   36.30   10.10
   1  -5   0 1344.37   62.89
   1  -5   0 1359.96   75.19
   1  -5   0 1404.36   74.39
   1  -5   0 1245.68   93.19
  -1   5   0 1358.96   94.29
  -1   5   0 1370.26   65.49
  -1   5   0 1338.17   75.79
  -1   5   0 1185.38   93.59
  -1   5   0 1286.87   67.19
   0  -5   0 1200.78   69.69
   0  -5   0 1107.79   56.99
   0  -5   0 1179.68   69.99
   0   5   0 1160.28   59.19
   0   5   0 1076.39   87.39
   0   5   0 1142.59   65.69
   0   5   0 1082.99   69.79
  -1  -5   0   76.19   20.10
  -1  -5   0   81.59   13.70
   1   5   0  105.79   19.60
   1   5   0   92.89   14.40
   1   5   0  113.29   22.80
   1   5   0  101.19   29.30
  -2  -5   0  485.35   34.10
  -2  -5   0  498.05   45.10
   2   5   0  477.95   60.39
   2   5   0  535.75   43.40
   2   5   0  503.25   35.40
   2   5   0  531.35   48.20
  -3  -5   0  690.13   43.30
  -3  -5   0  594.04   49.90
  -3  -5   0  754.32   56.79
   3   5   0  649.83   53.39
   3   5   0  695.13   59.19
   3   5   0  709.33   44.80
  -4  -5   0    9.00   10.30
  -4  -5   0   -5.80   11.30
  -4  -5   0   13.20   11.60
   4   5   0   -2.20   16.00
   4   5   0   31.00   10.30
   4   5   0    9.50   12.90
  -5  -5   0  521.65   52.49
  -5  -5   0  495.45   52.19
  -5  -5   0  509.95   45.20
   5   5   0  592.04   55.69
   5   5   0  632.64   43.50
   5   5   0  657.83   62.79
  -6  -5   0  177.68   33.20
  -6  -5   0  207.88   29.30
   6   5   0  282.07   45.40
   6   5   0  239.18   44.00
   7  -6   0   27.50   24.90
   7  -6   0   12.70   16.30
  -7   6   0   16.70   16.40
   6  -6   0  394.36   65.79
   6  -6   0  478.95   39.80
  -6   6   0  496.75   61.49
  -6   6   0  453.55   47.10
   5  -6   0  379.56   55.09
  -5   6   0  442.16   57.39
  -5   6   0  432.66   43.00
   4  -6   0   62.79   31.40
   4  -6   0   88.89   18.60
   4  -6   0   75.99   15.50
  -4   6   0  101.29   18.10
  -4   6   0   65.99   25.10
  -4   6   0   71.99   18.80
   3  -6   0  777.62   50.19
   3  -6   0  794.62   54.69
   3  -6   0  770.02   40.70
   3  -6   0  673.73   72.49
  -3   6   0  738.13   54.59
  -3   6   0  804.92   70.19
  -3   6   0  818.72   55.79
   2  -6   0  333.17   49.40
   2  -6   0  384.46   37.50
   2  -6   0  380.96   26.50
   2  -6   0  431.66   35.20
  -2   6   0  322.67   31.00
  -2   6   0  466.55   39.50
  -2   6   0  380.06   33.20
  -2   6   0  283.37   46.40
   1  -6   0    4.50    9.50
   1  -6   0   -8.20    9.10
   1  -6   0   12.20    6.90
   1  -6   0   10.20   14.60
  -1   6   0   14.10   10.50
  -1   6   0  -17.10    9.30
  -1   6   0    0.50   17.70
  -1   6   0   13.70    6.90
   0  -6   0  417.86   42.20
   0  -6   0  493.75   33.40
   0  -6   0  517.15   44.20
   0   6   0  474.85   41.40
   0   6   0  473.65   34.60
   0   6   0  352.96   42.40
   0   6   0  486.95   60.69
  -1  -6   0 1378.16   68.59
  -1  -6   0 1318.87  102.69
  -1  -6   0 1382.56   84.59
   1   6   0 1333.17   78.09
   1   6   0 1360.66   70.89
   1   6   0 1361.56   86.49
   1   6   0 1059.59   96.69
  -2  -6   0   16.00   13.40
  -2  -6   0   10.90   12.00
   2   6   0   17.00    8.40
   2   6   0    5.40   21.30
   2   6   0   19.00   14.00
  -3  -6   0  778.72   66.59
  -3  -6   0  713.33   59.29
  -3  -6   0  908.81   66.99
   3   6   0  680.63  111.49
   3   6   0  836.22   51.89
   3   6   0  790.02   67.99
   3   6   0  871.21   53.99
   3   6   0  886.61   64.79
  -4  -6   0  462.65   52.69
  -4  -6   0  475.05   39.90
  -4  -6   0  566.14   54.39
  -4  -6   0  505.95   57.79
   4   6   0  544.05   57.39
   4   6   0  397.76   49.60
   4   6   0  633.74   50.19
   4   6   0  552.74   44.50
  -5  -6   0   -7.30   12.00
  -5  -6   0  -21.20   21.70
   5   6   0  -13.20   17.80
   5   6   0   -5.40   10.40
   5   6   0   11.30   18.60
   5   6   0   36.30   22.70
   6  -7   0  127.79   40.60
  -6   7   0  172.38   31.50
   5  -7   0  396.26   65.39
   5  -7   0  478.85   43.60
  -5   7   0  533.35   48.40
  -5   7   0  394.76   61.89
   4  -7   0   96.79   29.60
   4  -7   0   82.89   23.90
   4  -7   0  103.19   32.80
  -4   7   0   85.09   30.10
  -4   7   0   63.39   17.40
   3  -7   0   25.60   19.20
   3  -7   0   -3.40   12.00
   3  -7   0   -7.10   11.50
  -3   7   0   56.89   24.40
  -3   7   0    2.60    9.50
  -3   7   0   11.30   16.20
   2  -7   0  514.75   66.99
   2  -7   0  622.54   48.00
   2  -7   0  604.54   51.39
   2  -7   0  585.94   37.50
  -2   7   0  643.84   71.09
  -2   7   0  614.54   45.40
  -2   7   0  551.94   45.30
  -2   7   0  642.94   54.89
   1  -7   0  361.96   40.60
   1  -7   0  426.36   42.50
   1  -7   0  293.57   53.69
   1  -7   0  420.46   31.20
  -1   7   0  328.37   37.80
  -1   7   0  389.16   61.79
  -1   7   0  418.06   33.00
  -1   7   0  418.16   45.10
   0  -7   0   74.69   20.30
   0  -7   0   83.59   22.60
   0  -7   0   75.59   15.50
   0   7   0   47.70   19.10
   0   7   0   91.69   33.30
   0   7   0   58.69   23.60
  -1  -7   0  570.14   53.99
  -1  -7   0  569.34   54.09
   1   7   0  543.15   73.59
   1   7   0  635.94   52.29
   1   7   0  632.84   44.90
   1   7   0  604.24   55.29
  -2  -7   0  101.59   27.10
  -2  -7   0   75.89   24.40
   2   7   0  103.49   23.70
   2   7   0   65.49   16.10
   2   7   0  112.89   28.20
  -3  -7   0    9.60   14.00
  -3  -7   0   30.90   20.80
  -3  -7   0  -20.80   14.50
   3   7   0   24.30   18.10
   3   7   0   15.00   37.00
   3   7   0   12.00   20.00
   3   7   0    9.30   12.30
  -4  -7   0   23.70   23.30
  -4  -7   0   49.00   19.60
   4   7   0   46.70   25.70
   4   7   0   88.09   19.50
   4   7   0   53.29   27.20
   4   7   0   67.29   20.00
   5  -8   0  -14.70   21.80
   5  -8   0    3.50   13.00
   5  -8   0   12.40   15.80
  -5   8   0  -12.00   13.30
   4  -8   0  290.57   36.50
   4  -8   0  320.07   40.80
  -4   8   0  267.87   34.70
  -4   8   0  290.37   58.09
  -4   8   0  338.77   40.00
   3  -8   0  214.28   53.79
   3  -8   0  248.78   24.60
   3  -8   0  224.28   34.60
   3  -8   0  246.38   36.20
  -3   8   0  272.37   42.20
  -3   8   0  256.27   32.70
   2  -8   0    7.30   10.80
   2  -8   0  -13.50   23.20
   2  -8   0   -5.80   14.00
  -2   8   0    6.30    9.90
  -2   8   0    6.40   16.10
  -2   8   0   29.80   21.00
   1  -8   0  568.24   55.69
   1  -8   0  509.35   52.69
   1  -8   0  603.94   41.30
  -1   8   0  625.44   43.40
  -1   8   0  642.74   60.79
  -1   8   0  503.85   50.69
   0  -8   0  370.46   45.30
   0  -8   0  385.56   34.30
   0  -8   0  296.97   42.30
   0   8   0  234.68   54.49
   0   8   0  376.36   47.70
  -1  -8   0   27.40   22.80
  -1  -8   0   13.90   18.30
   1   8   0   49.40   24.80
   1   8   0   -2.10   33.50
  -2  -8   0  152.38   33.20
  -2  -8   0  163.78   43.00
   2   8   0  235.68   39.80
  -3  -8   0  166.48   32.10
  -3  -8   0  110.59   32.00
   3   8   0  269.67   45.70
   3   8   0  215.48   43.90
   3  -9   0  367.66   32.00
   3  -9   0  255.67   61.89
   3  -9   0  348.77   45.60
   3  -9   0  306.17   44.50
  -3   9   0  400.96   58.49
  -3   9   0  341.07   42.00
   2  -9   0  352.46   49.20
   2  -9   0  297.37   47.30
   2  -9   0  406.76   42.80
  -2   9   0  487.75   57.39
  -2   9   0  392.96   37.40
   1  -9   0    0.00   17.50
   1  -9   0   34.80   22.40
  -1   9   0  -14.40   22.60
   0  -9   0  192.98   38.40
   0  -9   0  144.09   32.30
   0   9   0  161.48   38.30
  -1  -9   0  308.87   63.39
  -1  -9   0  397.46   63.49
   1   9   0  325.07   55.09
   1   9  -1  403.26   57.19
   1   9  -1  379.36   60.59
  -1  -9   1  440.16   56.39
  -1  -9   1  303.67   59.79
   0   9  -1   65.99   27.00
   0  -9   1   15.90   32.60
   0  -9   1  -16.20   19.10
  -1   9  -1   90.09   28.80
   1  -9   1   45.00   23.20
   1  -9   1   42.60   23.00
  -2   9  -1  335.47   55.19
  -2   9  -1  417.36   39.40
   2  -9   1  397.16   67.79
   2  -9   1  358.86   32.20
   2  -9   1  307.07   46.00
   2  -9   1  341.07   47.20
  -3   9  -1  227.28   32.90
  -3   9  -1  138.69   35.60
   3  -9   1  231.58   29.60
   3  -9   1  207.58   40.00
   3  -9   1  132.29   48.20
   3   8  -1  457.15   39.80
   3   8  -1  362.16   50.09
  -3  -8   1  341.17   45.90
  -3  -8   1  243.48   48.40
   2   8  -1   66.99   23.50
   2   8  -1   80.89   18.90
   2   8  -1   72.19   26.30
  -2  -8   1   71.19   26.90
   1   8  -1   10.50   28.30
   1   8  -1    2.60   10.10
   1   8  -1   13.50   17.90
   1   8  -1   18.60   17.00
  -1  -8   1    2.20   15.10
  -1  -8   1   -4.60   17.30
  -1  -8   1  -13.40   15.20
   0   8  -1  205.88   38.00
   0   8  -1  223.68   26.30
   0  -8   1  228.18   36.60
   0  -8   1  141.79   24.30
   0  -8   1  247.58   37.80
  -1   8  -1  797.72   84.69
  -1   8  -1  665.63   71.49
   1  -8   1  861.81   49.20
   1  -8   1  772.52   63.59
   1  -8   1  742.33   59.89
  -2   8  -1    8.70   19.50
  -2   8  -1  -12.90   15.10
  -2   8  -1    1.10   11.40
   2  -8   1   34.40   17.20
   2  -8   1   -5.40   14.40
   2  -8   1   21.00   10.90
   2  -8   1   13.40   25.70
  -3   8  -1  654.63   83.29
  -3   8  -1  796.12   56.29
  -3   8  -1  688.33   62.19
   3  -8   1  685.63   59.59
   3  -8   1  719.23   53.49
   3  -8   1  574.74   79.49
   3  -8   1  636.44   39.10
  -4   8  -1  156.68   27.50
  -4   8  -1   83.99   20.40
  -4   8  -1  138.29   31.70
   4  -8   1  113.09   22.10
   4  -8   1   76.09   22.80
   4  -8   1  116.89   38.60
  -5   8  -1   78.99   40.40
  -5   8  -1  100.79   23.80
   5  -8   1   23.00   34.40
   5  -8   1   91.49   23.20
   4   7  -1  264.37   45.60
   4   7  -1  231.88   41.10
   4   7  -1  192.88   26.80
   4   7  -1  222.28   32.40
  -4  -7   1  143.89   32.50
  -4  -7   1  186.88   33.70
   3   7  -1   39.60   20.10
   3   7  -1    1.00   15.70
   3   7  -1   -7.30   10.10
   3   7  -1   10.20   33.20
  -3  -7   1   17.80   19.30
  -3  -7   1   -5.40   12.80
  -3  -7   1   13.30   15.70
   2   7  -1  503.85   39.00
   2   7  -1  443.96   47.70
   2   7  -1  553.34   55.49
  -2  -7   1  521.45   51.19
  -2  -7   1  503.85   49.99
   1   7  -1  792.22   64.69
   1   7  -1  777.92   59.19
   1   7  -1  677.73   81.59
   1   7  -1  836.42   50.79
  -1  -7   1  735.33   47.00
  -1  -7   1  755.52   60.79
  -1  -7   1  709.23   58.79
   0   7  -1   94.99   17.00
   0   7  -1   86.69   31.50
   0   7  -1   97.29   19.80
   0   7  -1   60.49   18.20
   0  -7   1  104.69   24.80
   0  -7   1   82.89   15.70
   0  -7   1   55.19   21.60
  -1   7  -1  953.30   63.09
  -1   7  -1  979.50   56.39
  -1   7  -1 1015.00   70.99
  -1   7  -1 1028.30   92.39
  -1   7  -1  986.20   58.39
   1  -7   1 1022.10   53.69
   1  -7   1  947.11   68.89
   1  -7   1  982.60   64.89
   1  -7   1  983.70   94.39
  -2   7  -1  467.55   62.99
  -2   7  -1  409.16   38.40
  -2   7  -1  453.75   46.50
  -2   7  -1  506.25   40.20
   2  -7   1  459.25   60.89
   2  -7   1  525.25   43.20
   2  -7   1  497.25   46.30
   2  -7   1  511.35   32.30
  -3   7  -1  121.79   37.30
  -3   7  -1  154.08   26.10
   3  -7   1  117.19   36.70
   3  -7   1  160.78   26.20
   3  -7   1  157.78   27.60
  -4   7  -1  685.53   54.09
   4  -7   1  724.13   61.69
   4  -7   1  579.84   44.60
   4  -7   1  510.45   70.79
  -5   7  -1  228.58   33.30
  -5   7  -1  193.58   47.70
   5  -7   1  225.98   52.59
   5  -7   1  206.48   29.40
  -6   7  -1   18.60   14.20
   6  -7   1   38.00   28.40
   6  -7   1   12.80   12.60
   5   6  -1   22.10   20.90
   5   6  -1   22.30   12.30
   5   6  -1   44.20   20.60
  -5  -6   1   56.59   22.70
  -5  -6   1   24.60   15.10
   4   6  -1  273.97   31.40
   4   6  -1  225.88   36.50
   4   6  -1  245.38   40.80
   4   6  -1  274.47   29.10
   4   6  -1  293.27   63.59
  -4  -6   1  293.67   28.90
  -4  -6   1  210.48   37.80
  -4  -6   1  209.18   38.60
   3   6  -1  146.19   43.10
   3   6  -1  129.69   28.80
   3   6  -1  132.79   25.30
   3   6  -1  152.68   20.40
   3   6  -1  152.48   20.90
  -3  -6   1  114.79   27.50
  -3  -6   1  158.08   28.00
  -3  -6   1  115.19   32.00
   2   6  -1   34.40   17.20
   2   6  -1    6.90    7.40
   2   6  -1    1.30   20.60
   2   6  -1  -18.00   12.00
  -2  -6   1   33.30   13.00
  -2  -6   1    8.60   12.90
   1   6  -1 1165.58   78.19
   1   6  -1 1187.68   63.29
   1   6  -1 1186.88   71.29
   1   6  -1 1076.99   96.19
  -1  -6   1 1208.08   91.69
  -1  -6   1 1113.39   60.19
  -1  -6   1 1178.88   76.59
   0   6  -1  266.27   24.20
   0   6  -1  310.77   34.70
   0   6  -1  284.57   30.70
   0   6  -1  271.27   47.80
   0  -6   1  280.37   23.10
   0  -6   1  232.68   31.40
   0  -6   1  243.38   30.30
  -1   6  -1  438.76   33.70
  -1   6  -1  398.06   55.59
  -1   6  -1  457.65   31.50
  -1   6  -1  506.45   43.40
  -1   6  -1  460.35   37.40
   1  -6   1  426.56   40.30
   1  -6   1  372.36   54.49
   1  -6   1  500.95   38.80
   1  -6   1  458.65   30.00
  -2   6  -1  553.94   39.80
  -2   6  -1  523.85   59.99
  -2   6  -1  568.04   41.70
   2  -6   1  548.85   41.60
   2  -6   1  507.05   37.90
   2  -6   1  500.85   63.99
   2  -6   1  609.84   45.90
  -3   6  -1  134.29   31.80
  -3   6  -1  120.99   18.50
  -3   6  -1  132.59   21.20
   3  -6   1  100.99   19.60
   3  -6   1  146.19   21.60
   3  -6   1  127.59   34.10
  -4   6  -1   57.79   27.10
  -4   6  -1  126.59   23.40
   4  -6   1   74.49   17.00
   4  -6   1   78.39   29.30
  -5   6  -1  339.27   38.80
   5  -6   1  305.37   51.59
   5  -6   1  383.96   38.10
   5  -6   1  263.37   26.90
  -6   6  -1  512.25   50.39
   6  -6   1  533.85   70.89
   6  -6   1  471.15   41.70
   6   5  -1  227.68   27.10
   6   5  -1  240.98   43.60
   6   5  -1  189.48   35.00
  -6  -5   1  165.78   32.90
  -6  -5   1  271.87   33.30
   5   5  -1  309.37   28.10
   5   5  -1  285.37   41.60
   5   5  -1  220.08   35.70
  -5  -5   1  284.07   39.10
  -5  -5   1  305.07   44.20
  -5  -5   1  259.67   32.60
   4   5  -1  -16.00   11.80
   4   5  -1   -3.70    9.30
   4   5  -1  -13.50   12.20
  -4  -5   1   -0.10   15.40
  -4  -5   1   15.90   13.10
  -4  -5   1    4.70    9.90
  -4  -5   1    1.00    8.80
   3   5  -1 1434.96   86.79
   3   5  -1 1781.12  101.29
   3   5  -1 1690.53   92.29
   3   5  -1 1745.73   82.39
  -3  -5   1 1608.14   94.89
  -3  -5   1 1694.83   79.29
  -3  -5   1 1819.42   97.29
  -3  -5   1 1475.15   92.09
   2   5  -1  587.54   36.90
   2   5  -1  521.15   63.69
   2   5  -1  673.83   40.80
   2   5  -1  671.63   53.69
   2   5  -1  605.84   46.70
  -2  -5   1  662.53   51.19
  -2  -5   1  662.03   39.00
  -2  -5   1  640.94   50.09
   1   5  -1  279.17   28.90
   1   5  -1  292.67   33.50
   1   5  -1  198.68   41.70
   1   5  -1  320.57   24.90
  -1  -5   1  320.67   32.30
  -1  -5   1  308.17   23.60
  -1  -5   1  293.77   31.80
   0   5  -1  871.61   60.09
   0   5  -1  965.20   50.89
   0   5  -1  997.00   57.89
   0  -5   1  980.20   59.49
   0  -5   1  999.10   70.99
   0  -5   1 1032.00   57.49
   0  -5   1  965.90   82.09
  -1   5  -1  673.33   44.10
  -1   5  -1  573.74   69.99
  -1   5  -1  564.64   39.30
  -1   5  -1  628.34   36.30
   1  -5   1  593.64   60.19
   1  -5   1  634.64   42.10
   1  -5   1  672.63   45.80
   1  -5   1  593.64   34.10
  -2   5  -1   89.09   12.30
  -2   5  -1   78.29   15.60
  -2   5  -1   99.89   27.40
  -2   5  -1   52.99   11.80
  -2   5  -1   62.29   14.20
   2  -5   1   75.29    9.50
   2  -5   1  102.99   15.30
   2  -5   1   92.09   17.00
   2  -5   1   95.39   28.60
  -3   5  -1  434.16   47.90
  -3   5  -1  415.06   37.10
  -3   5  -1  489.55   36.80
   3  -5   1  435.06   35.50
   3  -5   1  483.55   56.19
  -4   5  -1 1249.07   67.29
  -4   5  -1 1259.57   76.29
  -4   5  -1 1237.98   86.79
   4  -5   1 1132.19   93.19
   4  -5   1 1253.57   67.99
   4  -5   1 1172.88   61.49
  -5   5  -1    2.70   17.20
  -5   5  -1    9.70   10.00
   5  -5   1   -5.00   14.20
   5  -5   1    6.30    7.00
  -6   5  -1  867.21   65.09
   6  -5   1  733.53   53.39
  -7   5  -1  203.68   34.20
   7  -5   1  125.59   25.00
   6   4  -1   18.20   15.90
   6   4  -1   15.00   16.30
   6   4  -1   21.80   10.60
   6   4  -1   17.20   18.20
  -6  -4   1   12.30   14.60
  -6  -4   1    8.10   10.20
  -6  -4   1  -17.60   11.80
   5   4  -1  855.21   61.59
   5   4  -1  813.42   48.30
   5   4  -1  784.32   64.09
   5   4  -1  772.62   57.69
  -5  -4   1  794.32   58.19
  -5  -4   1  831.12   55.69
  -5  -4   1  819.72   47.10
   4   4  -1  637.54   46.60
   4   4  -1  661.83   50.59
   4   4  -1  639.94   54.89
   4   4  -1  623.54   40.10
  -4  -4   1  654.93   49.80
  -4  -4   1  615.24   45.90
  -4  -4   1  655.63   39.10
   3   4  -1   33.10    9.80
   3   4  -1   40.50   13.30
   3   4  -1   41.10   14.70
   3   4  -1   33.20   10.10
  -3  -4   1   55.79   14.40
  -3  -4   1   34.60   12.90
  -3  -4   1   28.80   13.90
  -3  -4   1   52.39   10.80
   2   4  -1  975.80   52.19
   2   4  -1 1029.80   65.89
   2   4  -1 1069.59   54.19
   2   4  -1 1079.89   61.89
  -2  -4   1 1034.80   58.49
  -2  -4   1 1045.10   63.99
  -2  -4   1 1055.19   64.59
   1   4  -1 1458.25   98.79
   1   4  -1 1398.66   66.09
   1   4  -1 1402.26   77.69
   1   4  -1 1427.26   73.29
  -1  -4   1 1490.05   77.29
  -1  -4   1 1371.36   64.69
  -1  -4   1 1361.96   74.59
   0   4  -1   -5.00    4.80
   0   4  -1    3.10    6.60
   0   4  -1   -1.40    9.10
   0   4  -1    8.20    4.60
   0  -4   1   10.30    5.80
   0  -4   1    4.00    5.30
   0  -4   1   -0.20    3.00
  -1   4  -1  412.56   32.00
  -1   4  -1  426.76   29.40
  -1   4  -1  439.36   44.60
  -1   4  -1  425.36   25.30
   1  -4   1  413.36   46.50
   1  -4   1  398.06   29.00
   1  -4   1  381.66   23.40
   1  -4   1  404.96   30.60
  -2   4  -1 2074.79   99.09
  -2   4  -1 2146.39  116.49
  -2   4  -1 2088.59   94.49
   2  -4   1 2246.08   99.79
   2  -4   1 2358.86  129.69
   2  -4   1 2150.18   95.59
  -3   4  -1    2.10    5.90
  -3   4  -1   12.20    5.60
  -3   4  -1    4.60    8.10
   3  -4   1   -3.60    5.00
   3  -4   1    8.90   10.70
   3  -4   1   12.70    4.90
  -4   4  -1 1435.66   90.49
  -4   4  -1 1325.17   79.49
   4  -4   1 1413.76   69.59
   4  -4   1 1366.36   95.89
   4  -4   1 1357.76   65.59
  -5   4  -1  791.82   65.89
  -5   4  -1  797.62   58.49
   5  -4   1  690.93   68.19
  -6   4  -1  126.29   23.90
   6  -4   1  123.99   33.30
  -7   4  -1  265.27   37.20
   7  -4   1  254.17   49.10
   7  -4   1  293.17   40.60
   7   3  -1  395.16   45.70
   7   3  -1  378.56   45.50
  -7  -3   1  276.87   37.60
  -7  -3   1  406.76   37.30
   6   3  -1  294.97   44.40
   6   3  -1  257.97   47.90
   6   3  -1  252.67   25.00
  -6  -3   1  345.67   40.10
  -6  -3   1  335.57   25.50
   5   3  -1   20.50   12.60
   5   3  -1   25.60    9.20
   5   3  -1   17.40   12.30
   5   3  -1   20.30   14.00
  -5  -3   1   16.40    8.90
  -5  -3   1   14.00   11.80
  -5  -3   1    8.80    7.50
   4   3  -1  547.65   44.00
   4   3  -1  611.84   49.70
   4   3  -1  587.14   36.00
  -4  -3   1  624.34   44.30
  -4  -3   1  589.64   34.60
  -4  -3   1  650.33   43.10
   3   3  -1 1163.38   58.59
   3   3  -1 1287.77   74.19
   3   3  -1 1187.98   67.29
  -3  -3   1 1273.97   67.19
  -3  -3   1 1261.67   69.39
  -3  -3   1 1229.28   57.99
   2   3  -1   73.19   16.30
   2   3  -1   67.59   10.00
   2   3  -1   77.59   15.00
  -2  -3   1   76.89   10.40
  -2  -3   1  104.49   16.20
  -2  -3   1   89.19   15.40
   1   3  -1 1666.53   70.89
   1   3  -1 1622.84   76.89
   1   3  -1 1573.64   79.59
   1   3  -1 1467.05   67.79
  -1  -3   1 1729.23   80.29
  -1  -3   1 1590.64   69.59
  -1  -3   1 1714.33   79.49
   0   3  -1 2953.90  125.29
   0   3  -1 3039.10  134.89
   0   3  -1 3158.08  131.79
   0   3  -1 3550.34  158.28
   0  -3   1 3152.38  132.89
   0  -3   1 3023.60  124.79
   0  -3   1 3141.39  133.69
   0  -3   1 3553.94  159.68
  -1   3  -1   17.20    5.50
  -1   3  -1   16.80   10.50
  -1   3  -1   22.50    5.00
  -1   3  -1   18.70    6.50
   1  -3   1   35.70   13.60
   1  -3   1   25.40    4.90
   1  -3   1   17.00    5.90
   1  -3   1   28.90    6.70
  -2   3  -1 3021.70  127.39
  -2   3  -1 3364.26  148.79
  -2   3  -1 3004.00  129.19
   2  -3   1 2995.60  126.89
   2  -3   1 3365.06  155.48
   2  -3   1 3243.28  130.59
  -3   3  -1  820.42   42.30
  -3   3  -1  659.73   45.00
  -3   3  -1  845.62   58.89
   3  -3   1  791.62   42.80
   3  -3   1  826.52   61.49
   3  -3   1  801.52   40.50
  -4   3  -1   21.20   11.80
  -4   3  -1   20.90   10.30
   4  -3   1   25.30    6.70
   4  -3   1   15.70   11.80
  -5   3  -1  474.55   42.10
   5  -3   1  484.75   51.49
  -6   3  -1  572.04   41.80
  -6   3  -1  594.14   50.69
   6  -3   1  551.44   59.79
  -7   3  -1   89.59   32.30
  -7   3  -1   87.19   20.00
   7  -3   1   98.79   32.90
   7   2  -1   -1.50   10.90
   7   2  -1    8.60   14.10
  -7  -2   1    9.40    9.30
   6   2  -1  581.04   48.80
   6   2  -1  600.14   35.90
   6   2  -1  625.34   48.10
  -6  -2   1  563.94   41.70
   5   2  -1  575.04   43.10
   5   2  -1  628.84   47.50
  -5  -2   1  613.44   47.10
  -5  -2   1  498.65   40.60
  -5  -2   1  582.64   39.60
  -5  -2   1  548.75   37.90
   4   2  -1   17.50    6.90
   4   2  -1   12.80    6.00
   4   2  -1    8.70    7.60
  -4  -2   1    3.40    5.00
  -4  -2   1   22.80    9.50
  -4  -2   1    3.60    3.90
   3   2  -1 1572.74   86.39
   3   2  -1 1506.05   76.19
   3   2  -1 1456.65   66.39
  -3  -2   1 1479.15   65.39
  -3  -2   1 1511.55   73.89
  -3  -2   1 1660.23   73.89
  -3  -2   1 1442.76   75.39
   2   2  -1 1011.60   46.70
   2   2  -1 1027.00   56.09
   2   2  -1  951.90   54.39
  -2  -2   1 1064.99   54.29
  -2  -2   1 1120.29   54.29
  -2  -2   1  967.10   45.70
   1   2  -1   35.60    6.00
   1   2  -1   35.30    7.90
   1   2  -1   33.20    5.60
   1   2  -1   28.80    8.00
  -1  -2   1   30.00    7.50
  -1  -2   1   47.00    8.80
  -1  -2   1   37.20    6.30
   0   2  -1 2315.37   92.59
   0   2  -1 2439.46   97.69
   0   2  -1 2349.26   98.69
   0  -2   1 2344.17   92.29
   0  -2   1 2388.06   98.49
   0  -2   1 2419.76   97.79
  -1   2  -1  658.93   32.50
  -1   2  -1  770.82   45.70
  -1   2  -1  617.94   32.60
   1  -2   1  667.23   33.50
   1  -2   1  531.25   38.50
   1  -2   1  731.13   47.40
  -2   2  -1  145.19   19.40
  -2   2  -1  144.79   13.00
   2  -2   1  140.99   13.20
   2  -2   1  146.89   13.20
   2  -2   1  158.38   12.30
   2  -2   1  160.18   21.70
  -3   2  -1 1294.47   60.99
  -3   2  -1 1320.77   75.39
  -3   2  -1 1310.37   59.69
  -3   2  -1 1237.08   60.89
   3  -2   1 1224.58   59.49
   3  -2   1 1345.77   79.89
   3  -2   1 1344.17   65.69
   3  -2   1 1282.87   57.89
  -4   2  -1 1220.78   69.79
  -4   2  -1 1184.88   60.59
   4  -2   1 1229.28   80.49
   4  -2   1 1221.08   59.69
  -5   2  -1  223.28   21.70
  -5   2  -1  186.58   25.70
   5  -2   1  213.38   20.90
   5  -2   1  197.08   33.00
  -6   2  -1  365.26   38.50
  -6   2  -1  431.06   33.00
   6  -2   1  367.26   48.60
  -7   2  -1  909.11   57.19
  -7   2  -1  928.81   67.59
   7  -2   1  882.01   81.19
   8   1  -1  183.88   42.70
  -8  -1   1  235.88   27.40
   7   1  -1  552.04   59.29
  -7  -1   1  567.24   42.10
  -6  -1   1   81.69   17.30
  -5  -1   1 1124.19   59.89
   4   1  -1  811.72   40.50
   4   1  -1  880.71   49.30
  -4  -1   1  895.21   47.40
   3   1  -1  191.98   13.70
   3   1  -1  214.88   19.50
   3   1  -1  192.98   18.10
  -3  -1   1  228.28   18.10
  -3  -1   1  195.08   13.20
   2   1  -1   24.70    4.40
   2   1  -1   31.60    7.60
   2   1  -1   31.10    7.00
   2   1  -1   40.10    8.40
  -2  -1   1   32.40    7.30
  -2  -1   1   31.80    7.90
  -2  -1   1   23.30    4.10
   1   1  -1 1178.88   54.49
   1   1  -1 1291.97   55.29
   1   1  -1 1318.87   52.39
  -1  -1   1 1256.67   55.19
  -1  -1   1 1494.65   57.69
  -1  -1   1 1320.37   52.19
   0   1  -1  918.11   39.20
   0   1  -1 1040.90   45.00
   0   1  -1 1152.08   51.69
   0   1  -1  946.01   42.40
   0  -1   1  969.90   42.00
   0  -1   1 1156.78   52.49
   0  -1   1  984.40   42.90
   0  -1   1  933.81   39.30
  -1   1  -1 1073.49   46.20
  -1   1  -1 1117.99   47.60
  -1   1  -1 1165.58   55.39
   1  -1   1 1124.69   55.39
   1  -1   1 1121.09   46.40
   1  -1   1 1084.19   46.20
   1  -1   1 1123.89   47.60
  -2   1  -1 2179.68   98.29
  -2   1  -1 2168.78   88.89
  -2   1  -1 2151.68   86.29
   2  -1   1 2075.59   85.09
   2  -1   1 2086.09   87.09
   2  -1   1 2080.49   85.59
   2  -1   1 2029.10   98.89
  -3   1  -1   97.29   11.80
  -3   1  -1  136.19   15.60
   3  -1   1  102.39   12.70
   3  -1   1  108.19   18.30
   3  -1   1  122.69   12.10
   3  -1   1  108.69   12.20
  -4   1  -1  448.36   27.20
  -4   1  -1  439.96   34.90
  -4   1  -1  464.15   30.30
   4  -1   1  454.45   30.40
   4  -1   1  435.16   31.00
   4  -1   1  490.25   44.90
  -5   1  -1  881.61   56.69
  -5   1  -1  855.21   49.70
   5  -1   1  838.12   50.59
   5  -1   1  900.51   69.29
   5  -1   1  877.01   50.59
  -6   1  -1   20.00    9.20
  -6   1  -1   17.00   11.00
   6  -1   1   12.90   13.30
  -7   1  -1  116.09   22.80
  -7   1  -1  127.89   19.90
   7  -1   1  111.39   33.90
   8   0  -1  -15.80   15.70
  -8   0   1   16.00    9.90
  -8   0   1   12.90   12.90
   7   0  -1  779.62   68.49
  -7   0   1  671.23   46.20
  -7   0   1  627.44   50.19
   6   0  -1  971.30   75.39
  -6   0   1  967.30   55.79
  -6   0   1  970.90   60.89
  -5   0   1  109.39   16.90
  -5   0   1  111.49   15.40
  -4   0   1 2586.34  109.89
  -4   0   1 2563.84  114.49
   3   0  -1 2501.85  111.69
  -3   0   1 2579.54  110.49
  -3   0   1 2707.43  108.29
   2   0  -1 1416.86   59.39
   2   0  -1 1354.46   60.69
   2   0  -1 1394.76   63.09
  -2   0   1 1429.56   58.99
  -2   0   1 1359.56   54.59
  -2   0   1 1383.96   61.19
   1   0  -1 1534.25   60.69
   1   0  -1 1505.45   57.59
   1   0  -1 1488.65   57.59
   1   0  -1 1462.95   56.19
   1   0  -1 1425.96   59.79
  -1   0   1 1525.85   60.49
  -1   0   1 1436.06   56.29
  -1   0   1 1434.96   57.29
  -1   0   1 1372.36   59.49
   0   0  -1    0.80    1.00
  -1   0  -1  630.44   33.30
  -1   0  -1  662.53   28.80
  -1   0  -1  671.33   30.80
   1   0   1  678.93   33.30
   1   0   1  681.63   31.80
   1   0   1  668.53   29.10
  -2   0  -1 2055.89   85.59
  -2   0  -1 2084.69   84.59
  -2   0  -1 2067.49   91.69
   2   0   1 2086.39   87.59
   2   0   1 2107.09   90.29
   2   0   1 2094.99   85.59
  -3   0  -1 1817.02   87.09
  -3   0  -1 1873.61   79.29
   3   0   1 1815.12   82.49
   3   0   1 1774.62   79.89
   3   0   1 1834.02   84.79
  -4   0  -1   -2.70    7.40
  -4   0  -1    9.00    5.20
  -4   0  -1    8.70    5.10
   4   0   1   -1.60    5.70
   4   0   1   -2.60    5.20
   4   0   1   -4.00    5.20
  -5   0  -1  222.48   20.40
  -5   0  -1  279.77   27.20
  -5   0  -1  244.88   22.40
  -5   0  -1  207.08   30.60
   5   0   1  213.98   26.10
   5   0   1  228.48   25.80
   5   0   1  261.47   35.10
  -6   0  -1  423.26   37.00
  -6   0  -1  440.86   33.60
   6   0   1  463.55   50.49
   6   0   1  332.97   36.80
   6   0   1  406.66   35.00
  -7   0  -1   48.10   15.30
  -7   0  -1   66.49   15.80
   7   0   1   54.29   15.00
   7   0   1   30.80   16.00
   7   0   1   39.10   20.00
   8  -1  -1  291.37   48.90
  -8   1   1  266.57   35.50
  -8   1   1  281.47   30.10
   7  -1  -1    2.30   13.60
   7  -1  -1   22.10   15.60
  -7   1   1   17.80   13.20
  -7   1   1   22.40   11.90
   6  -1  -1  625.24   58.19
   6  -1  -1  555.84   48.10
  -6   1   1  648.64   48.90
  -6   1   1  653.43   42.50
   5  -1  -1  319.17   38.10
  -5   1   1  323.87   31.20
  -5   1   1  316.47   25.90
   4  -1  -1  234.38   28.70
  -4   1   1  233.68   19.50
   3  -1  -1  337.47   25.50
   3  -1  -1  342.57   30.40
   3  -1  -1  298.17   23.30
  -3   1   1  337.87   26.20
  -3   1   1  323.67   22.10
   2  -1  -1 4591.84  178.58
   2  -1  -1 4554.64  174.98
   2  -1  -1 4414.96  173.98
   2  -1  -1 4719.93  184.88
   2  -1  -1 4547.94  180.78
  -2   1   1 4606.24  181.48
  -2   1   1 4683.13  175.28
   1  -1  -1  766.12   33.80
   1  -1  -1  799.52   33.00
   1  -1  -1  755.22   33.80
   1  -1  -1  792.52   37.30
   1  -1  -1  738.83   36.40
  -1   1   1  751.82   33.60
  -1   1   1  770.92   36.30
  -1   1   1  770.52   33.90
  -1   1   1  749.62   36.50
   0  -1  -1 3454.55  135.59
   0  -1  -1 3356.56  131.29
   0   1   1 3328.07  133.09
   0   1   1 3366.66  131.49
  -1  -1  -1 2003.40   77.39
  -1  -1  -1 1889.51   84.79
  -1  -1  -1 1866.21   76.39
  -1  -1  -1 1872.71   80.49
   1   1   1 1860.51   81.09
   1   1   1 1880.81   83.69
  -2  -1  -1   57.89    7.40
  -2  -1  -1   67.19   13.00
  -2  -1  -1   56.69    9.90
  -2  -1  -1   59.09    8.60
   2   1   1   68.29   10.70
   2   1   1   62.29   11.70
   2   1   1   73.09    9.50
   2   1   1   68.69    8.10
  -3  -1  -1 1680.03   73.09
  -3  -1  -1 1570.54   83.09
  -3  -1  -1 1611.94   74.79
   3   1   1 1601.14   75.39
   3   1   1 1556.44   91.89
   3   1   1 1601.94   78.39
  -4  -1  -1  877.71   48.30
  -4  -1  -1  937.21   60.09
  -4  -1  -1  868.81   49.00
   4   1   1  882.11   55.89
   4   1   1  942.41   55.39
  -5  -1  -1  158.98   26.00
  -5  -1  -1  240.08   22.10
   5   1   1  215.08   26.20
   5   1   1  212.28   33.50
  -6  -1  -1  395.66   37.40
  -6  -1  -1  422.46   33.80
   6   1   1  417.46   44.40
   6   1   1  464.15   50.99
   6   1   1  417.96   38.60
  -7  -1  -1 1080.69   62.69
   7   1   1 1029.40   86.39
   7   1   1 1055.79   71.79
   7   1   1  946.31   66.09
   8  -2  -1  366.46   54.59
  -8   2   1  316.27   40.50
  -8   2   1  308.37   31.70
   7  -2  -1  232.78   36.00
   7  -2  -1  293.77   43.80
  -7   2   1  257.17   34.70
  -7   2   1  304.37   29.60
   6  -2  -1  376.16   44.40
   6  -2  -1  338.07   35.70
  -6   2   1  370.46   37.40
  -6   2   1  353.86   30.10
   5  -2  -1  124.09   20.40
   5  -2  -1  155.38   26.60
  -5   2   1  111.69   15.60
  -5   2   1  126.09   20.10
   4  -2  -1 1981.30  106.19
   4  -2  -1 1929.41   92.69
  -4   2   1 2037.40   98.59
  -4   2   1 1914.11   87.59
   3  -2  -1 1472.95   68.79
   3  -2  -1 1421.06   63.99
   3  -2  -1 1414.46   65.29
   3  -2  -1 1459.35   78.79
  -3   2   1 1448.16   66.19
  -3   2   1 1549.54   74.89
  -3   2   1 1462.95   76.69
   2  -2  -1  701.93   35.80
   2  -2  -1  741.13   42.00
   2  -2  -1  718.73   36.00
   2  -2  -1  792.42   46.80
  -2   2   1  734.93   41.90
  -2   2   1  736.53   36.40
  -2   2   1  768.02   44.40
   1  -2  -1 1652.03   72.29
   1  -2  -1 1496.85   72.09
   1  -2  -1 1945.01   84.09
  -1   2   1 1646.64   71.09
  -1   2   1 1517.45   72.19
  -1   2   1 1864.71   81.79
   0  -2  -1   68.79   11.20
   0  -2  -1   74.89    8.60
   0  -2  -1   66.59    7.30
   0  -2  -1   64.89   10.60
   0   2   1   70.09   11.20
   0   2   1   54.59    9.60
  -1  -2  -1  510.65   35.60
  -1  -2  -1  489.15   32.10
  -1  -2  -1  494.35   27.70
   1   2   1  477.65   34.50
   1   2   1  497.05   32.70
   1   2   1  516.35   28.50
  -2  -2  -1  705.83   42.70
  -2  -2  -1  692.73   47.10
  -2  -2  -1  673.53   36.10
   2   2   1  725.93   47.00
   2   2   1  700.83   43.60
   2   2   1  702.23   37.20
  -3  -2  -1  450.75   27.50
  -3  -2  -1  441.26   39.90
  -3  -2  -1  494.35   31.00
  -3  -2  -1  428.26   33.00
   3   2   1  381.06   47.90
   3   2   1  455.85   28.50
   3   2   1  423.76   35.00
   3   2   1  475.55   38.40
  -4  -2  -1  327.77   29.60
  -4  -2  -1  374.16   39.00
  -4  -2  -1  361.26   24.90
  -4  -2  -1  370.56   28.50
   4   2   1  386.36   36.60
   4   2   1  372.46   34.30
   4   2   1  340.57   25.10
  -5  -2  -1 1231.08   65.29
  -5  -2  -1 1152.58   65.59
   5   2   1 1158.18   73.59
   5   2   1 1288.17   77.59
  -6  -2  -1   39.60   14.10
  -6  -2  -1   55.79   14.20
   6   2   1   63.19   20.40
  -7  -2  -1  186.28   36.50
  -7  -2  -1  231.88   26.60
   7   2   1  168.48   37.50
   7   2   1  188.18   31.60
   7   2   1  182.98   32.40
   8  -3  -1   29.30   25.10
  -8   3   1   49.20   15.70
  -8   3   1   46.50   22.10
   7  -3  -1  396.56   54.39
   7  -3  -1  418.66   45.80
  -7   3   1  396.96   43.70
  -7   3   1  359.76   33.90
   6  -3  -1  980.80   62.59
   6  -3  -1  875.81   76.09
  -6   3   1  907.51   65.69
  -6   3   1 1010.00   57.89
   5  -3  -1    3.10    8.30
   5  -3  -1    1.90    9.50
  -5   3   1    7.30    8.00
  -5   3   1   -4.60    5.00
   4  -3  -1 1133.79   59.39
   4  -3  -1 1087.69   74.09
  -4   3   1 1065.59   65.69
  -4   3   1 1121.49   70.09
   3  -3  -1 1555.84   86.29
   3  -3  -1 1407.26   67.09
   3  -3  -1 1401.36   66.19
  -3   3   1 1493.05   80.99
  -3   3   1 1461.25   76.09
  -3   3   1 1386.96   65.59
   2  -3  -1   34.90    8.40
   2  -3  -1   21.10    6.70
   2  -3  -1   22.70   10.90
  -2   3   1   19.50    8.00
  -2   3   1   14.10    5.80
  -2   3   1   19.80    9.00
   1  -3  -1 1325.87   66.69
   1  -3  -1 1496.15   70.09
   1  -3  -1 1418.06   63.89
  -1   3   1 1561.14   68.79
  -1   3   1 1429.46   70.99
  -1   3   1 1668.83   84.79
  -1   3   1 1293.67   65.99
   0  -3  -1 2683.83  120.99
   0  -3  -1 2727.53  119.49
   0  -3  -1 2655.63  111.29
   0   3   1 2728.23  121.49
   0   3   1 2696.73  118.09
  -1  -3  -1  549.05   41.50
  -1  -3  -1  548.05   32.60
  -1  -3  -1  595.64   39.80
   1   3   1  552.34   41.20
   1   3   1  570.54   39.10
   1   3   1  583.44   33.90
  -2  -3  -1  244.18   28.40
  -2  -3  -1  213.38   19.20
  -2  -3  -1  269.67   24.50
  -2  -3  -1  225.58   24.30
   2   3   1  263.27   26.90
   2   3   1  245.48   28.40
   2   3   1  254.07   20.70
  -3  -3  -1 3070.19  136.09
  -3  -3  -1 3199.58  130.89
  -3  -3  -1 2902.41  142.79
  -3  -3  -1 2616.14  133.49
   3   3   1 2872.01  124.69
   3   3   1 2833.92  136.69
   3   3   1 3015.90  142.39
  -4  -3  -1  389.86   35.50
  -4  -3  -1  379.56   28.40
  -4  -3  -1  389.66   31.40
  -4  -3  -1  387.96   43.10
   4   3   1  353.76   37.40
   4   3   1  361.96   28.30
   4   3   1  392.66   41.10
  -5  -3  -1  228.78   24.50
  -5  -3  -1  201.38   26.60
  -5  -3  -1  196.08   21.20
   5   3   1  189.48   33.20
   5   3   1  259.57   34.80
  -6  -3  -1  364.86   38.60
  -6  -3  -1  480.75   37.90
  -6  -3  -1  409.36   31.90
   6   3   1  451.15   47.70
   6   3   1  401.46   48.40
   7  -4  -1    2.20   19.20
   7  -4  -1   11.40   23.40
  -7   4   1   21.80   14.00
   6  -4  -1  543.75   59.29
   6  -4  -1  533.85   43.60
  -6   4   1  561.24   50.39
   5  -4  -1  693.13   54.19
   5  -4  -1  677.03   63.39
  -5   4   1  751.72   60.29
  -5   4   1  743.53   55.79
   4  -4  -1   40.10   17.00
   4  -4  -1   17.80    7.90
  -4   4   1   -6.60    9.90
  -4   4   1   12.60    8.20
   3  -4  -1  585.94   34.60
   3  -4  -1  585.54   37.10
   3  -4  -1  480.45   52.19
  -3   4   1  580.34   42.40
  -3   4   1  550.64   35.60
  -3   4   1  608.34   48.50
   2  -4  -1 1216.48   62.29
   2  -4  -1 1065.29   53.39
   2  -4  -1 1223.68   79.89
   2  -4  -1 1094.29   59.99
  -2   4   1 1190.58   74.49
  -2   4   1 1164.78   57.99
  -2   4   1 1113.59   80.39
   1  -4  -1  320.77   37.60
   1  -4  -1  330.07   29.10
   1  -4  -1  268.27   37.00
   1  -4  -1  308.87   22.30
  -1   4   1  287.17   28.80
  -1   4   1  363.26   40.20
  -1   4   1  290.17   23.80
  -1   4   1  358.06   27.80
   0  -4  -1  930.01   49.40
   0  -4  -1  988.70   58.89
   0   4   1  988.30   73.89
   0   4   1 1035.60   57.69
   0   4   1  892.81   58.39
  -1  -4  -1 1263.57   70.09
  -1  -4  -1 1117.19   69.99
   1   4   1 1117.19   70.39
   1   4   1 1167.28   67.39
   1   4   1 1087.59   83.49
   1   4   1 1213.78   60.49
  -2  -4  -1   25.50    8.20
  -2  -4  -1   18.80   10.20
  -2  -4  -1   -0.90    9.40
  -2  -4  -1   30.80   12.80
   2   4   1   21.30    8.80
   2   4   1   10.10   10.50
   2   4   1   16.70   11.00
  -3  -4  -1  163.38   25.20
  -3  -4  -1  140.79   20.10
  -3  -4  -1  147.69   18.40
  -3  -4  -1  124.69   27.50
   3   4   1  150.88   27.50
   3   4   1  169.78   27.30
   3   4   1  139.59   17.70
  -4  -4  -1  267.27   42.60
  -4  -4  -1  347.27   29.20
  -4  -4  -1  347.97   32.20
  -4  -4  -1  347.97   37.40
   4   4   1  318.67   41.50
   4   4   1  352.66   29.30
   4   4   1  341.17   40.10
  -5  -4  -1   96.19   21.50
  -5  -4  -1  132.89   21.20
  -5  -4  -1  136.39   33.50
   5   4   1   82.29   25.40
   5   4   1  192.28   32.80
  -6  -4  -1   38.30   12.40
  -6  -4  -1   46.40   19.40
   6   4   1   43.90   21.00
   6   4   1   13.10   17.50
   7  -5  -1  447.96   62.39
   7  -5  -1  376.16   42.40
  -7   5   1  361.66   44.60
   6  -5  -1   57.29   16.00
   6  -5  -1   34.10   24.30
   5  -5  -1   85.69   18.50
   5  -5  -1   88.49   28.20
  -5   5   1   80.39   25.20
  -5   5   1  104.29   22.90
   4  -5  -1 1089.89   86.99
  -4   5   1 1173.38   60.99
  -4   5   1 1115.99   70.89
  -4   5   1 1113.69   78.49
   3  -5  -1 1060.09   59.09
   3  -5  -1  908.21   53.89
   3  -5  -1  971.40   77.69
   3  -5  -1  920.61   47.20
  -3   5   1  938.51   57.79
  -3   5   1 1022.30   55.49
  -3   5   1  933.31   60.39
  -3   5   1  952.00   72.19
   2  -5  -1  291.87   23.40
   2  -5  -1  348.17   31.40
   2  -5  -1  300.57   29.80
   2  -5  -1  320.17   42.60
  -2   5   1  337.17   28.20
  -2   5   1  312.47   28.30
  -2   5   1  333.57   32.50
  -2   5   1  315.57   41.10
   1  -5  -1  800.42   49.60
   1  -5  -1  750.32   67.99
   1  -5  -1  853.51   55.39
   1  -5  -1  793.02   53.79
  -1   5   1  823.52   52.09
  -1   5   1  832.72   56.19
  -1   5   1  790.22   46.60
  -1   5   1  711.63   67.39
   0  -5  -1  452.55   38.70
   0  -5  -1  368.16   38.30
   0  -5  -1  386.96   29.10
   0   5   1  394.36   49.40
   0   5   1  403.96   39.60
  -1  -5  -1  165.18   19.70
  -1  -5  -1  159.48   26.20
   1   5   1  201.58   27.10
   1   5   1  222.28   31.10
   1   5   1  217.98   21.70
   1   5   1  177.48   38.20
  -2  -5  -1  301.27   35.10
  -2  -5  -1  411.56   42.30
  -2  -5  -1  319.27   27.30
  -2  -5  -1  275.27   32.40
   2   5   1  310.87   38.30
   2   5   1  304.67   27.90
   2   5   1  279.27   47.50
   2   5   1  305.47   35.30
  -3  -5  -1  169.18   20.90
  -3  -5  -1   54.39   28.40
  -3  -5  -1   85.79   19.60
  -3  -5  -1  111.69   25.40
   3   5   1  125.69   19.10
   3   5   1  157.18   29.80
  -4  -5  -1   37.10   16.20
  -4  -5  -1    1.40   39.30
  -4  -5  -1   20.20   12.30
   4   5   1   73.99   20.60
   4   5   1   61.99   20.30
  -5  -5  -1  433.96   40.70
  -5  -5  -1  494.25   38.60
  -5  -5  -1  520.65   50.49
   5   5   1  404.86   51.29
   5   5   1  452.25   54.29
   7  -6  -1   29.60   17.60
   7  -6  -1   64.29   34.80
  -7   6   1    7.90   16.80
   6  -6  -1  565.44   69.19
   6  -6  -1  625.84   45.00
  -6   6   1  507.85   76.49
  -6   6   1  642.64   55.39
   5  -6  -1  252.17   46.50
  -5   6   1  315.17   36.70
  -5   6   1  348.67   48.70
   4  -6  -1  159.58   22.60
   4  -6  -1  230.78   49.90
   4  -6  -1  188.08   26.30
  -4   6   1  177.58   36.20
  -4   6   1  202.88   24.50
  -4   6   1  177.28   27.20
   3  -6  -1 1544.55   84.49
   3  -6  -1 1340.57  105.39
   3  -6  -1 1407.16   68.99
  -3   6   1 1600.64  102.59
  -3   6   1 1501.95   83.79
   2  -6  -1  286.17   24.20
   2  -6  -1  281.87   31.50
   2  -6  -1  224.28   42.20
   2  -6  -1  309.47   33.00
  -2   6   1  306.77   45.70
  -2   6   1  229.78   27.70
  -2   6   1  288.07   28.50
  -2   6   1  288.17   34.80
   1  -6  -1  671.03   51.59
   1  -6  -1  708.53   52.69
   1  -6  -1  631.84   40.60
  -1   6   1  617.94   42.10
  -1   6   1  624.14   67.99
  -1   6   1  605.74   47.40
  -1   6   1  695.73   54.39
   0  -6  -1 1216.58   76.89
   0  -6  -1 1227.88   78.39
   0  -6  -1 1245.08   64.19
   0   6   1 1195.08   73.29
   0   6   1 1049.49   93.59
   0   6   1 1225.98   78.89
  -1  -6  -1  282.07   35.50
  -1  -6  -1  265.47   40.30
   1   6   1  272.07   38.90
   1   6   1  255.07   46.10
   1   6   1  328.27   37.10
  -2  -6  -1  214.68   32.60
   2   6   1  228.28   35.30
   2   6   1  144.89   42.60
   2   6   1  180.48   33.30
  -3  -6  -1 1044.40   73.59
  -3  -6  -1 1229.98   80.29
  -3  -6  -1 1035.50   89.39
   3   6   1 1307.07   88.09
   3   6   1 1181.48   80.09
  -4  -6  -1  214.38   37.80
  -4  -6  -1  218.58   29.90
   4   6   1  194.98   37.70
   4   6   1  210.98   36.60
  -5  -6  -1   28.90   24.70
  -5  -6  -1   67.69   20.90
   5   6   1   -4.20   21.80
   5   6   1   81.89   25.90
   6  -7  -1   33.10   32.40
  -6   7   1   36.60   20.00
   5  -7  -1  667.73   77.09
  -5   7   1  790.12   51.69
  -5   7   1  805.12   62.69
   4  -7  -1  -12.80   15.00
   4  -7  -1    6.30   12.00
  -4   7   1   20.70   12.60
  -4   7   1  -16.40   19.90
  -4   7   1  -29.00   21.00
  -4   7   1   15.80   11.60
   3  -7  -1  161.58   27.70
   3  -7  -1  179.18   30.10
   3  -7  -1  144.49   39.90
   3  -7  -1  201.38   21.20
  -3   7   1  246.58   37.40
  -3   7   1  234.28   28.70
  -3   7   1  125.09   37.00
   2  -7  -1  119.19   26.80
   2  -7  -1  150.08   20.30
   2  -7  -1  100.69   31.90
   2  -7  -1  125.09   25.70
  -2   7   1  171.88   26.90
  -2   7   1  139.59   28.30
  -2   7   1  165.98   39.40
  -2   7   1  149.69   22.20
   1  -7  -1  120.09   27.20
   1  -7  -1   99.09   24.20
   1  -7  -1  131.09   20.40
  -1   7   1   93.09   21.00
  -1   7   1  107.09   40.00
  -1   7   1  108.59   27.40
  -1   7   1  149.09   20.60
   0  -7  -1   13.20   17.50
   0  -7  -1  -10.70   14.20
   0   7   1   52.49   20.30
   0   7   1  -10.30   13.30
   0   7   1   30.60   25.50
  -1  -7  -1  722.73   63.09
  -1  -7  -1  748.33   62.69
   1   7   1  808.92   61.19
   1   7   1  653.13   81.99
   1   7   1  833.42   67.99
  -2  -7  -1  408.76   51.49
  -2  -7  -1  464.75   50.29
   2   7   1  523.35   54.19
   2   7   1  454.55   50.59
  -3  -7  -1   58.59   20.20
  -3  -7  -1   17.50   27.40
  -3  -7  -1   84.19   22.20
   3   7   1   67.79   17.40
   3   7   1   63.79   24.80
   3   7   1   62.99   25.80
  -4  -7  -1  429.56   44.90
  -4  -7  -1  431.46   55.59
   4   7   1  531.95   62.09
   4   7   1  539.45   59.69
   5  -8  -1  179.78   32.00
   5  -8  -1   94.49   42.20
  -5   8   1   96.49   25.20
  -5   8   1  113.49   21.50
   4  -8  -1  273.07   55.29
   4  -8  -1  361.96   41.20
  -4   8   1  275.97   35.40
  -4   8   1  351.66   39.60
  -4   8   1  425.76   66.79
   3  -8  -1  213.08   34.40
   3  -8  -1  170.88   23.80
   3  -8  -1  116.59   26.50
   3  -8  -1  183.28   47.20
  -3   8   1  172.98   26.90
  -3   8   1  140.99   31.60
   2  -8  -1    2.60   19.60
   2  -8  -1    0.10   15.40
   2  -8  -1   63.99   19.30
   2  -8  -1    6.10   24.80
  -2   8   1   51.69   22.80
  -2   8   1  -21.30   25.50
  -2   8   1   20.30   12.50
   1  -8  -1  477.75   49.80
   1  -8  -1  403.96   47.10
   1  -8  -1  419.46   35.60
  -1   8   1  359.76   43.80
  -1   8   1  364.86   48.30
  -1   8   1  460.35   73.99
   0  -8  -1  332.07   43.40
   0  -8  -1  265.27   46.30
   0   8   1  258.17   41.10
  -1  -8  -1   59.09   27.30
  -1  -8  -1   65.29   22.60
   1   8   1   26.30   22.70
   1   8   1   60.29   37.10
   1   8   1  128.59   30.60
  -2  -8  -1  277.27   50.09
  -2  -8  -1  175.28   36.10
  -2  -8  -1  219.48   37.40
   2   8   1  252.47   46.50
   2   8   1  192.38   40.00
   3  -9  -1  506.45   54.59
   3  -9  -1  554.74   44.40
   3  -9  -1  422.66   72.29
   3  -9  -1  514.85   53.69
  -3   9   1  573.34   51.19
  -3   9   1  417.06   62.69
   2  -9  -1  151.78   33.70
   2  -9  -1  118.69   28.70
  -2   9   1  149.39   34.30
  -2   9   1   26.20   61.79
  -2   9   1  170.68   26.80
   1  -9  -1  141.69   33.30
   1  -9  -1  123.29   31.60
  -1   9   1  155.18   34.30
   0  -9  -1  370.76   53.29
   0  -9  -1  286.97   46.00
   0   9   1  253.17   47.30
   2   9  -2  123.29   21.90
   2   9  -2   48.30   31.90
   2   9  -2  198.08   38.00
   1   9  -2  307.97   52.19
   1   9  -2  364.36   35.60
   1   9  -2  297.77   52.99
  -1  -9   2  342.17   50.89
   0   9  -2   47.30   23.50
   0   9  -2   11.90   21.80
   0   9  -2   16.70   14.00
   0  -9   2   -1.90   18.80
   0  -9   2   41.00   19.60
  -1   9  -2  194.98   37.40
  -1   9  -2  219.88   27.30
   1  -9   2  230.78   44.60
   1  -9   2  185.98   34.20
   1  -9   2  275.37   29.80
  -2   9  -2  427.46   40.20
  -2   9  -2  338.27   59.19
   2  -9   2  318.77   68.39
   2  -9   2  482.05   56.19
   2  -9   2  392.96   49.00
   2  -9   2  452.15   33.90
  -3   9  -2    5.00   26.20
  -3   9  -2   17.50   15.20
   3  -9   2   -0.40   12.50
   3  -9   2   59.29   33.00
   3  -9   2   -2.10   18.10
   3  -9   2   53.59   22.20
   3   8  -2  366.76   50.19
   3   8  -2  442.56   38.60
  -3  -8   2  459.65   54.79
   2   8  -2  181.98   25.10
   2   8  -2  178.08   35.70
   2   8  -2  262.17   39.70
  -2  -8   2  214.98   39.90
  -2  -8   2  105.99   49.99
   1   8  -2  215.68   40.80
   1   8  -2  191.88   50.29
   1   8  -2  198.98   36.30
  -1  -8   2  147.99   28.90
  -1  -8   2  218.98   27.00
  -1  -8   2  243.78   38.20
   0   8  -2  348.17   46.30
   0   8  -2  353.16   30.70
   0   8  -2  243.88   35.60
   0  -8   2  228.48   35.20
   0  -8   2  232.38   39.80
   0  -8   2  315.07   29.20
  -1   8  -2  129.49   20.70
  -1   8  -2  152.38   21.80
  -1   8  -2  166.48   32.50
  -1   8  -2  118.19   34.80
   1  -8   2  151.58   37.50
   1  -8   2  152.88   30.90
   1  -8   2  111.79   39.90
   1  -8   2  138.19   19.80
  -2   8  -2    7.60   31.30
  -2   8  -2   40.60   19.80
  -2   8  -2   -2.20   15.50
  -2   8  -2   20.20   14.00
   2  -8   2   17.30   14.70
   2  -8   2   17.00   10.50
   2  -8   2   27.10   28.00
   2  -8   2   23.70   15.70
  -3   8  -2  490.25   52.89
  -3   8  -2  367.96   64.09
  -3   8  -2  505.95   45.60
   3  -8   2  458.75  115.19
   3  -8   2  510.85   53.49
   3  -8   2  507.35   44.20
  -4   8  -2  176.88   31.40
   4  -8   2  154.28   29.80
   4  -8   2  162.08   25.60
   4  -8   2  131.69   48.20
  -5   8  -2  186.38   34.80
   5  -8   2  274.27   35.20
   5  -8   2  186.48   29.20
   5  -8   2  217.58   59.69
   4   7  -2   21.90   10.70
   4   7  -2   -3.10   19.30
   4   7  -2    9.20   13.80
   4   7  -2  -12.50   18.30
  -4  -7   2    7.90   20.00
  -4  -7   2   22.10   16.30
   3   7  -2  390.46   43.20
   3   7  -2  361.36   34.60
   3   7  -2  295.57   61.29
   3   7  -2  324.87   47.90
  -3  -7   2  295.07   53.99
  -3  -7   2  348.47   45.60
  -3  -7   2  347.07   43.70
   2   7  -2  333.97   42.80
   2   7  -2  299.57   28.70
   2   7  -2  250.57   35.70
  -2  -7   2  264.47   37.90
  -2  -7   2  224.88   35.90
   1   7  -2  296.97   27.30
   1   7  -2  306.77   35.80
   1   7  -2  292.57   38.60
   1   7  -2  200.38   49.10
  -1  -7   2  249.97   34.70
  -1  -7   2  228.98   36.30
  -1  -7   2  234.48   24.60
   0   7  -2  185.68   31.50
   0   7  -2  168.58   43.50
   0   7  -2  184.28   21.10
   0   7  -2  128.59   25.20
   0  -7   2  141.59   18.70
   0  -7   2  138.09   32.00
   0  -7   2  206.78   32.30
  -1   7  -2 1332.47   84.39
  -1   7  -2 1411.16   73.49
  -1   7  -2 1279.57   74.89
  -1   7  -2 1304.37   67.29
  -1   7  -2 1197.48  103.69
   1  -7   2 1246.78   81.29
   1  -7   2 1413.96   78.59
   1  -7   2 1159.38  107.49
   1  -7   2 1344.57   64.59
  -2   7  -2  218.28   26.70
  -2   7  -2  178.08   20.80
  -2   7  -2  211.58   42.20
  -2   7  -2  249.48   27.80
   2  -7   2  147.59   43.50
   2  -7   2  201.88   19.00
   2  -7   2  180.08   28.50
   2  -7   2  263.07   28.70
  -3   7  -2  340.57   37.70
  -3   7  -2  284.57   56.99
  -3   7  -2  343.77   36.10
   3  -7   2  389.96   34.40
   3  -7   2  260.67   51.89
   3  -7   2  267.47   33.40
  -4   7  -2 1008.20   64.99
  -4   7  -2  716.63   92.09
  -4   7  -2  947.81   64.49
   4  -7   2  641.04   72.79
   4  -7   2  789.72   84.99
   4  -7   2  784.22   52.79
  -5   7  -2   37.60   23.40
  -5   7  -2   47.40   18.20
   5  -7   2   62.49   17.80
   5  -7   2   43.40   17.10
   5  -7   2   14.00   27.70
  -6   7  -2   51.79   19.70
   6  -7   2   40.70   16.60
   6  -7   2   21.90   14.70
   6  -7   2   49.90   34.10
   5   6  -2   22.50   20.70
   5   6  -2   32.10   20.50
   5   6  -2   39.00   15.00
  -5  -6   2   61.99   19.80
  -5  -6   2   58.29   21.10
   4   6  -2  178.48   32.30
   4   6  -2  214.68   24.30
   4   6  -2  220.78   36.20
   4   6  -2  175.78   27.70
  -4  -6   2  124.99   28.80
  -4  -6   2  186.48   28.50
  -4  -6   2  185.68   35.60
  -4  -6   2  253.97   41.20
   3   6  -2   43.80   12.40
   3   6  -2   54.59   19.50
   3   6  -2   84.89   16.00
   3   6  -2   30.50   19.70
  -3  -6   2   87.09   21.10
  -3  -6   2   10.40   16.90
  -3  -6   2   76.89   21.60
   2   6  -2  134.89   24.50
   2   6  -2  135.09   18.30
   2   6  -2  135.99   28.10
   2   6  -2   77.69   31.30
  -2  -6   2  114.79   35.50
  -2  -6   2  136.59   26.30
   1   6  -2  986.30   55.09
   1   6  -2  915.11   88.49
   1   6  -2 1036.00   70.49
   1   6  -2  977.90   67.69
  -1  -6   2  955.40   67.59
  -1  -6   2 1054.29   53.79
  -1  -6   2  990.20   67.19
   0   6  -2  146.09   27.10
   0   6  -2  100.69   15.60
   0   6  -2  152.98   22.50
   0   6  -2  117.19   33.80
   0  -6   2  126.09   37.00
   0  -6   2  135.49   21.50
   0  -6   2  149.99   16.60
   0  -6   2  143.99   23.10
  -1   6  -2  578.24   42.30
  -1   6  -2  542.85   62.89
  -1   6  -2  564.94   35.70
   1  -6   2  572.04   42.20
   1  -6   2  629.64   34.30
   1  -6   2  482.65   62.79
   1  -6   2  582.44   46.30
  -2   6  -2 1428.16   80.29
  -2   6  -2 1299.97   96.29
  -2   6  -2 1358.66   65.39
   2  -6   2 1395.76   73.29
   2  -6   2 1370.66   78.39
   2  -6   2 1233.08  105.69
   2  -6   2 1340.27   61.19
  -3   6  -2   31.60   11.20
  -3   6  -2    7.70   16.10
  -3   6  -2   58.59   13.40
  -3   6  -2   18.60   11.80
   3  -6   2   35.30   10.50
   3  -6   2   46.20   24.70
   3  -6   2   22.90   11.90
  -4   6  -2    5.90    9.90
  -4   6  -2   37.30   14.30
  -4   6  -2  -22.30   17.00
   4  -6   2    7.80   10.20
   4  -6   2   41.70   24.00
   4  -6   2   31.20   12.70
  -5   6  -2  395.06   57.79
  -5   6  -2  499.35   47.30
   5  -6   2  446.26   60.29
   5  -6   2  430.46   65.49
   5  -6   2  484.15   36.70
  -6   6  -2  413.66   46.70
   6  -6   2  435.96   66.09
   6  -6   2  390.96   39.10
   6  -6   2  448.26   38.80
   6  -6   2  308.17   33.80
   6   5  -2  387.96   34.20
   6   5  -2  385.56   50.19
   6   5  -2  399.86   46.00
  -6  -5   2  406.56   46.80
  -6  -5   2  406.56   41.90
  -6  -5   2  373.36   38.60
   5   5  -2  148.99   32.00
   5   5  -2   80.49   19.80
   5   5  -2   66.19   21.60
   5   5  -2   86.49   17.50
  -5  -5   2  118.89   25.10
  -5  -5   2  115.09   26.60
   4   5  -2  107.39   21.40
   4   5  -2  143.09   25.90
   4   5  -2  139.69   18.70
   4   5  -2   90.79   24.30
  -4  -5   2  150.78   18.80
  -4  -5   2  121.29   25.40
  -4  -5   2  123.99   24.40
  -4  -5   2  142.09   27.90
   3   5  -2 1422.66   77.99
   3   5  -2 1355.16   78.29
   3   5  -2 1414.86   87.59
   3   5  -2 1152.08  102.89
   3   5  -2 1443.76   70.89
  -3  -5   2 1498.45   85.29
  -3  -5   2 1434.96   82.69
  -3  -5   2 1180.18   80.99
  -3  -5   2 1467.15   69.09
   2   5  -2  783.62   51.19
   2   5  -2  771.82   56.59
   2   5  -2  717.73   42.80
   2   5  -2  599.64   68.99
   2   5  -2  667.43   40.10
  -2  -5   2  713.23   41.10
  -2  -5   2  681.13   50.39
  -2  -5   2  755.22   54.29
   1   5  -2  826.32   51.59
   1   5  -2  755.22   73.89
   1   5  -2  784.12   44.20
   1   5  -2  703.13   65.69
  -1  -5   2  843.12   56.49
  -1  -5   2  776.12   42.70
  -1  -5   2  848.52   53.19
   0   5  -2 1450.75   68.19
   0   5  -2 1357.86  101.09
   0   5  -2 1513.75   76.29
   0  -5   2 1357.86   83.79
   0  -5   2 1512.65   76.39
   0  -5   2 1454.85  106.69
   0  -5   2 1466.65   66.29
  -1   5  -2  124.89   19.40
  -1   5  -2  106.29   16.90
  -1   5  -2  136.89   17.20
  -1   5  -2  155.08   33.20
   1  -5   2  119.59   19.30
   1  -5   2  106.09   12.10
   1  -5   2  111.19   16.90
   1  -5   2  139.79   35.40
  -2   5  -2   29.60   12.50
  -2   5  -2   31.20   16.70
  -2   5  -2   45.20   10.60
   2  -5   2   46.80   22.10
   2  -5   2   33.20   10.90
  -3   5  -2  204.08   22.80
  -3   5  -2  134.99   29.50
  -3   5  -2  136.89   18.00
   3  -5   2  162.18   39.40
   3  -5   2  156.18   18.30
   3  -5   2  178.98   21.40
  -4   5  -2  338.57   36.00
  -4   5  -2  347.57   44.20
   4  -5   2  451.45   40.20
   4  -5   2  320.57   49.80
   4  -5   2  377.46   32.70
  -5   5  -2   12.00   11.60
  -5   5  -2  -14.30    9.00
   5  -5   2    8.50    7.60
   5  -5   2    1.30    8.10
   5  -5   2    0.20   13.50
  -6   5  -2  499.75   49.30
   6  -5   2  479.55   40.00
   6  -5   2  552.64   68.79
   6  -5   2  560.94   39.80
  -7   5  -2  262.27   38.40
   7  -5   2  178.18   53.59
   7   4  -2   84.29   33.90
  -7  -4   2   95.49   22.40
  -7  -4   2  136.59   20.50
   6   4  -2  183.78   33.80
   6   4  -2  113.19   26.00
   6   4  -2  179.98   21.50
   6   4  -2  149.49   28.30
  -6  -4   2  211.98   22.50
  -6  -4   2  171.88   26.30
   5   4  -2 1166.88   73.89
   5   4  -2 1212.28   82.89
   5   4  -2 1185.98   73.39
   5   4  -2 1204.08   63.39
  -5  -4   2 1253.17   61.99
  -5  -4   2 1178.48   73.09
  -5  -4   2 1224.98   72.89
   4   4  -2  496.85   46.60
   4   4  -2  435.46   37.00
   4   4  -2  450.85   39.70
   4   4  -2  459.55   32.00
  -4  -4   2  454.05   41.40
  -4  -4   2  458.45   39.20
  -4  -4   2  510.65   42.50
  -4  -4   2  487.35   31.60
   3   4  -2  743.03   45.70
   3   4  -2  750.22   49.50
   3   4  -2  758.92   43.30
   3   4  -2  774.22   56.79
  -3  -4   2  749.82   53.39
  -3  -4   2  758.12   51.49
  -3  -4   2  760.72   41.70
  -3  -4   2  776.72   54.19
   2   4  -2 1302.57   66.79
   2   4  -2 1481.75   81.29
   2   4  -2 1464.35   75.19
   2   4  -2 1426.46   67.49
  -2  -4   2 1519.45   80.69
  -2  -4   2 1462.75   77.19
   1   4  -2  828.52   71.59
   1   4  -2  933.51   52.19
   1   4  -2  859.61   45.10
  -1  -4   2  890.61   54.29
  -1  -4   2  893.11   52.09
  -1  -4   2  874.01   44.00
   0   4  -2  142.59   13.30
   0   4  -2  161.88   34.90
   0   4  -2  154.28   17.70
   0   4  -2  128.89   18.40
   0  -4   2  153.78   17.40
   0  -4   2  179.98   40.30
   0  -4   2  157.38   18.90
   0  -4   2  129.39   12.60
  -1   4  -2 1417.86   70.79
  -1   4  -2 1271.77   85.69
  -1   4  -2 1385.96   60.39
  -1   4  -2 1333.97   66.39
   1  -4   2 1352.36   58.49
   1  -4   2 1373.86   69.99
   1  -4   2 1396.66   66.79
  -2   4  -2 1196.28   63.29
  -2   4  -2 1225.18   60.59
  -2   4  -2 1228.28   80.59
   2  -4   2 1349.96   91.49
   2  -4   2 1232.78   64.09
   2  -4   2 1136.89   59.09
  -3   4  -2  209.18   21.00
  -3   4  -2  223.28   31.60
  -3   4  -2  236.18   21.40
   3  -4   2  245.48   37.00
   3  -4   2  260.17   21.30
   3  -4   2  248.68   23.10
  -4   4  -2 1331.67   70.39
  -4   4  -2 1338.27   90.39
   4  -4   2 1383.36   67.29
   4  -4   2 1395.06   99.59
   4  -4   2 1469.25   72.59
  -5   4  -2  464.85   44.70
   5  -4   2  491.75   56.19
   5  -4   2  479.35   36.20
   5  -4   2  470.05   33.80
  -6   4  -2  151.18   26.90
   6  -4   2  147.99   21.80
  -7   4  -2  492.75   50.99
   7  -4   2  512.45   69.09
   7   3  -2  606.64   55.09
   7   3  -2  559.64   38.70
   7   3  -2  527.75   48.60
  -7  -3   2  601.74   38.40
  -7  -3   2  642.44   47.80
   6   3  -2  237.78   22.30
   6   3  -2  247.88   31.70
   6   3  -2  241.88   35.10
  -6  -3   2  205.88   20.80
  -6  -3   2  246.48   27.20
  -6  -3   2  275.47   50.89
   5   3  -2  213.38   20.10
   5   3  -2  216.48   27.30
   5   3  -2  200.98   30.60
   5   3  -2  216.68   28.60
  -5  -3   2  232.58   20.10
  -5  -3   2  203.78   23.70
   4   3  -2  656.03   37.10
   4   3  -2  627.94   44.60
   4   3  -2  529.15   49.50
   4   3  -2  682.63   51.49
  -4  -3   2  641.74   43.40
  -4  -3   2  615.24   35.10
  -4  -3   2  630.94   45.40
  -4  -3   2  660.33   44.90
   3   3  -2   67.39   10.20
   3   3  -2   69.39   14.20
   3   3  -2   84.99   13.60
   3   3  -2  102.99   18.30
  -3  -3   2   61.09   17.90
  -3  -3   2   63.29   13.60
  -3  -3   2   81.49   14.70
  -3  -3   2   70.39    9.80
   2   3  -2   37.50   11.00
   2   3  -2   33.50    7.80
   2   3  -2   20.30    6.70
   2   3  -2   31.00    8.50
  -2  -3   2   35.00    7.00
  -2  -3   2   18.00    8.20
  -2  -3   2   23.40    8.00
   1   3  -2  573.24   51.89
   1   3  -2  516.25   29.40
   1   3  -2  556.24   29.40
   1   3  -2  522.55   33.30
   1   3  -2  554.54   37.10
  -1  -3   2  539.15   28.60
  -1  -3   2  498.25   33.40
  -1  -3   2  565.84   36.20
   0   3  -2  354.86   24.30
   0   3  -2  338.37   25.40
   0   3  -2  337.07   20.00
   0   3  -2  377.46   38.10
   0  -3   2  327.97   19.30
   0  -3   2  357.96   25.90
   0  -3   2  315.87   23.30
   0  -3   2  397.66   40.00
  -1   3  -2   24.50    7.00
  -1   3  -2   14.90    4.30
  -1   3  -2   20.90    5.60
  -1   3  -2   18.20    9.70
   1  -3   2   28.50   13.80
   1  -3   2   14.80    3.70
   1  -3   2   26.50    6.60
   1  -3   2   25.30    7.70
  -2   3  -2 3150.08  130.69
  -2   3  -2 3300.27  150.58
  -2   3  -2 3053.99  130.29
   2  -3   2 3328.37  157.88
   2  -3   2 3172.38  129.19
   2  -3   2 3124.49  131.89
   2  -3   2 3102.39  130.09
  -3   3  -2  933.31   49.00
  -3   3  -2  915.31   53.59
  -3   3  -2  966.20   73.39
   3  -3   2  908.51   49.90
   3  -3   2  970.40   70.19
   3  -3   2  990.70   60.39
  -4   3  -2  357.36   31.60
  -4   3  -2  367.06   40.30
   4  -3   2  387.66   29.40
   4  -3   2  398.96   27.40
   4  -3   2  381.26   45.50
  -5   3  -2  968.10   68.49
   5  -3   2 1075.59   59.49
   5  -3   2 1105.19   58.39
   5  -3   2 1144.69   85.59
  -6   3  -2  201.78   29.30
   6  -3   2  171.48   24.80
   6  -3   2  179.68   36.60
   6  -3   2  174.68   22.00
  -7   3  -2    1.70   13.50
   7  -3   2   -4.80   16.30
  -7  -2   2  233.48   26.70
   6   2  -2  445.26   29.30
   6   2  -2  394.96   37.10
  -6  -2   2  437.76   35.30
   5   2  -2  105.49   20.70
   5   2  -2   87.59   12.00
   5   2  -2   59.89   14.50
   5   2  -2   93.99   17.80
  -5  -2   2   89.69   14.70
  -5  -2   2   97.89   16.50
   4   2  -2   14.30    8.20
   4   2  -2   19.80    6.50
   4   2  -2   18.20   10.50
   4   2  -2   24.30    9.00
  -4  -2   2   32.20   10.10
  -4  -2   2   16.80    9.00
  -4  -2   2   23.60    8.00
   3   2  -2  992.10   47.10
   3   2  -2  969.10   54.49
   3   2  -2 1026.30   53.49
  -3  -2   2  995.70   53.19
  -3  -2   2 1060.29   53.59
  -3  -2   2  996.60   46.40
   2   2  -2  887.01   47.40
   2   2  -2  981.00   48.40
   2   2  -2  921.01   43.30
   2   2  -2  978.10   51.39
  -2  -2   2  993.00   50.59
  -2  -2   2  965.40   48.50
  -2  -2   2  912.11   42.90
  -2  -2   2 1006.90   51.29
   1   2  -2    5.90    3.90
   1   2  -2   13.80    9.30
   1   2  -2    4.90    3.60
   1   2  -2    5.50    2.70
   1   2  -2    1.60    2.90
  -1  -2   2    9.10    4.30
  -1  -2   2    4.40    3.30
  -1  -2   2    6.40    2.70
  -1  -2   2   12.00    4.70
   0   2  -2 4905.71  200.68
   0   2  -2 5066.09  200.38
   0   2  -2 5887.61  221.78
   0   2  -2 4873.11  195.08
   0  -2   2 5160.48  201.88
   0  -2   2 5897.41  225.88
   0  -2   2 5032.30  199.78
   0  -2   2 5007.00  194.98
  -1   2  -2 1612.74   71.69
  -1   2  -2 1743.53   85.69
  -1   2  -2 1647.24   72.19
   1  -2   2 1650.53   72.69
   1  -2   2 1878.71   91.49
   1  -2   2 1589.64   70.59
  -2   2  -2   63.99    9.00
  -2   2  -2   68.89   14.90
  -2   2  -2   67.49   10.30
   2  -2   2   73.29   10.30
   2  -2   2   71.89    8.90
   2  -2   2   74.39    9.60
   2  -2   2   71.49   17.30
  -3   2  -2 1301.77   65.49
  -3   2  -2 1281.97   59.99
  -3   2  -2 1277.17   61.29
  -3   2  -2 1321.97   77.39
   3  -2   2 1217.18   59.79
   3  -2   2 1265.97   79.09
   3  -2   2 1311.87   62.79
   3  -2   2 1381.16   63.79
  -4   2  -2  893.61   48.00
  -4   2  -2  806.32   50.89
   4  -2   2  803.62   45.90
   4  -2   2  864.91   48.50
   4  -2   2  837.52   64.69
  -5   2  -2   35.10   16.50
  -5   2  -2   -1.30    4.90
  -5   2  -2    5.50    8.80
   5  -2   2    5.60    6.60
   5  -2   2    5.10    7.40
   5  -2   2   13.20   12.40
  -6   2  -2  461.15   44.00
  -6   2  -2  466.75   35.80
   6  -2   2  473.95   36.70
   6  -2   2  441.36   38.10
   6  -2   2  465.05   54.89
  -7   2  -2  391.46   36.00
  -7   2  -2  408.26   43.50
   7  -2   2  431.06   36.40
   7  -2   2  471.65   57.29
   7  -2   2  495.45   42.80
   8   1  -2  275.17   47.40
  -8  -1   2  286.87   30.10
  -7  -1   2  116.89   19.20
  -6  -1   2    1.40    5.50
  -6  -1   2    7.60    7.40
   5   1  -2  703.53   37.60
   5   1  -2  771.92   52.59
  -5  -1   2  689.83   45.50
  -5  -1   2  783.12   45.10
   4   1  -2 3578.44  140.89
   4   1  -2 3643.44  148.29
  -4  -1   2 3721.53  148.99
  -4  -1   2 3496.45  139.89
  -4  -1   2 3512.15  149.19
   3   1  -2  684.23   33.40
   3   1  -2  767.02   41.90
   3   1  -2  702.13   37.80
   3   1  -2  658.53   41.50
  -3  -1   2  746.73   38.70
  -3  -1   2  696.43   33.30
   2   1  -2 8785.42  335.87
   2   1  -2 9999.00  343.07
   2   1  -2 8456.25  342.87
   2   1  -2 9392.26  343.27
  -2  -1   2 9141.99  340.57
  -2  -1   2 8850.61  335.97
  -2  -1   2 8838.72  343.87
   1   1  -2  810.12   35.80
   1   1  -2  804.02   35.80
   1   1  -2  796.12   38.30
   1   1  -2  780.82   33.90
  -1  -1   2  776.62   37.90
  -1  -1   2  790.82   34.10
  -1  -1   2  808.92   35.00
   0   1  -2 1057.89   47.90
   0   1  -2 1073.19   44.80
   0   1  -2 1052.69   47.00
   0   1  -2 1279.27   57.59
   0  -1   2 1083.19   45.10
   0  -1   2 1076.99   46.90
   0  -1   2 1304.57   59.89
   0  -1   2 1103.09   48.30
  -1   1  -2  879.71   47.70
  -1   1  -2  854.71   39.70
  -1   1  -2  846.72   41.80
   1  -1   2  874.01   41.60
   1  -1   2  917.91   49.40
   1  -1   2  878.91   37.80
   1  -1   2  867.71   39.80
  -2   1  -2 1322.47   56.19
  -2   1  -2 1278.67   56.79
  -2   1  -2 1239.48   61.19
  -2   1  -2 1299.67   68.69
   2  -1   2 1283.17   60.19
   2  -1   2 1288.97   57.79
   2  -1   2 1279.77   69.99
   2  -1   2 1231.88   55.29
  -3   1  -2   -0.30    3.70
  -3   1  -2   12.30    5.80
   3  -1   2    9.10    8.40
   3  -1   2    7.60    4.80
   3  -1   2    1.80    4.30
  -4   1  -2  742.23   42.10
  -4   1  -2  741.73   43.00
  -4   1  -2  635.14   47.70
   4  -1   2  771.32   46.10
   4  -1   2  740.73   59.29
   4  -1   2  796.12   48.90
  -5   1  -2 1144.39   60.29
   5  -1   2 1109.89   62.49
   5  -1   2 1083.39   63.29
   5  -1   2 1119.79   81.99
  -6   1  -2  113.89   22.20
  -6   1  -2  130.49   22.40
  -6   1  -2  103.09   16.90
   6  -1   2  138.99   21.20
   6  -1   2  127.39   23.90
   6  -1   2  116.99   32.40
  -7   1  -2  533.45   48.40
  -7   1  -2  585.94   42.30
   7  -1   2  467.75   46.10
   7  -1   2  613.44   64.89
   7  -1   2  516.55   41.90
   8   0  -2   -0.60   15.20
  -8   0   2    8.70    7.20
  -8   0   2   -9.70   12.10
   7   0  -2  648.84   63.29
   7   0  -2  730.33   65.49
  -7   0   2  656.73   50.69
   6   0  -2  850.21   61.99
   6   0  -2  870.51   68.79
  -6   0   2  846.02   50.99
  -6   0   2  895.81   57.89
   5   0  -2  390.16   35.50
  -5   0   2  425.66   34.50
  -5   0   2  406.86   29.60
   4   0  -2 1487.45   73.89
   4   0  -2 1468.35   76.99
  -4   0   2 1535.85   69.79
  -4   0   2 1485.65   74.69
   3   0  -2  860.91   38.60
   3   0  -2  959.30   43.40
   3   0  -2  901.61   44.90
   3   0  -2  866.11   48.60
   3   0  -2  920.91   48.00
  -3   0   2  900.31   39.70
  -3   0   2  889.61   48.00
   2   0  -2  300.67   16.00
   2   0  -2  315.47   18.30
   2   0  -2  322.77   22.20
   2   0  -2  307.07   18.20
   2   0  -2  290.27   20.90
  -2   0   2  301.57   17.70
  -2   0   2  296.57   21.20
   1   0  -2 1268.07   53.19
   1   0  -2 1409.96   59.29
   1   0  -2 1352.06   55.49
  -1   0   2 1430.76   59.59
  -1   0   2 1347.27   55.39
   0   0  -2  235.28   14.30
   0   0   2  260.17   15.10
   0   0   2  241.48   15.70
  -1   0  -2   47.40    9.30
  -1   0  -2   60.29    5.70
  -1   0  -2   51.29    7.30
   1   0   2   55.39    9.40
   1   0   2   55.79    8.50
   1   0   2   62.79    9.50
   1   0   2   57.49    5.80
  -2   0  -2  927.71   41.30
  -2   0  -2  902.01   44.30
  -2   0  -2  886.11   50.49
   2   0   2  896.81   53.09
   2   0   2  859.91   41.60
   2   0   2  852.81   45.60
   2   0   2  892.91   48.40
  -3   0  -2 1124.29   56.89
  -3   0  -2 1245.98   56.19
  -3   0  -2 1082.69   65.09
   3   0   2 1288.77   73.29
   3   0   2 1195.58   61.29
   3   0   2 1245.48   64.59
   3   0   2 1107.19   56.29
  -4   0  -2   29.50    7.30
  -4   0  -2   50.69   15.90
  -4   0  -2   39.90   10.10
   4   0   2   55.79   17.20
   4   0   2   37.00   12.10
   4   0   2   67.49   14.70
  -5   0  -2  581.14   38.10
  -5   0  -2  665.43   39.80
  -5   0  -2  669.13   46.20
   5   0   2  569.24   45.20
   5   0   2  594.54   55.79
   5   0   2  540.95   43.20
  -6   0  -2  408.36   31.90
  -6   0  -2  411.46   36.10
   6   0   2  358.96   34.90
   6   0   2  311.17   48.20
   6   0   2  328.97   45.90
  -7   0  -2    4.60   14.40
  -7   0  -2    7.40   11.10
  -7   0  -2   39.70   12.80
   7   0   2   -3.10   16.70
   7   0   2   14.60   11.10
   7   0   2   43.10   20.80
   8  -1  -2  274.27   47.10
  -8   1   2  279.67   36.50
  -8   1   2  322.27   31.70
   7  -1  -2   49.40   20.30
   7  -1  -2   37.80   18.70
  -7   1   2   58.79   17.30
  -7   1   2   53.49   18.80
   6  -1  -2 1472.05   85.69
   6  -1  -2 1549.14   98.89
  -6   1   2 1534.55   76.99
  -6   1   2 1476.05   85.29
   5  -1  -2  406.46   42.40
   5  -1  -2  412.06   35.90
  -5   1   2  457.85   37.20
  -5   1   2  433.46   30.50
   4  -1  -2  389.56   36.50
   4  -1  -2  361.06   29.80
   4  -1  -2  370.56   30.50
  -4   1   2  349.37   24.90
  -4   1   2  333.37   34.10
   3  -1  -2  901.71   49.00
   3  -1  -2  910.21   44.10
   3  -1  -2  891.21   44.10
   3  -1  -2  960.70   51.29
   3  -1  -2  949.71   54.19
  -3   1   2  909.71   43.20
  -3   1   2  923.01   50.99
   2  -1  -2  386.96   24.70
   2  -1  -2  372.06   25.80
   2  -1  -2  348.17   19.60
   2  -1  -2  362.96   23.20
   2  -1  -2  353.76   21.00
  -2   1   2  366.56   25.30
  -2   1   2  362.56   20.90
  -2   1   2  364.76   23.30
  -2   1   2  351.46   19.70
   1  -1  -2  385.46   21.50
   1  -1  -2  404.66   25.30
  -1   1   2  421.96   23.40
  -1   1   2  372.56   21.10
   0  -1  -2 3367.46  131.89
   0  -1  -2 3344.77  135.89
   0   1   2 3287.47  132.09
   0   1   2 3272.87  134.29
  -1  -1  -2 1912.51   88.89
  -1  -1  -2 1904.21   76.59
  -1  -1  -2 1885.31   82.69
   1   1   2 1886.41   86.99
   1   1   2 1899.91   84.39
  -2  -1  -2   49.90    8.60
  -2  -1  -2   47.00    9.90
  -2  -1  -2   58.99   14.20
  -2  -1  -2   51.39    7.60
   2   1   2   57.79    9.70
   2   1   2   41.60   10.30
  -3  -1  -2 2464.05  101.29
  -3  -1  -2 2313.87  116.19
  -3  -1  -2 2351.66  105.29
   3   1   2 2328.87  109.99
   3   1   2 2423.76  113.29
   3   1   2 2386.36  104.69
  -4  -1  -2  713.63   54.19
  -4  -1  -2  664.43   39.70
  -4  -1  -2  666.03   42.20
   4   1   2  712.23   49.00
   4   1   2  744.33   50.59
  -5  -1  -2   -0.50    6.80
  -5  -1  -2    0.60    5.10
   5   1   2    9.40   10.20
   5   1   2   10.90    9.70
   5   1   2   19.80   12.20
  -6  -1  -2  288.47   29.20
  -6  -1  -2  372.36   30.40
   6   1   2  332.87   37.70
  -7  -1  -2  373.96   33.30
   7   1   2  353.76   51.49
   7   1   2  307.17   44.10
   7   1   2  372.36   39.70
   8  -2  -2  828.52   78.69
  -8   2   2  774.62   64.79
  -8   2   2  861.81   56.19
   7  -2  -2  345.57   41.70
   7  -2  -2  476.75   53.79
  -7   2   2  409.86   41.30
   6  -2  -2   92.09   20.70
   6  -2  -2   71.79   22.40
  -6   2   2   84.29   14.70
  -6   2   2   83.89   23.00
   5  -2  -2  571.74   42.60
   5  -2  -2  594.64   51.29
  -5   2   2  595.14   45.70
  -5   2   2  590.44   37.80
   4  -2  -2  455.85   39.80
   4  -2  -2  385.46   30.70
   4  -2  -2  461.35   41.20
   4  -2  -2  385.86   26.70
  -4   2   2  401.86   27.60
  -4   2   2  421.06   34.80
   3  -2  -2  187.58   21.60
   3  -2  -2  196.48   16.50
   3  -2  -2  190.88   17.90
   3  -2  -2  207.08   16.70
   3  -2  -2  179.68   20.00
  -3   2   2  186.08   20.60
  -3   2   2  194.28   16.00
  -3   2   2  177.38   20.20
  -3   2   2  222.58   16.80
   2  -2  -2  505.15   33.00
   2  -2  -2  515.85   28.90
   2  -2  -2  527.45   27.10
  -2   2   2  503.05   28.40
  -2   2   2  485.55   28.10
  -2   2   2  480.45   32.60
   1  -2  -2 2803.42  118.69
   1  -2  -2 2873.51  120.49
   1  -2  -2 2858.21  117.29
  -1   2   2 2936.51  116.49
  -1   2   2 2952.70  117.69
  -1   2   2 2740.93  118.59
   0  -2  -2   70.39   12.20
   0  -2  -2   57.59    8.60
   0  -2  -2   66.39   10.30
   0   2   2   62.19   10.80
   0   2   2   72.29   12.10
  -1  -2  -2 2319.77   90.39
  -1  -2  -2 1976.80   92.89
  -1  -2  -2 2076.19   87.89
  -1  -2  -2 1964.50   98.79
   1   2   2 2023.90   97.19
   1   2   2 1908.21   93.39
  -2  -2  -2 1150.58   61.19
  -2  -2  -2 1043.80   56.19
  -2  -2  -2 1171.38   69.39
  -2  -2  -2 1124.69   54.79
   2   2   2 1163.38   63.39
   2   2   2 1169.08   66.39
  -3  -2  -2    0.60    3.70
  -3  -2  -2   -4.60    5.70
  -3  -2  -2   10.30    5.50
   3   2   2    8.80    7.80
   3   2   2   -3.50    6.20
  -4  -2  -2  277.47   27.20
  -4  -2  -2  300.47   24.40
  -4  -2  -2  356.46   39.70
  -4  -2  -2  259.97   22.40
   4   2   2  295.97   32.30
   4   2   2  225.28   29.90
  -5  -2  -2  911.91   52.39
  -5  -2  -2  815.32   53.89
  -5  -2  -2  880.81   70.99
   5   2   2  846.92   62.79
   5   2   2  967.20   65.29
  -6  -2  -2   13.50   11.20
   6   2   2   23.90   18.60
   6   2   2   -4.80   10.80
   8  -3  -2   30.00   24.50
  -8   3   2   63.09   17.30
  -8   3   2   49.70   19.50
   7  -3  -2  218.98   39.00
  -7   3   2  253.77   27.20
  -7   3   2  201.58   32.00
   6  -3  -2  478.05   41.20
   6  -3  -2  484.55   52.39
  -6   3   2  453.05   43.70
  -6   3   2  495.05   36.80
   5  -3  -2    4.90    8.40
   5  -3  -2    3.50    7.80
   4  -3  -2  819.72   59.79
   4  -3  -2  851.51   48.90
  -4   3   2  886.81   56.59
  -4   3   2  857.41   56.79
  -4   3   2  846.62   45.50
   3  -3  -2 1539.15   70.19
   3  -3  -2 1578.14   85.79
   3  -3  -2 1394.66   68.49
   3  -3  -2 1540.85   79.09
  -3   3   2 1495.75   78.49
  -3   3   2 1530.55   71.69
  -3   3   2 1490.75   79.79
   2  -3  -2    6.10    5.50
   2  -3  -2    7.30    4.00
   2  -3  -2    8.70    7.10
   2  -3  -2    7.30    5.30
  -2   3   2    4.10    6.50
  -2   3   2    9.20    5.50
  -2   3   2    9.70    5.20
   1  -3  -2 2462.25  114.99
   1  -3  -2 2485.65  128.19
   1  -3  -2 2218.08   96.59
   1  -3  -2 2232.28  101.49
   1  -3  -2 2113.19   98.49
  -1   3   2 2390.16  113.19
  -1   3   2 2130.19  102.59
  -1   3   2 2116.69   98.39
  -1   3   2 2367.66  101.69
   0  -3  -2 2758.12  129.29
   0  -3  -2 2764.22  124.39
   0  -3  -2 2761.62  118.19
   0   3   2 2754.22  127.89
   0   3   2 2740.63  124.79
   0   3   2 3267.67  144.39
  -1  -3  -2   94.09   16.50
  -1  -3  -2   90.49   19.80
  -1  -3  -2   80.19   13.00
   1   3   2  109.69   17.30
   1   3   2   98.79   18.60
  -2  -3  -2  652.33   43.90
  -2  -3  -2  576.04   36.10
  -2  -3  -2  648.34   39.50
  -2  -3  -2  550.04   47.70
   2   3   2  557.44   66.39
   2   3   2  521.85   43.10
  -3  -3  -2  867.61   48.30
  -3  -3  -2  829.72   64.19
  -3  -3  -2  998.90   52.59
  -3  -3  -2  870.41   56.69
   3   3   2  853.21   59.49
   3   3   2  824.02   60.29
  -4  -3  -2  107.79   16.80
  -4  -3  -2   99.39   25.60
  -4  -3  -2  108.59   20.60
  -4  -3  -2   84.69   15.50
   4   3   2   68.29   19.60
   4   3   2  152.38   26.20
  -5  -3  -2  243.28   31.60
  -5  -3  -2  281.77   47.00
  -5  -3  -2  230.28   25.50
  -5  -3  -2  311.67   27.90
   5   3   2  264.67   37.60
   5   3   2  277.57   38.30
  -6  -3  -2  568.44   40.30
  -6  -3  -2  643.44   44.60
  -6  -3  -2  501.65   46.30
   6   3   2  588.04   57.99
   6   3   2  473.85   53.19
   8  -4  -2  245.68   51.79
  -8   4   2  230.58   37.70
   7  -4  -2   28.40   17.50
   7  -4  -2   19.30   15.60
  -7   4   2   15.70   14.00
   6  -4  -2  575.84   59.39
   6  -4  -2  591.74   46.00
  -6   4   2  583.74   51.59
   5  -4  -2  519.95   57.49
   5  -4  -2  554.74   54.09
  -5   4   2  547.25   46.90
   4  -4  -2   24.50   14.10
  -4   4   2    8.30    9.50
  -4   4   2   34.80   13.50
  -4   4   2   28.70    8.50
   3  -4  -2 1809.02  104.59
   3  -4  -2 1632.34   76.89
  -3   4   2 1827.32   95.29
  -3   4   2 1724.73   90.19
  -3   4   2 1786.02   83.09
   2  -4  -2  745.13   45.40
   2  -4  -2  766.02   58.19
   2  -4  -2  686.23   45.00
   2  -4  -2  723.73   39.50
   2  -4  -2  657.93   44.30
  -2   4   2  661.73   45.80
  -2   4   2  693.23   52.59
   1  -4  -2  -12.30    7.60
   1  -4  -2    5.50    6.60
   1  -4  -2    9.40    6.20
   1  -4  -2   -4.80    3.80
  -1   4   2   11.10   11.00
  -1   4   2   -6.50    6.00
  -1   4   2   -5.80    5.40
  -1   4   2   10.90    7.20
   0  -4  -2  711.83   51.79
   0  -4  -2  763.52   44.60
   0  -4  -2  747.53   50.59
   0   4   2  728.83   60.99
   0   4   2  725.73   51.29
   0   4   2  707.83   48.40
  -1  -4  -2 1113.59   71.59
  -1  -4  -2 1083.69   57.79
  -1  -4  -2 1107.59   83.99
   1   4   2 1030.30   80.49
   1   4   2 1105.69   70.09
   1   4   2 1184.98   67.89
  -2  -4  -2   29.70   26.20
  -2  -4  -2   38.50   10.20
  -2  -4  -2   18.40    8.70
  -2  -4  -2   28.30   12.40
   2   4   2   33.70   14.20
   2   4   2   19.20   11.80
  -3  -4  -2  843.82   58.69
  -3  -4  -2  854.01   52.99
  -3  -4  -2  900.21   67.89
  -3  -4  -2  842.72   49.60
   3   4   2  770.62   62.39
   3   4   2  801.32   60.59
  -4  -4  -2  583.74   42.00
  -4  -4  -2  538.35   39.50
  -4  -4  -2  485.75   56.79
  -4  -4  -2  585.74   48.20
   4   4   2  523.15   51.59
   4   4   2  485.95   48.80
  -5  -4  -2   27.60   11.90
  -5  -4  -2   18.70   14.90
   5   4   2   35.50   18.50
   5   4   2   54.39   26.90
  -6  -4  -2  245.98   30.00
  -6  -4  -2  276.87   32.50
  -6  -4  -2  299.47   40.80
   6   4   2  284.67   43.90
   6   4   2  221.98   41.80
   7  -5  -2  437.26   46.10
   7  -5  -2  436.06   91.09
  -7   5   2  467.95   48.90
   6  -5  -2    5.60   11.50
   6  -5  -2  -21.40   16.50
   5  -5  -2  480.05   37.50
   5  -5  -2  475.35   57.19
  -5   5   2  484.35   49.50
  -5   5   2  559.84   47.70
  -5   5   2  502.05   36.50
   4  -5  -2  714.53   67.09
  -4   5   2  768.92   47.60
  -4   5   2  778.82   60.89
  -4   5   2  807.92   56.99
   3  -5  -2  480.95   52.99
   3  -5  -2  510.65   39.00
   3  -5  -2  423.26   35.30
   3  -5  -2  521.65   32.50
  -3   5   2  578.74   38.50
  -3   5   2  536.45   49.40
  -3   5   2  510.75   40.90
  -3   5   2  514.05   44.00
   2  -5  -2  500.45   53.89
   2  -5  -2  647.24   45.20
   2  -5  -2  520.45   42.70
   2  -5  -2  568.84   36.40
  -2   5   2  621.34   56.09
  -2   5   2  627.24   45.70
  -2   5   2  585.94   41.60
   1  -5  -2 1096.69   57.99
   1  -5  -2 1121.29   67.19
   1  -5  -2 1121.29   70.19
  -1   5   2 1119.49   64.29
  -1   5   2 1075.89   68.49
  -1   5   2 1113.19   84.19
  -1   5   2 1030.70   58.39
   0  -5  -2   54.89   15.70
   0  -5  -2   46.20   10.90
   0  -5  -2   57.29   18.20
   0   5   2   38.60   20.50
   0   5   2   46.90   14.00
   0   5   2   49.40   15.30
  -1  -5  -2  408.66   40.20
  -1  -5  -2  448.96   46.70
  -1  -5  -2  454.05   33.50
   1   5   2  407.76   40.60
   1   5   2  349.57   52.19
   1   5   2  428.36   50.79
  -2  -5  -2  446.56   41.40
  -2  -5  -2  505.45   52.29
  -2  -5  -2  525.45   37.00
  -2  -5  -2  539.15   46.60
   2   5   2  525.45   49.00
   2   5   2  482.75   49.70
  -3  -5  -2    0.30   18.60
  -3  -5  -2   35.60   12.50
  -3  -5  -2    8.40    9.20
   3   5   2   10.40   13.60
  -4  -5  -2  275.97   37.60
  -4  -5  -2  239.88   29.30
  -4  -5  -2  307.37   51.59
   4   5   2  274.77   43.40
   4   5   2  228.28   40.30
  -5  -5  -2  136.29   24.80
   5   5   2  140.89   32.60
   5   5   2  117.99   30.90
   7  -6  -2  222.88   51.29
   7  -6  -2  214.28   36.10
  -7   6   2  184.28   32.80
   6  -6  -2  517.75   40.90
   6  -6  -2  362.76   59.69
  -6   6   2  526.25   50.49
   5  -6  -2   53.09   23.70
  -5   6   2   35.50   13.20
  -5   6   2   61.49   18.00
  -5   6   2   46.50   22.00
   4  -6  -2  942.21   56.99
   4  -6  -2  657.73   48.00
   4  -6  -2  739.93   72.39
  -4   6   2  874.01   53.59
  -4   6   2  782.22   67.49
  -4   6   2  854.81   60.29
   3  -6  -2  810.52   74.39
   3  -6  -2  865.21   48.40
   3  -6  -2  729.83   54.09
   3  -6  -2  970.20   60.79
  -3   6   2  837.32   72.39
  -3   6   2  939.61   55.89
  -3   6   2  880.71   58.89
   2  -6  -2   88.99   16.00
   2  -6  -2   82.79   20.70
   2  -6  -2  106.49   22.30
   2  -6  -2  104.59   30.00
  -2   6   2   72.29   16.30
  -2   6   2  132.79   24.10
  -2   6   2   93.29   27.80
  -2   6   2   44.30   16.10
   1  -6  -2  876.61   62.09
   1  -6  -2  818.72   48.90
   1  -6  -2  785.52   57.99
  -1   6   2  819.52   76.49
  -1   6   2  822.62   61.69
  -1   6   2  779.12   49.20
   0  -6  -2  368.36   32.60
   0  -6  -2  461.95   43.40
   0   6   2  412.56   40.10
   0   6   2  383.56   58.19
   0   6   2  442.46   45.60
  -1  -6  -2   19.30   12.20
   1   6   2   -7.70   12.00
   1   6   2   -0.80   19.30
   1   6   2    1.70   14.90
  -2  -6  -2   45.00   19.90
  -2  -6  -2   59.19   28.50
  -2  -6  -2   60.09   17.80
   2   6   2   90.49   24.30
   2   6   2   88.09   35.10
   2   6   2   64.29   19.20
  -3  -6  -2  722.43   78.69
  -3  -6  -2  721.83   62.29
  -3  -6  -2  666.43   54.99
  -3  -6  -2  851.81   53.89
   3   6   2  663.23   65.49
   3   6   2  920.11   71.79
  -4  -6  -2  188.08   28.50
  -4  -6  -2  132.29   29.00
   4   6   2  114.79   31.60
   4   6   2  136.49   34.20
   6  -7  -2   47.50   31.00
  -6   7   2  116.69   27.30
  -6   7   2   61.79   28.80
   5  -7  -2  312.67   52.79
  -5   7   2  373.96   34.50
  -5   7   2  288.67   54.89
  -5   7   2  321.47   40.30
   4  -7  -2   -1.70   15.40
   4  -7  -2   12.70   11.20
   4  -7  -2    5.40   13.30
  -4   7   2   18.40   12.10
  -4   7   2   25.20   20.90
   3  -7  -2  409.56   58.09
   3  -7  -2  490.85   34.80
   3  -7  -2  498.05   45.70
   3  -7  -2  431.06   43.10
  -3   7   2  464.65   39.90
  -3   7   2  384.46   57.99
  -3   7   2  431.16   52.79
  -3   7   2  479.45   42.60
   2  -7  -2  480.25   34.90
   2  -7  -2  382.46   54.69
   2  -7  -2  468.65   45.10
   2  -7  -2  477.25   45.70
  -2   7   2  374.46   45.10
  -2   7   2  428.96   36.90
  -2   7   2  299.57   55.29
   1  -7  -2  -13.50   11.50
   1  -7  -2   19.70   15.80
  -1   7   2   14.70   25.00
  -1   7   2   11.40   15.90
  -1   7   2   21.50   14.80
   0  -7  -2  128.69   28.50
   0  -7  -2  167.38   44.90
   0  -7  -2  196.88   24.60
   0   7   2  144.59   27.30
   0   7   2  238.58   46.10
   0   7   2  176.78   37.40
  -1  -7  -2  536.05   59.89
  -1  -7  -2  620.44   58.19
   1   7   2  560.84   77.79
   1   7   2  711.83   63.09
   1   7   2  737.23   58.09
  -2  -7  -2  113.79   27.10
  -2  -7  -2   76.89   30.10
  -2  -7  -2  121.49   25.70
   2   7   2   75.49   25.90
   2   7   2  146.29   30.80
  -3  -7  -2  134.49   27.80
   3   7   2  120.49   31.00
   3   7   2  139.99   32.50
   5  -8  -2  420.36   74.39
   5  -8  -2  389.66   43.40
  -5   8   2  372.06   45.60
  -5   8   2  425.46   66.59
   4  -8  -2  291.27   29.80
   4  -8  -2  221.68   53.39
   4  -8  -2  333.47   41.00
  -4   8   2  296.27   37.90
  -4   8   2  304.67   35.30
   3  -8  -2   65.69   34.00
   3  -8  -2  146.29   23.60
   3  -8  -2  139.19   27.30
   3  -8  -2   81.89   23.20
  -3   8   2  113.99   38.00
  -3   8   2   98.59   21.90
  -3   8   2   94.49   29.80
  -3   8   2   43.50   19.60
   2  -8  -2   25.70   17.80
   2  -8  -2   39.20   16.10
   2  -8  -2   55.49   20.20
  -2   8   2   78.39   31.80
  -2   8   2   -9.90   23.00
  -2   8   2   34.70   14.60
   1  -8  -2  379.86   48.70
   1  -8  -2  329.67   59.39
   1  -8  -2  377.86   49.70
  -1   8   2  452.85   54.99
  -1   8   2  440.76   72.19
   0  -8  -2  381.36   54.89
   0  -8  -2  303.17   47.30
   0   8   2  340.97   52.29
  -1  -8  -2   69.39   23.50
  -1  -8  -2  145.59   33.00
   1   8   2   60.19   39.20
   1   8   2   89.09   29.20
   1   8   2   71.99   28.00
  -2  -8  -2  259.27   38.30
  -2  -8  -2  282.47   46.30
  -2  -8  -2  277.07   50.89
   2   8   2  269.07   50.89
   2  -9  -2  133.99   30.20
   2  -9  -2  138.39   31.50
  -2   9   2  153.08   37.10
  -2   9   2  199.78   53.89
   1  -9  -2  162.28   36.40
   1  -9  -2  214.18   38.00
  -1   9   2  167.98   38.20
  -1   9   2   63.19   73.79
   2   9  -3  106.99   30.80
   2   9  -3  124.99   40.40
  -2  -9   3  105.69   33.70
   1   9  -3  413.66   37.60
   1   9  -3  392.66   53.69
   1   9  -3  451.05   52.99
  -1  -9   3  423.46   54.29
  -1  -9   3  315.17   60.89
   0   9  -3    1.00   18.30
   0   9  -3  -18.00   20.20
   0  -9   3   36.00   19.20
   0  -9   3  -19.20   17.00
  -1   9  -3  571.74   44.40
  -1   9  -3  479.65   57.79
  -1   9  -3  436.26   52.39
   1  -9   3  544.25   78.69
   1  -9   3  440.06   48.10
   1  -9   3  528.95   38.00
  -2   9  -3  289.27   50.19
  -2   9  -3  209.68   31.20
   2  -9   3  207.78   39.50
   2  -9   3  186.18   57.09
   2  -9   3  186.58   35.70
   2  -9   3  177.38   23.60
  -3   9  -3  -23.70   22.90
  -3   9  -3    8.10   15.80
   3  -9   3   40.30   20.00
   3  -9   3  -14.90   24.10
   3  -9   3   -2.40   19.60
   3   8  -3  451.45   38.40
   3   8  -3  364.76   47.00
  -3  -8   3  337.77   50.49
  -3  -8   3  340.87   48.30
   2   8  -3   -8.90   16.60
   2   8  -3   25.00   11.60
   2   8  -3    7.30   20.40
  -2  -8   3   74.19   28.70
  -2  -8   3   45.70   19.50
   1   8  -3  428.36   71.39
   1   8  -3  554.14   49.40
   1   8  -3  443.56   55.99
  -1  -8   3  457.75   46.90
  -1  -8   3  582.54   38.70
  -1  -8   3  428.26   51.79
   0   8  -3  550.54   46.10
   0   8  -3  569.24   54.89
   0   8  -3  406.66   71.79
   0   8  -3  472.85   37.10
   0  -8   3  410.56   49.30
   0  -8   3  439.66   44.80
   0  -8   3  444.76   45.30
  -1   8  -3    9.60   11.20
  -1   8  -3    8.60   15.00
  -1   8  -3   23.80   12.40
  -1   8  -3   55.89   31.40
  -1   8  -3    7.80   18.20
   1  -8   3    9.80    9.30
   1  -8   3    8.50   13.60
   1  -8   3    8.60   14.80
   1  -8   3   24.50   28.10
  -2   8  -3  381.16   38.00
  -2   8  -3  324.57   58.29
  -2   8  -3  348.67   38.00
  -2   8  -3  395.36   31.40
   2  -8   3  378.76   40.10
   2  -8   3  412.86   28.10
   2  -8   3  326.27   42.60
  -3   8  -3  181.58   34.80
  -3   8  -3  165.98   29.60
   3  -8   3  196.18   29.80
   3  -8   3  230.78   34.50
   3  -8   3  246.88   59.89
  -4   8  -3   44.60   20.30
  -4   8  -3   38.00   18.20
   4  -8   3   51.89   19.90
   4  -8   3   59.79   31.90
   4  -8   3   28.20   16.50
  -5   8  -3  161.88   32.00
  -5   8  -3  228.78   37.10
   5  -8   3  233.48   30.70
   5  -8   3  177.08   32.70
   5  -8   3  108.39   41.40
   5   7  -3  287.67   32.20
   5   7  -3  221.48   40.00
   5   7  -3  272.67   48.10
  -5  -7   3  326.27   41.70
  -5  -7   3  372.26   51.89
   4   7  -3   13.10   13.20
   4   7  -3   38.40   17.80
   4   7  -3   19.60   10.70
   4   7  -3   27.30   33.10
  -4  -7   3   -2.30   12.90
   3   7  -3  755.82   66.99
   3   7  -3  705.73   55.49
   3   7  -3  623.74   61.09
  -3  -7   3  649.74   60.99
  -3  -7   3  678.93   85.19
  -3  -7   3  780.32   73.89
   2   7  -3  393.36   41.30
   2   7  -3  403.86   48.40
   2   7  -3  478.95   35.40
  -2  -7   3  317.57   43.90
  -2  -7   3  325.67   38.40
   1   7  -3   34.40   16.90
   1   7  -3   46.20   12.40
   1   7  -3   34.30   14.90
  -1  -7   3   30.40   14.40
  -1  -7   3   38.50   14.70
  -1  -7   3   26.80   10.70
   0   7  -3  124.79   27.00
   0   7  -3  222.98   27.60
   0   7  -3  171.88   20.30
   0  -7   3  175.38   48.10
   0  -7   3  136.29   26.10
   0  -7   3  177.88   30.50
   0  -7   3  150.38   18.20
  -1   7  -3  689.53   42.00
  -1   7  -3  702.33   49.30
  -1   7  -3  604.14   75.79
   1  -7   3  681.03   38.50
   1  -7   3  607.74   53.19
   1  -7   3  659.73   48.50
   1  -7   3  636.24   78.59
  -2   7  -3  174.68   29.90
  -2   7  -3  183.48   43.70
  -2   7  -3  158.38   24.50
   2  -7   3  160.98   27.40
   2  -7   3  147.69   16.80
   2  -7   3  205.68   26.50
   2  -7   3  177.48   46.20
  -3   7  -3  142.09   26.80
  -3   7  -3  185.78   26.70
   3  -7   3  170.48   47.90
   3  -7   3  184.48   25.60
   3  -7   3  158.98   26.90
  -4   7  -3  709.23   78.49
  -4   7  -3  959.20   64.19
   4  -7   3  874.31   55.39
   4  -7   3  966.40   73.29
   4  -7   3  837.82  115.09
  -5   7  -3   65.89   23.50
  -5   7  -3   92.29   27.90
   5  -7   3  113.49   23.60
   5  -7   3   95.79   20.60
   5  -7   3  104.19   36.80
   6   6  -3   23.30   20.10
   6   6  -3   -6.20   18.50
  -6  -6   3   -5.10   12.90
  -6  -6   3   -3.30   19.40
   5   6  -3  611.04   74.39
   5   6  -3  477.75   38.00
   5   6  -3  445.46   48.30
   5   6  -3  440.26   54.69
  -5  -6   3  464.65   47.00
  -5  -6   3  457.55   51.79
   4   6  -3  163.28   24.80
   4   6  -3  194.58   31.60
   4   6  -3  118.79   29.30
   4   6  -3  176.08   22.40
  -4  -6   3  149.09   30.20
  -4  -6   3  158.08   31.90
  -4  -6   3  156.78   31.80
   3   6  -3   43.60   13.00
   3   6  -3   77.19   21.80
   3   6  -3   37.30   16.20
  -3  -6   3   27.50   18.20
  -3  -6   3   52.79   17.30
  -3  -6   3   45.90   17.60
   2   6  -3  164.98   29.40
   2   6  -3  142.79   18.90
   2   6  -3  149.39   24.30
   2   6  -3  128.09   18.70
  -2  -6   3  158.28   26.90
  -2  -6   3  192.68   20.90
  -2  -6   3  182.88   27.10
   1   6  -3  497.85   40.60
   1   6  -3  512.25   34.80
   1   6  -3  530.35   64.09
   1   6  -3  510.45   47.40
  -1  -6   3  456.25   38.80
  -1  -6   3  521.25   46.10
  -1  -6   3  519.05   32.90
   0   6  -3  126.29   15.40
   0   6  -3   95.59   18.80
   0   6  -3  172.48   41.50
   0  -6   3  118.79   14.40
   0  -6   3  125.49   35.50
   0  -6   3  112.89   23.50
   0  -6   3   93.59   18.80
  -1   6  -3  331.17   50.69
  -1   6  -3  398.96   32.90
  -1   6  -3  333.07   25.20
  -1   6  -3  366.06   36.40
   1  -6   3  377.66   32.60
   1  -6   3  310.27   50.79
   1  -6   3  363.76   35.60
   1  -6   3  347.77   24.20
  -2   6  -3 1730.73  118.79
  -2   6  -3 1981.90   86.89
  -2   6  -3 2108.79  104.89
  -2   6  -3 2067.89   96.59
   2  -6   3 1962.00  102.39
   2  -6   3 2110.99   96.99
   2  -6   3 1708.93  131.29
  -3   6  -3   47.70   13.20
  -3   6  -3   22.70    9.40
  -3   6  -3   51.39   24.50
   3  -6   3   30.80   11.50
   3  -6   3   32.10   21.60
   3  -6   3   36.10   12.40
  -4   6  -3  898.71   58.49
   4  -6   3  761.32   83.19
   4  -6   3  886.31   52.79
   4  -6   3  852.21   58.69
  -5   6  -3  434.96   45.90
   5  -6   3  426.36   64.19
   5  -6   3  425.96   40.20
   5  -6   3  471.85   36.60
  -6   6  -3    6.90   20.30
  -6   6  -3   38.50   19.30
   6  -6   3   33.50   31.20
   6  -6   3   34.90   13.00
   6  -6   3    9.20   12.40
   6   5  -3  305.77   29.60
   6   5  -3  342.27   39.40
   6   5  -3  359.86   47.70
   6   5  -3  248.78   48.80
  -6  -5   3  284.07   35.10
  -6  -5   3  326.47   32.80
  -6  -5   3  287.87   41.60
   5   5  -3   10.20   14.10
   5   5  -3    2.10    7.70
   5   5  -3    7.50   14.00
  -5  -5   3   25.70   15.60
   4   5  -3  372.46   37.80
   4   5  -3  361.86   41.70
   4   5  -3  390.46   30.30
   4   5  -3  378.96   35.00
  -4  -5   3  387.36   40.80
  -4  -5   3  454.45   30.10
  -4  -5   3  330.97   37.90
  -4  -5   3  394.76   40.30
   3   5  -3  457.65   31.60
   3   5  -3  338.17   58.99
   3   5  -3  428.16   37.50
   3   5  -3  451.55   44.10
   3   5  -3  429.06   38.50
  -3  -5   3  424.16   37.90
  -3  -5   3  329.27   39.30
  -3  -5   3  485.35   42.20
  -3  -5   3  433.76   29.80
   2   5  -3  383.46   33.70
   2   5  -3  421.76   55.59
   2   5  -3  358.56   27.80
   2   5  -3  391.26   38.10
   2   5  -3  330.27   26.90
  -2  -5   3  382.66   37.30
  -2  -5   3  402.66   27.30
  -2  -5   3  371.66   33.60
   1   5  -3  206.38   24.10
   1   5  -3  192.88   18.50
   1   5  -3  248.98   41.80
  -1  -5   3  214.08   23.50
  -1  -5   3  198.68   25.60
  -1  -5   3  213.38   18.30
   0   5  -3 1585.04   79.09
   0   5  -3 1425.76  104.39
   0   5  -3 1648.24   85.59
   0   5  -3 1555.54   71.29
   0  -5   3 1601.94   79.09
   0  -5   3 1393.26  107.79
   0  -5   3 1626.14   85.29
   0  -5   3 1561.44   69.49
  -1   5  -3  240.58   20.50
  -1   5  -3  184.18   35.20
  -1   5  -3  288.87   28.60
  -1   5  -3  259.67   24.30
   1  -5   3  248.38   24.50
   1  -5   3  263.47   27.00
   1  -5   3  202.78   39.30
   1  -5   3  239.98   17.50
  -2   5  -3  764.42   49.80
  -2   5  -3  669.93   62.09
  -2   5  -3  783.72   46.50
   2  -5   3  796.72   51.09
   2  -5   3  722.93   72.49
   2  -5   3  774.42   45.50
  -3   5  -3  347.97   43.40
  -3   5  -3  378.46   30.80
  -3   5  -3  339.57   29.20
   3  -5   3  338.67   27.60
   3  -5   3  338.27   31.50
   3  -5   3  299.37   47.20
   4  -5   3   14.30    9.40
   4  -5   3    4.80    7.50
   4  -5   3   -6.60   15.30
  -5   5  -3   74.89   20.10
   5  -5   3  111.59   20.80
   5  -5   3  105.09   20.10
   5  -5   3  108.79   31.10
  -6   5  -3  186.28   32.30
   6  -5   3  162.48   25.70
   6  -5   3  137.29   24.60
   7   4  -3   15.60   16.70
   7   4  -3    9.30   14.60
  -7  -4   3   18.00   14.20
  -7  -4   3    9.20    9.60
   6   4  -3  477.95   50.79
   6   4  -3  308.97   43.40
   6   4  -3  419.06   32.00
   6   4  -3  398.46   45.10
  -6  -4   3  469.55   40.80
  -6  -4   3  426.26   32.10
  -6  -4   3  333.57   40.50
   5   4  -3  849.61   58.29
   5   4  -3  798.32   48.00
   5   4  -3  840.42   57.09
   5   4  -3  801.02   64.29
  -5  -4   3  873.81   57.89
  -5  -4   3  860.41   47.30
   4   4  -3  303.07   24.30
   4   4  -3  317.67   30.60
   4   4  -3  317.67   35.70
   4   4  -3  284.87   29.50
  -4  -4   3  271.87   32.10
  -4  -4   3  230.48   28.20
  -4  -4   3  316.97   31.10
  -4  -4   3  289.27   23.40
   3   4  -3 1462.95   75.99
   3   4  -3 1463.25   82.79
   3   4  -3 1340.57   70.99
   3   4  -3 1412.76   67.79
  -3  -4   3 1420.56   66.29
  -3  -4   3 1406.66   74.99
  -3  -4   3 1490.95   80.39
  -3  -4   3 1299.67   79.09
   2   4  -3 3266.57  139.19
   2   4  -3 3284.17  144.19
   2   4  -3 3256.57  136.39
  -2  -4   3 3312.47  144.69
  -2  -4   3 3538.15  151.28
   1   4  -3   15.60    9.70
   1   4  -3   33.20    7.80
   1   4  -3   32.80   17.20
   1   4  -3   44.30   10.00
  -1  -4   3   31.00   10.40
  -1  -4   3   36.60    7.30
  -1  -4   3   26.30    8.20
   0   4  -3 2472.45  110.99
   0   4  -3 2492.65  103.89
   0   4  -3 2597.04  116.29
   0   4  -3 2439.86  138.09
   0  -4   3 2751.72  117.19
   0  -4   3 2588.34  149.99
   0  -4   3 2456.15  102.39
   0  -4   3 2482.65  110.29
  -1   4  -3  862.01   66.49
  -1   4  -3  877.41   42.70
  -1   4  -3  921.61   49.99
  -1   4  -3  926.71   52.39
   1  -4   3  919.01   49.40
   1  -4   3  911.91   41.60
   1  -4   3 1013.60   54.59
   1  -4   3  935.91   75.69
  -2   4  -3   16.50   13.10
  -2   4  -3    6.00    6.20
  -2   4  -3   16.80    6.60
   2  -4   3    5.10    5.80
   2  -4   3    4.10   10.30
   2  -4   3   17.50    6.20
  -3   4  -3  268.47   24.40
  -3   4  -3  243.58   33.80
  -3   4  -3  299.27   26.50
   3  -4   3  231.28   38.70
   3  -4   3  309.27   24.60
   3  -4   3  318.07   27.20
  -4   4  -3  904.01   55.39
  -4   4  -3  905.51   52.39
  -4   4  -3  842.12   71.39
   4  -4   3  907.11   78.29
   4  -4   3 1007.30   56.59
   4  -4   3  953.80   52.29
   5  -4   3  223.68   25.40
   5  -4   3  212.58   29.70
   5  -4   3  203.08   39.80
  -6   4  -3  257.47   40.70
   6  -4   3  211.18   27.40
   6  -4   3  282.47   47.40
   6  -4   3  292.27   30.50
  -7   4  -3  521.15   53.19
   7  -4   3  373.26   41.80
   7  -4   3  513.95   65.59
   7  -4   3  447.86   39.30
   7   3  -3  428.26   41.80
   7   3  -3  401.16   46.70
   7   3  -3  434.46   32.70
  -7  -3   3  472.05   33.00
  -7  -3   3  452.75   39.00
   6   3  -3   99.49   22.00
   6   3  -3   91.49   19.60
   6   3  -3   99.99   15.70
  -6  -3   3  118.89   15.90
  -6  -3   3  114.29   19.90
   5   3  -3  146.19   27.00
   5   3  -3  161.58   17.70
   5   3  -3  182.68   25.60
   5   3  -3  174.38   23.20
  -5  -3   3  172.68   22.40
  -5  -3   3  199.78   18.10
   4   3  -3 1005.30   55.99
   4   3  -3  848.72   60.59
   4   3  -3  939.91   57.59
   4   3  -3  974.70   49.50
  -4  -3   3  995.80   57.09
  -4  -3   3  943.01   55.19
  -4  -3   3  968.90   48.20
   3   3  -3   39.40   12.00
   3   3  -3   12.00    6.60
   3   3  -3   31.70   12.60
  -3  -3   3    8.70    7.20
  -3  -3   3   24.40    6.40
  -3  -3   3  -12.70   10.40
  -3  -3   3    4.70    7.70
   2   3  -3  507.35   52.69
   2   3  -3  525.65   33.70
   2   3  -3  494.05   29.10
   2   3  -3  491.05   32.10
   2   3  -3  578.34   38.30
  -2  -3   3  510.25   35.50
  -2  -3   3  485.15   32.00
  -2  -3   3  462.55   31.90
  -2  -3   3  493.25   28.00
   1   3  -3 1986.80  108.79
   1   3  -3 1820.62   84.09
   1   3  -3 1684.03   74.49
   1   3  -3 1790.92   80.99
  -1  -3   3 1831.02   83.99
  -1  -3   3 1751.22   74.39
  -1  -3   3 1722.43   79.59
  -1  -3   3 1701.33   77.09
   0   3  -3   50.09    7.00
   0   3  -3   60.69    9.60
   0   3  -3   77.39   19.50
   0   3  -3   61.09   10.20
   0  -3   3   51.39   17.90
   0  -3   3   57.09    6.80
   0  -3   3   44.10    9.40
   0  -3   3   49.10    9.60
  -1   3  -3 1147.09   58.89
  -1   3  -3 1242.78   59.39
  -1   3  -3 1244.98   75.59
  -1   3  -3 1138.89   51.09
   1  -3   3 1454.15   86.89
   1  -3   3 1191.08   57.69
   1  -3   3 1233.18   61.19
  -2   3  -3 1570.14   73.99
  -2   3  -3 1594.54   75.19
  -2   3  -3 1652.73   91.59
   2  -3   3 1545.85   72.19
   2  -3   3 1540.25   71.89
   2  -3   3 1589.34   97.09
   2  -3   3 1651.33   80.89
  -3   3  -3  250.27   25.30
  -3   3  -3  313.57   23.90
  -3   3  -3  290.27   34.10
   3  -3   3  281.87   22.90
   3  -3   3  289.47   24.70
   3  -3   3  275.87   37.00
  -4   3  -3  311.27   24.60
  -4   3  -3  275.47   35.80
  -4   3  -3  294.37   29.20
   4  -3   3  280.07   24.90
   4  -3   3  282.57   40.40
   4  -3   3  300.77   27.00
   5  -3   3 1777.32   87.59
   5  -3   3 1680.93  113.79
   5  -3   3 1672.43   92.49
  -6   3  -3  169.38   29.80
  -6   3  -3  211.18   28.00
   6  -3   3  175.58   41.40
   6  -3   3  170.28   26.60
   6  -3   3  161.98   26.50
  -7   3  -3  170.38   32.10
   7  -3   3  118.89   23.00
   7  -3   3  110.49   33.10
   7  -3   3  109.59   20.80
  -8  -2   3   59.69   16.60
  -7  -2   3  229.88   21.90
  -7  -2   3  249.78   27.20
   6   2  -3  334.97   25.30
  -6  -2   3  387.36   31.80
  -6  -2   3  329.97   24.50
   5   2  -3   66.49   10.30
   5   2  -3   48.50   13.60
  -5  -2   3   34.00   10.90
  -5  -2   3   71.79   10.80
   4   2  -3   36.00   10.80
   4   2  -3   42.80    8.70
  -4  -2   3   54.09    8.50
  -4  -2   3   43.00   10.60
   3   2  -3 1733.83   75.29
   3   2  -3 1931.71   95.99
   3   2  -3 1669.93   83.49
   3   2  -3 1753.22   79.79
  -3  -2   3 1808.32   82.79
  -3  -2   3 1664.43   74.59
  -3  -2   3 1875.01   82.59
   2   2  -3  611.14   35.90
   2   2  -3  580.64   35.60
   2   2  -3  564.94   30.00
   2   2  -3  621.84   34.00
  -2  -2   3  582.74   35.50
  -2  -2   3  626.44   37.20
  -2  -2   3  599.84   32.50
  -2  -2   3  606.64   30.30
   1   2  -3  440.26   37.90
   1   2  -3  350.36   22.80
   1   2  -3  353.16   22.40
   1   2  -3  329.57   19.30
  -1  -2   3  336.27   23.30
  -1  -2   3  347.47   21.60
  -1  -2   3  339.27   23.30
  -1  -2   3  336.27   19.30
   0   2  -3 2233.68   94.29
   0   2  -3 2586.24  112.99
   0   2  -3 2100.99   88.19
   0   2  -3 2246.68   94.49
   0  -2   3 2217.18   92.79
   0  -2   3 2317.17   95.79
   0  -2   3 2158.38   88.59
  -1   2  -3 1387.16   64.49
  -1   2  -3 1271.07   61.79
  -1   2  -3 1463.35   76.29
   1  -2   3 1544.75   82.09
   1  -2   3 1385.26   62.19
   1  -2   3 1367.66   64.29
  -2   2  -3  129.09   16.00
  -2   2  -3  138.79   13.40
  -2   2  -3  105.39   18.80
   2  -2   3  110.69   12.50
   2  -2   3  134.79   22.00
   2  -2   3  127.89   14.80
   2  -2   3  125.59   13.50
  -3   2  -3  970.60   82.29
  -3   2  -3 1053.09   64.09
  -3   2  -3  982.80   50.49
   3  -2   3  904.91   48.90
   3  -2   3 1038.30   54.99
   3  -2   3  992.80   51.69
   3  -2   3 1016.30   69.19
  -4   2  -3  506.55   33.70
  -4   2  -3  557.94   35.30
  -4   2  -3  488.55   41.00
   4  -2   3  516.15   36.10
   4  -2   3  552.84   52.69
   4  -2   3  578.44   38.70
  -5   2  -3  101.79   15.00
  -5   2  -3  139.69   18.00
   5  -2   3  146.29   28.10
   5  -2   3  131.79   21.10
   5  -2   3   95.19   17.80
  -6   2  -3  583.54   40.60
  -6   2  -3  528.95   50.39
  -6   2  -3  519.55   44.10
  -7   2  -3   82.79   18.90
  -7   2  -3   85.79   24.00
   7  -2   3   84.49   27.80
   7  -2   3   53.89   15.30
   7  -2   3   78.59   21.50
   8   1  -3  426.56   56.09
  -8  -1   3  446.96   38.10
  -7  -1   3    6.30    7.80
   6   1  -3 1224.18   64.39
  -6  -1   3 1399.66   70.19
   5   1  -3  718.53   37.70
   5   1  -3  758.62   46.30
   5   1  -3  709.13   50.99
  -5  -1   3  763.12   44.60
  -5  -1   3  751.42   38.10
   4   1  -3   -2.90    6.30
   4   1  -3   10.90    4.40
  -4  -1   3    4.00    4.00
   3   1  -3  962.10   53.89
   3   1  -3 1007.10   45.40
   3   1  -3 1112.69   54.79
  -3  -1   3  986.60   49.00
  -3  -1   3 1002.50   54.99
  -3  -1   3  969.60   45.40
   2   1  -3 3095.39  121.99
   2   1  -3 3264.77  131.29
   2   1  -3 3210.38  127.49
  -2  -1   3 3093.89  130.19
  -2  -1   3 3109.69  124.59
  -2  -1   3 3061.99  122.29
   1   1  -3 1160.38   49.40
   1   1  -3 1092.79   47.70
   1   1  -3 1104.09   48.60
  -1  -1   3 1111.79   48.10
  -1  -1   3 1200.48   54.69
  -1  -1   3 1099.49   47.70
   0   1  -3 1079.59   56.89
   0   1  -3 1147.69   48.00
   0   1  -3 1132.79   51.89
   0   1  -3 1084.79   49.80
   0  -1   3 1116.29   51.59
   0  -1   3 1129.39   49.90
   0  -1   3 1332.87   64.09
  -1   1  -3 1256.97   61.09
  -1   1  -3 1250.47   57.29
  -1   1  -3 1343.27   66.69
   1  -1   3 1297.47   60.29
   1  -1   3 1294.67   53.29
   1  -1   3 1247.08   57.49
   1  -1   3 1341.77   68.59
  -2   1  -3  853.21   44.20
  -2   1  -3  905.41   54.79
  -2   1  -3  881.51   41.60
  -2   1  -3  838.32   49.20
   2  -1   3  838.02   40.50
   2  -1   3  882.71   47.80
   2  -1   3  898.91   45.60
   2  -1   3  914.21   57.29
  -3   1  -3  274.27   20.10
  -3   1  -3  271.37   21.60
  -3   1  -3  277.67   28.10
   3  -1   3  289.37   23.70
   3  -1   3  285.67   32.20
   3  -1   3  293.97   25.30
   3  -1   3  237.48   19.90
  -4   1  -3  554.84   45.70
  -4   1  -3  561.74   35.60
  -4   1  -3  577.74   35.50
   4  -1   3  557.34   52.29
   4  -1   3  599.54   41.30
   4  -1   3  592.04   40.30
  -5   1  -3  336.77   27.70
  -5   1  -3  349.77   28.10
   5  -1   3  350.66   32.60
   5  -1   3  372.76   34.70
   5  -1   3  344.57   43.90
  -6   1  -3   42.90   12.80
  -6   1  -3   44.10   14.70
   6  -1   3   22.50   17.10
  -7   1  -3  617.24   44.80
  -7   1  -3  685.43   56.09
   7  -1   3  733.33   65.29
   7  -1   3  630.04   48.50
   7  -1   3  560.94   66.19
   8   0  -3   96.59   29.20
  -8   0   3  134.79   20.50
   7   0  -3  313.07   42.70
   7   0  -3  307.07   40.70
  -7   0   3  296.67   34.30
  -7   0   3  296.27   32.10
   6   0  -3  751.02   61.49
   6   0  -3  710.13   54.29
  -6   0   3  738.13   52.19
  -6   0   3  721.43   45.50
   5   0  -3  176.38   23.90
   5   0  -3  222.98   28.60
  -5   0   3  213.18   19.90
  -5   0   3  196.38   23.00
   4   0  -3 2948.61  119.29
   4   0  -3 2811.22  112.79
   4   0  -3 3036.10  128.39
   4   0  -3 2772.02  128.09
  -4   0   3 2870.01  119.49
  -4   0   3 2732.33  126.69
   3   0  -3  134.79   17.20
   3   0  -3  138.79   11.00
   3   0  -3  128.69   15.90
   3   0  -3  125.19   13.60
   3   0  -3  142.29   13.30
  -3   0   3  130.09   12.40
  -3   0   3  148.89   17.10
   2   0  -3  642.54   37.40
   2   0  -3  552.24   33.10
   2   0  -3  555.84   27.50
   2   0  -3  551.64   29.20
   2   0  -3  525.35   27.50
  -2   0   3  522.75   26.60
  -2   0   3  539.45   32.90
   1   0  -3  845.52   36.50
   1   0  -3  830.92   38.00
   1   0  -3  833.22   38.50
  -1   0   3  836.32   37.00
  -1   0   3  823.62   37.80
   0   0  -3   46.20    8.60
   0   0  -3   41.80    6.80
   0   0   3   47.70    8.40
   0   0   3   49.00    7.60
  -1   0  -3  240.88   18.20
  -1   0  -3  254.97   22.60
   1   0   3  242.68   21.10
   1   0   3  250.37   21.50
   1   0   3  254.37   19.60
  -2   0  -3 1546.35   80.49
  -2   0  -3 1618.84   72.99
  -2   0  -3 1516.65   66.59
   2   0   3 1700.53   79.59
   2   0   3 1629.74   75.69
   2   0   3 1570.14   82.59
   2   0   3 1522.15   67.69
  -3   0  -3  669.03   49.00
  -3   0  -3  650.23   39.60
  -3   0  -3  669.53   36.10
   3   0   3  649.54   37.60
   3   0   3  715.83   52.29
   3   0   3  646.84   42.80
   3   0   3  688.23   45.60
  -4   0  -3  402.66   27.60
  -4   0  -3  412.76   29.90
  -4   0  -3  386.16   39.60
   4   0   3  441.66   43.80
   4   0   3  364.06   33.60
   4   0   3  408.46   35.50
  -5   0  -3 1764.22   83.79
  -5   0  -3 1743.13   84.79
   5   0   3 1772.52  109.99
   5   0   3 1767.72   93.79
   5   0   3 1772.62   94.89
  -6   0  -3  149.88   19.10
  -6   0  -3  137.69   24.10
  -6   0  -3  114.59   20.60
   6   0   3  192.48   27.40
   6   0   3  163.18   35.10
   6   0   3  186.78   30.90
  -7   0  -3   46.60   16.50
  -7   0  -3   58.99   15.80
   7   0   3   64.59   16.90
   7   0   3   68.49   26.50
   7   0   3   26.50   20.10
   8  -1  -3  282.97   45.20
  -8   1   3  256.87   37.40
  -8   1   3  333.07   31.40
   7  -1  -3   23.70   14.80
   7  -1  -3   25.70   16.10
  -7   1   3   28.90   12.40
  -7   1   3   29.10   15.70
   6  -1  -3 1798.52  105.59
   6  -1  -3 1666.13   93.29
  -6   1   3 1662.73   93.59
  -6   1   3 1707.33   83.79
   5  -1  -3  593.24   48.90
   5  -1  -3  516.95   41.60
   5  -1  -3  633.04   44.80
  -5   1   3  564.54   35.90
  -5   1   3  511.95   42.00
   4  -1  -3  548.95   33.00
   4  -1  -3  437.26   45.20
   4  -1  -3  541.85   38.20
   4  -1  -3  578.44   40.50
   4  -1  -3  585.54   42.70
  -4   1   3  543.05   32.30
  -4   1   3  515.15   38.60
   3  -1  -3 2015.00   87.09
   3  -1  -3 2045.10   89.39
   3  -1  -3 2309.77  100.29
   3  -1  -3 2048.20   94.09
   3  -1  -3 2058.59   95.49
  -3   1   3 2053.19   86.89
  -3   1   3 2109.89   94.89
  -3   1   3 2116.19   88.59
  -3   1   3 2071.49   97.39
   2  -1  -3   26.70    4.90
   2  -1  -3   28.20    6.10
   2  -1  -3   20.60    6.70
   2  -1  -3   19.10    7.30
  -2   1   3   27.10    7.70
  -2   1   3   23.10    5.60
  -2   1   3   22.10    4.20
   1  -1  -3   27.00    6.40
   1  -1  -3   34.80    6.20
   1  -1  -3   39.40    6.20
  -1   1   3   25.50    5.50
   0  -1  -3 2821.22  116.59
   0  -1  -3 2861.41  123.09
   0   1   3 2886.11  112.59
   0   1   3 2720.13  119.79
   0   1   3 2918.51  118.69
  -1  -1  -3 1504.25   70.99
  -1  -1  -3 1499.75   78.39
   1   1   3 1564.14   73.79
   1   1   3 1521.65   75.79
  -2  -1  -3  682.13   34.90
  -2  -1  -3  718.33   38.10
  -2  -1  -3  706.63   49.40
  -2  -1  -3  639.74   40.50
   2   1   3  755.52   47.90
   2   1   3  706.93   38.40
   2   1   3  721.43   45.00
  -3  -1  -3 2098.09   91.39
  -3  -1  -3 2059.59   98.09
  -3  -1  -3 2284.17  120.09
   3   1   3 2106.89  103.89
   3   1   3 2114.39   96.29
   3   1   3 2181.18  106.29
  -4  -1  -3  156.78   19.60
  -4  -1  -3  167.38   30.50
  -4  -1  -3  139.39   15.80
   4   1   3  112.19   21.70
   4   1   3  130.09   25.80
   4   1   3  127.19   22.60
  -5  -1  -3   63.89   13.70
  -5  -1  -3   98.69   26.10
   5   1   3   78.29   20.90
   5   1   3   66.69   21.30
   5   1   3   83.09   20.00
  -6  -1  -3  235.08   24.20
  -6  -1  -3  195.18   25.10
   6   1   3  201.58   38.90
   6   1   3  207.88   31.10
   8  -2  -3  531.35   62.29
  -8   2   3  574.64   53.89
  -8   2   3  624.34   45.50
   7  -2  -3  151.68   31.40
   7  -2  -3  145.79   33.70
  -7   2   3  129.39   20.50
  -7   2   3  165.38   26.40
   6  -2  -3  401.76   39.00
   6  -2  -3  430.16   45.70
  -6   2   3  438.86   33.00
  -6   2   3  409.36   40.10
   5  -2  -3  877.91   56.29
   5  -2  -3  888.91   59.29
   5  -2  -3  941.81   64.69
   5  -2  -3  868.61   49.00
  -5   2   3  899.71   49.60
  -5   2   3  880.81   59.39
   4  -2  -3  161.18   20.10
   4  -2  -3  185.08   18.00
   4  -2  -3  187.98   23.30
   4  -2  -3  140.09   20.10
  -4   2   3  144.49   20.80
  -4   2   3  184.68   16.70
  -4   2   3  166.78   16.20
   3  -2  -3  244.58   19.70
   3  -2  -3  242.38   24.50
   3  -2  -3  240.68   21.30
  -3   2   3  242.68   21.30
  -3   2   3  205.88   16.70
  -3   2   3  241.78   19.10
   2  -2  -3 2106.49   95.59
   2  -2  -3 1960.80   82.79
  -2   2   3 1975.30   87.39
  -2   2   3 2103.49   89.49
   1  -2  -3 3336.17  139.19
   1  -2  -3 3442.26  143.69
   1  -2  -3 3436.66  145.19
  -1   2   3 3525.55  138.49
  -1   2   3 3396.16  140.59
   0  -2  -3  434.26   34.60
   0  -2  -3  430.16   29.80
   0   2   3  457.75   32.90
   0   2   3  444.46   30.90
  -1  -2  -3 4127.39  160.88
  -1  -2  -3 3996.80  169.48
  -1  -2  -3 4118.49  180.08
  -1  -2  -3 4111.59  164.88
   1   2   3 3967.60  172.08
   1   2   3 4128.69  175.58
  -2  -2  -3  894.31   45.00
  -2  -2  -3  883.21   52.09
  -2  -2  -3  870.91   60.99
  -2  -2  -3  913.11   47.60
   2   2   3  793.72   55.29
   2   2   3  910.61   56.09
  -3  -2  -3  420.06   29.10
  -3  -2  -3  437.56   35.30
  -3  -2  -3  438.96   44.10
  -3  -2  -3  468.05   30.70
   3   2   3  493.25   41.20
   3   2   3  401.06   37.90
  -4  -2  -3  309.77   30.40
  -4  -2  -3  281.77   24.60
  -4  -2  -3  280.57   25.30
  -4  -2  -3  268.37   41.90
   4   2   3  351.76   37.30
   4   2   3  387.36   38.30
  -5  -2  -3  309.37   46.80
  -5  -2  -3  160.28   25.40
  -5  -2  -3  212.08   21.90
   5   2   3  200.18   31.20
   5   2   3  188.68   33.60
  -6  -2  -3  -12.90   11.70
  -6  -2  -3   -0.40    8.50
   6   2   3   30.30   17.00
   6   2   3   21.70   18.30
   6   2   3  -11.50   11.20
   8  -3  -3  252.17   47.80
  -8   3   3  297.37   41.30
  -8   3   3  356.76   32.70
   7  -3  -3  429.06   64.89
   7  -3  -3  465.55   53.29
  -7   3   3  442.46   52.39
  -7   3   3  413.46   45.30
   6  -3  -3   41.50   14.20
   6  -3  -3   75.99   21.10
  -6   3   3   74.69   19.10
  -6   3   3   57.69   13.10
   5  -3  -3   85.99   19.20
   5  -3  -3   72.49   19.40
  -5   3   3  113.19   19.80
  -5   3   3  118.69   14.40
   4  -3  -3  716.63   49.99
   4  -3  -3  675.83   43.70
   4  -3  -3  692.43   51.89
  -4   3   3  702.23   40.90
  -4   3   3  717.93   50.39
   3  -3  -3 1019.70   61.89
   3  -3  -3  993.10   51.19
   3  -3  -3 1126.99   55.29
  -3   3   3 1083.89   54.49
  -3   3   3 1057.59   54.79
  -3   3   3 1056.79   61.89
   2  -3  -3  260.87   24.80
   2  -3  -3  254.67   24.80
   2  -3  -3  292.97   23.10
  -2   3   3  259.57   24.30
  -2   3   3  272.47   21.10
  -2   3   3  271.67   22.40
   1  -3  -3 1000.30   57.99
   1  -3  -3  914.71   50.59
   1  -3  -3  799.72   56.99
  -1   3   3  957.40   51.89
  -1   3   3  871.81   52.49
   0  -3  -3  491.75   32.30
   0  -3  -3  525.85   40.90
   0  -3  -3  458.15   30.50
   0  -3  -3  458.35   34.60
   0   3   3  555.74   45.30
   0   3   3  462.05   36.00
   0   3   3  482.25   37.30
  -1  -3  -3   34.00    9.30
  -1  -3  -3   22.30   11.40
  -1  -3  -3   19.90   13.50
  -1  -3  -3   32.50   10.10
   1   3   3    6.60    8.30
   1   3   3   23.30   10.10
  -2  -3  -3  325.07   30.70
  -2  -3  -3  306.57   25.50
  -2  -3  -3  302.47   37.50
  -2  -3  -3  292.17   24.50
   2   3   3  343.07   35.40
   2   3   3  296.37   32.20
  -3  -3  -3  455.75   34.30
  -3  -3  -3  527.85   34.70
  -3  -3  -3  514.85   53.99
  -3  -3  -3  540.35   41.60
   3   3   3  471.25   44.00
   3   3   3  480.05   45.00
  -4  -3  -3   41.50   13.10
  -4  -3  -3   74.29   22.90
  -4  -3  -3   33.40   11.70
   4   3   3   15.80   14.20
  -5  -3  -3  583.54   40.40
  -5  -3  -3  587.04   40.60
  -5  -3  -3  512.35   45.40
  -5  -3  -3  461.75   65.59
   5   3   3  529.95   53.89
   5   3   3  629.04   56.69
  -6  -3  -3  391.76   44.40
  -6  -3  -3  568.44   40.70
   6   3   3  449.76   50.09
   6   3   3  414.66   56.49
   8  -4  -3   52.99   25.10
  -8   4   3   67.69   21.60
   7  -4  -3   45.90   18.30
   7  -4  -3   36.40   21.30
  -7   4   3   44.00   16.00
   6  -4  -3  734.93   51.99
   6  -4  -3  670.93   63.19
  -6   4   3  735.13   58.79
  -6   4   3  674.33   43.70
   5  -4  -3  259.97   35.00
   5  -4  -3  238.58   31.50
  -5   4   3  255.37   31.10
  -5   4   3  196.68   22.50
   4  -4  -3   54.49   18.70
   4  -4  -3   38.30   13.30
   4  -4  -3   56.09   12.20
  -4   4   3   58.19   12.30
   3  -4  -3 1127.69   66.79
  -3   4   3 1264.17   62.29
  -3   4   3 1081.19   66.89
  -3   4   3 1193.68   68.19
  -3   4   3 1116.39   56.19
   2  -4  -3  468.35   34.30
   2  -4  -3  404.06   34.20
   2  -4  -3  442.66   30.80
  -2   4   3  423.56   33.60
  -2   4   3  457.65   32.30
   1  -4  -3  191.68   26.20
   1  -4  -3  200.78   20.20
   1  -4  -3  182.88   22.90
   1  -4  -3  201.98   23.30
  -1   4   3  216.58   25.70
  -1   4   3  193.58   25.70
   0  -4  -3  632.54   44.90
   0  -4  -3  605.44   39.20
   0  -4  -3  592.14   48.70
   0   4   3  571.24   52.99
   0   4   3  590.74   46.90
  -1  -4  -3  234.98   27.80
  -1  -4  -3  243.48   24.30
  -1  -4  -3  268.07   34.60
   1   4   3  211.08   29.50
   1   4   3  203.48   32.10
  -2  -4  -3   39.60   12.30
  -2  -4  -3   40.30   20.80
  -2  -4  -3   43.60   11.80
  -2  -4  -3   14.70   12.10
   2   4   3   18.40   12.60
   2   4   3   26.50   15.00
  -3  -4  -3  991.60   66.29
  -3  -4  -3 1030.10   80.39
  -3  -4  -3 1003.10   57.59
  -3  -4  -3 1046.40   59.49
   3   4   3  978.90   72.79
   3   4   3 1018.00   98.29
  -4  -4  -3  627.24   51.89
  -4  -4  -3  687.63   45.20
  -4  -4  -3  611.24  101.89
  -4  -4  -3  576.84   43.50
   4   4   3  676.63   59.29
   4   4   3  623.64   85.19
  -5  -4  -3  -22.70   15.50
   5   4   3   -3.90   21.90
   5   4   3   22.30   16.70
   7  -5  -3  333.47   44.60
   7  -5  -3  382.66   55.39
  -7   5   3  408.66   46.60
   6  -5  -3   -3.50   12.00
   6  -5  -3  -24.10   14.90
  -6   5   3   -6.70   11.30
   5  -5  -3 1303.97   95.29
   5  -5  -3 1168.88   70.99
  -5   5   3 1391.66   70.99
  -5   5   3 1433.26   85.29
  -5   5   3 1236.78   82.19
   4  -5  -3  475.95   51.29
  -4   5   3  520.25   37.60
  -4   5   3  449.95   52.89
  -4   5   3  524.85   44.80
   3  -5  -3  144.79   22.70
   3  -5  -3  110.79   21.20
   3  -5  -3  113.59   20.10
  -3   5   3  105.19   18.80
  -3   5   3  127.29   19.50
   2  -5  -3  996.00   64.99
   2  -5  -3 1014.90   55.09
   2  -5  -3 1091.69   63.49
   2  -5  -3  936.51   58.99
  -2   5   3  974.40   57.89
  -2   5   3  885.21   69.69
  -2   5   3 1063.29   64.69
  -2   5   3  997.00   59.99
   1  -5  -3  659.83   47.60
   1  -5  -3  580.54   39.60
   1  -5  -3  714.53   52.69
   1  -5  -3  563.54   40.00
  -1   5   3  590.04   49.00
  -1   5   3  626.44   47.20
   0  -5  -3   70.69   20.30
   0  -5  -3   69.39   15.20
   0  -5  -3   79.19   19.50
   0   5   3   60.99   19.60
   0   5   3   94.29   26.00
   0   5   3   70.59   16.60
  -1  -5  -3  985.40   63.59
  -1  -5  -3  866.51   68.89
  -1  -5  -3  931.61   62.69
   1   5   3  916.91   63.79
   1   5   3  804.32   76.89
   1   5   3  786.92   72.09
  -2  -5  -3  429.06   39.00
  -2  -5  -3  519.45   46.10
  -2  -5  -3  509.35   55.79
  -2  -5  -3  475.75   37.30
   2   5   3  477.35   48.90
   2   5   3  499.15   49.40
  -3  -5  -3   41.40   16.80
  -3  -5  -3   19.20   20.60
  -3  -5  -3    5.40    9.90
   3   5   3   32.00   16.90
   3   5   3    7.90   17.10
  -4  -5  -3  629.54   70.79
  -4  -5  -3  537.85   45.20
  -4  -5  -3  612.74   54.49
  -4  -5  -3  620.14   44.90
   4   5   3  597.84   60.69
   4   5   3  549.15   60.99
  -5  -5  -3  150.98   24.70
  -5  -5  -3  100.79   28.60
   5   5   3  130.69   29.10
   7  -6  -3  497.15   48.10
   7  -6  -3  536.25   71.19
  -7   6   3  454.25   51.29
   6  -6  -3   38.40   25.80
  -6   6   3   53.69   22.30
   5  -6  -3   17.40   22.80
  -5   6   3   30.70   10.50
  -5   6   3   13.60   13.80
  -5   6   3  -15.70   18.20
   4  -6  -3  125.19   21.30
   4  -6  -3  176.08   36.20
  -4   6   3  177.18   23.90
  -4   6   3  197.78   35.40
  -4   6   3  203.88   28.10
   3  -6  -3  539.15   49.10
   3  -6  -3  755.42   52.79
   3  -6  -3  633.74   42.10
   3  -6  -3  652.03   63.89
  -3   6   3  577.74   60.19
  -3   6   3  713.53   48.30
  -3   6   3  703.03   50.89
  -3   6   3  730.23   53.99
   2  -6  -3    5.50   12.00
   2  -6  -3    6.70   10.20
   2  -6  -3   -3.30   10.40
  -2   6   3  -24.90   12.80
   1  -6  -3 1003.80   64.19
   1  -6  -3  814.72   52.39
  -1   6   3  984.80   67.69
  -1   6   3  801.92   76.69
  -1   6   3  822.12   58.89
   0  -6  -3 1021.90   69.09
   0   6   3  933.51   71.09
   0   6   3 1013.80   68.69
   0   6   3  964.60   86.79
  -1  -6  -3   65.99   27.00
  -1  -6  -3  110.39   24.70
   1   6   3  100.89   23.10
   1   6   3   70.69   28.00
   1   6   3   67.79   22.70
  -2  -6  -3  443.06   47.40
  -2  -6  -3  456.05   42.60
  -2  -6  -3  483.35   40.30
  -2  -6  -3  439.06   60.59
   2   6   3  467.85   50.69
   2   6   3  492.95   64.49
   2   6   3  427.86   50.69
  -3  -6  -3  107.99   41.30
  -3  -6  -3  183.78   25.90
  -3  -6  -3  182.88   34.00
   3   6   3  155.58   35.40
   3   6   3  196.38   37.70
   3   6   3  114.39   51.39
  -4  -6  -3  -10.20   18.20
  -4  -6  -3    5.10   12.30
   4   6   3   12.90   20.10
   4   6   3  -27.70   27.20
   6  -7  -3  143.29   39.40
  -6   7   3  151.38   25.60
  -6   7   3  134.79   41.90
  -6   7   3  119.89   29.30
   5  -7  -3   99.19   34.60
  -5   7   3  143.19   26.40
   4  -7  -3    5.60   12.70
   4  -7  -3   14.30   11.50
   4  -7  -3   37.80   14.50
  -4   7   3   26.20   12.90
  -4   7   3   28.60   18.00
  -4   7   3   45.40   24.30
   3  -7  -3  612.04   41.90
   3  -7  -3  601.94   66.89
   3  -7  -3  601.74   73.19
   3  -7  -3  547.15   51.19
  -3   7   3  521.25   62.89
  -3   7   3  614.74   49.00
  -3   7   3  573.94   45.90
   2  -7  -3  399.76   43.10
   2  -7  -3  389.56   34.70
   2  -7  -3  349.87   42.90
  -2   7   3  296.57   53.49
  -2   7   3  424.86   47.30
  -2   7   3  364.96   56.39
   1  -7  -3   58.79   16.90
   1  -7  -3   39.40   19.60
   1  -7  -3   72.69   21.10
  -1   7   3   13.20   18.50
  -1   7   3   76.49   33.00
  -1   7   3   55.09   23.30
   0  -7  -3  451.15   46.90
   0  -7  -3  347.87   61.89
   0  -7  -3  412.06   37.10
   0   7   3  445.86   49.00
   0   7   3  317.97   57.99
   0   7   3  438.46   52.59
  -1  -7  -3  196.88   34.70
   1   7   3  236.18   38.50
   1   7   3  147.89   46.30
   1   7   3  208.08   37.10
  -2  -7  -3   -6.10   16.90
   2   7   3   13.70   18.90
   2   7   3    6.70   24.50
   2   7   3   29.30   34.10
  -3  -7  -3  250.37   43.00
  -3  -7  -3  220.68   31.20
   4  -8  -3  341.67   33.80
   4  -8  -3  241.68   52.39
   4  -8  -3  284.17   38.00
  -4   8   3  178.88   45.40
  -4   8   3  238.28   32.50
  -4   8   3  265.87   36.50
   3  -8  -3   -8.60   14.50
   3  -8  -3   16.50   16.60
   3  -8  -3   10.10   17.20
  -3   8   3   23.00   24.20
  -3   8   3   -7.10   11.10
  -3   8   3    0.70   12.90
  -3   8   3    3.40   28.40
   2  -8  -3  214.48   36.90
   2  -8  -3  223.28   42.30
  -2   8   3  225.68   51.19
   1  -8  -3  118.99   31.30
   1  -8  -3  133.89   31.10
  -1   8   3  167.68   36.00
  -1   8   3  175.88   48.10
   0  -8  -3   64.29   24.50
   0  -8  -3   73.19   29.30
   0   8   3   69.79   25.00
  -1  -8  -3   67.69   31.20
  -1  -8  -3   47.90   22.80
   1   8   3   68.59   45.60
   1   8   3   65.49   28.20
   2   9  -4  175.28   47.70
   2   9  -4  149.29   25.30
  -2  -9   4   89.29   31.50
   1   9  -4   85.69   18.30
   1   9  -4   72.89   23.30
   1   9  -4   54.79   29.60
  -1  -9   4   68.39   25.10
  -1  -9   4   61.59   25.90
   0   9  -4    6.80   11.30
   0   9  -4   -5.50   20.10
   0   9  -4   29.10   18.80
   0  -9   4   13.20   18.20
  -1   9  -4  383.66   52.99
  -1   9  -4  469.35   39.90
  -1   9  -4  392.56   36.00
   1  -9   4  427.96   33.40
   1  -9   4  320.57   75.39
   1  -9   4  297.67   42.10
  -2   9  -4  130.99   21.00
   2  -9   4  141.39   33.40
   2  -9   4  134.39   31.30
   2  -9   4  103.69   25.40
   2  -9   4  139.29   47.30
  -3   9  -4   47.20   18.80
   3  -9   4   65.89   24.20
   3  -9   4   -0.10   26.70
   3  -9   4   42.00   19.90
   4   8  -4  228.68   44.60
   4   8  -4  213.78   44.50
   4   8  -4  284.87   32.50
  -4  -8   4  281.67   50.39
  -4  -8   4  264.37   41.40
   3   8  -4  191.88   26.30
   3   8  -4  213.08   51.59
   3   8  -4  196.98   33.30
  -3  -8   4  245.38   39.50
  -3  -8   4  178.78   37.30
   2   8  -4  124.29   25.50
   2   8  -4   58.09   22.80
   2   8  -4   92.29   19.10
  -2  -8   4  122.79   26.70
  -2  -8   4  102.69   26.50
   1   8  -4  931.01   72.09
   1   8  -4  921.91   55.89
   1   8  -4  751.72   58.59
  -1  -8   4  817.92   48.70
  -1  -8   4  656.83   56.89
  -1  -8   4  676.43   64.19
   0   8  -4  127.69   25.20
   0   8  -4  125.59   31.50
   0   8  -4  172.58   21.80
   0  -8   4  152.68   28.80
   0  -8   4  168.78   32.40
  -1   8  -4  159.28   20.80
  -1   8  -4  115.69   22.70
   1  -8   4  162.68   19.40
   1  -8   4  150.28   26.90
   1  -8   4  166.18   33.10
  -2   8  -4  712.03   54.09
  -2   8  -4  767.62   73.89
  -2   8  -4  713.33   44.50
   2  -8   4  637.54   57.99
   2  -8   4  767.12   41.00
   2  -8   4  607.94   83.39
   2  -8   4  932.91   77.79
  -3   8  -4  138.49   26.40
  -3   8  -4   93.99   25.80
   3  -8   4   85.59   22.30
   3  -8   4  118.59   23.00
   3  -8   4   84.69   43.10
  -4   8  -4   36.90   16.90
  -4   8  -4   -2.30   18.50
   4  -8   4   30.00   17.00
   4  -8   4   -6.30   22.20
   4  -8   4   39.00   16.80
   5   7  -4  153.28   26.00
   5   7  -4  172.58   31.50
   5   7  -4  248.48   44.60
  -5  -7   4  167.18   35.70
  -5  -7   4  188.78   34.70
   4   7  -4  -20.80   15.90
   4   7  -4    9.70   12.90
   4   7  -4   50.99   18.80
   4   7  -4   28.00   11.80
  -4  -7   4   39.90   21.30
  -4  -7   4  -13.60   13.80
   3   7  -4  715.93   72.39
   3   7  -4  764.32   65.99
   3   7  -4  708.43   47.80
  -3  -7   4  574.24   62.89
  -3  -7   4  731.73   58.69
   2   7  -4  593.44   50.29
   2   7  -4  660.03   59.79
   2   7  -4  727.13   45.50
  -2  -7   4  712.03   49.40
  -2  -7   4  631.84   51.19
  -2  -7   4  578.14   56.29
   1   7  -4  257.87   24.50
   1   7  -4  170.88   30.10
   1   7  -4  269.17   37.50
  -1  -7   4  202.58   29.90
  -1  -7   4  267.57   23.60
  -1  -7   4  196.78   33.40
   0   7  -4  622.84   47.40
   0   7  -4  589.14   52.69
   0   7  -4  627.34   39.70
   0  -7   4  617.24   46.90
   0  -7   4  572.74   52.99
   0  -7   4  587.64   36.30
   0  -7   4  565.14   74.89
  -1   7  -4  463.45   32.20
  -1   7  -4  401.56   43.20
  -1   7  -4  453.65   38.90
   1  -7   4  450.95   42.80
   1  -7   4  425.46   43.20
   1  -7   4  401.16   63.39
   1  -7   4  477.85   29.80
  -2   7  -4   26.30   12.00
  -2   7  -4   15.10   13.90
   2  -7   4    9.30   12.80
   2  -7   4   29.80    7.90
   2  -7   4   -0.30   17.10
   2  -7   4    3.70   10.20
  -3   7  -4  389.86   38.50
  -3   7  -4  478.35   44.40
   3  -7   4  423.56   43.80
   3  -7   4  428.56   64.79
   3  -7   4  507.85   40.00
  -4   7  -4  550.34   48.20
   4  -7   4  526.25   42.30
   4  -7   4  530.25   74.59
   4  -7   4  484.15   47.00
  -5   7  -4   38.60   16.60
   5  -7   4   10.30   15.00
   5  -7   4   66.59   28.60
   6   6  -4  -13.80   15.70
   6   6  -4   35.20   19.50
   6   6  -4   32.90   12.30
  -6  -6   4  -17.00   11.60
  -6  -6   4  -19.10   19.70
   5   6  -4  630.64   65.69
   5   6  -4  612.64   61.09
   5   6  -4  660.43   45.10
   5   6  -4  567.84   51.99
  -5  -6   4  576.14   53.89
  -5  -6   4  618.34   57.49
   4   6  -4  345.57   37.70
   4   6  -4  412.96   35.60
   4   6  -4  420.46   32.40
   4   6  -4  314.57   44.50
  -4  -6   4  251.57   43.80
  -4  -6   4  351.56   41.10
  -4  -6   4  287.97   42.10
  -4  -6   4  306.77   38.50
   3   6  -4  252.67   31.30
   3   6  -4  214.78   23.70
   3   6  -4  261.27   27.00
   3   6  -4  267.37   37.20
  -3  -6   4  275.67   32.30
  -3  -6   4  208.08   34.10
  -3  -6   4  284.07   37.10
   2   6  -4  595.44   38.40
   2   6  -4  575.64   51.49
   2   6  -4  505.55   43.10
  -2  -6   4  605.44   45.20
  -2  -6   4  535.05   49.50
  -2  -6   4  533.15   36.00
   1   6  -4  185.48   42.90
   1   6  -4  260.97   23.70
   1   6  -4  256.17   29.20
   1   6  -4  271.17   33.90
  -1  -6   4  337.27   40.30
  -1  -6   4  262.77   29.40
  -1  -6   4  302.97   23.30
   0   6  -4    4.70    8.50
   0   6  -4  -11.80    9.40
   0   6  -4    3.00    5.70
   0   6  -4   13.10   20.00
   0  -6   4    1.60   16.70
   0  -6   4    5.70    9.60
   0  -6   4   -9.70    8.80
  -1   6  -4  393.26   27.00
  -1   6  -4  383.86   37.50
  -1   6  -4  444.96   34.40
  -1   6  -4  361.56   49.70
   1  -6   4  338.07   54.99
   1  -6   4  397.16   37.10
   1  -6   4  340.97   24.10
   1  -6   4  403.36   33.20
  -2   6  -4  865.61   57.19
  -2   6  -4  797.52   51.49
   2  -6   4  794.12   56.59
   2  -6   4  667.13   77.59
   2  -6   4  852.11   50.79
  -3   6  -4    7.90    9.10
  -3   6  -4  -17.40    9.60
   3  -6   4   21.50    9.90
   3  -6   4   -2.00    8.90
   3  -6   4   -0.90   18.60
  -4   6  -4 1152.48   68.19
   4  -6   4  931.61   95.39
   4  -6   4 1074.99   68.39
   4  -6   4 1075.89   62.39
  -5   6  -4  384.86   37.90
   5  -6   4  400.16   39.20
   5  -6   4  413.76   37.00
   5  -6   4  332.27   58.59
  -6   6  -4   72.59   29.80
  -6   6  -4   43.30   21.60
   6  -6   4   64.09   17.60
   6  -6   4   29.90   30.00
   6  -6   4   65.79   18.60
   6   5  -4  199.08   45.10
   6   5  -4  272.07   26.60
   6   5  -4  203.18   31.60
   6   5  -4  181.28   35.60
  -6  -5   4  184.58   28.90
  -6  -5   4  187.88   32.30
   5   5  -4   69.49   21.90
   5   5  -4   62.39   13.80
   5   5  -4   46.60   18.30
   5   5  -4   46.40   16.40
  -5  -5   4   28.80   18.60
  -5  -5   4   57.29   16.80
   4   5  -4  496.05   49.10
   4   5  -4  458.65   70.59
   4   5  -4  480.75   40.20
   4   5  -4  546.35   36.40
   4   5  -4  534.75   42.10
  -4  -5   4  511.75   42.00
  -4  -5   4  511.85   34.10
  -4  -5   4  422.56   43.70
  -4  -5   4  462.25   44.30
   3   5  -4  196.18   20.00
   3   5  -4  119.99   24.90
   3   5  -4  179.78   24.40
   3   5  -4  182.48   29.40
   3   5  -4  194.48   52.99
  -3  -5   4  183.38   19.10
  -3  -5   4  147.09   27.30
  -3  -5   4  188.58   25.00
  -3  -5   4  161.38   27.60
   2   5  -4   75.99   12.40
   2   5  -4   55.59   14.00
   2   5  -4   80.49   14.80
   2   5  -4   52.39   25.40
  -2  -5   4   70.09   11.90
  -2  -5   4   70.19   18.20
  -2  -5   4   54.59   13.30
   1   5  -4  425.26   28.50
   1   5  -4  421.26   33.90
   1   5  -4  440.96   39.00
   1   5  -4  394.36   52.69
  -1  -5   4  490.35   39.40
  -1  -5   4  413.76   28.10
  -1  -5   4  465.75   35.60
  -1  -5   4  410.86   27.50
   0   5  -4  946.71   54.29
   0   5  -4  779.32   73.29
   0   5  -4  898.61   46.40
   0   5  -4  939.51   58.49
   0  -5   4  915.71   45.80
   0  -5   4  977.00   60.19
   0  -5   4  884.91   82.09
   0  -5   4  925.61   53.39
  -1   5  -4   31.30   15.30
  -1   5  -4   15.50   10.80
  -1   5  -4   20.00    7.60
  -1   5  -4   21.80   10.30
   1  -5   4   21.30   16.20
   1  -5   4   13.60    5.60
   1  -5   4   20.40    9.70
   1  -5   4   27.00    8.50
  -2   5  -4 1169.98   65.09
  -2   5  -4  940.21   78.69
  -2   5  -4 1226.48   63.69
   2  -5   4 1179.28   67.29
   2  -5   4 1072.29   93.39
   2  -5   4 1188.58   61.49
  -3   5  -4  401.96   56.49
  -3   5  -4  428.06   35.80
  -3   5  -4  449.36   36.00
   3  -5   4  412.76   35.80
   3  -5   4  378.66   54.29
   3  -5   4  467.95   34.10
  -4   5  -4    0.40    8.50
   4  -5   4    3.20    8.30
   4  -5   4    1.30   15.30
  -5   5  -4  428.86   37.00
   5  -5   4  370.06   34.40
   5  -5   4  372.36   75.09
  -6   5  -4  369.96   46.30
   6  -5   4  393.86   38.80
   6  -5   4  429.26   39.10
   6  -5   4  372.46   61.49
   7   4  -4  135.49   29.60
   7   4  -4  130.09   21.90
   7   4  -4  151.08   28.90
  -7  -4   4  163.78   25.30
  -7  -4   4  126.89   20.30
   6   4  -4  781.02   45.30
   6   4  -4  782.72   72.29
   6   4  -4  686.33   51.49
   6   4  -4  610.54   58.79
  -6  -4   4  603.14   48.70
   5   4  -4  102.59   23.60
   5   4  -4  133.49   25.30
   5   4  -4  122.09   24.60
   5   4  -4  114.69   15.80
  -5  -4   4   94.59   20.50
  -5  -4   4  101.09   16.50
   4   4  -4   48.00   13.10
   4   4  -4   50.19   15.90
   4   4  -4   41.70   10.30
   4   4  -4   36.60   11.40
  -4  -4   4   38.90    9.60
  -4  -4   4   21.20   12.60
  -4  -4   4   41.40   12.20
  -4  -4   4   27.80   11.30
   3   4  -4  391.46   27.10
   3   4  -4  425.46   37.80
   3   4  -4  404.96   32.50
   3   4  -4  411.16   32.80
   3   4  -4  360.16   54.49
  -3  -4   4  386.86   35.80
  -3  -4   4  349.77   35.50
  -3  -4   4  411.96   31.50
  -3  -4   4  381.86   26.70
   2   4  -4 1243.98   59.49
   2   4  -4 1312.47   72.09
   2   4  -4 1245.08   63.99
   2   4  -4 1259.67   65.59
  -2  -4   4 1165.88   57.69
  -2  -4   4 1237.18   62.99
  -2  -4   4 1230.88   69.69
   1   4  -4   50.29    8.50
   1   4  -4   47.80   12.20
   1   4  -4   48.90   22.70
   1   4  -4   38.40   10.00
  -1  -4   4   43.90    8.20
  -1  -4   4   55.59   21.50
  -1  -4   4   38.00   11.10
  -1  -4   4   21.60    8.80
  -1  -4   4   30.10    7.90
   0   4  -4 2200.78  131.69
   0   4  -4 2460.65  111.99
   0   4  -4 2499.75  108.99
   0   4  -4 2308.67   99.89
   0  -4   4 2393.56   99.49
   0  -4   4 2402.56  106.89
   0  -4   4 2654.53  105.99
   0  -4   4 2393.96  142.29
   0  -4   4 2644.34  114.79
  -1   4  -4 1298.57   66.89
  -1   4  -4 1203.78   55.39
  -1   4  -4 1155.88   82.29
  -1   4  -4 1341.87   65.59
   1  -4   4 1293.37   68.59
   1  -4   4 1284.47   93.59
   1  -4   4 1272.27   55.19
   1  -4   4 1318.27   63.79
  -2   4  -4  190.88   20.90
  -2   4  -4  199.68   30.60
  -2   4  -4  188.58   24.40
   2  -4   4  176.08   20.60
   2  -4   4  218.88   36.60
   2  -4   4  181.08   19.10
  -3   4  -4  247.28   24.40
  -3   4  -4  245.78   34.80
  -3   4  -4  241.58   26.10
   3  -4   4  232.38   25.10
   3  -4   4  262.37   41.20
   3  -4   4  256.97   23.00
  -4   4  -4  285.97   27.30
  -4   4  -4  266.17   30.80
   4  -4   4  281.57   44.10
   4  -4   4  273.37   28.70
   4  -4   4  294.17   27.00
  -5   4  -4  214.78   25.20
   5  -4   4  247.48   27.50
   5  -4   4  163.88   39.20
   5  -4   4  250.77   27.80
   6  -4   4   39.20   14.50
   6  -4   4    7.70   10.10
   6  -4   4   18.00   19.90
   7   3  -4  169.58   20.50
  -7  -3   4  155.08   23.50
  -7  -3   4  148.69   20.90
   6   3  -4   12.30    7.20
  -6  -3   4   -2.30    8.50
  -6  -3   4    9.90    8.80
   5   3  -4  201.38   27.80
   5   3  -4  207.28   20.00
   5   3  -4  206.38   24.70
  -5  -3   4  216.88   19.80
  -5  -3   4  258.47   25.70
   4   3  -4 1229.68   71.09
   4   3  -4 1269.07   74.59
   4   3  -4 1273.07   61.99
   4   3  -4 1351.66   67.89
  -4  -3   4 1318.87   61.89
  -4  -3   4 1383.06   71.29
  -4  -3   4 1296.27   71.39
   3   3  -4    8.50    6.90
   3   3  -4    8.90    4.70
   3   3  -4    8.60    6.20
  -3  -3   4    5.10    6.20
  -3  -3   4   12.50    8.70
  -3  -3   4   10.90    6.80
   2   3  -4 2444.86  107.39
   2   3  -4 2418.46   99.99
   2   3  -4 2520.95  137.99
   2   3  -4 2416.96  104.99
  -2  -3   4 2327.27   99.19
  -2  -3   4 2349.76  102.79
  -2  -3   4 2396.56  107.89
  -2  -3   4 2369.16  106.09
   1   3  -4 1679.53   81.09
   1   3  -4 1922.01  106.69
   1   3  -4 1661.63   78.89
   1   3  -4 1654.33   73.59
  -1  -3   4 1848.02   83.69
  -1  -3   4 1784.92   80.49
  -1  -3   4 1686.23   77.79
  -1  -3   4 1922.61  112.99
  -1  -3   4 1629.84   73.29
   0   3  -4  448.96   42.60
   0   3  -4  438.96   29.00
   0   3  -4  413.96   29.10
   0   3  -4  423.36   23.30
   0  -3   4  425.46   27.40
   0  -3   4  455.15   47.60
   0  -3   4  411.26   29.90
   0  -3   4  399.76   23.00
  -1   3  -4 1862.21   87.49
  -1   3  -4 1941.11   88.19
  -1   3  -4 2030.20  105.19
   1  -3   4 2053.79  116.59
   1  -3   4 1956.40   89.59
   1  -3   4 1827.92   78.19
   1  -3   4 1917.81   85.59
  -2   3  -4 1223.58   61.79
  -2   3  -4 1114.79   73.29
  -2   3  -4 1154.28   58.69
   2  -3   4 1117.69   57.09
   2  -3   4 1208.78   82.19
   2  -3   4 1148.19   61.09
   2  -3   4 1085.89   55.49
  -3   3  -4   -2.40    7.20
  -3   3  -4   17.70   10.70
  -3   3  -4   -2.30    4.70
   3  -3   4    1.10    9.80
   3  -3   4   -1.50    5.40
   3  -3   4    9.10    6.10
  -4   3  -4  641.14   57.59
  -4   3  -4  634.14   41.30
  -4   3  -4  663.63   48.20
   4  -3   4  657.73   45.30
   4  -3   4  695.83   64.89
   4  -3   4  667.93   43.70
  -5   3  -4 1239.08   66.89
   5  -3   4 1239.08   96.19
   5  -3   4 1285.87   71.79
   5  -3   4 1274.67   72.09
  -6   3  -4   24.10   14.80
   6  -3   4   18.20   13.80
   6  -3   4    7.30    8.90
   6  -3   4   13.30   18.30
  -8  -2   4  125.29   20.90
   7   2  -4  282.47   23.70
   7   2  -4  329.07   29.60
  -7  -2   4  284.97   29.60
  -7  -2   4  299.97   24.30
   6   2  -4 1546.85   73.39
  -6  -2   4 1585.54   73.09
  -6  -2   4 1620.64   81.99
   5   2  -4   17.40   10.10
   5   2  -4   17.10    6.80
   5   2  -4    1.80    8.20
  -5  -2   4   11.70    6.10
  -5  -2   4   15.50    5.70
   4   2  -4 1631.14   77.59
   4   2  -4 1460.75   79.69
   4   2  -4 1516.85   69.09
  -4  -2   4 1556.74   74.89
  -4  -2   4 1547.95   69.59
   3   2  -4 1539.95   76.69
   3   2  -4 1519.85   71.39
  -3  -2   4 1569.84   72.39
  -3  -2   4 1511.95   66.79
  -3  -2   4 1430.96   83.19
   2   2  -4   91.69   23.90
   2   2  -4   89.09   11.80
   2   2  -4   86.69   10.70
   2   2  -4   75.89   12.60
   2   2  -4   81.89    9.10
  -2  -2   4   84.39   12.90
  -2  -2   4   89.69   12.40
  -2  -2   4   72.59    9.30
  -2  -2   4   62.49    8.40
   1   2  -4 1310.47   58.09
   1   2  -4 1323.17   61.99
   1   2  -4 1546.65   81.99
   1   2  -4 1327.27   61.99
  -1  -2   4 1312.07   59.99
  -1  -2   4 1428.16   64.19
  -1  -2   4 1264.77   58.09
  -1  -2   4 1397.66   66.49
   0   2  -4 1338.97   71.59
   0   2  -4 1229.08   52.99
   0   2  -4 1246.88   57.89
   0   2  -4 1223.28   58.89
   0  -2   4 1187.68   58.89
   0  -2   4 1214.78   56.59
  -1   2  -4  575.34   42.50
  -1   2  -4  518.05   34.10
  -1   2  -4  547.25   32.60
   1  -2   4  630.24   48.40
   1  -2   4  537.35   31.80
   1  -2   4  551.84   34.30
  -2   2  -4  978.70   54.99
  -2   2  -4 1002.40   50.79
  -2   2  -4  958.20   62.59
   2  -2   4  990.70   79.09
   2  -2   4  861.11   50.79
   2  -2   4  981.50   53.49
   2  -2   4 1004.80   50.69
  -3   2  -4 1198.38   69.29
  -3   2  -4 1261.87   62.89
  -3   2  -4 1240.58   77.99
   3  -2   4 1206.68   63.29
   3  -2   4 1229.78   81.69
   3  -2   4 1310.17   67.39
  -4   2  -4   -1.50    5.50
  -4   2  -4    9.20    5.20
  -4   2  -4    2.90   11.10
   4  -2   4   16.10    7.00
   4  -2   4   19.40   14.20
   4  -2   4   -0.20    5.70
  -5   2  -4  611.14   40.00
  -5   2  -4  559.34   39.10
   5  -2   4  540.65   43.60
   5  -2   4  625.84   45.20
   5  -2   4  585.84   59.79
  -6   2  -4  216.18   23.90
  -6   2  -4  212.68   25.10
   6  -2   4  203.18   33.30
   6  -2   4  216.18   27.60
   6  -2   4  230.88   40.70
  -7   2  -4    2.90   14.00
  -7   2  -4  -26.30   20.70
  -7   2  -4   16.20    8.20
   7  -2   4   27.20   12.90
   7  -2   4    9.70   18.60
   7  -2   4   20.70   21.40
   8   1  -4  101.79   27.70
  -8  -1   4  104.19   19.30
   6   1  -4  755.42   45.90
   6   1  -4  818.52   53.29
  -6  -1   4  819.72   48.80
   5   1  -4  701.73   41.10
   5   1  -4  716.43   37.20
   5   1  -4  698.13   50.29
   5   1  -4  724.43   47.70
  -5  -1   4  703.83   38.10
  -5  -1   4  672.93   42.10
   4   1  -4    1.70    6.80
   4   1  -4   25.20    9.20
   4   1  -4    8.00    6.40
  -4  -1   4    6.90    3.80
  -4  -1   4    9.40    5.00
   3   1  -4 1387.86   79.19
   3   1  -4 1815.72   82.69
   3   1  -4 1517.95   77.79
   3   1  -4 1574.54   67.69
  -3  -1   4 1560.94   70.99
  -3  -1   4 1560.04   68.49
  -3  -1   4 1661.13   86.79
   2   1  -4 1103.49   56.89
   2   1  -4 1086.79   48.70
  -2  -1   4 1124.39   57.29
  -2  -1   4 1033.00   48.70
   1   1  -4  578.04   29.40
   1   1  -4  562.34   28.40
   1   1  -4  531.65   29.80
  -1  -1   4  572.04   30.50
  -1  -1   4  549.54   28.30
   0   1  -4  721.33   39.30
   0   1  -4  734.13   42.70
   0   1  -4  710.03   36.90
   0  -1   4  807.92   49.10
   0  -1   4  728.03   37.10
   0  -1   4  701.73   38.50
  -1   1  -4 1285.97   61.69
  -1   1  -4 1332.57   69.59
  -1   1  -4 1342.37   67.69
   1  -1   4 1336.67   62.79
   1  -1   4 1319.97   65.09
   1  -1   4 1477.25   75.59
  -2   1  -4  597.04   41.30
  -2   1  -4  645.14   36.20
  -2   1  -4  605.74   31.40
   2  -1   4  545.85   30.10
   2  -1   4  578.84   36.50
   2  -1   4  581.84   45.10
   2  -1   4  610.24   39.00
  -3   1  -4  373.96   27.80
  -3   1  -4  346.27   23.90
  -3   1  -4  358.86   34.50
   3  -1   4  336.17   24.30
   3  -1   4  375.36   30.80
   3  -1   4  385.96   30.00
   3  -1   4  351.56   37.00
  -4   1  -4 1113.79   71.49
  -4   1  -4 1166.98   57.69
  -4   1  -4 1101.19   59.49
   4  -1   4 1082.19   64.39
   4  -1   4 1178.28   80.59
   4  -1   4 1113.69   65.39
  -5   1  -4  129.49   16.90
  -5   1  -4  125.19   32.90
  -5   1  -4  117.39   18.50
   5  -1   4  123.99   23.80
   5  -1   4  157.48   31.10
   5  -1   4  131.19   22.20
  -6   1  -4   89.99   17.10
  -6   1  -4  109.69   16.20
   6  -1   4   69.09   23.80
   6  -1   4  114.49   22.60
   6  -1   4   76.79   26.90
   8   0  -4  565.64   62.49
  -8   0   4  779.12   50.09
   7   0  -4  315.47   40.20
   7   0  -4  341.07   42.60
  -7   0   4  278.47   27.50
   6   0  -4   37.20   15.50
   6   0  -4   45.90   11.40
   6   0  -4   57.59   17.30
  -6   0   4   47.20   12.10
   5   0  -4  161.38   24.10
   5   0  -4  175.28   19.00
   5   0  -4  175.98   24.60
  -5   0   4  180.78   18.00
   4   0  -4  909.61   52.59
   4   0  -4  918.81   44.00
   4   0  -4  941.21   49.10
   4   0  -4  996.20   58.49
  -4   0   4  906.81   47.10
  -4   0   4  930.61   56.49
   3   0  -4   -4.00    4.20
   3   0  -4   -1.70    4.40
   3   0  -4    7.10    3.80
   3   0  -4    3.00    5.80
  -3   0   4    3.00    5.20
  -3   0   4    6.10    3.30
   2   0  -4  801.72   39.70
  -2   0   4  827.52   46.10
  -2   0   4  732.93   34.70
   1   0  -4  639.74   32.40
   1   0  -4  650.73   32.00
   1   0  -4  656.83   35.60
  -1   0   4  635.14   32.20
  -1   0   4  646.04   33.00
   0   0  -4   76.29    9.90
   0   0  -4   75.69   12.40
   0   0   4   88.49   11.30
   0   0   4   67.99   11.00
  -1   0  -4 1094.89   60.19
  -1   0  -4 1060.39   53.09
   1   0   4 1072.19   54.99
   1   0   4 1020.70   57.59
   1   0   4 1067.79   57.09
  -2   0  -4 1301.37   63.59
  -2   0  -4 1255.97   72.19
  -2   0  -4 1249.57   55.49
   2   0   4 1258.97   66.19
   2   0   4 1317.97   69.49
   2   0   4 1308.27   73.29
   2   0   4 1228.38   56.89
  -3   0  -4    6.10    4.40
  -3   0  -4   14.90    9.80
  -3   0  -4   -1.30    5.50
   3   0   4    9.70    7.40
   3   0   4   10.00    6.40
   3   0   4    1.10    6.10
   3   0   4   12.40    7.50
  -4   0  -4  297.97   23.60
  -4   0  -4  280.77   26.10
   4   0   4  288.17   31.60
   4   0   4  339.17   38.30
   4   0   4  303.07   31.50
  -5   0  -4 1203.98   65.59
  -5   0  -4 1252.97   63.39
   5   0   4 1199.38   86.89
   5   0   4 1099.19   73.19
   5   0   4 1196.88   72.99
  -6   0  -4  137.09   19.60
  -6   0  -4   91.99   17.80
   6   0   4  130.89   23.70
   6   0   4  149.59   27.50
   6   0   4  152.18   32.60
   8  -1  -4    4.30   17.70
  -8   1   4   -3.50    8.20
   7  -1  -4  215.78   34.60
   7  -1  -4  183.98   34.70
  -7   1   4  187.98   22.60
   6  -1  -4  994.80   67.19
   6  -1  -4  963.60   64.89
   6  -1  -4 1023.60   72.19
  -6   1   4 1012.50   66.39
  -6   1   4 1009.70   56.39
   5  -1  -4  198.38   27.30
   5  -1  -4  184.28   24.70
   5  -1  -4  200.68   26.80
   5  -1  -4  186.08   20.50
  -5   1   4  211.38   19.60
   4  -1  -4  466.45   36.40
   4  -1  -4  490.45   31.70
   4  -1  -4  492.75   27.40
   4  -1  -4  499.45   50.69
   4  -1  -4  446.36   29.60
   4  -1  -4  467.75   36.30
  -4   1   4  461.05   29.00
  -4   1   4  471.75   36.10
   3  -1  -4 2312.87  103.09
   3  -1  -4 1930.71   85.29
   3  -1  -4 2044.20   90.39
   3  -1  -4 1959.30   94.29
  -3   1   4 2178.08   92.99
  -3   1   4 2025.10   95.49
  -3   1   4 1993.90   84.99
   2  -1  -4   10.40    5.60
   2  -1  -4   13.10    4.40
  -2   1   4    7.80    5.10
  -2   1   4    8.20    4.20
   1  -1  -4  998.90   51.99
   1  -1  -4  925.41   45.70
   1  -1  -4  912.51   45.60
  -1   1   4  932.51   45.10
  -1   1   4  980.80   47.70
   0  -1  -4  948.61   48.40
   0  -1  -4  956.10   55.39
   0   1   4  906.41   49.90
   0   1   4  937.81   43.90
   0   1   4  943.11   51.39
  -1  -1  -4  331.17   25.70
  -1  -1  -4  343.67   31.90
   1   1   4  303.07   26.70
   1   1   4  327.97   28.70
  -2  -1  -4  204.28   18.80
  -2  -1  -4  201.48   15.10
  -2  -1  -4  233.18   21.70
  -2  -1  -4  268.47   30.40
   2   1   4  181.58   23.80
   2   1   4  198.18   24.50
   2   1   4  202.48   18.60
   2   1   4  201.38   23.10
  -3  -1  -4 1423.26   74.29
  -3  -1  -4 1426.66   66.09
  -3  -1  -4 1484.75   88.19
   3   1   4 1409.66   80.39
   3   1   4 1544.45   82.79
   3   1   4 1479.35   85.99
   3   1   4 1434.16   71.79
  -4  -1  -4  171.88   17.30
  -4  -1  -4  149.69   21.20
  -4  -1  -4  187.38   34.90
   4   1   4  156.38   27.90
   4   1   4  144.49   24.30
   4   1   4  151.88   28.00
  -5  -1  -4  234.48   27.60
  -5  -1  -4  272.47   24.10
  -5  -1  -4  259.67   48.30
   5   1   4  230.18   39.50
   5   1   4  256.67   33.60
   5   1   4  258.07   36.40
  -6  -1  -4  276.87   31.80
  -6  -1  -4  242.78   36.10
   6   1   4  286.07   46.80
   6   1   4  340.37   37.80
   6   1   4  223.98   37.60
   8  -2  -4  337.37   50.19
  -8   2   4  401.66   46.00
  -8   2   4  355.06   33.50
   7  -2  -4   56.69   21.00
   7  -2  -4   98.79   17.70
   7  -2  -4   79.19   21.30
  -7   2   4   65.49   18.00
  -7   2   4   49.00   12.50
   6  -2  -4  804.22   57.59
   6  -2  -4  804.52   50.69
   6  -2  -4  911.81   63.29
   6  -2  -4  850.01   64.79
  -6   2   4  830.92   61.19
  -6   2   4  837.42   49.90
   5  -2  -4 1347.17   80.49
   5  -2  -4 1327.87   75.09
   5  -2  -4 1337.87   79.49
   5  -2  -4 1340.87   68.69
  -5   2   4 1316.17   66.09
  -5   2   4 1384.66   80.39
  -5   2   4 1390.16   67.19
   4  -2  -4   23.90    7.80
   4  -2  -4   38.00   11.40
   4  -2  -4   15.20    8.50
  -4   2   4   32.90   11.70
  -4   2   4   26.20   10.80
  -4   2   4   16.10    5.30
   3  -2  -4 2637.34  113.19
   3  -2  -4 2753.32  119.59
   3  -2  -4 2840.12  123.69
   3  -2  -4 2921.71  131.69
  -3   2   4 2950.60  124.19
  -3   2   4 2789.22  118.59
   2  -2  -4 2724.13  122.39
   2  -2  -4 2424.56  111.79
  -2   2   4 2679.93  114.59
  -2   2   4 2783.32  116.69
   1  -2  -4  320.97   23.90
   1  -2  -4  313.87   29.80
  -1   2   4  315.17   22.30
  -1   2   4  308.07   25.50
  -1   2   4  294.07   24.50
   0  -2  -4 1174.08   71.29
   0  -2  -4 1257.87   64.29
   0   2   4 1305.47   67.29
   0   2   4 1265.27   68.19
   0   2   4 1323.37   59.99
  -1  -2  -4 2065.09   96.29
  -1  -2  -4 2031.50  107.39
   1   2   4 2057.89  101.59
   1   2   4 2018.10   99.69
  -2  -2  -4  466.65   46.70
  -2  -2  -4  487.05   36.90
  -2  -2  -4  503.45   29.30
  -2  -2  -4  518.45   34.40
   2   2   4  518.35   41.30
   2   2   4  499.65   42.60
  -3  -2  -4  606.44   42.80
  -3  -2  -4  557.24   37.90
  -3  -2  -4  591.94   34.90
  -3  -2  -4  566.74   54.99
   3   2   4  593.54   48.30
   3   2   4  610.84   49.30
  -4  -2  -4  710.83   41.50
  -4  -2  -4  759.12   50.19
  -4  -2  -4  642.74   43.10
  -4  -2  -4  706.03   65.09
   4   2   4  730.33   55.69
   4   2   4  676.03   57.09
  -5  -2  -4    4.30   26.50
  -5  -2  -4   21.60    9.20
  -5  -2  -4   44.20   13.20
   5   2   4  -14.00   14.60
   5   2   4   17.00   12.20
   5   2   4   10.50   13.20
  -6  -2  -4  124.69   24.90
   6   2   4   94.69   32.20
   6   2   4   99.49   30.20
   6   2   4  182.98   33.20
   8  -3  -4  208.58   44.30
  -8   3   4  288.07   38.70
  -8   3   4  218.88   27.20
   7  -3  -4  499.65   54.19
   7  -3  -4  338.57   69.09
  -7   3   4  466.65   62.39
   6  -3  -4   18.90   11.60
   6  -3  -4    7.80   13.50
   6  -3  -4   11.20   13.30
  -6   3   4   35.90   15.20
  -6   3   4   19.50    8.80
   5  -3  -4  397.16   33.90
   5  -3  -4  414.86   41.00
   5  -3  -4  447.66   36.30
   5  -3  -4  405.46   40.00
  -5   3   4  449.95   31.80
  -5   3   4  454.65   40.80
   4  -3  -4  441.76   34.90
   4  -3  -4  442.66   39.80
  -4   3   4  497.35   33.10
  -4   3   4  443.96   39.30
  -4   3   4  484.15   35.60
   3  -3  -4  679.73   47.60
   3  -3  -4  590.34   35.10
  -3   3   4  674.83   40.60
  -3   3   4  708.23   41.80
   2  -3  -4  108.89   12.00
   2  -3  -4   96.19   18.10
   2  -3  -4  116.09   15.20
   2  -3  -4  103.69   17.10
  -2   3   4  121.79   16.70
  -2   3   4  123.59   15.60
  -2   3   4  121.09   15.00
   1  -3  -4 2118.19  105.69
   1  -3  -4 2020.20   99.09
   1  -3  -4 2179.18   98.89
  -1   3   4 2075.99  101.09
  -1   3   4 2116.09   99.59
  -1   3   4 2178.58   95.09
   0  -3  -4  269.17   24.20
   0  -3  -4  296.77   26.90
   0  -3  -4  321.27   35.00
   0   3   4  291.47   28.40
   0   3   4  238.38   28.80
  -1  -3  -4  790.52   49.70
  -1  -3  -4  653.93   55.29
  -1  -3  -4  649.54   42.60
   1   3   4  722.43   50.49
   1   3   4  687.23   51.39
  -2  -3  -4  947.61   59.69
  -2  -3  -4  955.00   50.29
  -2  -3  -4  964.20   54.79
  -2  -3  -4  711.03   92.99
   2   3   4 1014.60   65.79
   2   3   4  992.30   65.69
  -3  -3  -4  -19.00   10.80
  -3  -3  -4    1.50   10.80
  -3  -3  -4   22.00   20.40
  -3  -3  -4   -1.00    5.90
   3   3   4   25.70   11.90
   3   3   4    7.20   13.60
  -4  -3  -4  144.79   18.00
  -4  -3  -4  168.38   27.00
  -4  -3  -4  136.89   22.50
  -4  -3  -4  114.39   34.10
   4   3   4  159.68   33.10
   4   3   4  177.68   30.50
  -5  -3  -4  489.75   66.59
  -5  -3  -4  516.35   37.90
  -5  -3  -4  527.95   41.50
   5   3   4  577.84   52.79
   5   3   4  451.55   67.39
   7  -4  -4   43.50   23.10
   7  -4  -4   41.10   22.50
  -7   4   4   45.70   19.30
   6  -4  -4  686.33   62.29
   6  -4  -4  756.62   52.99
  -6   4   4  696.33   45.10
  -6   4   4  664.43   57.29
   5  -4  -4  305.97   31.80
  -5   4   4  358.96   29.80
  -5   4   4  315.77   35.50
   4  -4  -4  168.58   23.60
  -4   4   4  138.49   22.80
  -4   4   4  124.89   18.20
   3  -4  -4  903.41   60.39
  -3   4   4 1000.10   54.59
  -3   4   4  931.21   51.39
   2  -4  -4  237.68   28.10
   2  -4  -4  217.88   23.20
  -2   4   4  191.08   22.90
  -2   4   4  196.68   21.10
   1  -4  -4  197.58   23.00
   1  -4  -4  191.98   20.90
   1  -4  -4  157.38   20.30
   1  -4  -4  148.79   25.80
  -1   4   4  163.58   23.90
  -1   4   4  169.08   19.90
  -1   4   4  199.58   23.40
   0  -4  -4 1031.30   71.09
   0  -4  -4 1003.60   62.59
   0  -4  -4  962.10   55.99
   0   4   4 1025.10   66.09
   0   4   4 1024.40   64.29
  -1  -4  -4   17.20    8.80
  -1  -4  -4   18.00   10.80
  -1  -4  -4   35.50   17.50
  -1  -4  -4   40.50   12.80
   1   4   4   22.60   13.10
   1   4   4   27.00   12.60
  -2  -4  -4   42.80   23.80
  -2  -4  -4   49.10   15.10
  -2  -4  -4   54.39   13.30
  -2  -4  -4   71.99   15.30
   2   4   4   44.90   17.30
   2   4   4   54.79   17.40
  -3  -4  -4  523.75   46.00
  -3  -4  -4  513.35   37.30
  -3  -4  -4  562.74   41.80
  -3  -4  -4  467.25   61.19
   3   4   4  535.65   53.49
   3   4   4  537.15   52.09
  -4  -4  -4  364.46   31.90
  -4  -4  -4  376.46   60.49
  -4  -4  -4  409.46   41.30
   4   4   4  379.66   45.60
   4   4   4  347.17   48.80
  -5  -4  -4   32.60   18.90
  -5  -4  -4   25.50   12.30
  -5  -4  -4   39.80   20.20
   5   4   4   39.10   20.70
   5   4   4   34.70   25.60
   7  -5  -4    0.90   21.30
   7  -5  -4   56.09   18.50
  -7   5   4   41.30   16.60
  -7   5   4   18.90   17.40
   6  -5  -4  575.34   46.80
   6  -5  -4  449.76   57.09
  -6   5   4  602.04   53.99
  -6   5   4  546.35   41.50
   5  -5  -4  607.34   40.40
   5  -5  -4  639.84   61.09
  -5   5   4  716.43   46.10
  -5   5   4  646.04   54.09
   4  -5  -4   26.60   13.50
   4  -5  -4    1.80    9.60
  -4   5   4    2.50    7.00
  -4   5   4    7.20    9.10
   3  -5  -4  816.12   50.49
   3  -5  -4  719.83   52.19
   3  -5  -4  707.23   45.70
   3  -5  -4  628.34   49.80
  -3   5   4  805.52   49.60
   2  -5  -4  400.66   35.80
   2  -5  -4  433.06   36.70
   2  -5  -4  378.36   32.00
  -2   5   4  411.66   37.80
  -2   5   4  395.26   32.50
   1  -5  -4  102.09   19.30
   1  -5  -4  128.69   21.50
   1  -5  -4  110.29   19.30
   1  -5  -4  111.49   24.60
  -1   5   4  119.99   23.10
  -1   5   4   89.69   21.60
   0  -5  -4   48.80   21.70
   0  -5  -4   89.59   21.00
   0   5   4  115.79   23.90
   0   5   4   79.39   19.00
  -1  -5  -4  875.81   57.49
  -1  -5  -4  746.23   92.49
  -1  -5  -4  957.80   64.79
   1   5   4 1036.70   68.19
   1   5   4  904.41   66.99
   1   5   4  789.72   75.69
  -2  -5  -4  275.17   29.50
  -2  -5  -4  396.46   52.59
  -2  -5  -4  338.07   36.80
   2   5   4  210.88   39.90
   2   5   4  257.07   39.40
  -3  -5  -4   40.40   14.50
  -3  -5  -4   37.60   17.80
   3   5   4    9.10   22.70
   3   5   4   46.90   20.30
  -4  -5  -4  278.67   38.80
  -4  -5  -4  271.37   29.30
   4   5   4  249.18   64.99
   4   5   4  246.28   44.20
   6  -6  -4  127.09   35.30
  -6   6   4   77.19   23.60
  -6   6   4  147.59   24.10
  -5   6   4  289.37   47.70
  -5   6   4  305.87   32.50
   4  -6  -4  478.85   36.10
  -4   6   4  543.35   46.20
  -4   6   4  466.55   39.60
   3  -6  -4  267.27   30.90
   3  -6  -4  258.57   33.90
   3  -6  -4  218.88   32.10
   3  -6  -4  217.98   25.90
  -3   6   4  207.68   34.20
  -3   6   4  226.88   27.20
   2  -6  -4  162.48   23.00
   2  -6  -4   82.69   19.90
   2  -6  -4  123.39   25.20
   2  -6  -4  110.29   27.00
  -2   6   4  132.99   21.20
  -2   6   4  155.38   29.20
   1  -6  -4  730.83   54.99
   1  -6  -4  605.04   45.70
   1  -6  -4  680.93   45.70
  -1   6   4  577.14   51.19
  -1   6   4  641.74   55.19
   0  -6  -4  470.95   45.20
   0  -6  -4  472.05   53.69
   0   6   4  424.86   59.99
   0   6   4  462.95   47.00
   0   6   4  471.15   48.50
  -1  -6  -4   42.00   26.40
  -1  -6  -4   84.79   20.90
   1   6   4   76.09   23.20
   1   6   4   46.00   24.90
   1   6   4   82.09   23.70
  -2  -6  -4  694.83   75.79
  -2  -6  -4  692.83   59.39
  -2  -6  -4  622.84   48.90
   2   6   4  480.85   71.99
   2   6   4  740.23   67.49
   2   6   4  683.23   64.29
  -3  -6  -4   76.69   25.50
  -3  -6  -4   78.39   18.70
  -3  -6  -4   63.39   40.90
   3   6   4   49.60   25.90
   3   6   4  124.59   41.30
   3   6   4   45.40   38.90
   5  -7  -4  165.78   24.40
   5  -7  -4  116.09   35.90
  -5   7   4  134.39   24.00
  -5   7   4  162.08   30.60
   4  -7  -4    8.10   12.50
   4  -7  -4  -24.00   12.40
   4  -7  -4  -13.30   13.80
  -4   7   4   17.40   11.50
  -4   7   4    6.10   17.50
   3  -7  -4  617.14   56.79
   3  -7  -4  743.43   50.69
   3  -7  -4  799.12   57.89
  -3   7   4  679.63   51.49
   2  -7  -4  447.76   65.09
   2  -7  -4  459.45   39.00
   2  -7  -4  328.97   45.30
  -2   7   4  303.27   52.69
  -2   7   4  447.56   49.10
  -2   7   4  403.96   38.40
   1  -7  -4  119.59   24.70
   1  -7  -4  130.79   28.60
   1  -7  -4  117.09   31.10
  -1   7   4  111.89   25.50
  -1   7   4   93.39   27.20
   0  -7  -4  742.53   61.79
   0   7   4  761.52   64.79
  -1  -7  -4   64.99   22.40
  -1  -7  -4   22.00   18.30
  -1  -7  -4   37.00   30.20
   1   7   4   23.60   21.00
   1   7   4   64.89   25.40
   1   7   4   44.30   33.60
  -2  -7  -4   79.49   25.50
  -2  -7  -4    2.50   45.20
   2   7   4   63.29   38.30
   2   7   4   71.69   24.80
   2   7   4   78.59   38.40
   4  -8  -4  348.67   41.40
   4  -8  -4  228.78   39.50
  -4   8   4  282.37   35.70
   3  -8  -4   67.09   24.50
   3  -8  -4   83.29   23.20
  -3   8   4   47.60   18.20
  -3   8   4   71.99   31.80
   2  -8  -4  687.73   61.59
   2  -8  -4  687.03   63.39
  -2   8   4  609.24   49.80
  -2   8   4  740.43   68.09
   1  -8  -4   57.49   21.00
   1  -8  -4   44.90   33.80
  -1   8   4   -5.60   34.40
  -1   8   4    1.10   21.70
   0  -8  -4   62.49   23.10
   0  -8  -4   63.59   31.80
   0   8   4   87.29   30.40
   2   9  -5  374.76   56.19
   2   9  -5  327.07   43.90
   2   9  -5  410.66   37.20
  -2  -9   5  241.88   44.60
   1   9  -5   -2.40   20.10
   1   9  -5   -4.90   10.50
  -1  -9   5   20.50   18.00
  -1  -9   5   11.30   19.20
   0   9  -5   76.49   23.00
   0   9  -5   32.10   13.60
   0   9  -5   24.20   23.80
   0  -9   5   18.30   20.70
   0  -9   5   72.29   24.00
  -1   9  -5  142.69   23.50
   1  -9   5  111.29   24.30
   1  -9   5  147.09   22.20
   1  -9   5   80.69   40.60
   1  -9   5   96.79   43.70
  -2   9  -5   64.19   15.70
  -2   9  -5   95.69   28.90
   2  -9   5   62.29   23.20
   2  -9   5   80.29   21.50
   2  -9   5   52.79   36.10
   4   8  -5  102.39   22.70
   4   8  -5  143.49   25.30
   4   8  -5  136.09   30.70
   4   8  -5   93.29   31.60
  -4  -8   5  161.88   37.10
  -4  -8   5  141.39   34.10
   3   8  -5   23.80   18.70
   3   8  -5   40.70   20.90
  -3  -8   5   -1.60   21.00
   2   8  -5  127.99   30.10
   2   8  -5  141.49   27.10
  -2  -8   5  105.19   27.50
  -2  -8   5   86.89   26.00
   1   8  -5  346.27   47.60
   1   8  -5  340.67   39.70
   1   8  -5  447.46   38.10
  -1  -8   5  351.36   31.10
  -1  -8   5  277.47   43.80
  -1  -8   5  326.97   37.60
   0   8  -5  101.99   21.10
   0   8  -5   88.19   17.40
   0  -8   5   59.69   20.00
   0  -8   5   61.59   20.00
   0  -8   5   34.20   29.20
   0  -8   5   50.39   23.40
  -1   8  -5   89.09   22.40
  -1   8  -5  113.49   17.80
   1  -8   5   93.69   15.50
   1  -8   5   60.09   22.10
   1  -8   5   40.90   29.20
   1  -8   5   92.29   20.60
  -2   8  -5  632.64   50.59
  -2   8  -5  714.13   61.09
   2  -8   5  714.13   89.59
   2  -8   5  651.03   38.30
   2  -8   5  608.64   56.69
  -3   8  -5  252.27   40.10
   3  -8   5  276.37   67.79
   3  -8   5  228.28   35.60
   3  -8   5  246.08   42.40
  -4   8  -5  135.59   29.20
   4  -8   5  120.39   25.30
   4  -8   5  139.29   42.60
   4  -8   5  146.89   30.90
   5   7  -5    0.00   11.90
   5   7  -5   15.40   20.70
   5   7  -5   14.40   17.90
   5   7  -5   25.20   27.30
  -5  -7   5   17.80   23.10
  -5  -7   5   11.20   16.60
   4   7  -5  134.09   25.40
   4   7  -5  123.99   23.50
   4   7  -5  203.68   38.10
   4   7  -5  178.68   23.10
  -4  -7   5  132.79   30.20
  -4  -7   5   86.39   27.60
   3   7  -5  376.26   46.60
   3   7  -5  370.66   39.80
   3   7  -5  450.15   39.80
  -3  -7   5  334.37   39.60
  -3  -7   5  342.07   49.10
   2   7  -5  418.86   46.90
   2   7  -5  294.47   35.60
   2   7  -5  343.77   29.70
  -2  -7   5  369.66   29.90
  -2  -7   5  324.47   35.50
  -2  -7   5  389.06   43.80
   1   7  -5  321.37   27.20
   1   7  -5  332.97   33.90
   1   7  -5  283.17   38.60
  -1  -7   5  293.57   25.40
  -1  -7   5  255.47   31.60
  -1  -7   5  311.17   37.90
   0   7  -5 1379.16   84.49
   0   7  -5 1248.58   74.19
   0   7  -5 1386.36   67.09
   0  -7   5 1345.07   63.19
   0  -7   5 1074.79  109.69
   0  -7   5 1323.67   74.59
   0  -7   5 1133.89   79.39
  -1   7  -5  128.89   23.90
  -1   7  -5  131.79   26.00
  -1   7  -5  131.29   17.60
   1  -7   5  113.89   39.30
   1  -7   5  148.49   16.40
   1  -7   5  142.29   27.70
   1  -7   5  107.29   20.10
  -2   7  -5  288.67   33.80
   2  -7   5  315.27   36.30
   2  -7   5  217.18   53.99
   2  -7   5  350.16   33.30
  -3   7  -5  251.07   34.40
  -3   7  -5  363.76   39.10
   3  -7   5  305.37   32.90
   3  -7   5  325.37   62.69
   3  -7   5  310.37   36.30
   4  -7   5   77.39   20.00
   4  -7   5  119.69   22.90
   4  -7   5   41.00   27.70
  -5   7  -5   61.19   20.70
   5  -7   5   39.30   34.80
   5  -7   5   25.20   17.60
   5  -7   5   64.59   19.10
   6   6  -5   56.99   15.50
   6   6  -5   17.20   18.90
   6   6  -5   44.50   20.90
  -6  -6   5   60.39   21.60
  -6  -6   5  123.99   28.20
   5   6  -5  391.46   49.30
   5   6  -5  412.96   42.90
   5   6  -5  458.45   35.20
  -5  -6   5  389.76   43.00
   4   6  -5  454.45   34.70
   4   6  -5  471.95   41.50
   4   6  -5  407.66   46.90
   4   6  -5  433.86   38.80
   4   6  -5  321.67   68.29
  -4  -6   5  443.06   46.20
  -4  -6   5  396.76   42.40
  -4  -6   5  372.96   44.50
   3   6  -5  118.59   46.30
   3   6  -5  106.29   21.40
   3   6  -5   68.59   18.70
   3   6  -5  109.39   17.10
   3   6  -5   92.39   25.20
  -3  -6   5  137.69   23.80
  -3  -6   5   53.19   20.50
   2   6  -5 1204.08   71.39
   2   6  -5 1276.97   65.69
   2   6  -5 1153.68  105.69
  -2  -6   5 1262.67   63.29
  -2  -6   5 1275.47   71.79
  -2  -6   5 1333.27   81.49
   1   6  -5  289.77   52.49
   1   6  -5  371.66   37.70
   1   6  -5  301.27   30.80
   1   6  -5  343.87   26.10
  -1  -6   5  310.57   30.50
  -1  -6   5  299.57   24.10
  -1  -6   5  277.37   42.50
   0   6  -5  159.08   22.30
   0   6  -5  164.38   41.90
   0   6  -5  137.39   26.00
   0   6  -5  136.99   15.70
   0  -6   5  142.79   15.10
   0  -6   5  154.38   43.80
   0  -6   5  151.38   21.80
   0  -6   5  143.19   25.80
  -1   6  -5  731.23   39.70
  -1   6  -5  656.53   57.19
  -1   6  -5  565.74   65.59
  -1   6  -5  708.83   47.70
   1  -6   5  708.33   45.90
   1  -6   5  676.73   79.19
   1  -6   5  752.32   54.09
   1  -6   5  697.73   37.20
  -2   6  -5   79.29   16.50
  -2   6  -5   61.89   17.20
   2  -6   5   82.99   33.20
   2  -6   5  108.89   18.40
   2  -6   5  100.19   20.60
  -3   6  -5   39.90   14.80
  -3   6  -5   66.09   16.80
   3  -6   5   70.49   13.90
   3  -6   5   56.49   16.20
   3  -6   5   51.29   28.40
  -4   6  -5  525.15   43.40
  -4   6  -5  482.35   42.70
   4  -6   5  400.36   68.49
   4  -6   5  564.24   48.40
   4  -6   5  493.25   40.60
  -5   6  -5  182.58   30.60
   5  -6   5  171.48   27.00
   5  -6   5  157.58   46.30
   5  -6   5  177.58   29.00
   6   5  -5  285.57   50.69
   6   5  -5  274.27   27.50
  -6  -5   5  256.77   33.00
   5   5  -5  214.98   56.19
   5   5  -5  219.78   32.90
   5   5  -5  225.58   24.30
   5   5  -5  235.48   30.80
  -5  -5   5  235.48   30.90
  -5  -5   5  185.98   34.20
   4   5  -5 1266.17   71.59
   4   5  -5 1132.79  105.39
   4   5  -5 1188.58   79.59
   4   5  -5 1156.98   69.29
   4   5  -5 1241.38   63.79
  -4  -5   5 1312.07   63.09
  -4  -5   5 1080.79   73.99
  -4  -5   5 1135.69   75.59
   3   5  -5   25.00   11.10
   3   5  -5   26.10   20.20
   3   5  -5   20.30    7.70
   3   5  -5   17.00   11.20
  -3  -5   5    3.70    8.70
  -3  -5   5    6.10   12.60
  -3  -5   5   21.10   10.00
  -3  -5   5   30.20   11.20
   2   5  -5  298.97   27.40
   2   5  -5  272.77   22.50
   2   5  -5  327.27   33.30
   2   5  -5  230.48   52.39
  -2  -5   5  315.27   32.30
  -2  -5   5  235.88   21.10
  -2  -5   5  241.98   26.00
  -2  -5   5  264.07   25.90
   1   5  -5  573.84   44.60
   1   5  -5  494.45   59.89
   1   5  -5  514.95   38.10
   1   5  -5  545.95   33.30
  -1  -5   5  589.14   45.40
  -1  -5   5  527.65   32.00
  -1  -5   5  536.75   35.20
  -1  -5   5  527.45   64.49
  -1  -5   5  563.24   38.80
   0   5  -5  198.28   23.20
   0   5  -5  220.58   18.30
   0   5  -5  215.58   25.60
   0   5  -5  181.38   37.70
   0  -5   5  212.38   17.30
   0  -5   5  208.68   22.00
   0  -5   5  189.78   43.70
   0  -5   5  218.18   20.90
   0  -5   5  194.98   26.80
  -1   5  -5   73.99   14.90
  -1   5  -5   84.39   24.30
  -1   5  -5   84.19   11.10
  -1   5  -5   72.29   16.20
   1  -5   5   96.69   16.70
   1  -5   5  101.09   18.50
   1  -5   5  118.59   34.40
   1  -5   5  100.09   11.00
  -2   5  -5 1668.03   85.09
  -2   5  -5 1738.43   87.79
   2  -5   5 1748.33   83.19
   2  -5   5 1463.85  116.49
   2  -5   5 1692.73   88.79
  -3   5  -5  301.27   31.50
  -3   5  -5  357.46   32.30
  -3   5  -5  264.87   48.50
   3  -5   5  392.26   34.40
   3  -5   5  281.17   51.49
   3  -5   5  319.07   29.70
  -4   5  -5  297.37   30.80
   4  -5   5  235.28   46.30
   4  -5   5  306.77   32.00
   4  -5   5  301.17   30.30
  -5   5  -5  503.65   43.30
   5  -5   5  524.55   43.80
   5  -5   5  597.44   70.59
   5  -5   5  589.34   46.70
  -6   5  -5  101.59   20.80
   6  -5   5   69.89   29.80
   6  -5   5  113.59   23.80
   6  -5   5  104.59   23.20
   7   4  -5  103.89   18.70
  -7  -4   5   77.19   18.80
  -7  -4   5  128.49   32.10
   6   4  -5  469.45   40.50
   6   4  -5  598.64   54.69
   6   4  -5  451.05   49.50
   6   4  -5  492.05   35.70
  -6  -4   5  561.14   44.20
   5   4  -5   69.69   19.70
   5   4  -5  100.69   19.70
   5   4  -5  120.19   24.10
   5   4  -5  114.59   16.30
  -5  -4   5   97.69   16.30
  -5  -4   5   93.69   21.10
   4   4  -5  270.47   23.50
   4   4  -5  317.87   31.60
   4   4  -5  244.48   49.20
   4   4  -5  301.87   32.70
   4   4  -5  268.47   32.90
  -4  -4   5  293.37   23.50
  -4  -4   5  282.07   30.10
  -4  -4   5  316.67   35.80
   3   4  -5  595.14   46.20
   3   4  -5  616.74   36.20
   3   4  -5  566.54   46.70
   3   4  -5  603.64   40.70
   3   4  -5  558.04   62.59
  -3  -4   5  570.04   35.00
  -3  -4   5  607.74   44.50
  -3  -4   5  599.64   38.60
  -3  -4   5  623.34   42.30
  -3  -4   5  564.64   45.40
   2   4  -5  127.99   19.80
   2   4  -5  130.69   34.20
   2   4  -5  125.59   17.30
   2   4  -5  143.59   14.70
  -2  -4   5  157.08   21.40
  -2  -4   5  198.18   29.10
  -2  -4   5  161.08   15.40
  -2  -4   5  143.39   17.80
   1   4  -5  135.09   28.60
   1   4  -5  131.29   14.20
   1   4  -5  153.68   19.90
   1   4  -5  150.88   17.40
  -1  -4   5  155.58   17.30
  -1  -4   5  188.68   19.40
  -1  -4   5  107.59   32.30
  -1  -4   5  140.69   20.20
  -1  -4   5  156.08   14.90
   0   4  -5  875.91   50.49
   0   4  -5  797.92   40.70
   0   4  -5  679.03   62.69
   0   4  -5  805.02   47.10
   0  -4   5  827.82   46.10
   0  -4   5  791.52   40.00
   0  -4   5  801.02   74.09
   0  -4   5  846.82   51.09
  -1   4  -5 1382.36   69.49
  -1   4  -5 1318.37   69.09
  -1   4  -5 1281.07   85.09
  -1   4  -5 1369.46   58.59
   1  -4   5 1302.57   92.29
   1  -4   5 1331.07   66.29
   1  -4   5 1287.57   58.09
   1  -4   5 1278.87   96.59
  -2   4  -5   35.10   10.30
  -2   4  -5   15.10    8.50
  -2   4  -5   13.60   13.10
   2  -4   5   34.80    9.70
   2  -4   5   15.00   15.70
   2  -4   5   32.40   10.00
  -3   4  -5  811.42   49.80
  -3   4  -5  645.04   62.49
  -3   4  -5  788.22   51.79
   3  -4   5  753.42   47.60
   3  -4   5  782.42   72.59
   3  -4   5  832.32   52.29
  -4   4  -5  554.94   60.89
  -4   4  -5  702.43   47.90
  -4   4  -5  722.73   55.09
   4  -4   5  781.82   75.79
   4  -4   5  720.93   50.79
   4  -4   5  775.62   48.20
  -5   4  -5  -11.80    9.40
  -5   4  -5   38.90   18.80
   5  -4   5   12.50   19.20
  -6   4  -5  228.98   31.80
   6  -4   5  313.87   34.50
   6  -4   5  267.97   52.69
   6  -4   5  302.97   37.90
   7   3  -5   98.39   17.90
  -7  -3   5  126.49   20.40
   6   3  -5  212.78   20.90
  -6  -3   5  182.28   24.00
  -6  -3   5  211.18   20.90
   5   3  -5  657.03   38.60
   5   3  -5  652.73   49.50
  -5  -3   5  626.04   38.00
  -5  -3   5  684.63   45.30
   4   3  -5  389.76   31.90
   4   3  -5  344.27   27.00
   4   3  -5  309.47   31.30
   4   3  -5  267.57   30.20
   4   3  -5  332.07   24.00
  -4  -3   5  283.87   23.10
  -4  -3   5  359.36   29.60
  -4  -3   5  303.77   24.50
   3   3  -5  160.28   21.40
   3   3  -5  195.78   37.90
   3   3  -5  198.88   16.90
   3   3  -5  215.98   28.90
   3   3  -5  200.58   19.30
  -3  -3   5  168.28   16.60
  -3  -3   5  190.98   22.40
  -3  -3   5  211.68   18.60
  -3  -3   5  189.78   21.30
   2   3  -5 1907.21  114.79
   2   3  -5 1869.71   81.99
   2   3  -5 1918.41   86.79
   2   3  -5 1922.01   90.59
  -2  -3   5 1903.11   90.19
  -2  -3   5 1840.52   83.69
  -2  -3   5 2053.19   97.69
  -2  -3   5 1840.72   81.99
   1   3  -5 1032.30   72.09
   1   3  -5 1007.70   54.49
   1   3  -5 1000.40   52.99
  -1  -3   5 1071.79   56.19
  -1  -3   5  951.40   47.60
  -1  -3   5 1030.90   79.09
  -1  -3   5 1086.79   56.89
  -1  -3   5  966.60   50.69
   0   3  -5  309.97   19.50
   0   3  -5  321.97   35.30
   0   3  -5  302.07   24.60
   0   3  -5  289.67   24.70
   0  -3   5  304.47   25.90
   0  -3   5  316.77   20.30
   0  -3   5  288.57   22.70
   0  -3   5  356.96   42.80
  -1   3  -5 1061.19   56.59
  -1   3  -5 1004.30   47.60
  -1   3  -5 1067.89   58.49
  -1   3  -5 1186.98   72.99
   1  -3   5 1067.09   54.99
   1  -3   5 1142.29   82.49
   1  -3   5 1121.89   59.49
  -2   3  -5  509.95   34.70
  -2   3  -5  511.45   46.10
  -2   3  -5  509.15   41.10
   2  -3   5  496.85   34.00
   2  -3   5  558.44   53.59
   2  -3   5  508.55   36.70
   2  -3   5  487.85   30.80
  -3   3  -5   71.69   20.10
  -3   3  -5   91.19   19.10
  -3   3  -5   78.29   14.80
   3  -3   5   84.39   24.60
   3  -3   5   73.19   14.10
   3  -3   5   86.69   17.50
  -4   3  -5  426.46   33.90
  -4   3  -5  375.56   46.70
  -4   3  -5  434.06   41.40
   4  -3   5  443.46   35.60
   4  -3   5  428.06   36.60
   4  -3   5  449.26   51.89
  -5   3  -5  210.38   25.00
  -5   3  -5  190.88   32.50
   5  -3   5  204.38   28.70
   5  -3   5  245.78   27.50
   5  -3   5  232.48   40.40
  -6   3  -5   15.00   10.80
   6  -3   5   28.20   14.60
   6  -3   5   15.10   17.50
   6  -3   5    3.10    8.90
   8   2  -5  193.08   22.00
  -8  -2   5  192.38   25.20
   7   2  -5  380.46   28.90
   7   2  -5  342.17   32.90
  -7  -2   5  411.96   34.60
  -7  -2   5  399.66   29.80
   6   2  -5  320.27   24.00
  -6  -2   5  321.47   28.60
  -6  -2   5  275.07   23.50
   5   2  -5   23.20    7.10
   5   2  -5    7.80    9.90
   5   2  -5   16.80   10.60
  -5  -2   5   14.40    6.30
  -5  -2   5   12.30    7.10
   4   2  -5 1874.41   95.79
   4   2  -5 2111.19   97.69
   4   2  -5 1844.02   82.19
  -4  -2   5 1780.22   86.19
  -4  -2   5 1929.91   96.29
  -4  -2   5 1794.12   82.29
   3   2  -5  863.71   43.20
   3   2  -5  821.72   41.60
   3   2  -5  854.71   51.59
   3   2  -5  814.52   45.80
  -3  -2   5  834.22   42.30
  -3  -2   5  797.22   50.29
  -3  -2   5  780.52   44.40
   2   2  -5   31.70    7.30
   2   2  -5   33.50   14.60
  -2  -2   5   37.20    7.40
  -2  -2   5   32.80    8.50
  -2  -2   5   25.40    6.10
  -2  -2   5   34.00    9.90
   1   2  -5 2340.97   98.49
   1   2  -5 2410.56  115.89
   1   2  -5 2170.78   93.49
   1   2  -5 2257.87   98.49
  -1  -2   5 2292.77   99.69
  -1  -2   5 2263.27   95.79
   0   2  -5  259.37   20.50
   0   2  -5  236.78   21.20
   0   2  -5  235.58   16.50
   0   2  -5  256.17   27.50
   0  -2   5  259.87   21.50
   0  -2   5  237.48   19.20
   0  -2   5  282.87   34.20
  -1   2  -5  106.19   13.50
  -1   2  -5   73.99   16.20
  -1   2  -5   85.89   15.10
  -1   2  -5  111.89   10.20
   1  -2   5  108.99   15.40
   1  -2   5  127.99   23.50
   1  -2   5  108.79   11.10
   1  -2   5   95.59   12.80
  -2   2  -5  710.23   42.40
  -2   2  -5  711.53   52.59
  -2   2  -5  738.23   48.70
   2  -2   5  762.92   43.40
   2  -2   5  615.64   35.60
   2  -2   5  777.82   59.19
   2  -2   5  700.63   45.00
  -3   2  -5  549.25   48.40
  -3   2  -5  543.25   36.70
  -3   2  -5  571.34   44.00
   3  -2   5  567.44   52.49
   3  -2   5  535.75   38.00
   3  -2   5  538.45   40.30
  -4   2  -5   23.30   16.50
  -4   2  -5   41.70   11.40
   4  -2   5   11.80   10.50
   4  -2   5   16.10   14.90
   4  -2   5   30.90   12.80
  -5   2  -5 1134.09   65.09
  -5   2  -5 1167.88   79.09
   5  -2   5 1170.68   70.89
   5  -2   5 1203.78   91.29
   5  -2   5 1211.58   72.39
  -6   2  -5  118.79   20.50
   6  -2   5  170.08   26.20
   6  -2   5  125.09   26.60
   6  -2   5   82.39   29.50
   8   1  -5  332.87   46.30
   8   1  -5  343.27   37.60
  -8  -1   5  378.16   33.90
   7   1  -5  118.29   20.30
   7   1  -5   87.09   23.60
   7   1  -5   76.19   13.10
  -7  -1   5   74.39   22.80
   6   1  -5 1021.40   52.99
   6   1  -5 1140.59   68.49
   6   1  -5 1020.50   57.49
  -6  -1   5 1121.49   59.69
   5   1  -5  382.06   25.20
   5   1  -5  384.16   36.20
   5   1  -5  363.46   28.70
   5   1  -5  386.86   37.40
  -5  -1   5  377.56   28.20
   4   1  -5   18.50    7.00
   4   1  -5   -5.90    8.80
   4   1  -5    3.70    4.80
   4   1  -5    2.70    6.30
  -4  -1   5    5.00    3.40
  -4  -1   5   12.00    7.80
   3   1  -5 1222.88   56.89
   3   1  -5 1235.68   66.99
   3   1  -5 1197.38   60.99
   3   1  -5 1187.38   58.99
  -3  -1   5 1252.47   67.49
  -3  -1   5 1346.87   74.99
   2   1  -5 1402.16   60.99
   2   1  -5 1267.57   59.99
   2   1  -5 1402.16   62.29
  -2  -1   5 1268.37   57.89
  -2  -1   5 1430.86   71.09
   1   1  -5  116.79   12.30
   1   1  -5  135.99   12.50
   1   1  -5  129.49   11.90
   1   1  -5  123.49   14.30
  -1  -1   5  138.89   12.90
  -1  -1   5  141.49   14.10
   0   1  -5 2342.47  107.39
   0   1  -5 2416.96  102.79
   0   1  -5 2457.45  107.59
   0  -1   5 2481.95  103.39
   0  -1   5 2460.35  105.59
  -1   1  -5 2751.72  127.49
  -1   1  -5 2835.92  120.19
  -1   1  -5 2757.12  126.79
   1  -1   5 3142.39  136.19
   1  -1   5 2753.52  123.59
   1  -1   5 2823.22  121.29
  -2   1  -5   77.99   17.60
   2  -1   5   69.79   20.40
   2  -1   5   71.19   14.10
   2  -1   5   64.39   10.00
   2  -1   5   84.29   19.80
  -3   1  -5 1475.85   85.49
  -3   1  -5 1501.75   74.39
  -3   1  -5 1468.65   68.19
   3  -1   5 1454.15   77.99
   3  -1   5 1514.75   91.79
   3  -1   5 1495.05   79.79
  -4   1  -5  748.83   58.89
  -4   1  -5  798.62   44.40
  -4   1  -5  770.62   47.30
   4  -1   5  788.92   65.89
   4  -1   5  709.73   51.99
   4  -1   5  772.02   53.29
  -5   1  -5    3.30    5.80
  -5   1  -5   26.00   21.70
  -5   1  -5    1.30    8.00
   5  -1   5   14.90   13.70
   5  -1   5  -12.50    8.60
  -6   1  -5  265.47   30.30
   6  -1   5  341.07   48.50
   6  -1   5  277.37   34.50
   6  -1   5  294.07   42.00
   8   0  -5  482.05   54.49
  -8   0   5  504.75   39.30
   7   0  -5  195.08   34.30
   7   0  -5  170.68   35.60
   7   0  -5  286.87   38.20
   7   0  -5  251.37   27.20
  -7   0   5  299.17   26.80
   6   0  -5  245.08   19.80
   6   0  -5  309.77   34.20
   6   0  -5  256.17   25.20
   6   0  -5  262.37   34.10
  -6   0   5  272.87   24.50
   5   0  -5  299.17   31.50
   5   0  -5  338.07   27.00
   5   0  -5  308.67   21.50
   5   0  -5  342.97   35.30
  -5   0   5  303.97   24.60
   4   0  -5  335.17   21.90
   4   0  -5  301.47   24.60
   4   0  -5  330.17   25.30
   4   0  -5  299.97   29.20
  -4   0   5  319.87   22.70
  -4   0   5  304.97   29.70
   3   0  -5   -7.10    6.50
   3   0  -5    7.70    5.00
   3   0  -5    2.40    3.90
   3   0  -5    5.10    6.00
   3   0  -5   -2.20    4.50
  -3   0   5   10.80    4.00
  -3   0   5   -0.50    5.60
   2   0  -5 1621.64   73.99
  -2   0   5 1724.63   83.39
   1   0  -5 1551.74   68.29
   1   0  -5 1467.15   67.39
   1   0  -5 1711.03   77.49
  -1   0   5 1505.55   69.39
  -1   0   5 1554.74   69.89
  -1   0   5 1514.15   67.29
   0   0  -5  786.92   41.60
   0   0  -5  756.62   47.00
   0   0   5  766.52   43.40
   0   0   5  767.02   44.10
  -1   0  -5 1307.97   64.49
  -1   0  -5 1303.07   73.09
   1   0   5 1280.47   70.09
   1   0   5 1349.77   67.89
   1   0   5 1313.17   68.89
  -2   0  -5  722.73   41.90
  -2   0  -5  692.63   50.59
   2   0   5  678.23   44.40
   2   0   5  533.45   56.49
   2   0   5  522.05   57.89
  -3   0  -5   29.30    9.10
  -3   0  -5   31.50    7.70
  -3   0  -5   34.40   15.30
   3   0   5   27.40   11.30
   3   0   5   28.70    8.90
   3   0   5   15.80   11.30
   3   0   5   18.60   11.10
  -4   0  -5  243.08   41.90
  -4   0  -5  325.67   29.40
  -4   0  -5  318.87   24.70
   4   0   5  314.07   39.80
   4   0   5  314.07   33.70
   4   0   5  321.77   35.00
  -5   0  -5  611.74   43.60
  -5   0  -5  617.24   39.40
  -5   0  -5  531.35   61.49
   5   0   5  572.04   48.90
   5   0   5  658.83   61.79
   5   0   5  572.94   51.69
  -6   0  -5   16.60   14.00
  -6   0  -5   24.80   13.20
   6   0   5   29.90   20.50
   6   0   5   24.50   14.70
   8  -1  -5    8.20   26.90
  -8   1   5   55.69   15.40
   7  -1  -5  388.16   41.90
   7  -1  -5  368.76   44.00
   7  -1  -5  384.86   70.79
  -7   1   5  377.86   32.10
   6  -1  -5  578.34   48.80
   6  -1  -5  482.35   37.10
   6  -1  -5  497.85   45.00
   6  -1  -5  496.05   46.20
  -6   1   5  533.05   36.50
   5  -1  -5   29.00    8.20
   5  -1  -5   39.30   16.00
   5  -1  -5   30.40   11.10
   5  -1  -5   22.90    9.00
  -5   1   5   36.00    8.30
   4  -1  -5 1164.88   60.99
   4  -1  -5 1038.00   55.89
   4  -1  -5 1219.18   72.59
   4  -1  -5 1198.08   68.69
   4  -1  -5 1199.78   56.49
  -4   1   5 1207.68   56.29
  -4   1   5 1234.28   67.69
   3  -1  -5 1768.92   82.09
   3  -1  -5 1900.11   95.49
   3  -1  -5 1695.33   75.59
  -3   1   5 1690.03   74.59
  -3   1   5 1991.00   96.39
  -3   1   5 1784.02   81.09
   2  -1  -5   87.79   12.10
  -2   1   5  126.99   15.60
  -2   1   5   88.59   15.50
   1  -1  -5 2047.00   88.99
   1  -1  -5 1902.81  106.09
   1  -1  -5 2071.29   88.09
  -1   1   5 2090.09   87.19
  -1   1   5 2022.10   91.09
  -1   1   5 2018.40   90.79
   0  -1  -5  251.47   27.00
   0  -1  -5  205.88   20.00
   0   1   5  246.88   23.40
   0   1   5  241.98   23.10
  -1  -1  -5   32.40   11.50
  -1  -1  -5   33.50    9.50
   1   1   5   19.00    8.80
   1   1   5   12.50    7.80
  -2  -1  -5   87.29   20.00
  -2  -1  -5  100.19   15.80
   2   1   5   87.99   18.30
   2   1   5  100.49   17.80
   2   1   5   83.29   16.00
  -3  -1  -5  534.65   49.00
  -3  -1  -5  425.86   46.10
  -3  -1  -5  416.96   26.10
  -3  -1  -5  408.16   32.60
   3   1   5  412.56   40.60
   3   1   5  354.56   37.90
   3   1   5  380.86   37.20
  -4  -1  -5  200.28   24.20
  -4  -1  -5  198.28   18.60
  -4  -1  -5  241.28   43.10
   4   1   5  191.18   32.50
   4   1   5  198.08   32.00
   4   1   5  186.18   27.90
  -5  -1  -5  429.06   31.60
  -5  -1  -5  423.46   37.40
  -5  -1  -5  398.86   59.89
   5   1   5  481.15   48.60
   5   1   5  469.25   51.39
   5   1   5  411.06   49.70
  -6  -1  -5  464.45   36.20
  -6  -1  -5  459.95   42.00
   6   1   5  464.15   47.20
   6   1   5  483.55   56.79
   6   1   5  471.75   56.39
   8  -2  -5   82.79   28.70
  -8   2   5   96.99   18.60
   7  -2  -5   21.50   14.40
   7  -2  -5   26.50   17.40
  -7   2   5   12.30    7.90
   6  -2  -5 1114.09   74.79
   6  -2  -5 1091.09   73.59
   6  -2  -5 1076.29   69.79
   6  -2  -5 1037.30   61.39
  -6   2   5 1117.89   59.79
   5  -2  -5  771.92   52.79
   5  -2  -5  780.22   47.70
   5  -2  -5  678.63   56.49
  -5   2   5  755.42   44.80
  -5   2   5  763.22   43.50
   4  -2  -5  198.88   33.30
   4  -2  -5  172.08   19.90
   4  -2  -5  144.89   25.50
   4  -2  -5  160.78   17.80
  -4   2   5  203.88   23.50
  -4   2   5  187.38   18.50
  -4   2   5  169.48   15.80
   3  -2  -5 2149.69  102.19
   3  -2  -5 2296.47  114.59
  -3   2   5 2559.24  135.19
  -3   2   5 2283.87  101.89
   2  -2  -5  455.55   31.90
   2  -2  -5  463.15   35.20
   2  -2  -5  497.25   39.40
  -2   2   5  507.05   37.10
  -2   2   5  502.85   31.70
   1  -2  -5   22.30    7.00
  -1   2   5   13.60    7.60
  -1   2   5   17.30    7.20
  -1   2   5   17.10    5.40
   0  -2  -5  465.45   40.50
   0  -2  -5  418.46   32.00
   0   2   5  432.06   35.70
   0   2   5  453.05   35.30
   0   2   5  458.45   29.40
  -1  -2  -5 1149.98   74.19
  -1  -2  -5 1110.99   62.99
   1   2   5 1155.48   67.59
   1   2   5 1130.19   68.29
  -2  -2  -5  281.57   25.40
  -2  -2  -5  163.58   50.99
  -2  -2  -5  262.17   27.80
   2   2   5  282.67   31.40
   2   2   5  269.27   30.40
  -3  -2  -5  568.14   33.70
  -3  -2  -5  666.53   61.39
  -3  -2  -5  550.94   43.10
  -3  -2  -5  611.14   40.80
   3   2   5  542.55   49.20
   3   2   5  620.14   49.99
  -4  -2  -5  578.34   45.00
  -4  -2  -5  564.04   36.20
  -4  -2  -5  636.64   63.89
  -4  -2  -5  579.04   40.40
   4   2   5  536.45   52.69
   4   2   5  569.64   79.59
   4   2   5  575.74   50.59
  -5  -2  -5   29.30    9.40
  -5  -2  -5    8.70   14.30
   5   2   5   25.60   20.30
   5   2   5   11.20   15.80
   5   2   5   28.70   15.90
   8  -3  -5  169.18   37.30
  -8   3   5  238.58   27.00
   7  -3  -5  345.97   45.20
   7  -3  -5  371.46   45.60
   7  -3  -5  425.96   41.80
   6  -3  -5    3.70   11.50
  -6   3   5   -7.60    5.90
   5  -3  -5 1005.20   59.09
   5  -3  -5  981.10   61.89
  -5   3   5 1008.30   56.39
   4  -3  -5  569.04   47.80
  -4   3   5  582.74   38.80
  -4   3   5  595.14   41.80
   3  -3  -5   49.10   14.70
   3  -3  -5   43.10    9.10
   2  -3  -5  162.08   18.30
   2  -3  -5  176.78   22.70
  -2   3   5  190.28   22.00
  -2   3   5  188.38   19.10
  -2   3   5  139.49   19.60
  -2   3   5  177.88   20.90
   1  -3  -5  988.90   63.29
   1  -3  -5  929.61   56.99
   1  -3  -5  895.41   53.49
  -1   3   5  881.61   55.19
  -1   3   5  914.21   56.49
  -1   3   5  950.60   51.19
   0  -3  -5   78.99   20.40
   0  -3  -5  127.59   18.10
   0   3   5   87.49   17.60
   0   3   5  100.69   14.40
   0   3   5   64.99   15.50
  -1  -3  -5 1077.99   61.59
  -1  -3  -5 1082.19   64.79
  -1  -3  -5 1121.89   78.29
   1   3   5 1122.49   70.39
   1   3   5 1143.69   70.89
  -2  -3  -5 1570.64   81.69
  -2  -3  -5 1673.63   88.49
  -2  -3  -5 1693.33  105.39
   2   3   5 1632.64   94.29
   2   3   5 1529.05   92.29
  -3  -3  -5   67.59   18.20
  -3  -3  -5   87.99   18.40
   3   3   5   58.79   17.80
   3   3   5   80.99   22.30
  -4  -3  -5 1120.19   68.79
  -4  -3  -5 1054.29   56.29
  -4  -3  -5 1042.10   61.79
  -4  -3  -5  908.41   88.99
   4   3   5  993.80   76.99
   4   3   5 1031.50   73.99
  -5  -3  -5  293.07   37.20
  -5  -3  -5  232.18   25.50
   5   3   5  263.27   50.69
   5   3   5  291.07   42.20
   5   3   5  259.97   43.90
   7  -4  -5  651.13   63.39
   7  -4  -5  618.14   81.29
  -7   4   5  529.35   54.29
   6  -4  -5  564.34   49.30
  -6   4   5  628.34   42.70
  -6   4   5  632.34   68.09
  -5   4   5   24.00   10.20
   4  -4  -5  178.58   28.90
  -4   4   5  212.88   23.10
  -4   4   5  253.67   25.90
   3  -4  -5  841.42   59.09
  -3   4   5  879.11   52.29
   2  -4  -5   89.39   18.80
   2  -4  -5   96.99   17.60
   2  -4  -5   89.39   19.20
  -2   4   5   76.99   16.40
  -2   4   5   91.89   18.10
  -2   4   5   97.29   16.60
   1  -4  -5  315.37   39.80
   1  -4  -5  356.96   32.10
   1  -4  -5  336.57   36.60
  -1   4   5  361.46   29.50
  -1   4   5  312.57   33.30
  -1   4   5  382.26   35.50
   0  -4  -5 1583.04   85.19
   0  -4  -5 1538.25   96.09
   0  -4  -5 1545.75   79.69
   0  -4  -5 1467.25   79.39
   0   4   5 1524.35   87.69
   0   4   5 1562.24   89.49
   0   4   5 1607.64   77.99
  -1  -4  -5   26.00   16.30
  -1  -4  -5   12.80   10.60
  -1  -4  -5   20.50   10.20
   1   4   5   10.10   12.60
  -2  -4  -5  679.63   44.50
  -2  -4  -5  812.42   74.39
  -2  -4  -5  799.02   56.69
  -2  -4  -5  775.32   52.09
   2   4   5  883.31   65.89
   2   4   5  862.81   62.99
  -3  -4  -5  222.48   22.80
  -3  -4  -5  275.57   48.10
  -3  -4  -5  262.27   33.10
   3   4   5  169.48   34.60
   3   4   5  233.38   36.80
  -4  -4  -5   34.20   48.60
  -4  -4  -5   15.20   12.60
  -4  -4  -5   21.80   18.50
  -4  -4  -5   17.90    9.90
   4   4   5  -12.60   15.50
   4   4   5   39.10   25.10
   7  -5  -5   31.40   25.80
  -7   5   5   28.40   16.10
  -6   5   5  105.69   25.90
  -6   5   5  168.18   29.30
  -5   5   5  259.37   28.50
   4  -5  -5   20.90   15.70
  -4   5   5   32.20   10.90
  -4   5   5   57.99   13.60
   3  -5  -5 1005.60   58.69
   3  -5  -5  918.31   64.29
  -3   5   5  933.71   56.79
   2  -5  -5 1101.29   64.49
   2  -5  -5 1132.29   70.19
   2  -5  -5 1201.68   76.59
   2  -5  -5 1137.49   68.39
  -2   5   5 1166.78   65.79
  -2   5   5 1157.68   62.59
  -2   5   5 1157.48   70.49
   1  -5  -5    0.30   14.90
   1  -5  -5    9.30   11.00
   1  -5  -5    1.40   10.20
   1  -5  -5    6.30   11.40
  -1   5   5   36.40   14.10
  -1   5   5   30.70   14.10
  -1   5   5    1.20    7.30
   0  -5  -5  524.55   45.20
   0  -5  -5  502.25   54.99
   0   5   5  509.05   49.00
   0   5   5  487.65   48.40
  -1  -5  -5  290.47   30.50
  -1  -5  -5  459.55   54.89
  -1  -5  -5  376.56   40.10
   1   5   5  343.47   43.80
   1   5   5  438.46   45.30
  -2  -5  -5  256.97   26.20
  -2  -5  -5  279.07   53.19
  -2  -5  -5  266.07   32.40
  -2  -5  -5  178.98   33.00
   2   5   5  246.38   38.60
   2   5   5  349.67   42.80
  -3  -5  -5   79.69   21.00
  -3  -5  -5   45.20   13.00
  -3  -5  -5   15.10   35.80
   3   5   5   73.89   22.20
   3   5   5  120.89   30.00
  -6   6   5   13.00   12.10
   5  -6  -5  447.86   38.90
  -5   6   5  523.55   42.30
   4  -6  -5  318.37   33.20
  -4   6   5  322.97   44.50
   3  -6  -5   -1.30   13.00
   3  -6  -5   24.80   14.60
   3  -6  -5   26.40   14.90
   3  -6  -5   13.00   10.70
  -3   6   5   -2.70   17.10
   2  -6  -5  287.27   35.40
   2  -6  -5  386.26   39.10
  -2   6   5  404.96   35.00
  -2   6   5  408.16   42.30
   1  -6  -5  465.75   39.00
   1  -6  -5  476.75   45.10
   1  -6  -5  464.35   54.69
   1  -6  -5  398.76   38.80
  -1   6   5  468.15   37.90
  -1   6   5  458.65   45.70
  -1   6   5  403.56   48.20
   0  -6  -5   35.20   24.90
   0  -6  -5   -4.60   11.90
   0   6   5   11.80   18.60
   0   6   5  -16.40   13.80
  -1  -6  -5  160.68   30.20
  -1  -6  -5  136.49   25.20
  -1  -6  -5   57.49   36.20
   1   6   5  134.19   31.00
   1   6   5   81.39   36.80
   1   6   5  125.69   27.70
  -2  -6  -5  156.48   31.80
  -2  -6  -5  181.48   26.40
  -2  -6  -5  225.78   49.10
   2   6   5  136.29   34.50
   2   6   5  189.18   48.70
   2   6   5  207.98   41.30
   5  -7  -5   27.90   18.80
  -5   7   5    8.00   12.80
   4  -7  -5   89.29   21.70
   4  -7  -5   60.59   21.60
   4  -7  -5  109.69   22.30
  -4   7   5  121.09   23.00
   3  -7  -5  430.96   42.30
   3  -7  -5  325.37   45.30
   3  -7  -5  387.56   38.30
  -3   7   5  367.36   37.60
  -3   7   5  355.96   64.49
   2  -7  -5  147.49   30.30
  -2   7   5  103.19   20.00
  -2   7   5   74.39   23.70
   1  -7  -5   98.09   25.90
  -1   7   5   57.79   15.70
  -1   7   5   53.89   24.30
   0  -7  -5  434.36   63.69
   0  -7  -5  512.65   52.49
   0   7   5  499.55   56.69
  -1  -7  -5   12.20   18.70
  -1  -7  -5  -32.20   34.10
  -1  -7  -5   -2.10   16.50
   1   7   5   56.99   34.30
   1   7   5   18.20   22.20
   3  -8  -5  172.98   31.20
  -3   8   5  171.48   27.80
   2  -8  -5  331.37   54.59
   2  -8  -5  482.65   49.00
  -2   8   5  466.75   57.09
  -2   8   5  355.16   39.80
   2   9  -6  329.77   46.00
   2   9  -6  417.46   58.19
   1   9  -6   37.00   24.00
   1   9  -6    9.70   12.00
   1   9  -6    9.40   22.50
  -1  -9   6    9.80   20.70
  -1  -9   6   -0.50   19.50
   0   9  -6  263.37   39.50
   0   9  -6  189.88   26.10
   0  -9   6  230.68   40.70
   0  -9   6  209.18   38.10
  -1   9  -6   89.19   33.70
   1  -9   6  185.18   33.90
   1  -9   6  123.79   22.50
   1  -9   6  129.29   46.90
   1  -9   6  174.08   41.70
  -2   9  -6    0.90   10.90
  -2   9  -6   -7.10   19.30
   2  -9   6   18.90   19.00
   2  -9   6    1.00   25.90
   2  -9   6    4.80   12.40
   2  -9   6   -9.50   19.70
   3   8  -6   23.80   17.50
   3   8  -6   31.60   19.70
   3   8  -6   12.90   11.50
  -3  -8   6   28.00   23.90
   2   8  -6  346.57   49.00
   2   8  -6  346.17   31.30
   2   8  -6  276.47   37.60
  -2  -8   6  257.77   36.40
  -2  -8   6  236.28   40.00
   1   8  -6  290.17   39.40
   1   8  -6  247.68   45.00
  -1  -8   6  355.66   47.20
  -1  -8   6  388.56   46.80
  -1  -8   6  383.86   31.20
   0   8  -6   28.20   12.80
   0   8  -6   51.29   17.40
   0   8  -6   33.10   17.90
   0  -8   6   19.40   27.70
   0  -8   6   27.10   15.20
   0  -8   6   38.30   17.90
   0  -8   6   21.90   12.10
  -1   8  -6  310.67   27.40
  -1   8  -6  335.47   41.90
  -1   8  -6  262.87   44.20
   1  -8   6  257.57   38.40
   1  -8   6  324.47   63.29
   1  -8   6  315.97   25.90
   1  -8   6  349.07   36.10
  -2   8  -6  389.16   41.70
  -2   8  -6  358.56   45.80
   2  -8   6  373.86   47.60
   2  -8   6  412.16   39.70
   2  -8   6  309.77   70.69
  -3   8  -6   64.99   21.70
   3  -8   6   56.39   34.90
   3  -8   6   81.99   21.40
   3  -8   6   57.19   22.40
   5   7  -6  -12.30   16.60
   5   7  -6   15.50   21.10
   5   7  -6   22.70   19.50
   5   7  -6    8.20   12.40
  -5  -7   6  -16.20   21.80
  -5  -7   6   -2.80   15.90
   4   7  -6  299.47   37.90
   4   7  -6  301.67   45.60
   4   7  -6  310.37   30.80
   4   7  -6  314.57   39.30
  -4  -7   6  261.17   40.40
  -4  -7   6  252.37   46.00
   3   7  -6  219.78   24.80
   3   7  -6  277.47   70.59
   3   7  -6  202.48   38.30
   3   7  -6  196.08   30.50
  -3  -7   6  180.38   29.50
  -3  -7   6  227.18   37.20
   2   7  -6   30.30   26.90
   2   7  -6    5.10   13.20
   2   7  -6    0.00    8.70
  -2  -7   6   39.10   15.90
  -2  -7   6   10.50   12.50
  -2  -7   6   -5.10    9.80
   1   7  -6  289.77   33.60
   1   7  -6  343.77   28.10
   1   7  -6  319.77   39.90
   1   7  -6  308.77   63.39
  -1  -7   6  261.37   31.40
  -1  -7   6  328.37   26.90
  -1  -7   6  233.18   36.90
   0   7  -6  578.14   47.30
   0   7  -6  700.03   55.69
   0   7  -6  637.44   40.40
   0  -7   6  614.74   84.49
   0  -7   6  593.34   46.10
   0  -7   6  583.14   52.89
   0  -7   6  698.83   39.00
  -1   7  -6    8.50    8.40
  -1   7  -6    7.20   12.10
  -1   7  -6   15.20   13.20
   1  -7   6   19.20   20.70
   1  -7   6   34.70   15.80
   1  -7   6   21.90    9.00
   1  -7   6   52.99   15.40
  -2   7  -6  660.53   59.29
  -2   7  -6  747.03   57.79
   2  -7   6  532.05  114.19
   2  -7   6  706.63   58.19
   2  -7   6  825.82   51.89
  -3   7  -6  319.97   40.90
  -3   7  -6  503.75   59.29
   3  -7   6  375.46   49.60
   3  -7   6  373.56   44.40
   3  -7   6  338.27   63.79
  -4   7  -6   23.60   16.60
   4  -7   6  -12.70   15.00
   4  -7   6   -6.80   25.10
   4  -7   6    0.20   13.30
   6   6  -6  104.59   19.30
   6   6  -6   93.49   22.70
  -6  -6   6  148.39   29.20
   5   6  -6  367.76   48.10
   5   6  -6  401.96   39.60
   5   6  -6  403.46   34.40
  -5  -6   6  290.27   44.70
  -5  -6   6  372.26   41.90
   4   6  -6  170.98   28.30
   4   6  -6  182.08   32.50
   4   6  -6  173.58   30.40
   4   6  -6  138.29   51.99
   4   6  -6  111.19   23.40
  -4  -6   6  182.28   27.00
  -4  -6   6  123.69   26.20
  -4  -6   6  169.88   30.60
   3   6  -6  190.78   26.90
   3   6  -6  209.28   22.10
   3   6  -6  173.48   53.89
  -3  -6   6  121.69   26.20
  -3  -6   6  191.68   26.90
   2   6  -6 1231.58   73.19
   2   6  -6 1246.88  106.69
   2   6  -6 1357.76   67.99
   2   6  -6 1353.56   84.49
  -2  -6   6 1256.47   80.99
  -2  -6   6 1357.26   66.39
  -2  -6   6 1333.37   70.29
  -2  -6   6 1364.86   74.19
   1   6  -6   61.49   17.10
   1   6  -6   51.29   22.90
   1   6  -6   59.89   12.40
   1   6  -6   70.99   15.60
  -1  -6   6   91.79   33.40
  -1  -6   6   54.29   10.50
   0   6  -6  343.27   35.90
   0   6  -6  293.87   24.20
   0   6  -6  317.27   31.10
   0   6  -6  263.47   49.50
   0  -6   6  298.57   56.99
   0  -6   6  323.37   35.50
   0  -6   6  302.67   22.90
   0  -6   6  316.77   28.60
  -1   6  -6  573.94   34.30
  -1   6  -6  492.25   58.39
  -1   6  -6  555.44   46.10
  -1   6  -6  638.84   44.30
   1  -6   6  568.24   33.10
   1  -6   6  536.05   46.60
   1  -6   6  546.55   71.99
   1  -6   6  581.74   42.00
  -2   6  -6   10.40   12.80
  -2   6  -6    1.10   19.60
  -2   6  -6   41.60   14.10
   2  -6   6   35.30   13.40
   2  -6   6   12.40   10.80
   2  -6   6   29.40   25.10
  -3   6  -6  189.78   28.00
  -3   6  -6  134.69   37.40
   3  -6   6  148.79   43.90
   3  -6   6  140.69   26.70
   3  -6   6  209.78   26.20
  -4   6  -6  475.45   44.10
   4  -6   6  482.85   41.40
   4  -6   6  552.44   50.59
   4  -6   6  417.26   66.39
  -5   6  -6  -11.60   16.10
   5  -6   6    8.90   15.20
   5  -6   6   55.79   29.10
   5  -6   6   18.00   17.00
   6   5  -6   31.60   11.10
   6   5  -6   35.40   18.50
   6   5  -6   32.70   13.70
  -6  -5   6   15.50   10.80
   5   5  -6   96.49   18.90
   5   5  -6   75.59   21.60
   5   5  -6  102.69   18.40
   5   5  -6   90.49   43.30
  -5  -5   6   84.59   17.50
  -5  -5   6  113.29   23.10
   4   5  -6 1045.10   61.39
   4   5  -6 1003.30   63.89
   4   5  -6  979.10   69.89
   4   5  -6  843.32   91.09
   4   5  -6 1092.39   56.59
  -4  -5   6  989.40   67.79
  -4  -5   6  865.31   64.19
   3   5  -6   38.50   12.10
   3   5  -6   39.40   15.50
   3   5  -6   14.70   22.90
   3   5  -6   36.10   10.90
  -3  -5   6   21.70   14.90
  -3  -5   6   45.60   13.90
  -3  -5   6   57.79   14.90
  -3  -5   6   23.80   13.00
   2   5  -6 1034.10   67.79
   2   5  -6 1016.10   89.79
   2   5  -6  999.30   60.09
   2   5  -6 1065.09   54.99
  -2  -5   6 1063.79   59.29
  -2  -5   6 1091.99   61.09
  -2  -5   6 1131.99   67.99
  -2  -5   6 1062.09   54.49
   1   5  -6  704.43   49.90
   1   5  -6  538.45   62.99
   1   5  -6  648.14   37.70
   1   5  -6  696.93   45.00
  -1  -5   6  670.03   75.29
  -1  -5   6  607.44   47.30
  -1  -5   6  673.63   42.30
  -1  -5   6  630.64   44.40
  -1  -5   6  641.04   36.90
   0   5  -6   28.10   10.50
   0   5  -6   15.90    6.10
   0   5  -6    4.60    7.90
   0   5  -6  -12.10   14.60
   0  -5   6    8.30    5.70
   0  -5   6   12.40   10.40
   0  -5   6   14.30   16.90
   0  -5   6   30.10   15.90
   0  -5   6   15.30    9.60
  -1   5  -6  150.18   22.00
  -1   5  -6  127.39   30.70
  -1   5  -6  150.98   20.80
  -1   5  -6  126.49   13.90
   1  -5   6  107.09   31.10
   1  -5   6  118.69   21.40
   1  -5   6  128.69   19.00
   1  -5   6  125.69   14.30
  -2   5  -6  625.24   44.70
  -2   5  -6  611.74   44.60
   2  -5   6  612.34   41.60
   2  -5   6  528.45   43.70
   2  -5   6  509.35   64.69
  -3   5  -6  549.74   42.20
  -3   5  -6  564.24   43.90
  -3   5  -6  404.96   53.49
   3  -5   6  491.85   42.50
   3  -5   6  547.75   68.59
   3  -5   6  546.25   39.70
  -4   5  -6  130.69   24.80
  -4   5  -6  127.79   26.10
  -4   5  -6  106.89   29.00
   4  -5   6  136.69   47.90
   4  -5   6  161.68   24.70
   4  -5   6  163.68   25.20
  -5   5  -6  880.11   60.69
   5  -5   6  980.70   63.29
   5  -5   6  959.40   65.39
   5  -5   6  764.22   86.19
   7   4  -6   84.99   17.20
  -7  -4   6   64.59   17.70
   6   4  -6  651.73   41.50
   6   4  -6  565.34   54.39
  -6  -4   6  625.44   48.40
  -6  -4   6  545.55   53.19
   5   4  -6   32.30    9.00
   5   4  -6   23.70   12.80
   5   4  -6  -12.00   26.00
   5   4  -6    9.90    9.20
   5   4  -6    4.60   12.40
  -5  -4   6   14.70   10.90
  -5  -4   6   18.70    9.80
   4   4  -6  784.62   45.00
   4   4  -6  790.42   54.39
   4   4  -6  828.22   53.99
   4   4  -6  624.04   75.99
  -4  -4   6  805.72   44.90
  -4  -4   6  804.72   53.69
   3   4  -6  444.76   37.80
   3   4  -6  428.06   32.10
   3   4  -6  332.27   52.39
   3   4  -6  400.56   28.20
   3   4  -6  441.76   37.10
  -3  -4   6  354.66   35.80
  -3  -4   6  437.26   35.50
  -3  -4   6  404.66   29.80
  -3  -4   6  364.26   34.10
  -3  -4   6  416.66   28.60
   2   4  -6   11.20    8.00
   2   4  -6   14.70    5.70
   2   4  -6   11.40    7.30
   2   4  -6   30.40   18.20
  -2  -4   6    2.40    7.80
  -2  -4   6   14.40    6.20
  -2  -4   6   15.40    7.20
  -2  -4   6   10.30    7.00
   1   4  -6  644.64   43.50
   1   4  -6  613.94   35.00
   1   4  -6  616.64   40.60
  -1  -4   6  660.63   45.30
  -1  -4   6  568.34   64.69
  -1  -4   6  612.04   35.20
  -1  -4   6  655.03   45.00
  -1  -4   6  672.23   40.80
   0   4  -6  978.80   48.10
   0   4  -6  936.51   71.59
   0   4  -6 1038.30   57.19
   0   4  -6 1030.10   58.29
   0  -4   6  980.20   53.79
   0  -4   6 1003.60   48.90
   0  -4   6  994.00   59.19
   0  -4   6 1024.50   86.89
  -1   4  -6  659.53   44.10
  -1   4  -6  604.64   55.49
  -1   4  -6  641.24   45.60
   1  -4   6  671.63   67.49
   1  -4   6  674.83   41.50
   1  -4   6  676.03   46.30
  -2   4  -6  784.32   48.90
  -2   4  -6  788.82   50.79
  -2   4  -6  712.23   60.69
   2  -4   6  671.13   69.49
   2  -4   6  734.33   49.70
   2  -4   6  726.33   46.00
  -3   4  -6 1613.54  105.49
  -3   4  -6 1689.33   91.69
  -3   4  -6 1698.63   86.49
   3  -4   6 1544.55  114.69
   3  -4   6 1743.73   90.59
   3  -4   6 1723.63   85.59
  -4   4  -6   53.29   18.60
  -4   4  -6   12.30   32.20
  -4   4  -6   42.00   12.90
   4  -4   6   10.30   17.70
   4  -4   6   19.50   11.80
   4  -4   6   47.60   14.10
  -5   4  -6  380.86   37.10
   5  -4   6  396.76   40.20
   5  -4   6  469.85   42.10
   5  -4   6  434.86   60.19
  -6   4  -6  194.78   29.60
   6  -4   6  120.19   27.60
   6  -4   6   96.59   37.00
   6  -4   6  211.78   30.90
   7   3  -6   44.80   12.50
  -7  -3   6   30.40   11.70
  -7  -3   6    3.50   15.80
   6   3  -6  680.33   41.60
  -6  -3   6  701.63   42.50
  -6  -3   6  685.33   48.10
   5   3  -6 1022.90   65.59
   5   3  -6 1031.60   53.29
   5   3  -6  844.12   67.99
  -5  -3   6 1002.90   52.99
  -5  -3   6 1053.29   59.39
   4   3  -6   26.50    7.80
   4   3  -6    8.50   17.80
   4   3  -6   14.50   10.90
   4   3  -6   12.00    6.90
  -4  -3   6   13.80    9.80
  -4  -3   6    9.70    7.00
  -4  -3   6   27.10    9.40
   3   3  -6  424.76   36.00
   3   3  -6  411.46   27.20
   3   3  -6  370.06   48.00
   3   3  -6  400.66   28.90
   3   3  -6  412.86   32.80
  -3  -3   6  422.46   32.70
  -3  -3   6  447.86   35.80
  -3  -3   6  406.56   27.00
  -3  -3   6  383.96   26.80
   2   3  -6 1234.18   86.99
   2   3  -6 1237.38   58.39
   2   3  -6 1255.37   62.69
   2   3  -6 1272.37   65.19
  -2  -3   6 1280.77   69.29
  -2  -3   6 1281.97   66.69
  -2  -3   6 1170.98   59.19
  -2  -3   6 1189.28   58.69
   1   3  -6  919.61   51.09
   1   3  -6  880.61   44.40
   1   3  -6  873.01   66.09
   1   3  -6  901.71   50.19
  -1  -3   6  977.60   53.69
  -1  -3   6  898.01   45.60
  -1  -3   6  842.12   74.29
  -1  -3   6  993.20   59.49
  -1  -3   6  874.31   47.30
   0   3  -6  394.66   25.40
   0   3  -6  465.75   42.70
   0   3  -6  399.76   31.30
   0  -3   6  362.16   66.79
   0  -3   6  409.06   28.70
   0  -3   6  452.15   32.90
  -1   3  -6 1290.47   67.09
  -1   3  -6 1356.26   82.09
  -1   3  -6 1251.47   69.59
  -1   3  -6 1304.67   58.49
   1  -3   6 1492.95   97.99
   1  -3   6 1317.07   66.39
   1  -3   6 1297.27   70.19
  -2   3  -6   13.00   12.10
  -2   3  -6   20.30   12.50
  -2   3  -6   34.90    9.70
   2  -3   6    1.30   12.70
   2  -3   6   11.00    8.70
   2  -3   6   18.50    9.20
  -3   3  -6   87.89   22.10
  -3   3  -6  135.49   19.30
  -3   3  -6  139.79   26.40
   3  -3   6  117.49   20.40
   3  -3   6  141.69   34.00
   3  -3   6  138.69   21.40
  -4   3  -6  309.67   38.80
  -4   3  -6  279.17   28.90
   4  -3   6  268.27   30.90
   4  -3   6  292.77   31.90
   4  -3   6  349.77   47.20
  -5   3  -6   34.80   13.60
   5  -3   6   32.70   15.50
   5  -3   6   39.30   22.70
   5  -3   6   57.09   17.30
  -6   3  -6    4.20   12.20
   6  -3   6   24.70   20.40
   6  -3   6  -32.60   17.20
   6  -3   6   34.80   13.40
   8   2  -6  248.48   25.10
  -8  -2   6  299.37   30.80
   7   2  -6  699.93   41.30
   7   2  -6  589.24   44.10
   7   2  -6  771.52   55.49
  -7  -2   6  652.43   45.90
   6   2  -6   -5.80    8.70
   6   2  -6   -3.20    6.40
   6   2  -6    4.40   16.20
  -6  -2   6    3.20    7.00
   5   2  -6  288.27   32.80
   5   2  -6  274.07   22.50
   5   2  -6  314.47   34.10
  -5  -2   6  305.37   25.90
  -5  -2   6  273.77   23.10
   4   2  -6 1066.19   81.09
   4   2  -6 1094.49   53.19
   4   2  -6 1054.99   64.59
  -4  -2   6 1012.70   64.59
  -4  -2   6 1042.40   53.59
  -4  -2   6 1085.39   55.59
   3   2  -6  168.88   15.20
   3   2  -6  145.09   29.40
   3   2  -6  157.98   15.30
  -3  -2   6  145.29   20.80
  -3  -2   6  140.99   15.20
   2   2  -6  126.59   14.50
   2   2  -6   94.39   23.20
   2   2  -6  112.49   13.60
   2   2  -6  104.89   11.80
  -2  -2   6   87.59   11.40
  -2  -2   6  109.39   13.10
  -2  -2   6  107.29   16.90
  -2  -2   6  114.09   15.40
   1   2  -6 1389.86   65.99
   1   2  -6 1411.26   67.99
   1   2  -6 1318.37   62.09
   1   2  -6 1427.46   79.69
  -1  -2   6 1370.06   88.29
  -1  -2   6 1385.16   67.89
  -1  -2   6 1379.66   64.19
   0   2  -6  277.97   23.20
   0   2  -6  295.37   25.10
   0   2  -6  299.47   30.10
   0   2  -6  257.47   19.00
   0  -2   6  267.67   21.80
   0  -2   6  271.77   24.00
  -1   2  -6  589.44   37.20
  -1   2  -6  589.14   41.50
  -1   2  -6  563.84   44.90
  -1   2  -6  559.44   30.90
   1  -2   6  628.74   40.70
   1  -2   6  566.04   36.90
   1  -2   6  610.04   64.79
  -2   2  -6  955.10   52.89
  -2   2  -6  934.61   63.29
  -2   2  -6  743.83   79.89
   2  -2   6  907.41   52.89
   2  -2   6  954.00   56.59
   2  -2   6  962.10   70.79
   2  -2   6  844.72   43.50
  -3   2  -6   29.30   10.10
  -3   2  -6   26.80   14.10
   3  -2   6   38.30   11.50
   3  -2   6   12.20    8.20
   3  -2   6   45.70   17.80
  -4   2  -6    5.50    8.10
  -4   2  -6  -20.40   17.00
   4  -2   6   -8.20   10.80
   4  -2   6   -5.90   11.10
   4  -2   6   10.70    8.90
  -5   2  -6  717.53   86.69
  -5   2  -6  712.93   50.19
   5  -2   6  821.72   58.99
   5  -2   6  749.53   80.39
   5  -2   6  847.82  107.59
  -6   2  -6  340.47   35.80
   6  -2   6  404.56   56.69
   6  -2   6  393.16   41.10
   6  -2   6  364.26   48.20
  -8  -1   6  100.19   17.60
   7   1  -6   59.49   23.10
   7   1  -6   51.89   14.00
   7   1  -6   79.09   13.60
  -7  -1   6   45.10   13.90
   6   1  -6  686.63   45.80
   6   1  -6  745.53   41.30
   6   1  -6  795.82   58.89
  -6  -1   6  741.13   45.30
   5   1  -6  250.47   22.60
   5   1  -6  219.88   18.50
   5   1  -6  259.87   31.80
   5   1  -6  210.58   27.00
  -5  -1   6  219.58   27.60
  -5  -1   6  194.18   19.30
   4   1  -6  163.28   15.70
   4   1  -6  167.48   22.60
   4   1  -6  162.48   17.80
   4   1  -6  163.18   25.80
  -4  -1   6  159.08   22.50
  -4  -1   6  156.88   15.50
   3   1  -6 1198.58   60.99
   3   1  -6 1243.28   57.89
  -3  -1   6 1208.48   68.39
   2   1  -6  309.77   23.10
   2   1  -6  360.36   23.50
   2   1  -6  353.06   24.60
   2   1  -6  355.06   23.80
  -2  -1   6  372.16   32.10
  -2  -1   6  353.36   22.60
   1   1  -6 1051.59   55.79
   1   1  -6 1056.89   51.99
   1   1  -6 1148.49   55.79
   1   1  -6 1027.50   50.49
  -1  -1   6 1043.40   52.39
  -1  -1   6 1108.79   54.69
   0   1  -6 1389.96   69.19
   0   1  -6 1379.26   72.19
   0  -1   6 1335.67   66.29
   0  -1   6 1389.66   68.89
  -1   1  -6  409.16   34.60
  -1   1  -6  477.85   37.70
  -1   1  -6  489.95   32.70
   1  -1   6  479.25   34.00
   1  -1   6  483.55   35.10
   1  -1   6  515.65   42.20
  -2   1  -6  280.87   25.20
  -2   1  -6  288.07   34.90
   2  -1   6  277.27   27.40
   2  -1   6  265.47   32.80
   2  -1   6  294.77   28.00
  -3   1  -6 1228.78   67.19
  -3   1  -6 1221.48   79.19
   3  -1   6 1323.47   73.89
   3  -1   6 1302.97   85.09
   3  -1   6 1262.57   72.89
  -4   1  -6  465.35   37.10
  -4   1  -6  547.25   53.99
  -4   1  -6  528.65   33.80
   4  -1   6  539.45   54.39
   4  -1   6  506.45   43.70
   4  -1   6  508.75   43.00
  -5   1  -6   64.19   13.10
  -5   1  -6   61.69   15.60
   5  -1   6   77.79   21.40
   5  -1   6  107.19   33.20
  -6   1  -6  524.55   38.40
  -6   1  -6  474.35   41.80
   6  -1   6  556.64   47.70
   6  -1   6  505.35   60.79
   6  -1   6  512.45   55.99
   8   0  -6  204.38   48.20
  -8   0   6  320.07   30.40
   7   0  -6  137.29   29.00
   7   0  -6  102.99   23.50
   7   0  -6  101.39   18.00
   7   0  -6   99.09   27.90
  -7   0   6  151.88   19.40
   6   0  -6  252.27   33.10
   6   0  -6  299.67   22.00
   6   0  -6  284.27   26.90
  -6   0   6  293.97   25.10
   5   0  -6  675.73   38.60
   5   0  -6  743.53   56.29
   5   0  -6  677.93   51.09
   5   0  -6  686.13   43.60
  -5   0   6  729.93   41.10
  -5   0   6  701.53   51.79
   4   0  -6  176.58   18.80
   4   0  -6  159.88   25.30
   4   0  -6  169.78   18.80
   4   0  -6  147.39   14.80
   4   0  -6  128.99   21.30
  -4   0   6  166.18   14.70
  -4   0   6  149.09   22.70
   3   0  -6  330.97   23.60
   3   0  -6  328.67   25.60
  -3   0   6  300.67   19.20
  -3   0   6  344.07   31.20
   2   0  -6 1068.59   57.09
   2   0  -6 1133.39   55.69
  -2   0   6 1203.98   67.19
   1   0  -6 1409.16   65.89
   1   0  -6 1433.66   72.99
   1   0  -6 1314.97   64.09
  -1   0   6 1387.96   67.79
  -1   0   6 1489.85   68.99
  -1   0   6 1491.65   64.89
   0   0  -6  275.27   27.90
   0   0  -6  300.87   24.10
   0   0   6  271.67   24.30
   0   0   6  287.57   25.00
  -1   0  -6 1652.53  101.79
  -1   0  -6 1736.53   94.89
   1   0   6 1809.22   88.69
   1   0   6 1830.32   89.79
   1   0   6 1853.31   91.99
  -2   0  -6  614.24   58.59
  -2   0  -6  692.53   65.59
   2   0   6  733.93   49.20
   2   0   6  719.83   49.20
   2   0   6  766.02   54.69
  -3   0  -6  127.99   29.80
  -3   0  -6  158.98   21.90
   3   0   6  165.68   22.80
   3   0   6  113.59   21.50
   3   0   6  182.28   27.30
  -4   0  -6  602.24   62.79
  -4   0  -6  657.53   38.70
  -4   0  -6  623.34   45.50
   4   0   6  679.43   51.49
   4   0   6  736.63   61.19
   4   0   6  659.33   53.49
  -5   0  -6   97.59   16.00
  -5   0  -6  141.59   23.50
   5   0   6   63.59   25.70
   5   0   6   76.49   19.70
   5   0   6   78.29   25.20
   8  -1  -6  254.67   41.60
  -8   1   6  293.57   29.70
   7  -1  -6  764.02   61.99
   7  -1  -6  712.33   50.19
   7  -1  -6  739.73   61.69
   7  -1  -6  830.62   65.79
  -7   1   6  791.42   49.00
   6  -1  -6   48.50   16.80
   6  -1  -6   49.99   11.00
   6  -1  -6   73.29   14.90
   6  -1  -6   74.49   21.90
  -6   1   6   44.40   10.90
   5  -1  -6  245.28   25.60
   5  -1  -6  279.67   30.70
   5  -1  -6  200.58   33.50
   5  -1  -6  297.77   21.90
  -5   1   6  248.38   29.60
  -5   1   6  250.47   21.30
   4  -1  -6 1237.08   61.59
   4  -1  -6 1337.87   67.89
   4  -1  -6 1358.46   81.49
   4  -1  -6 1339.47   63.39
  -4   1   6 1280.37   60.09
  -4   1   6 1329.67   74.79
   3  -1  -6  482.05   41.60
   3  -1  -6  467.65   32.00
  -3   1   6  495.55   38.80
  -3   1   6  442.36   30.90
   2  -1  -6  187.28   16.30
   2  -1  -6  191.88   18.30
   2  -1  -6  159.98   20.00
  -2   1   6  201.58   24.00
  -2   1   6  184.38   17.60
   1  -1  -6 1402.56   66.69
   1  -1  -6 1498.35   68.29
   1  -1  -6 1452.65   77.89
  -1   1   6 1519.25   71.49
  -1   1   6 1411.46   71.69
  -1   1   6 1170.38   70.99
   0  -1  -6  311.07   25.70
   0  -1  -6  338.17   34.10
   0   1   6  366.66   31.00
   0   1   6  272.47   27.50
  -1  -1  -6  151.38   19.90
  -1  -1  -6  143.69   26.10
   1   1   6  191.08   23.00
   1   1   6  159.88   23.40
  -2  -1  -6  908.61   71.49
  -2  -1  -6  757.02   49.60
   2   1   6  802.82   55.69
   2   1   6  819.12   56.99
   2   1   6  771.62   63.69
  -3  -1  -6   22.10    9.90
  -3  -1  -6   40.70   12.20
  -3  -1  -6   21.40   19.20
   3   1   6   22.80   12.70
   3   1   6   30.90   13.90
  -4  -1  -6   81.09   38.10
  -4  -1  -6   78.99   16.30
  -4  -1  -6   64.29   12.00
   4   1   6   50.19   19.80
   4   1   6   61.09   17.40
   4   1   6  102.49   23.50
  -5  -1  -6  298.37   25.20
  -5  -1  -6  250.37   30.90
   5   1   6  293.97   44.30
   5   1   6  196.98   33.90
   5   1   6  180.28   33.80
   8  -2  -6    1.20   15.70
  -8   2   6   24.70   11.20
   7  -2  -6    5.20   15.00
   7  -2  -6   34.10   23.20
   7  -2  -6   14.60   15.90
  -7   2   6   17.80    9.20
   6  -2  -6  623.34   35.30
   6  -2  -6  495.35   41.50
   6  -2  -6  573.54   49.00
   6  -2  -6  605.34   59.89
  -6   2   6  525.55   37.00
   5  -2  -6  848.82   57.39
   5  -2  -6  892.01   47.30
   5  -2  -6  853.01   52.79
   5  -2  -6  779.42   63.59
  -5   2   6  820.02   49.50
  -5   2   6  932.61   59.79
  -5   2   6  835.72   46.50
   4  -2  -6   90.69   16.40
   4  -2  -6  102.89   14.60
   4  -2  -6   63.19   17.60
  -4   2   6   93.09   18.60
  -4   2   6   87.19   14.20
   3  -2  -6 2436.36  126.59
   3  -2  -6 2358.96  112.49
  -3   2   6 2550.84  112.39
  -3   2   6 2859.81  123.99
   2  -2  -6  365.36   34.00
   2  -2  -6  326.77   24.60
   2  -2  -6  301.27   29.40
  -2   2   6  368.36   33.30
  -2   2   6  329.37   25.30
  -2   2   6  330.47   26.60
   1  -2  -6  394.36   29.50
   1  -2  -6  446.96   38.90
  -1   2   6  335.47   30.40
  -1   2   6  383.66   27.60
  -1   2   6  391.26   31.50
   0  -2  -6  540.35   48.50
   0  -2  -6  586.74   39.60
   0   2   6  539.45   42.00
   0   2   6  594.34   43.70
   0   2   6  593.74   34.70
  -1  -2  -6  224.88   26.00
  -1  -2  -6  319.97   39.80
   1   2   6  251.47   31.60
   1   2   6  297.87   31.40
  -2  -2  -6   24.40   14.70
  -2  -2  -6  -12.20   14.90
  -2  -2  -6   37.00   12.60
   2   2   6   47.60   15.50
   2   2   6   15.50   10.20
   2   2   6   36.00   14.00
  -3  -2  -6  773.52   52.39
  -3  -2  -6  746.93   48.80
  -3  -2  -6  695.43   70.79
   3   2   6  767.52   59.19
   3   2   6  779.02   61.09
   3   2   6  725.03   56.79
  -4  -2  -6  952.10   50.39
  -4  -2  -6  910.41   83.69
  -4  -2  -6  937.71   60.99
  -4  -2  -6  900.01   56.79
   4   2   6 1012.20   73.89
   4   2   6  909.21   68.09
   4   2   6  909.91   73.29
  -5  -2  -6   19.40   17.60
  -5  -2  -6    8.70   14.50
  -5  -2  -6   19.20    9.80
   5   2   6   10.20   16.90
   5   2   6   24.40   23.80
   5   2   6   24.20   16.40
   8  -3  -6  243.48   45.60
   7  -3  -6  373.56   46.20
   7  -3  -6  287.87   39.30
   6  -3  -6   73.29   18.10
  -6   3   6   90.79   17.20
   5  -3  -6  855.11   55.69
  -5   3   6  874.81   52.69
  -5   3   6  956.40   60.79
   4  -3  -6  369.66   40.30
  -4   3   6  484.25   38.10
  -4   3   6  375.46   31.20
   3  -3  -6  576.14   48.00
  -3   3   6  545.45   37.60
  -3   3   6  593.14   43.20
   2  -3  -6  616.84   49.10
   2  -3  -6  659.53   41.30
   2  -3  -6  698.03   50.99
  -2   3   6  595.04   52.59
  -2   3   6  705.83   48.20
  -2   3   6  583.24   42.10
  -2   3   6  648.14   41.50
   1  -3  -6  240.68   27.40
   1  -3  -6  233.28   32.30
   1  -3  -6  222.08   23.60
  -1   3   6  190.18   25.00
  -1   3   6  185.38   25.20
  -1   3   6  222.38   21.50
   0  -3  -6   15.30   17.40
   0  -3  -6   55.89   13.80
   0   3   6   58.59   16.10
   0   3   6   66.09   12.50
   0   3   6   26.00   14.30
  -1  -3  -6  874.51   54.39
  -1  -3  -6  847.12   71.79
  -1  -3  -6  888.41   57.59
   1   3   6  895.01   62.89
   1   3   6  895.31   62.99
  -2  -3  -6  661.83   48.00
  -2  -3  -6  598.04   44.50
  -2  -3  -6  562.54   65.09
   2   3   6  650.43   51.89
   2   3   6  582.74   54.89
  -3  -3  -6   62.79   18.90
  -3  -3  -6   74.49   32.10
  -3  -3  -6   71.09   19.10
   3   3   6   79.19   24.80
   3   3   6   75.89   20.50
  -4  -3  -6  439.16   75.09
  -4  -3  -6  455.05   42.70
   4   3   6  441.76   47.70
   4   3   6  396.46   47.10
   4   3   6  394.86   54.29
   7  -4  -6  643.84   58.19
  -6   4   6  159.28   23.20
  -5   4   6  176.58   24.20
  -5   4   6  126.79   20.60
   4  -4  -6  221.68   32.60
  -4   4   6  205.28   26.50
  -4   4   6  233.08   24.80
   3  -4  -6  397.06   40.50
   3  -4  -6  432.96   32.70
  -3   4   6  404.36   33.80
  -3   4   6  453.85   37.20
   2  -4  -6   -6.80    7.50
   2  -4  -6   -8.30   12.00
  -2   4   6    9.20    9.00
  -2   4   6   16.30    7.10
   1  -4  -6  749.82   60.69
   1  -4  -6  676.83   48.00
   1  -4  -6  751.52   52.39
  -1   4   6  676.43   44.30
  -1   4   6  656.83   50.59
  -1   4   6  624.74   50.39
   0  -4  -6  516.75   54.19
   0  -4  -6  574.44   44.90
   0  -4  -6  464.35   41.60
   0   4   6  572.74   48.10
   0   4   6  505.35   46.20
   0   4   6  528.15   37.50
  -1  -4  -6   15.90   11.50
  -1  -4  -6    8.00   28.70
  -1  -4  -6    9.70   12.40
   1   4   6   13.70   17.10
   1   4   6   -1.90    7.80
   1   4   6   -6.60    9.70
  -2  -4  -6  680.43   69.99
  -2  -4  -6  623.74   49.30
   2   4   6  574.44   54.09
   2   4   6  474.25   55.79
  -3  -4  -6  114.29   69.39
  -3  -4  -6  181.38   30.10
  -3  -4  -6  215.18   32.20
  -3  -4  -6  164.48   19.40
   3   4   6  219.58   36.60
   3   4   6  169.48   35.70
  -4  -4  -6   21.80   10.80
  -4  -4  -6   71.29   21.70
   4   4   6   -7.70   27.90
   4   4   6   27.20   16.70
  -7   5   6   61.19   16.70
  -6   5   6  459.55   39.10
   5  -5  -6   67.59   26.50
  -4   5   6    6.30    9.30
   3  -5  -6  382.76   44.70
   3  -5  -6  495.45   47.80
   3  -5  -6  570.44   40.90
  -3   5   6  494.85   38.40
  -3   5   6  547.45   40.00
   2  -5  -6 1083.19   65.39
   2  -5  -6  987.60   73.39
   2  -5  -6 1062.69   68.59
   2  -5  -6  951.00   61.89
  -2   5   6 1119.89   68.59
  -2   5   6 1101.49   62.59
  -2   5   6  944.21   59.79
   1  -5  -6    1.40   12.40
   1  -5  -6   12.80   10.30
  -1   5   6   16.30    9.10
  -1   5   6   28.40   15.00
  -1   5   6    3.10   12.30
   0  -5  -6 1346.17   80.99
   0  -5  -6 1187.28   93.99
   0   5   6 1340.87   72.09
   0   5   6 1355.36   88.19
   0   5   6 1403.66   86.19
  -1  -5  -6  319.77   56.39
  -1  -5  -6  315.47   35.10
  -1  -5  -6  260.37   36.20
   1   5   6  407.56   32.00
   1   5   6  363.26   41.60
  -2  -5  -6    4.30   30.70
  -2  -5  -6    8.60   13.60
   2   5   6    7.70   22.50
   2   5   6   22.10   17.00
  -3  -5  -6  156.68   30.00
  -3  -5  -6  159.98   23.10
  -3  -5  -6  128.39   47.80
   3   5   6  152.48   32.50
   3   5   6  205.38   40.00
   6  -6  -6  -11.80   21.40
  -6   6   6   -9.40   11.10
   5  -6  -6  380.86   38.50
  -5   6   6  395.26   38.40
   4  -6  -6  403.36   39.80
   4  -6  -6  480.15   51.19
  -4   6   6  445.76   39.30
   3  -6  -6   70.89   18.30
   3  -6  -6   90.29   24.90
   3  -6  -6   79.29   22.40
  -3   6   6   60.19   15.70
  -3   6   6   54.79   32.10
   2  -6  -6  456.65   47.00
   2  -6  -6  511.45   56.69
   2  -6  -6  560.44   55.29
   2  -6  -6  486.65   42.90
  -2   6   6  491.75   49.80
  -2   6   6  518.05   50.19
   1  -6  -6  167.48   30.70
   1  -6  -6  112.89   35.70
  -1   6   6  225.88   39.20
  -1   6   6  198.58   37.50
   0  -6  -6   27.20   26.60
   0   6   6   -1.60   12.00
   0   6   6  -10.90   22.90
  -1  -6  -6  161.48   24.60
  -1  -6  -6  207.08   47.60
   1   6   6  226.78   28.10
   1   6   6  237.48   41.70
  -2  -6  -6  249.48   66.09
  -2  -6  -6  134.89   24.00
  -2  -6  -6  198.88   41.40
   2   6   6  155.08   35.30
   4  -7  -6  402.06   46.00
  -4   7   6  432.86   40.00
   3  -7  -6  205.68   32.80
   3  -7  -6  257.57   46.10
  -3   7   6  226.18   41.40
  -3   7   6  197.68   28.30
   2  -7  -6    5.80   14.80
   2  -7  -6    6.40   22.00
  -2   7   6   14.10   12.80
  -2   7   6    7.50   21.00
   1  -7  -6   96.09   33.00
   1  -7  -6  115.99   26.20
  -1   7   6  109.89   21.90
  -1   7   6  140.19   32.00
   0  -7  -6  137.29   31.20
   0  -7  -6  141.59   43.50
   0   7   6  155.38   28.90
   0   7   6  112.09   32.30
   1   9  -7   -8.60   12.90
   1   9  -7  -31.00   17.80
  -1  -9   7   -3.70   19.80
   0   9  -7  329.37   52.29
   0   9  -7  289.47   46.60
   0  -9   7  430.66   43.50
   0  -9   7  359.66   50.79
   0  -9   7  394.16   83.09
   3   8  -7   28.10   14.50
   3   8  -7  -22.70   22.30
   3   8  -7   18.50   18.50
  -3  -8   7   83.39   24.70
   2   8  -7  722.73   46.70
   2   8  -7  533.35   50.39
  -2  -8   7  574.64   61.29
   1   8  -7  176.68   30.40
   1   8  -7  137.59   30.20
  -1  -8   7  131.89   24.60
  -1  -8   7  114.29   30.70
   0   8  -7   18.90   16.50
   0   8  -7    2.20   14.80
   0   8  -7   16.50   11.00
   0  -8   7   42.30   12.00
   0  -8   7   -9.00   13.20
   0  -8   7   13.10   14.20
   0  -8   7    0.00   27.80
  -1   8  -7  209.48   36.20
  -1   8  -7  253.47   24.40
  -1   8  -7  244.48   39.80
   1  -8   7  271.37   34.60
   1  -8   7  264.47   24.70
   1  -8   7  202.98   36.20
   1  -8   7  156.88   56.39
  -2   8  -7   84.09   24.00
   2  -8   7  114.29   40.50
   2  -8   7   78.29   34.50
  -3   8  -7   24.90   19.00
   3  -8   7  -24.20   16.00
   3  -8   7  -28.60   17.40
   3  -8   7    2.50   29.20
   5   7  -7   37.10   19.80
   5   7  -7   55.09   24.20
   5   7  -7   34.30   15.90
  -5  -7   7   18.30   18.80
  -5  -7   7   10.50   23.00
   4   7  -7  384.46   33.90
   4   7  -7  398.76   50.89
   4   7  -7  343.87   41.30
  -4  -7   7  273.37   48.70
  -4  -7   7  459.45   50.09
   3   7  -7  167.08   30.40
   3   7  -7  233.78   25.40
  -3  -7   7  194.08   33.00
   2   7  -7  123.49   19.20
   2   7  -7   99.09   39.40
   2   7  -7   62.99   18.60
   2   7  -7   78.59   21.60
  -2  -7   7  135.19   25.40
  -2  -7   7   78.59   17.20
  -2  -7   7   85.89   22.80
  -2  -7   7   90.39   20.50
   1   7  -7  619.04   54.89
   1   7  -7  494.65   44.50
   1   7  -7  603.94   40.10
   1   7  -7  456.15   74.99
  -1  -7   7  618.74   44.90
  -1  -7   7  617.84   41.60
  -1  -7   7  611.54   52.99
   0   7  -7   97.29   16.30
   0   7  -7   62.49   32.80
   0   7  -7   75.49   23.80
   0   7  -7  109.49   22.70
   0  -7   7   90.39   15.60
   0  -7   7   65.99   20.40
   0  -7   7   86.19   37.80
   0  -7   7   92.39   20.40
  -1   7  -7    3.50   28.60
  -1   7  -7   33.70   17.30
  -1   7  -7   68.89   13.00
  -1   7  -7   46.90   17.10
   1  -7   7   30.10   28.50
   1  -7   7   52.39   18.90
   1  -7   7   41.10   13.40
   1  -7   7   53.09   11.40
   1  -7   7   63.39   15.90
  -2   7  -7  564.64   49.10
  -2   7  -7  556.94   45.40
   2  -7   7  397.46   69.89
   2  -7   7  488.35   41.90
   2  -7   7  491.95   48.30
  -3   7  -7  316.67   40.60
   3  -7   7  325.87   37.30
   3  -7   7  343.47   45.40
   3  -7   7  261.37   63.19
  -4   7  -7   34.00   22.90
   4  -7   7   91.39   22.30
   4  -7   7   44.30   20.90
   4  -7   7   41.90   32.10
   5   6  -7  112.79   30.30
   5   6  -7  115.79   30.10
  -5  -6   7  148.59   30.00
  -5  -6   7  175.48   31.60
   4   6  -7    2.30    8.60
   4   6  -7   25.60   31.60
   4   6  -7   -1.40   12.60
  -4  -6   7    6.00   13.60
  -4  -6   7   -5.20   13.20
  -4  -6   7   -1.60   16.30
   3   6  -7  337.07   28.60
   3   6  -7  361.06   41.50
   3   6  -7  381.26   79.69
   3   6  -7  291.27   33.50
  -3  -6   7  413.26   35.30
  -3  -6   7  271.07   38.20
  -3  -6   7  354.26   42.70
  -3  -6   7  339.97   44.00
   2   6  -7  767.52   59.49
   2   6  -7  613.94   76.79
   2   6  -7  736.83   44.30
   2   6  -7  609.64   47.70
  -2  -6   7  719.33   48.50
  -2  -6   7  737.23   56.59
  -2  -6   7  749.92   43.90
  -2  -6   7  799.72   50.09
   1   6  -7   59.29   13.10
   1   6  -7   76.09   19.50
   1   6  -7   80.29   32.40
  -1  -6   7   42.30   12.80
  -1  -6   7   25.80   16.20
  -1  -6   7   12.50   27.30
  -1  -6   7   47.30   13.00
  -1  -6   7   55.19   12.90
   0   6  -7 1085.79   68.69
   0   6  -7  984.90   60.89
   0   6  -7  831.62   81.19
   0   6  -7 1009.60   52.39
   0  -6   7 1040.10   51.49
   0  -6   7  842.72   94.09
   0  -6   7 1093.79   61.19
   0  -6   7  976.70   58.99
   0  -6   7  866.81   64.09
  -1   6  -7  264.17   22.00
  -1   6  -7  335.87   33.90
  -1   6  -7  263.67   47.50
  -1   6  -7  328.37   32.40
   1  -6   7  256.67   22.10
   1  -6   7  272.87   29.60
   1  -6   7  294.67   53.79
   1  -6   7  278.37   33.10
  -2   6  -7   74.89   19.60
  -2   6  -7   63.89   27.10
   2  -6   7   80.69   20.90
   2  -6   7  126.39   39.90
  -3   6  -7  116.69   33.70
  -3   6  -7  276.57   34.50
  -3   6  -7  214.28   30.80
   3  -6   7  207.98   31.30
   3  -6   7  148.49   26.90
   3  -6   7  198.18   50.39
  -4   6  -7  214.88   37.80
   4  -6   7  270.37   46.30
   4  -6   7  198.38   49.60
   4  -6   7  244.28   34.60
   6   5  -7  -16.90   16.20
   6   5  -7   21.70   11.50
   6   5  -7   11.60   12.80
  -6  -5   7   19.00   12.80
   5   5  -7  380.16   34.70
   5   5  -7  372.46   44.10
   5   5  -7  213.58   35.20
   5   5  -7  320.07   66.89
  -5  -5   7  305.07   28.10
  -5  -5   7  285.17   33.60
  -5  -5   7  298.37   47.50
   4   5  -7  371.86   62.89
   4   5  -7  446.06   37.40
   4   5  -7  383.06   41.30
   4   5  -7  431.66   31.60
  -4  -5   7  410.26   41.00
   3   5  -7   10.00   10.20
   3   5  -7    7.70    7.70
   3   5  -7   19.10   25.00
   3   5  -7   12.50    8.80
  -3  -5   7   27.30   12.80
  -3  -5   7   13.20    9.70
  -3  -5   7    5.10   10.80
   2   5  -7  753.62   43.60
   2   5  -7  813.02   56.09
   2   5  -7  699.03   48.20
   2   5  -7  644.14   72.59
  -2  -5   7  768.62   46.90
  -2  -5   7  732.63   42.80
  -2  -5   7  841.52   52.29
  -2  -5   7  751.82   54.79
   1   5  -7 1138.19   67.09
   1   5  -7  912.91   83.59
   1   5  -7 1098.69   61.89
   1   5  -7  999.50   53.29
  -1  -5   7 1075.99   62.89
  -1  -5   7 1119.09   67.99
  -1  -5   7 1025.70   58.69
  -1  -5   7 1022.90   98.39
  -1  -5   7 1007.50   53.29
   0   5  -7   42.00    9.80
   0   5  -7   57.99   14.80
   0   5  -7   62.09   15.10
   0  -5   7   64.99   16.10
   0  -5   7   64.29   11.40
   0  -5   7   54.99   27.50
   0  -5   7   34.70   11.80
  -1   5  -7  575.04   43.30
  -1   5  -7  645.44   45.90
  -1   5  -7  605.14   33.70
  -1   5  -7  491.95   54.79
   1  -5   7  601.24   41.20
   1  -5   7  532.55   44.70
   1  -5   7  522.15   68.29
  -2   5  -7  942.71   60.29
  -2   5  -7  734.33   69.19
  -2   5  -7 1034.80   61.39
   2  -5   7  917.61   90.39
   2  -5   7  952.30   60.99
   2  -5   7  938.51   62.49
  -3   5  -7   87.49   28.00
  -3   5  -7  118.99   24.80
  -3   5  -7  119.79   23.50
   3  -5   7  170.68   34.40
   3  -5   7  132.89   24.30
   3  -5   7   58.49   30.80
  -4   5  -7  373.16   38.50
   4  -5   7  324.87   58.49
   4  -5   7  271.67   49.30
   4  -5   7  382.56   37.20
  -5   5  -7  491.35   45.80
   5  -5   7  491.25   47.10
   5  -5   7  431.76   69.59
   5  -5   7  512.55   48.70
   7   4  -7  136.49   21.80
  -7  -4   7  144.19   22.60
   6   4  -7  171.48   31.50
   6   4  -7  209.38   43.00
   6   4  -7  226.38   56.89
  -6  -4   7  263.27   31.30
  -6  -4   7  241.38   26.30
   5   4  -7  -11.50   11.70
   5   4  -7   18.00    9.10
   5   4  -7   -5.00   11.90
   5   4  -7   35.00   32.80
   5   4  -7    2.00    6.50
  -5  -4   7   10.90    8.90
   4   4  -7  869.41   54.89
   4   4  -7  787.22   59.49
   4   4  -7  943.21   63.49
   4   4  -7  800.92   83.49
   4   4  -7 1029.90   52.99
  -4  -4   7 1069.79   64.69
  -4  -4   7 1038.80   61.29
   3   4  -7  293.87   30.00
   3   4  -7  244.98   21.10
   3   4  -7  187.38   43.00
   3   4  -7  260.67   25.70
  -3  -4   7  245.08   22.70
  -3  -4   7  292.57   29.20
  -3  -4   7  294.77   23.10
  -3  -4   7  259.47   28.80
  -3  -4   7  185.88   26.30
   2   4  -7  102.69   17.80
   2   4  -7   65.39   25.00
   2   4  -7   81.59   11.80
   2   4  -7   98.39   15.60
  -2  -4   7   65.59   15.80
  -2  -4   7   87.09   13.00
  -2  -4   7   66.49   15.60
  -2  -4   7   66.99   13.30
   1   4  -7  621.04   61.49
   1   4  -7  755.22   49.10
   1   4  -7  742.23   46.70
   1   4  -7  735.33   40.40
  -1  -4   7  700.43   73.89
  -1  -4   7  770.72   50.79
  -1  -4   7  724.73   43.70
  -1  -4   7  762.92   41.40
  -1  -4   7  792.92   52.09
   0   4  -7  317.27   40.70
   0   4  -7  366.66   31.30
   0   4  -7  327.37   23.00
   0   4  -7  331.27   30.10
   0  -4   7  352.66   32.00
   0  -4   7  331.07   51.59
   0  -4   7  316.97   27.10
  -1   4  -7    3.30   10.20
  -1   4  -7   12.00    8.00
  -1   4  -7    5.10    5.20
  -1   4  -7   13.40   14.00
   1  -4   7    7.50   19.20
   1  -4   7   14.20    9.70
   1  -4   7   10.80    9.40
  -2   4  -7  425.76   47.60
  -2   4  -7  512.25   38.60
  -2   4  -7  526.75   42.30
   2  -4   7  480.35   40.40
   2  -4   7  472.95   38.50
   2  -4   7  400.76   57.39
  -3   4  -7  882.31   72.09
  -3   4  -7  761.62   58.89
  -3   4  -7  730.23   67.99
   3  -4   7  794.12   80.99
   3  -4   7  837.52   53.59
   3  -4   7  874.81   57.99
  -4   4  -7   34.90   22.80
  -4   4  -7    3.10   10.30
  -4   4  -7   15.10   19.40
   4  -4   7   14.20   10.90
   4  -4   7  -10.70   23.20
   4  -4   7    0.10   14.60
  -5   4  -7  777.82   52.99
   5  -4   7  678.33   55.19
   5  -4   7  636.94   77.59
   5  -4   7  706.53   57.69
   7   3  -7   10.50   10.00
  -7  -3   7    6.90    8.90
   6   3  -7  866.21   65.79
   6   3  -7  823.32   48.80
   6   3  -7  812.02   60.79
  -6  -3   7  858.51   54.39
   5   3  -7  768.92   44.50
   5   3  -7  700.33   80.19
   5   3  -7  758.62   58.29
   5   3  -7  719.03   55.29
  -5  -3   7  808.02   49.40
  -5  -3   7  836.02   59.29
  -5  -3   7  781.92   45.80
   4   3  -7   54.59   14.10
   4   3  -7   67.29   11.60
   4   3  -7   36.50   23.80
   4   3  -7   60.09   11.40
   4   3  -7   38.80   13.60
  -4  -3   7   45.70   10.70
  -4  -3   7   48.20   10.70
   3   3  -7  652.23   38.20
   3   3  -7  712.93   41.30
   3   3  -7  616.04   43.10
   3   3  -7  545.55   60.89
  -3  -3   7  688.53   38.00
  -3  -3   7  658.73   39.20
  -3  -3   7  690.63   48.50
  -3  -3   7  675.43   42.70
   2   3  -7  293.17   21.80
   2   3  -7  277.47   24.70
   2   3  -7  316.47   27.20
   2   3  -7  235.28   37.60
  -2  -3   7  355.16   32.20
  -2  -3   7  302.47   23.60
  -2  -3   7  319.37   28.10
   1   3  -7  147.69   17.80
   1   3  -7  107.09   24.00
   1   3  -7  138.99   14.10
   1   3  -7  145.49   18.80
  -1  -3   7   67.79   29.60
  -1  -3   7  129.49   17.90
  -1  -3   7  119.19   15.80
   0   3  -7  110.09   16.30
   0   3  -7  129.09   18.00
   0   3  -7  129.79   24.60
   0   3  -7  111.09   12.60
   0  -3   7  103.49   18.50
   0  -3   7   92.89   17.30
   0  -3   7   88.49   28.10
  -1   3  -7 1590.74   70.19
  -1   3  -7 1624.14   93.49
  -1   3  -7 1588.64   79.79
  -1   3  -7 1626.44   84.69
   1  -3   7 1402.46   69.29
   1  -3   7 1611.04  108.99
   1  -3   7 1684.73   87.19
   1  -3   7 1625.54   82.39
  -2   3  -7    3.40    6.70
  -2   3  -7    4.50   12.50
  -2   3  -7   14.80   13.30
   2  -3   7   -3.20    7.30
   2  -3   7  -11.50    7.20
  -3   3  -7  695.43   58.39
  -3   3  -7  534.65   50.39
  -3   3  -7  495.85   57.59
   3  -3   7  655.33   47.50
   3  -3   7  573.64   44.80
   3  -3   7  690.63   66.69
  -4   3  -7  235.38   27.40
  -4   3  -7  230.48   42.10
   4  -3   7  239.88   32.30
   4  -3   7  215.88   42.10
   4  -3   7  266.77   30.90
  -5   3  -7    4.40   11.70
   5  -3   7    8.50   17.60
   5  -3   7   25.70   21.90
   7   2  -7  480.45   34.80
   7   2  -7  496.55   50.89
  -7  -2   7  510.95   38.70
   6   2  -7   14.00   11.00
   6   2  -7   11.80    8.20
   6   2  -7   17.40   17.70
  -6  -2   7   20.60    8.90
   5   2  -7  468.15   34.90
   5   2  -7  470.05   45.70
   5   2  -7  476.15   32.10
  -5  -2   7  504.45   44.20
   4   2  -7  925.11   52.69
   4   2  -7  972.90   49.99
   4   2  -7  852.41   75.99
   4   2  -7 1041.80   64.89
  -4  -2   7  950.70   50.79
  -4  -2   7  994.50   63.49
   3   2  -7  172.48   16.90
   3   2  -7  169.18   30.00
   3   2  -7  211.28   19.90
   3   2  -7  158.58   17.90
   3   2  -7  169.58   17.10
  -3  -2   7  151.18   15.30
  -3  -2   7  175.38   23.30
  -3  -2   7  173.38   16.40
   2   2  -7 1068.79   59.49
   2   2  -7 1102.29   54.29
   2   2  -7 1101.49   70.49
   2   2  -7 1075.89   59.29
   2   2  -7 1088.79   57.09
  -2  -2   7 1184.08   68.29
  -2  -2   7 1163.28   59.19
  -2  -2   7 1078.89   53.79
   1   2  -7 2128.89   93.79
   1   2  -7 2273.57   99.19
   1   2  -7 2231.88   94.99
   1   2  -7 2211.78  109.99
   1   2  -7 2102.59  100.69
  -1  -2   7 2318.07  101.99
  -1  -2   7 2179.98   97.09
   0   2  -7   -0.80    7.40
   0   2  -7    5.80    5.70
   0   2  -7    2.30    4.40
   0   2  -7  -12.00    7.20
   0  -2   7   11.50   11.60
   0  -2   7   -5.70   12.40
   0  -2   7   -3.20    5.10
  -1   2  -7 1161.28   55.09
  -1   2  -7 1122.29   61.79
  -1   2  -7 1161.28   69.19
  -1   2  -7 1117.69   70.09
   1  -2   7 1172.78   65.69
   1  -2   7 1165.78   81.59
   1  -2   7 1157.68   63.39
  -2   2  -7  931.91   62.59
  -2   2  -7  921.41   63.99
  -2   2  -7  997.60   56.29
   2  -2   7 1109.49   77.89
   2  -2   7  979.40   57.79
   2  -2   7  950.70   59.39
   2  -2   7  780.52   43.60
  -3   2  -7    3.50    9.40
  -3   2  -7  -11.00   14.60
   3  -2   7   33.60   12.20
   3  -2   7   22.60   11.30
   3  -2   7   -3.80    9.80
   4  -2   7  211.68   29.80
   4  -2   7  232.18   37.40
   4  -2   7  225.38   33.60
  -5   2  -7  154.18   24.90
   5  -2   7  180.58   43.30
   5  -2   7  163.28   37.70
   5  -2   7  173.28   30.40
   8   1  -7    6.00    8.90
  -8  -1   7   14.10    9.00
   7   1  -7  145.89   18.00
   7   1  -7  134.99   25.40
   7   1  -7  134.79   34.80
  -7  -1   7  152.78   20.60
   6   1  -7  260.57   42.60
   6   1  -7  348.77   26.80
   6   1  -7  342.97   39.60
  -6  -1   7  408.56   29.50
   5   1  -7   69.19   14.40
   5   1  -7  117.79   14.10
   5   1  -7   95.59   25.60
  -5  -1   7   94.89   22.10
  -5  -1   7  109.29   14.10
   4   1  -7  690.83   42.80
   4   1  -7  707.93   55.99
   4   1  -7  712.73   40.00
  -4  -1   7  674.03   38.20
  -4  -1   7  721.63   51.49
   3   1  -7  802.12   43.10
   3   1  -7  775.62   44.80
  -3  -1   7  772.92   53.99
   2   1  -7    6.60    6.60
   2   1  -7    2.80    4.70
   2   1  -7   -7.90    3.90
   2   1  -7   -4.60    3.80
  -2  -1   7    0.00    7.50
  -2  -1   7    8.40    4.90
   1   1  -7 1872.31   90.09
   1   1  -7 1827.72   80.99
   1   1  -7 1881.91   84.39
  -1  -1   7 1832.12   84.89
  -1  -1   7 1822.92   86.19
   0   1  -7  741.23   48.90
   0   1  -7  669.63   41.70
   0  -1   7  715.93   45.20
  -1   1  -7   14.60   10.40
  -1   1  -7    6.70    5.80
   1  -1   7    5.90   14.50
   1  -1   7   11.20   11.00
   1  -1   7    3.00    6.90
  -2   1  -7  390.66   42.40
  -2   1  -7  428.36   33.40
   2  -1   7  459.85   45.80
   2  -1   7  454.55   37.30
   2  -1   7  286.37   50.69
  -3   1  -7  796.12   49.70
  -3   1  -7  795.32   62.29
   3  -1   7  796.12   54.99
   3  -1   7  783.72   64.89
   3  -1   7  579.34   74.29
  -4   1  -7  165.28   23.50
  -4   1  -7  262.57   47.70
   4  -1   7  178.08   27.30
   4  -1   7  160.78   30.00
   4  -1   7  222.08   37.30
  -5   1  -7  442.06   40.30
   5  -1   7  487.45   44.10
   5  -1   7  437.36   55.69
   5  -1   7  399.16   49.80
   8   0  -7  282.97   25.50
   8   0  -7  244.18   40.60
  -8   0   7  309.07   29.50
   7   0  -7   86.99   14.80
   7   0  -7   74.09   28.60
   7   0  -7   62.79   16.30
  -7   0   7   60.19   13.40
   6   0  -7  453.05   49.20
   6   0  -7  421.96   36.20
   6   0  -7  470.65   31.40
  -6   0   7  503.45   33.60
   5   0  -7 1102.79   54.59
   5   0  -7  955.10   65.89
   5   0  -7 1069.19   59.19
   5   0  -7  971.60   71.89
  -5   0   7 1017.40   53.09
  -5   0   7 1122.19   70.09
   4   0  -7   12.40   15.20
   4   0  -7   22.30    8.50
   4   0  -7   23.70    7.60
   4   0  -7    4.60   10.40
  -4   0   7   17.40    5.50
  -4   0   7   27.00   13.30
   3   0  -7 1271.67   64.39
   3   0  -7 1276.57   62.79
  -3   0   7 1275.67   75.09
   2   0  -7  743.93   45.90
   2   0  -7  794.12   40.10
   2   0  -7  710.33   48.60
  -2   0   7  600.24   42.30
  -2   0   7  741.83   41.60
  -2   0   7  788.02   53.99
   1   0  -7  114.99   15.40
   1   0  -7  117.89   20.10
   1   0  -7  123.29   14.40
  -1   0   7  142.79   17.30
  -1   0   7  120.89   13.50
  -1   0   7  109.99   17.10
   0   0  -7   82.59   13.70
   0   0  -7   70.99   17.20
   0   0   7  119.99   17.70
   0   0   7   65.79   13.90
  -1   0  -7 1063.69   58.59
  -1   0  -7 1020.10   68.39
   1   0   7 1015.80   61.89
   1   0   7 1023.70   61.69
  -2   0  -7  491.75   37.10
  -2   0  -7  454.05   47.30
   2   0   7  460.15   40.50
   2   0   7  421.36   38.90
   2   0   7  434.46   41.90
  -3   0  -7  210.38   38.20
  -3   0  -7  179.38   24.10
   3   0   7  221.58   29.60
   3   0   7  166.08   31.20
   3   0   7  208.68   31.10
  -4   0  -7  765.02   43.70
  -4   0  -7  741.03   75.09
  -4   0  -7  771.02   51.99
   4   0   7  750.32   61.89
   4   0   7  817.72   68.69
   4   0   7  795.22   58.69
  -5   0  -7   23.10    9.70
  -5   0  -7   37.80   14.10
   5   0   7    5.30   13.20
   5   0   7   23.50   18.20
   5   0   7   38.30   23.00
   8  -1  -7  446.76   50.09
  -8   1   7  487.45   38.40
   7  -1  -7  503.75   42.40
   7  -1  -7  429.56   57.39
   7  -1  -7  448.66   31.20
   7  -1  -7  460.35   80.49
  -7   1   7  489.55   36.10
   6  -1  -7   89.29   28.40
   6  -1  -7   72.69   12.50
   6  -1  -7   69.49   20.30
   6  -1  -7   42.70   18.00
  -6   1   7   69.49   18.60
  -6   1   7   85.79   14.50
   5  -1  -7  591.54   36.60
   5  -1  -7  511.05   51.19
   5  -1  -7  558.44   40.70
  -5   1   7  576.34   34.70
  -5   1   7  602.04   48.80
   4  -1  -7  465.25   45.70
   4  -1  -7  464.75   30.60
   4  -1  -7  481.65   35.10
  -4   1   7  501.45   28.30
  -4   1   7  540.05   43.00
   3  -1  -7   83.59   15.00
  -3   1   7   79.89   18.20
  -3   1   7   76.99   13.40
   2  -1  -7   75.59   11.40
   2  -1  -7   54.79   11.30
   2  -1  -7   38.50   13.00
  -2   1   7   49.70   15.40
  -2   1   7   74.89   14.20
  -2   1   7   76.59   12.00
  -2   1   7   89.49   13.30
   1  -1  -7 1149.48   59.09
   1  -1  -7 1111.29   69.49
   1  -1  -7 1161.08   63.69
  -1   1   7 1163.78   56.49
  -1   1   7 1099.89   60.99
  -1   1   7 1074.99   61.89
   0  -1  -7  196.48   30.10
   0  -1  -7  184.68   20.60
   0   1   7  203.18   24.20
   0   1   7  214.78   24.50
  -1  -1  -7  124.69   17.00
   1   1   7   78.99   18.50
   1   1   7  133.59   21.90
  -2  -1  -7  731.33   48.30
  -2  -1  -7  655.43   63.59
   2   1   7  701.43   52.89
   2   1   7  717.93   53.39
   2   1   7  643.54   53.59
  -3  -1  -7  110.69   20.60
  -3  -1  -7  111.49   28.60
  -3  -1  -7  118.69   21.10
   3   1   7  147.79   25.40
   3   1   7  102.09   24.10
   3   1   7   79.89   21.10
  -4  -1  -7   64.19   19.60
  -4  -1  -7  129.99   34.50
  -4  -1  -7   78.09   18.60
  -4  -1  -7   87.39   14.50
   4   1   7   63.59   24.80
   4   1   7  101.79   24.30
   4   1   7   62.39   19.20
  -5  -1  -7  410.26   40.80
  -5  -1  -7  520.65   33.70
   5   1   7  482.95   56.29
   5   1   7  389.06   46.40
   5   1   7  300.07   56.49
   8  -2  -7   20.60   17.70
  -8   2   7   10.30    9.10
   7  -2  -7  477.75   56.39
  -7   2   7  531.15   38.00
   6  -2  -7  305.37   35.10
   6  -2  -7  405.86   29.40
   6  -2  -7  325.07   45.00
   6  -2  -7  392.76   41.10
  -6   2   7  363.76   28.80
  -6   2   7  412.06   42.10
   5  -2  -7   30.50   13.10
  -5   2   7   44.80   11.10
  -5   2   7   24.70   12.50
   4  -2  -7   52.59   14.90
  -4   2   7   59.19   11.90
  -4   2   7   39.90   14.20
   3  -2  -7  947.01   65.19
   3  -2  -7  896.11   52.99
  -3   2   7  924.61   51.69
  -3   2   7  842.62   58.69
   2  -2  -7  384.56   37.00
   2  -2  -7  395.16   28.60
  -2   2   7  376.86   28.70
  -2   2   7  337.87   30.30
  -2   2   7  418.26   41.40
   1  -2  -7  754.02   45.90
   1  -2  -7  731.83   56.89
  -1   2   7  707.43   48.50
  -1   2   7  707.33   48.50
  -1   2   7  717.83   41.80
   0  -2  -7 1708.33   85.79
   0  -2  -7 1623.14   99.69
   0   2   7 1639.64   90.79
   0   2   7 1764.92   78.89
   0   2   7 1689.73   90.79
  -1  -2  -7   -4.60   15.70
  -1  -2  -7    3.70    7.00
   1   2   7    2.40   10.40
  -2  -2  -7  978.70   60.69
  -2  -2  -7  942.81   58.79
  -2  -2  -7  921.21   78.19
   2   2   7 1011.10   66.79
   2   2   7  984.60   64.89
   2   2   7  933.01   67.89
  -3  -2  -7  324.37   33.70
  -3  -2  -7  431.06   58.49
  -3  -2  -7  261.67   33.60
   3   2   7  320.77   38.50
   3   2   7  310.27   44.30
   3   2   7  274.47   38.00
  -4  -2  -7   63.69   21.60
  -4  -2  -7   84.29   56.99
  -4  -2  -7   49.90   16.30
   4   2   7   40.70   18.40
   4   2   7   27.30   16.70
   4   2   7   19.30   25.10
   7  -3  -7  132.59   18.30
   7  -3  -7   99.89   25.10
   6  -3  -7  173.68   19.30
   6  -3  -7  155.18   30.70
  -6   3   7  172.48   22.30
  -5   3   7  736.03   54.49
  -5   3   7  675.33   46.50
   4  -3  -7  294.77   48.30
  -4   3   7  379.56   36.40
  -4   3   7  327.67   29.40
   3  -3  -7  672.83   56.09
  -3   3   7  741.43   53.09
  -3   3   7  770.42   46.80
   2  -3  -7 1662.53   81.09
   2  -3  -7 1654.93   95.29
   2  -3  -7 1612.44   92.29
  -2   3   7 1536.65   78.99
   1  -3  -7   13.20   13.90
   1  -3  -7    8.60   16.20
   1  -3  -7    0.10    7.70
  -1   3   7    6.30    9.00
  -1   3   7   -2.90    6.70
  -1   3   7   29.10   11.40
   0  -3  -7  594.74   56.59
   0  -3  -7  597.64   44.70
   0   3   7  591.74   47.80
   0   3   7  552.74   48.60
  -1  -3  -7  379.46   34.20
  -1  -3  -7  299.97   66.49
  -1  -3  -7  373.66   35.80
   1   3   7  302.07   40.00
   1   3   7  372.16   38.90
  -2  -3  -7  291.37   47.50
  -2  -3  -7  289.87   32.20
  -2  -3  -7  359.06   56.79
   2   3   7  241.78   35.60
   2   3   7  201.98   39.00
  -3  -3  -7   43.00   16.70
  -3  -3  -7   38.60   24.90
  -3  -3  -7   27.70   46.00
   3   3   7   69.89   18.90
   3   3   7   31.50   18.80
   3   3   7   -7.30   23.60
  -4  -3  -7  395.66   42.70
  -4  -3  -7  312.57   51.49
   4   3   7  385.56   47.60
   4   3   7  427.06   55.89
   4   3   7  348.37   58.19
  -6   4   7  276.77   29.50
  -5   4   7  511.65   41.80
  -5   4   7  604.64   47.70
   4  -4  -7  859.61   81.89
  -4   4   7  904.41   56.69
  -4   4   7 1038.80   63.19
   3  -4  -7    1.80   13.40
   3  -4  -7    7.30    9.30
   3  -4  -7   31.30   18.80
  -3   4   7    8.20   11.30
  -3   4   7   23.50    8.50
   2  -4  -7  109.49   19.90
   2  -4  -7  112.49   26.30
   2  -4  -7  102.99   24.70
  -2   4   7   72.59   18.50
  -2   4   7   81.69   20.20
  -2   4   7   72.79   15.20
   1  -4  -7  555.64   43.50
   1  -4  -7  509.35   46.60
   1  -4  -7  498.75   55.69
  -1   4   7  659.53   49.50
  -1   4   7  565.24   48.50
  -1   4   7  532.55   38.20
   0  -4  -7  303.07   48.30
   0  -4  -7  298.17   32.20
   0  -4  -7  361.26   36.80
   0   4   7  279.07   35.70
   0   4   7  289.97   27.30
  -1  -4  -7   22.40   27.80
  -1  -4  -7  -17.00   10.80
   1   4   7  -15.40   16.10
   1   4   7   23.20    9.60
  -2  -4  -7  518.95   45.50
  -2  -4  -7  451.85   68.59
  -2  -4  -7  482.95   47.60
   2   4   7  468.05   49.40
  -3  -4  -7  182.68   50.29
  -3  -4  -7  195.78   31.80
   3   4   7  128.09   27.80
   3   4   7  128.89   37.50
  -6   5   7  507.25   43.40
  -5   5   7   83.59   19.70
  -5   5   7   71.69   16.10
   4  -5  -7  133.19   35.00
  -4   5   7  196.48   27.20
  -4   5   7  157.78   23.70
   3  -5  -7  648.94   54.49
   3  -5  -7  465.65   53.59
  -3   5   7  609.54   45.50
  -3   5   7  602.44   46.60
   2  -5  -7  139.99   24.00
   2  -5  -7   82.99   25.50
   2  -5  -7  146.59   28.20
  -2   5   7   66.99   17.30
  -2   5   7   94.49   18.50
  -2   5   7   98.59   22.00
   1  -5  -7   41.40   22.70
   1  -5  -7    9.90   11.90
   1  -5  -7    7.00   17.50
  -1   5   7  -21.70   17.10
  -1   5   7   -1.10   13.70
  -1   5   7    0.00    9.00
   0  -5  -7  485.85   64.69
   0  -5  -7  645.64   50.89
   0  -5  -7  599.74   48.70
   0   5   7  610.74   54.09
   0   5   7  575.44   58.49
   0   5   7  565.54   42.10
  -1  -5  -7  178.18   47.10
  -1  -5  -7  218.68   34.60
   1   5   7  238.98   43.00
   1   5   7  226.28   25.70
   1   5   7  208.78   37.90
  -2  -5  -7   98.09   28.40
   2   5   7  192.78   36.80
  -5   6   7  197.18   28.80
  -4   6   7  147.49   24.40
  -4   6   7  131.09   24.20
   3  -6  -7   47.20   16.50
   3  -6  -7  109.19   34.40
  -3   6   7   26.80   12.40
  -3   6   7   55.19   36.50
  -3   6   7   45.50   14.00
   2  -6  -7  480.35   44.00
   2  -6  -7  409.96   56.79
   2  -6  -7  471.35   50.59
  -2   6   7  455.95   39.10
  -2   6   7  364.46   37.70
  -2   6   7  515.05   51.19
   1  -6  -7   67.89   31.20
   1  -6  -7  110.29   28.10
   1  -6  -7   99.99   22.60
  -1   6   7  129.39   27.40
  -1   6   7  119.89   23.40
   0  -6  -7  132.49   26.80
   0  -6  -7   46.30   39.50
   0   6   7  115.89   29.20
   0   6   7  105.29   20.00
  -1  -6  -7  370.86   44.60
   1   6   7  399.36   40.30
   1   6   7  327.97   48.80
   3  -7  -7   66.89   22.80
   3  -7  -7   24.80   25.10
  -3   7   7  101.19   29.60
  -3   7   7   62.99   16.60
   2  -7  -7   43.00   38.60
   2  -7  -7   37.30   19.30
  -2   7   7   52.99   16.50
  -2   7   7   48.20   25.60
   3   8  -8   24.80   12.50
   3   8  -8  -18.60   17.50
  -3  -8   8  -31.20   23.00
   2   8  -8  492.45   49.30
   2   8  -8  652.43   44.00
   2   8  -8  448.76   58.29
  -2  -8   8  597.64   61.79
   1   8  -8  114.39   31.10
   1   8  -8  192.08   33.60
   1   8  -8  159.98   23.40
  -1  -8   8  141.89   30.50
  -1  -8   8  109.59   24.90
   0   8  -8   89.19   23.80
   0   8  -8  108.99   24.50
   0  -8   8  117.19   24.30
   0  -8   8  110.09   18.50
   0  -8   8  120.09   27.40
   0  -8   8  107.59   46.90
  -1   8  -8  375.66   45.40
  -1   8  -8  300.47   44.80
  -1   8  -8  326.47   29.20
   1  -8   8  414.56   45.70
   1  -8   8  316.07   29.70
   1  -8   8  368.76   73.49
   1  -8   8  332.37   46.40
  -2   8  -8   99.59   24.60
   2  -8   8   54.19   20.50
   2  -8   8    8.10   30.30
   4   7  -8  462.25   36.40
   4   7  -8  307.07   48.40
   4   7  -8  385.06   40.90
  -4  -7   8  324.57   47.90
  -4  -7   8  450.95   52.09
   3   7  -8   48.80   22.30
   3   7  -8   75.09   16.40
   3   7  -8   74.99   19.70
  -3  -7   8   30.80   20.70
   2   7  -8  118.49   47.90
   2   7  -8  140.99   20.50
   2   7  -8  123.79   24.00
   2   7  -8  106.09   26.50
  -2  -7   8  105.09   19.40
  -2  -7   8   92.49   25.20
  -2  -7   8  113.79   20.80
  -2  -7   8  149.49   24.70
   1   7  -8  354.76   68.99
   1   7  -8  366.66   29.60
   1   7  -8  316.97   36.20
   1   7  -8  313.77   41.20
  -1  -7   8  374.66   43.40
  -1  -7   8  255.67   78.59
  -1  -7   8  351.96   28.90
  -1  -7   8  381.86   34.70
   0   7  -8   44.70   16.90
   0   7  -8   40.90   18.50
   0   7  -8   54.99   12.90
   0   7  -8   12.50   32.80
   0  -7   8   60.59   19.30
   0  -7   8   36.30   14.30
   0  -7   8   58.99   17.20
  -1   7  -8  111.39   18.00
  -1   7  -8  130.99   27.40
  -1   7  -8  123.59   23.80
   1  -7   8   99.69   40.50
   1  -7   8   93.59   16.10
   1  -7   8  171.98   26.70
   1  -7   8   80.19   23.80
   1  -7   8  108.69   25.20
  -2   7  -8  285.47   38.30
  -2   7  -8  220.18   34.60
   2  -7   8  288.77   60.29
   2  -7   8  210.18   32.70
   2  -7   8  194.38   33.60
  -3   7  -8  264.77   38.90
   3  -7   8  218.78   35.60
   3  -7   8  172.88   51.69
   3  -7   8  208.08   35.50
   5   6  -8   54.99   14.50
   5   6  -8   72.89   18.20
   5   6  -8   41.30   20.30
  -5  -6   8   40.10   22.10
  -5  -6   8   64.79   19.70
   4   6  -8  458.95   34.60
   4   6  -8  327.97   36.10
   4   6  -8  341.57   68.39
  -4  -6   8  383.56   47.90
   3   6  -8  148.19   64.99
   3   6  -8  312.57   30.90
   3   6  -8  225.08   29.20
   3   6  -8  264.17   35.40
  -3  -6   8  234.58   31.00
  -3  -6   8  243.38   37.80
  -3  -6   8  237.38   28.90
  -3  -6   8  235.48   36.10
  -3  -6   8  210.58   34.70
   2   6  -8   18.50   14.30
   2   6  -8  -33.30   23.40
   2   6  -8  -14.10   10.10
   2   6  -8   -6.30    7.00
  -2  -6   8   24.80   13.70
  -2  -6   8    8.20   13.80
  -2  -6   8   -6.60    9.60
  -2  -6   8   22.50   11.70
   1   6  -8  107.49   15.40
   1   6  -8   75.29   33.10
   1   6  -8   64.19   19.80
   1   6  -8   89.99   32.50
  -1  -6   8   99.19   21.00
  -1  -6   8   59.69   13.00
  -1  -6   8   67.99   19.30
  -1  -6   8   42.90   29.90
  -1  -6   8   87.99   17.20
   0   6  -8  300.37   34.90
   0   6  -8  249.97   52.09
   0   6  -8  375.56   27.70
   0   6  -8  369.66   37.00
   0  -6   8  331.57   32.20
   0  -6   8  429.56   37.50
   0  -6   8  310.07   36.20
   0  -6   8  366.36   64.59
   0  -6   8  316.77   26.50
  -1   6  -8  457.55   41.20
  -1   6  -8  448.96   41.30
  -1   6  -8  419.66   28.70
   1  -6   8  322.27   65.49
   1  -6   8  427.16   37.30
   1  -6   8  339.27   39.50
  -2   6  -8   92.79   28.40
  -2   6  -8  119.29   23.30
   2  -6   8   65.59   40.00
   2  -6   8   84.89   18.70
   2  -6   8   90.59   21.60
  -3   6  -8  608.44   52.09
  -3   6  -8  580.64   60.39
   3  -6   8  628.44   48.90
   3  -6   8  593.24   59.69
   3  -6   8  508.65   76.99
  -4   6  -8   52.89   22.30
   4  -6   8   72.89   23.00
   4  -6   8   55.29   34.00
   4  -6   8   44.90   21.30
   6   5  -8  142.79   21.70
   6   5  -8  144.59   25.40
  -6  -5   8  118.99   23.60
   5   5  -8  427.76   80.09
   5   5  -8  533.35   36.80
   5   5  -8  401.46   45.30
   5   5  -8  436.76   63.49
  -5  -5   8  391.06   45.50
  -5  -5   8  402.06   42.10
   4   5  -8  332.57   65.69
   4   5  -8  335.67   27.80
   4   5  -8  292.07   36.60
   4   5  -8  342.17   32.20
  -4  -5   8  310.37   35.70
  -4  -5   8  270.07   33.60
   3   5  -8    9.00    8.90
   3   5  -8   68.89   18.70
   3   5  -8   78.89   28.30
   3   5  -8   36.00   14.10
  -3  -5   8   20.10   12.30
  -3  -5   8   31.20   14.90
  -3  -5   8   32.20   12.20
   2   5  -8 1848.22   98.89
   2   5  -8 1539.95  117.89
   2   5  -8 1795.32   83.89
   2   5  -8 1807.72   90.69
  -2  -5   8 1768.82   84.09
  -2  -5   8 1905.31   99.39
  -2  -5   8 1784.12   86.99
  -2  -5   8 1867.71   95.49
   1   5  -8  951.90   50.49
   1   5  -8  915.71   57.99
   1   5  -8  952.50   60.99
   1   5  -8  794.72   75.59
  -1  -5   8  965.20   63.49
  -1  -5   8  994.90   61.89
  -1  -5   8  887.41   49.99
  -1  -5   8  977.10   96.89
  -1  -5   8  941.21   54.79
   0   5  -8  239.38   21.00
   0   5  -8  187.98   31.00
   0   5  -8  285.07   30.70
   0   5  -8  199.58   38.10
   0  -5   8  264.47   30.60
   0  -5   8  261.57   26.90
   0  -5   8  215.38   50.39
  -1   5  -8 1413.86   78.39
  -1   5  -8 1390.56   63.79
  -1   5  -8 1203.58   89.99
  -1   5  -8 1429.06   78.59
   1  -5   8 1342.97   79.69
   1  -5   8 1213.58  110.49
   1  -5   8 1391.96   73.69
  -2   5  -8   81.09   21.40
  -2   5  -8  104.19   29.70
  -2   5  -8  108.99   21.20
   2  -5   8   77.09   31.60
   2  -5   8  104.69   22.00
   2  -5   8  130.99   21.70
  -3   5  -8   25.40   21.50
  -3   5  -8   83.39   31.00
  -3   5  -8   66.19   17.40
   3  -5   8   47.90   16.70
   3  -5   8   49.99   46.50
  -4   5  -8  185.48   30.40
   4  -5   8  274.47   36.60
   4  -5   8  277.17   57.99
   4  -5   8  258.57   37.10
   7   4  -8  267.97   28.80
  -7  -4   8  271.27   29.90
   6   4  -8   34.70   23.20
   6   4  -8   47.50   13.20
   6   4  -8   33.10   41.40
  -6  -4   8   37.60   13.00
   5   4  -8   12.60    7.90
   5   4  -8    0.60   17.10
   5   4  -8   11.60   28.90
   5   4  -8   -5.10    8.30
  -5  -4   8    9.10    9.80
  -5  -4   8   -1.60   10.90
  -5  -4   8  -10.60    9.70
   4   4  -8  655.33   46.80
   4   4  -8  688.73   77.59
   4   4  -8  610.24   50.39
   4   4  -8  814.82   45.00
  -4  -4   8  811.92   51.39
  -4  -4   8  831.32   56.99
   3   4  -8  513.75   37.30
   3   4  -8  558.94   34.50
   3   4  -8  429.36   39.30
   3   4  -8  365.66   55.99
  -3  -4   8  494.25   39.90
  -3  -4   8  562.44   43.80
   2   4  -8  184.68   19.00
   2   4  -8  233.18   25.50
   2   4  -8  171.68   22.30
   2   4  -8  223.88   41.50
  -2  -4   8  203.98   20.80
  -2  -4   8  216.48   26.20
  -2  -4   8  221.88   27.80
   1   4  -8  798.22   67.79
   1   4  -8  901.91   55.79
   1   4  -8  835.42   46.20
   1   4  -8  842.12   53.39
  -1  -4   8  931.81   60.99
  -1  -4   8  888.11   50.89
  -1  -4   8  922.91   57.69
  -1  -4   8  893.31   84.99
   0   4  -8  136.89   22.40
   0   4  -8  137.69   30.30
   0   4  -8  136.29   14.80
   0   4  -8  123.79   21.00
   0  -4   8  153.18   20.90
   0  -4   8  183.98   23.20
   0  -4   8  120.69   36.90
  -1   4  -8  102.39   19.40
  -1   4  -8  104.59   18.90
  -1   4  -8   71.99   22.70
  -1   4  -8   98.49   12.40
   1  -4   8   34.60   25.20
   1  -4   8   84.09   18.60
   1  -4   8   60.09   14.90
  -2   4  -8  504.45   39.60
  -2   4  -8  437.36   44.40
  -2   4  -8  464.05   51.69
   2  -4   8  568.54   40.80
   2  -4   8  400.96   58.49
   2  -4   8  516.15   43.60
  -3   4  -8  240.68   47.20
  -3   4  -8  213.28   28.10
  -3   4  -8  242.88   39.00
   3  -4   8  250.57   31.10
   3  -4   8  181.98   29.80
   3  -4   8  177.38   46.60
  -4   4  -8    7.30   12.60
   4  -4   8  -10.80   21.60
   4  -4   8   12.60   15.40
   7   3  -8   53.99   28.30
   7   3  -8   30.10   12.40
  -7  -3   8    7.20   10.20
   6   3  -8  305.67   28.40
   6   3  -8  327.87   45.00
   6   3  -8  332.57   55.69
  -6  -3   8  317.37   29.40
   5   3  -8  287.77   24.50
   5   3  -8  222.38   47.60
   5   3  -8  230.68   37.40
  -5  -3   8  314.57   36.60
  -5  -3   8  269.57   25.90
   4   3  -8   37.50    9.70
   4   3  -8   21.50    8.40
   4   3  -8   35.20   12.80
   4   3  -8   37.40   24.40
  -4  -3   8   32.90   10.40
  -4  -3   8   34.20   12.80
   3   3  -8  534.75   38.90
   3   3  -8  528.35   63.29
   3   3  -8  570.34   44.10
   3   3  -8  543.15   34.10
  -3  -3   8  551.04   44.40
  -3  -3   8  480.15   34.90
  -3  -3   8  575.44   36.00
   2   3  -8  236.98   20.70
   2   3  -8  267.57   25.10
   2   3  -8  185.18   34.60
   2   3  -8  215.08   24.00
  -2  -3   8  243.68   29.70
  -2  -3   8  207.38   22.90
  -2  -3   8  259.57   25.80
  -2  -3   8  256.87   21.90
   1   3  -8  150.08   22.50
   1   3  -8  182.98   31.60
   1   3  -8  209.18   22.60
   1   3  -8  220.78   18.70
  -1  -3   8  197.68   23.30
  -1  -3   8  150.98   38.30
  -1  -3   8  189.48   20.20
   0   3  -8   95.69   16.20
   0   3  -8  105.39   19.30
   0   3  -8   87.69   12.40
   0  -3   8   60.79   25.50
   0  -3   8   69.59   13.80
   0  -3   8   94.99   17.50
  -1   3  -8  392.76   40.60
  -1   3  -8  385.46   26.00
  -1   3  -8  420.96   33.40
  -1   3  -8  446.56   53.89
   1  -3   8  317.47   49.20
   1  -3   8  410.36   35.80
   1  -3   8  382.66   32.50
  -2   3  -8   25.20   11.10
  -2   3  -8   40.60   17.80
  -2   3  -8   41.30   17.30
   2  -3   8   28.40   11.50
   2  -3   8   42.70   24.40
  -3   3  -8  688.03   61.19
  -3   3  -8  827.82   67.29
  -3   3  -8  799.92   53.29
   3  -3   8  814.92   55.49
   3  -3   8  853.71   78.39
   3  -3   8  710.53   54.19
  -4   3  -8  571.14   45.70
  -4   3  -8  550.04   64.79
   4  -3   8  634.94   59.49
   4  -3   8  570.24   50.19
   4  -3   8  441.56   84.09
  -5   3  -8   25.70   15.00
   5  -3   8    5.20   15.20
   5  -3   8   31.00   29.30
   5  -3   8   44.80   24.30
   7   2  -8  328.47   77.99
  -7  -2   8  341.67   30.80
   6   2  -8  135.89   31.90
   6   2  -8  155.78   19.00
   6   2  -8  177.18   23.60
  -6  -2   8  186.18   21.20
   5   2  -8 1294.67   63.59
   5   2  -8 1121.49   81.19
  -5  -2   8 1195.18   62.99
  -5  -2   8 1343.67   80.59
   4   2  -8  211.18   19.90
  -4  -2   8  223.88   19.40
  -4  -2   8  178.78   27.60
   3   2  -8  236.08   22.20
   3   2  -8  225.38   20.70
   3   2  -8  243.58   22.80
   3   2  -8  231.28   22.90
  -3  -2   8  235.28   30.40
  -3  -2   8  236.88   19.90
   2   2  -8  742.13   43.80
   2   2  -8  743.63   45.80
   2   2  -8  706.43   41.50
   2   2  -8  783.22   42.20
  -2  -2   8  795.12   46.20
  -2  -2   8  710.93   41.40
  -2  -2   8  648.24   52.09
   1   2  -8  804.72   52.69
   1   2  -8  931.11   51.39
   1   2  -8  834.72   46.40
   1   2  -8  888.81   47.00
  -1  -2   8  912.11   52.99
  -1  -2   8  903.01   49.99
   0   2  -8   -4.70    8.60
   0   2  -8   -9.70    9.70
   0   2  -8   -3.90    4.90
   0   2  -8    1.40    4.90
   0  -2   8   -2.50   15.70
   0  -2   8   -2.30    5.70
   0  -2   8  -12.20    6.30
  -1   2  -8  930.31   47.60
  -1   2  -8  858.21   53.69
  -1   2  -8  871.61   60.99
  -1   2  -8  826.92   69.39
   1  -2   8  896.61   55.19
   1  -2   8  960.90   76.29
   1  -2   8  934.51   57.99
  -2   2  -8  808.92   52.79
  -2   2  -8  859.41   44.70
  -2   2  -8  829.12   62.69
   2  -2   8  867.21   56.49
   2  -2   8  869.41   72.19
   2  -2   8  886.41   58.39
  -3   2  -8   17.20   11.70
  -3   2  -8  -15.20   17.60
   3  -2   8    7.60   15.10
   3  -2   8    4.70   10.40
   3  -2   8   37.40   14.60
  -4   2  -8  533.95   43.00
  -4   2  -8  446.06   60.09
   4  -2   8  525.65   47.80
   4  -2   8  531.65   61.49
   4  -2   8  601.54   52.29
  -5   2  -8  169.68   29.30
   5  -2   8  128.09   26.90
   5  -2   8  185.38   45.40
   7   1  -8  381.16   56.39
   7   1  -8  409.36   31.40
  -7  -1   8  459.95   35.20
   6   1  -8  176.38   36.80
   6   1  -8  119.59   22.00
   6   1  -8  119.19   16.20
  -6  -1   8  134.29   17.80
  -6  -1   8  107.29   23.60
   5   1  -8    7.60    6.30
   5   1  -8    8.10   18.90
  -5  -1   8    6.20   10.70
  -5  -1   8   16.50    7.60
   4   1  -8  852.41   49.30
   4   1  -8  780.62   44.50
  -4  -1   8  759.42   40.50
  -4  -1   8  736.03   55.69
   3   1  -8  477.65   33.20
   3   1  -8  495.75   32.80
   3   1  -8  473.95   33.40
  -3  -1   8  490.75   43.30
   2   1  -8   30.30    8.90
   2   1  -8   44.60    9.80
   2   1  -8   26.90    8.30
  -2  -1   8   20.20    7.40
  -2  -1   8   28.10   12.80
   1   1  -8 1677.13   79.99
   1   1  -8 1696.73   87.89
  -1  -1   8 1614.44   80.69
  -1  -1   8 1702.83   82.59
   0   1  -8  775.22   53.69
   0   1  -8  704.63   44.80
   0  -1   8  711.53   47.20
   0  -1   8  750.72   48.30
  -1   1  -8  227.68   23.60
  -1   1  -8  163.28   30.10
   1  -1   8  144.89   30.80
   1  -1   8  204.48   26.20
   1  -1   8  181.68   30.70
  -2   1  -8 1122.89   62.39
  -2   1  -8 1133.79   77.29
   2  -1   8 1022.10   65.69
   2  -1   8  976.80   74.19
   2  -1   8 1036.50   66.29
  -3   1  -8  141.79   27.20
  -3   1  -8  134.49   20.80
   3  -1   8   81.09   21.40
   3  -1   8  100.69   27.30
   3  -1   8   96.59   20.90
  -4   1  -8    3.80   11.20
   4  -1   8   20.40   19.10
   4  -1   8    8.50   17.80
   4  -1   8    6.10   12.00
   7   0  -8   -9.20   12.10
   7   0  -8    3.40    8.40
   7   0  -8   63.99   28.20
  -7   0   8    9.00    7.80
   6   0  -8  565.34   36.60
   6   0  -8  548.75   41.80
   6   0  -8  556.14   51.99
  -6   0   8  562.44   36.60
  -6   0   8  584.04   51.09
   5   0  -8  613.94   56.69
   5   0  -8  706.23   41.00
  -5   0   8  645.84   37.30
  -5   0   8  648.64   52.89
   4   0  -8  -17.70   11.50
   4   0  -8   14.70    7.90
   4   0  -8    0.40    6.30
  -4   0   8   -2.00    7.80
   3   0  -8  979.50   52.19
   3   0  -8  996.10   53.79
  -3   0   8  852.41   62.09
   2   0  -8 1065.69   62.09
   2   0  -8 1056.29   53.79
   2   0  -8 1019.70   54.79
  -2   0   8  979.80   68.99
  -2   0   8 1059.59   56.59
   1   0  -8   30.00   12.60
   1   0  -8   70.19   12.80
   1   0  -8   52.89   10.80
  -1   0   8   35.10   11.20
   0   0  -8  736.93   45.40
   0   0  -8  732.73   55.39
   0   0   8  723.63   47.80
   0   0   8  651.83   48.00
  -1   0  -8  288.97   38.80
  -1   0  -8  317.27   29.20
   1   0   8  261.87   44.70
   1   0   8  343.07   33.90
  -2   0  -8   66.79   22.40
   2   0   8   23.80   15.00
   2   0   8   33.20   12.10
   2   0   8   38.20   15.00
  -3   0  -8  181.88   38.80
  -3   0  -8  238.38   27.60
   3   0   8  260.27   32.10
   3   0   8  208.58   34.40
   3   0   8  229.98   35.40
  -4   0  -8  326.27   34.40
  -4   0  -8  284.27   72.59
   4   0   8  369.46   43.80
   4   0   8  331.27   47.00
   4   0   8  297.67   44.80
   7  -1  -8  526.15   35.80
  -7   1   8  560.64   38.90
   6  -1  -8   63.79   28.70
   6  -1  -8   64.19   12.60
  -6   1   8   49.30   10.40
  -6   1   8   51.99   18.30
   5  -1  -8  963.60   52.89
   5  -1  -8  793.32   68.09
  -5   1   8 1026.00   68.19
  -5   1   8  964.40   48.40
  -4   1   8  513.45   44.70
   3  -1  -8   11.60    9.00
  -3   1   8   13.60    7.00
  -3   1   8   15.90   10.40
   2  -1  -8  153.98   17.50
   2  -1  -8  138.79   24.20
   2  -1  -8  162.48   19.40
  -2   1   8  169.08   21.20
  -2   1   8  169.48   18.20
   1  -1  -8 1253.17   77.49
   1  -1  -8 1169.88   63.49
  -1   1   8 1202.88   68.79
  -1   1   8 1240.08   60.99
  -1   1   8 1244.78   66.79
   0  -1  -8  281.17   38.30
   0  -1  -8  302.67   27.70
   0   1   8  307.57   32.10
   0   1   8  321.97   30.60
  -1  -1  -8  758.02   49.99
  -1  -1  -8  639.94   62.39
   1   1   8  773.62   55.09
   1   1   8  822.52   58.19
  -2  -1  -8 1340.07   94.79
  -2  -1  -8 1240.78   72.59
   2   1   8 1266.47   81.29
   2   1   8 1278.27   78.79
   2   1   8 1391.56   81.79
  -3  -1  -8  -40.20   24.10
  -3  -1  -8  -18.90   13.60
  -3  -1  -8   -1.70   11.00
   3   1   8  -14.50   17.10
   3   1   8   -6.30   10.30
  -4  -1  -8  362.06   37.50
   4   1   8  374.36   55.49
   4   1   8  327.57   48.10
   4   1   8  303.67   53.19
   7  -2  -8  558.84   37.80
  -7   2   8  574.44   39.80
   6  -2  -8  110.79   34.90
   6  -2  -8  170.58   31.40
   6  -2  -8  181.58   20.60
  -6   2   8  162.98   30.00
  -5   2   8   39.10   16.30
  -4   2   8  204.98   29.70
  -4   2   8  266.37   24.60
   3  -2  -8  183.38   32.30
   3  -2  -8  223.38   24.50
  -3   2   8  196.48   21.70
  -3   2   8  190.38   28.60
   2  -2  -8    6.80    6.20
   2  -2  -8    2.80   14.60
  -2   2   8    1.90    5.30
   1  -2  -8  617.34   56.29
   1  -2  -8  687.43   44.30
  -1   2   8  666.83   40.70
  -1   2   8  601.24   47.70
  -1   2   8  697.23   47.50
   0  -2  -8  315.27   30.90
   0  -2  -8  338.27   44.70
   0   2   8  346.37   34.90
   0   2   8  261.97   37.00
  -1  -2  -8   25.80   27.80
  -1  -2  -8    3.50   10.00
   1   2   8   11.90   11.10
  -2  -2  -8  446.06   60.39
  -2  -2  -8  389.16   40.40
  -2  -2  -8  504.05   41.80
   2   2   8  458.75   45.80
   2   2   8  556.84   54.29
  -3  -2  -8  186.08   30.40
  -3  -2  -8  204.38   73.29
   3   2   8  270.47   49.00
   3   2   8  258.17   37.10
   3   2   8  304.87   39.70
   7  -3  -8   15.80   10.80
   6  -3  -8  238.68   24.40
  -6   3   8  209.68   26.40
  -6   3   8  245.78   35.10
  -5   3   8  340.27   33.10
  -5   3   8  401.46   40.40
  -4   3   8   19.80   13.20
  -4   3   8   14.90    8.10
   3  -3  -8  659.53   39.70
   3  -3  -8  472.15   51.39
   3  -3  -8  543.45   49.20
  -3   3   8  593.94   49.30
  -3   3   8  616.44   41.60
   2  -3  -8  811.02   62.29
   2  -3  -8  718.13   63.19
   2  -3  -8  842.42   50.39
  -2   3   8  791.62   48.30
   1  -3  -8  -32.20   19.50
   1  -3  -8    7.60    8.90
  -1   3   8   24.80   10.90
  -1   3   8   -0.10    6.80
  -1   3   8   13.00   15.00
   0  -3  -8  673.93   68.79
   0  -3  -8  745.83   50.89
   0   3   8  751.32   55.59
   0   3   8  609.94   56.39
   0   3   8  778.52   45.40
  -1  -3  -8  204.98   42.20
  -1  -3  -8  205.98   29.60
   1   3   8  182.68   31.70
   1   3   8  260.37   40.80
  -2  -3  -8   18.80   18.70
  -2  -3  -8   32.70   14.30
  -2  -3  -8   16.20   28.50
   2   3   8   -8.00   12.70
   2   3   8    9.00   28.50
  -3  -3  -8   23.80   43.10
  -3  -3  -8   61.09   18.50
   3   3   8   20.70   18.60
   3   3   8   16.10   28.40
   3   3   8   67.49   22.40
  -6   4   8   21.00   16.40
  -6   4   8   37.50   12.00
  -5   4   8  308.37   31.80
  -5   4   8  320.37   37.60
   4  -4  -8 1420.96  105.69
  -4   4   8 1603.54   88.99
   3  -4  -8   13.60   27.30
   3  -4  -8    7.70    9.10
   3  -4  -8    8.70   16.50
  -3   4   8   10.10   11.90
  -3   4   8   -2.30    7.60
   2  -4  -8  939.11   57.59
   2  -4  -8  781.82   64.19
   2  -4  -8 1003.00   74.49
  -2   4   8  867.31   54.19
  -2   4   8  941.51   61.09
  -2   4   8  824.12   62.49
   1  -4  -8  577.84   61.59
   1  -4  -8  596.84   51.39
   1  -4  -8  545.05   43.60
  -1   4   8  538.05   39.80
  -1   4   8  537.55   51.39
  -1   4   8  520.45   46.50
   0  -4  -8   30.10   17.70
   0  -4  -8   23.20   13.00
   0  -4  -8   29.80   28.70
   0  -4  -8   32.70   22.40
   0   4   8    0.00   13.60
   0   4   8    6.40   21.40
  -1  -4  -8   73.89   33.90
   1   4   8   77.09   23.60
  -2  -4  -8  337.27   61.69
  -2  -4  -8  417.66   46.90
   2   4   8  419.36   47.10
   2   4   8  388.86   71.89
  -6   5   8  537.95   45.10
  -5   5   8    4.30    9.70
  -5   5   8    0.60   14.70
  -4   5   8  318.87   34.90
  -4   5   8  238.38   28.20
   3  -5  -8  266.37   44.10
   3  -5  -8  351.46   72.19
   3  -5  -8  323.67   32.40
  -3   5   8  348.97   33.80
  -3   5   8  316.17   37.40
   2  -5  -8   33.90   28.50
   2  -5  -8   -2.00   21.70
   2  -5  -8   12.40   12.20
  -2   5   8   -0.90    8.70
  -2   5   8   53.59   18.70
  -2   5   8   19.40   14.70
   1  -5  -8   96.59   20.50
   1  -5  -8   97.59   33.20
   1  -5  -8   96.59   27.50
  -1   5   8  118.49   21.30
  -1   5   8   58.39   22.90
   0  -5  -8  222.58   50.59
   0  -5  -8  269.87   40.70
   0  -5  -8  368.16   39.30
   0   5   8  250.47   60.89
   0   5   8  303.67   32.20
  -1  -5  -8   -7.60   41.10
  -1  -5  -8   86.19   20.90
   1   5   8   79.89   29.00
   1   5   8   49.80   14.40
  -4   6   8   -7.30   10.00
   3  -6  -8  101.89   21.30
   3  -6  -8   89.39   36.90
  -3   6   8   88.79   20.00
  -3   6   8   73.79   17.50
   2  -6  -8  223.38   33.20
   2  -6  -8  228.88   50.19
   2  -6  -8  218.58   41.30
  -2   6   8  248.48   30.40
  -2   6   8  188.78   32.00
  -2   6   8  269.77   41.40
   1  -6  -8   40.60   36.30
   1  -6  -8   93.49   21.60
   1  -6  -8   41.30   34.40
  -1   6   8   81.19   16.70
  -1   6   8   67.19   24.80
   2   8  -9  201.18   36.30
   2   8  -9  165.28   25.50
   2   8  -9  173.88   38.20
  -2  -8   9  239.28   40.80
   1   8  -9   27.80   20.00
   1   8  -9   11.60   12.90
   1   8  -9   36.40   20.40
  -1  -8   9  -13.80   19.40
  -1  -8   9    0.00   13.40
   0   8  -9  356.46   30.10
   0   8  -9  342.87   47.10
   0   8  -9  251.47   42.20
   0  -8   9  317.07   50.49
   0  -8   9  251.57   33.10
   0  -8   9  396.36   79.69
   0  -8   9  259.67   44.80
  -1   8  -9  449.26   50.09
  -1   8  -9  324.97   29.80
   1  -8   9  336.27   41.90
   1  -8   9  315.57   36.20
   1  -8   9  380.66   48.80
   1  -8   9  386.96   78.19
   4   7  -9  381.46   41.00
   4   7  -9  302.87   31.40
  -4  -7   9  296.57   50.29
  -4  -7   9  418.46   50.69
   3   7  -9   -4.60   15.00
   3   7  -9   11.50   17.10
   3   7  -9    4.10   10.50
  -3  -7   9  -27.50   18.00
  -3  -7   9   -0.30   19.10
  -3  -7   9    8.50   12.90
   2   7  -9  344.77   38.40
   2   7  -9  383.66   51.39
   2   7  -9  370.46   31.70
  -2  -7   9  298.67   44.10
  -2  -7   9  386.56   37.50
   1   7  -9  151.98   30.80
   1   7  -9  220.08   67.99
   1   7  -9  161.78   30.90
  -1  -7   9  179.78   28.60
  -1  -7   9  187.78   28.30
  -1  -7   9  150.18   48.30
  -1  -7   9  180.18   32.20
  -1  -7   9  157.68   22.40
   0   7  -9   18.70   10.40
   0   7  -9   15.90   16.40
   0   7  -9   48.30   17.80
   0  -7   9   19.00   13.50
   0  -7   9   33.90   29.20
   0  -7   9    3.80   15.60
   0  -7   9    5.40   14.90
  -1   7  -9  108.99   45.80
  -1   7  -9  185.28   32.70
  -1   7  -9  154.98   19.60
   1  -7   9  206.78   30.90
   1  -7   9  201.08   34.20
   1  -7   9  168.88   32.60
   1  -7   9  216.68   54.09
  -2   7  -9  229.78   36.80
   2  -7   9  211.28   32.20
   2  -7   9  146.79   50.09
   2  -7   9  204.88   43.50
   5   6  -9   26.80   17.50
   5   6  -9   -7.80   13.00
  -5  -6   9   -3.70   12.00
   4   6  -9  142.79   32.70
   4   6  -9  144.59   51.19
   4   6  -9  175.88   29.80
   4   6  -9  203.88   23.60
  -4  -6   9  232.18   58.49
  -4  -6   9  230.58   32.70
  -4  -6   9  112.89   27.80
   3   6  -9  377.56   35.30
   3   6  -9  380.56   31.40
   3   6  -9  293.77   60.59
   3   6  -9  376.16   52.19
  -3  -6   9  370.36   44.20
  -3  -6   9  283.37   40.90
  -3  -6   9  370.26   38.50
  -3  -6   9  258.07   50.79
   2   6  -9   30.40   16.30
   2   6  -9   44.30   16.00
   2   6  -9   -4.70   47.90
   2   6  -9   34.40   11.00
  -2  -6   9   31.10   14.90
  -2  -6   9    7.40   14.50
  -2  -6   9   22.30   11.50
  -2  -6   9   49.99   15.30
   1   6  -9  286.17   25.30
   1   6  -9  331.27   38.40
   1   6  -9  303.17   33.30
   1   6  -9  239.08   53.79
  -1  -6   9  336.17   65.99
  -1  -6   9  240.38   35.90
  -1  -6   9  292.17   33.30
  -1  -6   9  198.98   40.70
   0   6  -9  365.46   68.19
   0   6  -9  561.44   47.90
   0   6  -9  586.54   36.00
   0   6  -9  420.06   43.70
   0  -6   9  488.95   72.59
   0  -6   9  532.55   46.50
   0  -6   9  525.45   40.70
   0  -6   9  515.95   47.70
  -1   6  -9  113.39   24.70
  -1   6  -9  126.79   23.60
  -1   6  -9  110.39   31.90
  -1   6  -9  130.39   16.30
   1  -6   9   83.39   38.10
   1  -6   9   94.99   22.50
   1  -6   9  112.39   19.50
  -2   6  -9   57.39   22.90
  -2   6  -9   81.79   21.20
   2  -6   9  104.79   40.20
   2  -6   9   63.89   21.00
  -3   6  -9  574.64   51.79
   3  -6   9  484.15   46.80
   3  -6   9  471.05   49.20
   3  -6   9  513.75   80.09
   6   5  -9  381.26   33.50
   6   5  -9  349.17   36.80
  -6  -5   9  425.26   40.10
   5   5  -9  246.48   60.49
   5   5  -9  330.87   36.70
   5   5  -9  427.66   33.90
  -5  -5   9  445.36   46.50
  -5  -5   9  377.86   41.50
   4   5  -9  -20.50   31.30
   4   5  -9   -4.00    7.30
   4   5  -9    3.00   12.30
   4   5  -9   19.20   11.20
  -4  -5   9  -10.60   10.40
  -4  -5   9    5.80   15.00
  -4  -5   9    7.90   14.00
   3   5  -9  242.98   50.59
   3   5  -9  282.27   25.40
   3   5  -9  212.58   31.70
   3   5  -9  286.87   30.50
  -3  -5   9  274.67   35.30
  -3  -5   9  308.77   29.30
  -3  -5   9  245.38   33.40
  -3  -5   9  266.77   33.70
   2   5  -9  605.84   45.00
   2   5  -9  627.14   48.90
   2   5  -9  519.65   65.09
   2   5  -9  581.84   38.20
  -2  -5   9  606.74   44.10
  -2  -5   9  653.53   51.39
  -2  -5   9  561.84   48.90
   1   5  -9  124.29   22.50
   1   5  -9  100.99   19.00
   1   5  -9  121.49   15.80
  -1  -5   9  113.09   18.70
  -1  -5   9   92.69   20.60
  -1  -5   9   93.69   20.80
  -1  -5   9   64.69   35.50
   0   5  -9  185.08   27.90
   0   5  -9  166.58   18.30
   0   5  -9  155.58   34.90
   0   5  -9  197.98   29.00
   0  -5   9  167.38   22.90
   0  -5   9  143.09   25.80
   0  -5   9  153.88   43.00
  -1   5  -9  945.21   64.89
  -1   5  -9  958.10   48.80
  -1   5  -9  889.41   73.59
  -1   5  -9  938.71   61.79
   1  -5   9  841.62   61.09
   1  -5   9  846.42   91.99
   1  -5   9  965.90   58.79
  -2   5  -9   -7.50   22.50
  -2   5  -9   29.50   13.40
  -2   5  -9   39.60   19.90
   2  -5   9   19.20   15.60
   2  -5   9    3.80   12.00
   2  -5   9    6.00   25.00
  -3   5  -9  242.58   33.80
  -3   5  -9  261.67   50.59
   3  -5   9  295.97   36.90
   3  -5   9  314.57   39.00
   3  -5   9  248.88   56.09
   6   4  -9    4.80    9.80
   6   4  -9  -10.20   45.00
  -6  -4   9    3.50   10.40
   5   4  -9   84.09   21.60
   5   4  -9  119.49   20.60
   5   4  -9  134.99   18.80
   5   4  -9   74.89   41.70
   4   4  -9  396.06   31.10
   4   4  -9  424.06   36.60
   4   4  -9  373.56   38.10
  -4  -4   9  470.65   35.50
  -4  -4   9  467.55   43.20
   3   4  -9  585.54   37.90
   3   4  -9  585.14   45.30
   3   4  -9  574.44   64.59
   3   4  -9  569.44   41.90
  -3  -4   9  611.64   48.80
  -3  -4   9  486.85   42.40
  -3  -4   9  566.84   41.80
   2   4  -9  256.87   28.80
   2   4  -9  324.07   30.90
   2   4  -9  254.27   22.80
   2   4  -9  221.08   44.40
  -2  -4   9  242.48   30.90
  -2  -4   9  274.37   25.10
  -2  -4   9  253.67   30.50
   1   4  -9 1258.17   90.79
   1   4  -9 1445.36   78.19
   1   4  -9 1368.06   76.99
   1   4  -9 1385.66   67.79
  -1  -4   9 1374.96   84.99
  -1  -4   9 1494.15   80.89
  -1  -4   9 1414.66   72.69
  -1  -4   9 1461.05  116.09
   0   4  -9   35.30   12.40
   0   4  -9   15.10    8.00
   0   4  -9   31.10   12.80
   0   4  -9   28.40   18.20
   0  -4   9   29.50   21.70
   0  -4   9   10.60   10.30
   0  -4   9   13.30   11.50
  -1   4  -9  510.95   30.90
  -1   4  -9  405.96   50.09
  -1   4  -9  448.36   40.10
  -1   4  -9  558.24   46.50
   1  -4   9  506.35   43.00
   1  -4   9  399.26   61.99
   1  -4   9  543.75   39.40
  -2   4  -9  423.16   43.90
  -2   4  -9  333.97   47.10
  -2   4  -9  304.97   33.90
   2  -4   9  339.97   35.50
   2  -4   9  253.57   52.99
   2  -4   9  353.46   37.40
  -3   4  -9   31.90   14.40
  -3   4  -9   40.50   25.10
  -3   4  -9   51.49   24.80
   3  -4   9   29.20   17.50
   3  -4   9   60.99   37.30
   3  -4   9   25.40   15.50
  -4   4  -9   75.89   19.70
   4  -4   9   52.39   34.30
   4  -4   9  105.09   24.30
   4  -4   9   98.89   22.80
   7   3  -9   29.30   12.70
   7   3  -9   50.89   28.50
   7   3  -9  -63.49   45.70
  -7  -3   9   25.40   11.50
   6   3  -9  277.37   26.90
   6   3  -9  270.87   49.60
  -6  -3   9  315.07   28.40
  -6  -3   9  267.27   40.10
   5   3  -9  300.97   45.20
   5   3  -9  389.86   30.20
   5   3  -9  408.56   60.79
  -5  -3   9  360.16   29.60
  -5  -3   9  359.66   40.50
   4   3  -9  241.48   21.30
   4   3  -9  181.58   23.20
   4   3  -9  171.08   24.70
  -4  -3   9  188.38   20.60
  -4  -3   9  251.67   33.00
   3   3  -9  752.22   44.00
   3   3  -9  794.12   52.19
   3   3  -9  728.83   45.20
   3   3  -9  736.63   48.90
  -3  -3   9  789.72   58.69
   2   3  -9   92.99   14.10
   2   3  -9  142.09   17.30
   2   3  -9  130.99   19.50
  -2  -3   9  133.59   24.00
  -2  -3   9   89.59   17.00
  -2  -3   9  137.69   19.70
   1   3  -9  727.63   49.50
   1   3  -9  746.43   64.69
   1   3  -9  724.73   47.30
   1   3  -9  688.63   41.00
  -1  -3   9  739.33   49.50
  -1  -3   9  662.03   43.70
   0   3  -9  530.45   47.30
   0   3  -9  507.45   32.90
   0   3  -9  513.35   39.00
   0   3  -9  564.54   45.40
   0  -3   9  481.35   37.50
   0  -3   9  563.04   43.00
   0  -3   9  478.75   61.69
  -1   3  -9   51.69   18.20
  -1   3  -9    9.50    7.20
  -1   3  -9   -2.10   14.50
   1  -3   9   16.70   18.30
   1  -3   9   16.60   10.40
   1  -3   9   22.80   12.30
  -2   3  -9   37.30   19.50
  -2   3  -9   32.50   12.10
  -2   3  -9   15.40   15.70
   2  -3   9   40.10   16.50
   2  -3   9   46.60   24.80
   2  -3   9   23.80   13.30
  -3   3  -9  410.36   51.99
  -3   3  -9  411.76   37.10
   3  -3   9  290.07   52.39
   3  -3   9  338.07   37.60
   3  -3   9  398.26   42.80
  -4   3  -9  433.66   42.10
   4  -3   9  291.97   47.40
   4  -3   9  417.46   43.20
   4  -3   9  388.86   61.49
   7   2  -9   38.80   13.10
   7   2  -9  -12.70   30.50
  -7  -2   9   59.79   13.60
   6   2  -9  138.59   39.50
   6   2  -9  166.28   26.00
  -6  -2   9  179.58   21.00
  -6  -2   9  163.98   31.20
   5   2  -9  960.60   50.69
   5   2  -9  697.73   66.29
  -5  -2   9  865.41   47.90
  -5  -2   9  901.31   65.09
   4   2  -9   23.30    8.80
   4   2  -9   11.00   10.40
  -4  -2   9   24.70   12.90
  -4  -2   9   21.70    6.90
   3   2  -9  839.52   47.30
   3   2  -9  867.61   50.89
   3   2  -9  777.22   49.70
   3   2  -9  846.22   48.90
  -3  -2   9  805.12   60.89
   2   2  -9  577.14   38.60
   2   2  -9  591.54   41.90
   2   2  -9  581.34   36.30
   2   2  -9  546.45   35.90
  -2  -2   9  484.85   46.80
  -2  -2   9  540.25   36.50
  -2  -2   9  566.54   39.60
   1   2  -9  155.68   23.30
   1   2  -9  128.99   15.10
   1   2  -9  115.29   17.40
  -1  -2   9  127.89   20.30
   0   2  -9   15.00   12.70
   0   2  -9    9.50    7.20
   0   2  -9    6.90    7.10
   0  -2   9    6.00    8.80
   0  -2   9   17.80   10.20
   0  -2   9   -0.60   12.30
  -1   2  -9 1103.59   56.19
  -1   2  -9 1069.49   72.29
  -1   2  -9 1073.89   64.09
  -1   2  -9 1053.59   68.99
   1  -2   9 1085.69   84.19
   1  -2   9 1102.49   65.69
   1  -2   9 1083.49   66.79
  -2   2  -9  566.84   54.89
  -2   2  -9  498.65   40.70
   2  -2   9  518.15   57.19
   2  -2   9  562.04   46.30
   2  -2   9  492.25   43.80
  -3   2  -9   42.30   14.00
   3  -2   9   52.59   18.40
   3  -2   9   39.40   27.80
   3  -2   9   73.09   22.60
  -4   2  -9  524.05   45.40
   4  -2   9  520.45   48.70
   4  -2   9  601.84   57.89
   4  -2   9  406.86   59.89
   7   1  -9  859.91   51.79
  -7  -1   9  906.11   52.59
   6   1  -9   30.90   26.00
   6   1  -9   23.10    9.60
  -6  -1   9   19.20    8.50
  -6  -1   9   22.80   16.80
   5   1  -9  630.44   39.10
  -5  -1   9  598.04   35.20
  -5  -1   9  520.35   49.00
   4   1  -9  593.54   50.69
   4   1  -9  661.03   40.70
  -4  -1   9  605.64   51.49
   3   1  -9   27.10   10.70
   3   1  -9    7.20    8.40
   3   1  -9   30.90    8.80
   3   1  -9   26.00    9.00
  -3  -1   9   21.00   12.90
   2   1  -9   48.70   11.40
   2   1  -9   74.19   15.90
   2   1  -9   72.19   13.80
   2   1  -9   60.99   12.30
  -2  -1   9   84.19   15.60
  -2  -1   9   56.09   20.00
  -2  -1   9   33.50   12.00
   1   1  -9  657.73   42.30
   1   1  -9  621.54   48.30
  -1  -1   9  679.23   44.80
  -1  -1   9  661.63   43.90
   0   1  -9  384.06   33.20
   0   1  -9  450.75   42.90
   0  -1   9  449.66   37.00
   0  -1   9  435.66   37.70
  -1   1  -9   54.79   14.90
  -1   1  -9  103.19   22.40
   1  -1   9   62.09   14.10
   1  -1   9   43.10   18.90
   1  -1   9   64.09   16.80
  -2   1  -9  940.11   59.09
  -2   1  -9  781.72   69.29
   2  -1   9  956.90   73.89
   2  -1   9  987.20   63.89
   2  -1   9  945.21   64.19
  -3   1  -9   44.00   15.70
   3  -1   9   91.29   24.30
   3  -1   9   81.79   24.90
   3  -1   9   41.50   15.30
  -4   1  -9   96.99   20.60
   4  -1   9   74.79   27.50
   4  -1   9  103.99   28.90
   4  -1   9   90.19   21.30
   7   0  -9   94.29   27.90
  -7   0   9  120.79   18.00
   6   0  -9  293.67   48.60
   6   0  -9  346.17   28.70
  -6   0   9  371.96   27.30
  -6   0   9  337.87   44.40
   5   0  -9  202.78   21.30
  -5   0   9  179.58   30.60
   4   0  -9   41.00   21.20
   4   0  -9   57.09   11.60
  -4   0   9   27.80   14.30
   3   0  -9  391.16   29.80
   3   0  -9  277.07   30.70
   3   0  -9  329.37   27.30
  -3   0   9  288.47   35.80
   2   0  -9  322.17   36.20
   2   0  -9  359.36   28.40
   2   0  -9  375.66   29.00
  -2   0   9  391.46   31.30
   1   0  -9   37.40   10.60
   1   0  -9   48.70   16.80
  -1   0   9   32.10   12.10
  -1   0   9   22.60   10.40
   0   0  -9  614.64   53.99
   0   0  -9  637.84   43.00
   0   0   9  611.54   45.50
   0   0   9  581.54   46.30
  -1   0  -9  231.08   26.60
  -1   0  -9  217.68   38.60
   1   0   9  173.18   25.90
   1   0   9  236.98   31.60
  -2   0  -9  196.38   25.50
  -2   0  -9  289.07   50.09
   2   0   9  177.48   32.30
   2   0   9  193.48   28.50
   2   0   9  152.28   32.50
  -3   0  -9  420.46   37.20
  -3   0  -9  322.27   58.09
   3   0   9  338.47   43.90
   3   0   9  369.96   49.30
   3   0   9  339.47   38.80
   4   0   9   93.39   32.50
   4   0   9  122.39   34.50
   4   0   9  181.68   31.60
   7  -1  -9  147.99   29.00
  -7   1   9  152.38   19.70
   6  -1  -9   25.60   10.20
  -6   1   9    7.20    6.90
  -6   1   9   17.90   27.90
   5  -1  -9  680.63   44.40
  -5   1   9  703.23   57.69
  -4   1   9  713.33   57.49
   3  -1  -9  291.27   27.90
   3  -1  -9  262.07   22.10
  -3   1   9  307.07   26.00
  -3   1   9  201.48   31.80
   2  -1  -9 1959.10   95.49
   2  -1  -9 2148.49  111.99
   2  -1  -9 2100.09   94.99
  -2   1   9 2046.60   93.89
  -2   1   9 1882.01  107.59
   1  -1  -9  287.07   27.20
   1  -1  -9  281.27   38.80
  -1   1   9  359.16   33.70
  -1   1   9  294.67   30.00
   0  -1  -9  374.16   32.10
   0  -1  -9  418.56   48.00
   0   1   9  377.66   35.10
   0   1   9  311.77   37.20
  -1  -1  -9  698.73   66.49
  -1  -1  -9  685.43   47.80
   1   1   9  648.24   51.09
   1   1   9  602.94   52.69
  -2  -1  -9  335.77   59.89
  -2  -1  -9  329.47   33.80
   2   1   9  395.66   40.40
   2   1   9  322.87   45.10
  -3  -1  -9   77.89   33.30
  -3  -1  -9   10.60   11.70
   3   1   9   10.10   16.40
   3   1   9    0.80   13.30
   7  -2  -9  403.76   38.70
   6  -2  -9  109.49   19.30
  -5   2   9  182.58   32.20
  -4   2   9  467.75   48.20
  -4   2   9  643.04   42.00
   3  -2  -9   45.50   12.90
   3  -2  -9   12.40   18.60
   3  -2  -9   33.80    9.80
   3  -2  -9   28.40   16.10
  -3   2   9   37.00   10.20
  -3   2   9   19.70   14.10
   2  -2  -9   15.00   17.30
   2  -2  -9   21.90   10.10
  -2   2   9   14.60   11.40
  -2   2   9   35.40   10.10
   1  -2  -9  616.64   59.79
   1  -2  -9  618.34   43.30
  -1   2   9  638.34   50.99
  -1   2   9  595.54   39.20
  -1   2   9  616.34   46.50
   0  -2  -9  341.27   49.30
   0  -2  -9  335.47   32.70
   0   2   9  349.47   51.29
   0   2   9  332.37   36.00
  -1  -2  -9   15.30   11.10
  -1  -2  -9   35.70   25.80
   1   2   9   34.30   33.20
   1   2   9   48.00   14.30
  -2  -2  -9  541.85   75.89
  -2  -2  -9  488.85   43.30
  -2  -2  -9  437.76   43.80
   2   2   9  468.35   47.20
   2   2   9  458.05   56.49
  -3  -2  -9  149.49   56.19
  -3  -2  -9  145.49   27.20
   3   2   9  266.37   42.10
   3   2   9  224.28   36.80
   3   2   9  226.78   40.00
   6  -3  -9  318.37   40.20
  -5   3   9   49.30   19.70
  -5   3   9   42.90   13.80
   4  -3  -9   14.10   20.90
  -4   3   9    9.30   14.00
   3  -3  -9  286.57   41.80
   3  -3  -9  310.57   28.00
  -3   3   9  254.67   36.00
  -3   3   9  370.26   30.90
   2  -3  -9  285.27   46.10
   2  -3  -9  342.67   30.20
   2  -3  -9  204.68   41.10
  -2   3   9  260.97   31.30
  -2   3   9  304.27   27.80
   1  -3  -9   57.09   24.40
   1  -3  -9   -3.00    8.80
  -1   3   9   37.90   16.90
  -1   3   9    9.60    8.30
  -1   3   9   -9.40   11.30
   0  -3  -9  443.56   57.99
   0  -3  -9  369.66   37.10
   0   3   9  388.96   42.50
   0   3   9  429.56   48.80
  -1  -3  -9  268.57   46.40
  -1  -3  -9  237.48   31.70
   1   3   9  189.98   36.10
   1   3   9  255.87   44.00
  -2  -3  -9   66.89   27.90
   2   3   9   52.19   21.20
  -6   4   9  102.69   18.80
  -6   4   9  167.98   48.00
  -5   4   9  432.46   37.60
  -5   4   9  416.56   44.80
  -4   4   9  357.16   34.30
  -4   4   9  362.56   40.00
   3  -4  -9   18.40   19.30
   3  -4  -9   18.50   11.20
   3  -4  -9   48.90   25.70
  -3   4   9    5.30   14.30
  -3   4   9    8.60   10.10
   2  -4  -9  783.92   52.19
   2  -4  -9  788.12   70.49
  -2   4   9  732.03   55.99
  -2   4   9  636.34   59.19
   1  -4  -9  236.98   46.70
   1  -4  -9  405.36   60.29
   1  -4  -9  363.46   36.50
  -1   4   9  324.57   40.50
  -1   4   9  353.16   31.40
   0  -4  -9   20.80   12.90
   0  -4  -9   49.60   27.40
   0  -4  -9   53.19   58.09
   0   4   9   43.00   20.10
   0   4   9   38.60   11.70
  -1  -4  -9  201.08   31.10
   1   4   9  123.19   30.00
  -5   5   9   10.60   10.80
  -4   5   9  452.35   44.20
  -4   5   9  398.76   38.90
   3  -5  -9  137.89   31.80
  -3   5   9  139.69   30.80
  -3   5   9  153.18   24.10
   2  -5  -9  -19.50   25.20
   2  -5  -9   11.20   12.40
   2  -5  -9   42.20   31.70
  -2   5   9   16.60   18.40
  -2   5   9    1.90   14.20
  -2   5   9   -1.20   10.70
   1  -5  -9  233.68   51.19
   1  -5  -9  331.77   37.80
  -1   5   9  286.37   43.20
  -1   5   9  321.37   33.40
   0  -5  -9   88.69   44.90
   0  -5  -9  101.79   24.00
   0  -5  -9  121.89   46.10
   0   5   9  110.89   28.00
   0   5   9  167.18   24.60
   3   7 -10  -13.30   10.70
   3   7 -10   13.60   20.10
   3   7 -10   -5.70   17.70
  -3  -7  10    1.10   17.80
  -3  -7  10   27.90   21.40
  -3  -7  10   20.30   20.80
   2   7 -10  262.57   37.20
   2   7 -10  143.09   33.00
   2   7 -10  165.08   24.10
  -2  -7  10  229.58   33.40
  -2  -7  10  179.88   34.50
   1   7 -10  469.05   49.40
   1   7 -10  391.26   44.20
   1   7 -10  416.66   34.40
  -1  -7  10  494.25   44.50
  -1  -7  10  379.26   48.40
  -1  -7  10  389.06   79.89
   0   7 -10    0.10   13.00
   0   7 -10   25.00   19.00
   0  -7  10   22.00   14.00
   0  -7  10   -5.00   17.00
   0  -7  10   36.40   21.70
   0  -7  10    5.30   35.50
  -1   7 -10  374.96   50.39
  -1   7 -10  386.96   29.70
  -1   7 -10  377.46   44.20
   1  -7  10  433.66   80.69
   1  -7  10  295.67   46.10
   1  -7  10  482.15   47.00
   1  -7  10  283.67   39.90
   4   6 -10  636.14  121.19
   4   6 -10  582.84   48.60
   4   6 -10  618.54   43.30
  -4  -6  10  556.34   74.49
   3   6 -10  439.66   43.30
   3   6 -10  525.05   37.40
   3   6 -10  457.15   49.40
   3   6 -10  391.46   75.89
  -3  -6  10  470.15   49.20
  -3  -6  10  433.36   47.40
  -3  -6  10  595.04   49.90
   2   6 -10   11.00   18.40
   2   6 -10   58.99   31.10
   2   6 -10   42.60   18.00
   2   6 -10   47.50   13.10
  -2  -6  10   43.30   16.40
  -2  -6  10   18.10   18.40
   1   6 -10  464.75   65.59
   1   6 -10  589.64   52.29
   1   6 -10  617.94   40.90
   1   6 -10  633.94   49.90
  -1  -6  10  512.65   43.60
  -1  -6  10  714.33   93.69
  -1  -6  10  611.44   54.69
  -1  -6  10  696.93   53.99
   0   6 -10  422.76   42.20
   0   6 -10  375.26   29.40
   0   6 -10  310.47   40.80
   0  -6  10  264.07   37.80
   0  -6  10  423.46   37.10
   0  -6  10  379.46   40.30
   0  -6  10  316.87   67.19
  -1   6 -10    8.50   18.50
  -1   6 -10    2.10    8.60
  -1   6 -10   23.40   15.40
  -1   6 -10  -25.80   34.90
   1  -6  10   12.20   18.80
   1  -6  10    4.50   13.60
   1  -6  10   34.70   27.90
  -2   6 -10  196.48   34.70
  -2   6 -10  254.27   46.70
   2  -6  10  158.38   30.80
   2  -6  10  129.19   53.29
   2  -6  10  190.48   41.00
   5   5 -10  275.67   33.00
   5   5 -10  177.68   34.40
   5   5 -10  135.59   54.39
   5   5 -10  227.28   26.60
  -5  -5  10  242.68   39.30
  -5  -5  10  245.48   43.20
   4   5 -10   11.50   34.40
   4   5 -10   52.79   13.30
   4   5 -10   54.29   20.20
   4   5 -10   39.90   16.30
  -4  -5  10   63.19   16.50
  -4  -5  10   10.50   17.60
   3   5 -10  389.06   30.10
   3   5 -10  459.75   48.80
   3   5 -10  385.96   37.60
   3   5 -10  349.07   64.09
  -3  -5  10  327.77   34.50
  -3  -5  10  386.46   41.30
  -3  -5  10  298.27   36.80
  -3  -5  10  269.67   39.10
   2   5 -10  309.97   25.60
   2   5 -10  292.97   34.20
   2   5 -10  324.57   51.39
   2   5 -10  269.77   32.30
  -2  -5  10  259.47   36.50
  -2  -5  10  246.48   34.70
  -2  -5  10  283.07   28.90
   1   5 -10   80.89   18.10
   1   5 -10   66.99   27.30
   1   5 -10   72.99   17.40
   1   5 -10   55.59   11.60
  -1  -5  10   35.50   14.80
  -1  -5  10   32.20   33.50
  -1  -5  10   57.39   17.50
  -1  -5  10   60.19   27.80
   0   5 -10  162.58   37.10
   0   5 -10  281.97   32.60
   0   5 -10  314.87   37.10
   0   5 -10  229.28   22.20
   0  -5  10  212.18   53.39
   0  -5  10  232.08   31.20
   0  -5  10  240.58   41.30
  -1   5 -10  281.47   33.30
  -1   5 -10  202.78   44.40
  -1   5 -10  245.68   22.20
  -1   5 -10  271.47   41.50
   1  -5  10  215.48   54.49
   1  -5  10  184.38   32.40
   1  -5  10  281.37   34.10
  -2   5 -10    9.40   31.30
  -2   5 -10   54.89   23.20
  -2   5 -10   19.30   13.70
   2  -5  10   11.70   17.30
   2  -5  10   -9.10   14.00
   2  -5  10   14.10   28.60
  -3   5 -10  248.58   35.50
   3  -5  10  221.98   36.50
   3  -5  10  218.58   40.90
   3  -5  10  193.08   52.99
   6   4 -10   19.10   40.50
   6   4 -10   14.80   29.60
  -6  -4  10    9.80   16.60
  -6  -4  10   -5.70    9.00
   5   4 -10  472.65   38.10
   5   4 -10  420.66   41.90
   5   4 -10  459.85   35.40
   5   4 -10  324.07   70.59
  -5  -4  10  463.95   36.60
  -5  -4  10  507.65   50.19
   4   4 -10  142.79   26.90
   4   4 -10  226.08   34.60
   4   4 -10  121.69   38.30
   4   4 -10  219.38   22.80
   4   4 -10  194.68   25.10
  -4  -4  10  226.88   34.40
  -4  -4  10  170.98   22.50
   3   4 -10   -9.30   10.60
   3   4 -10    1.90    9.50
   3   4 -10   15.30    8.40
   3   4 -10   18.30   23.40
  -3  -4  10    9.00   11.10
   2   4 -10  128.09   23.30
   2   4 -10  150.48   25.20
   2   4 -10  162.08   17.70
   2   4 -10  105.69   17.50
   2   4 -10  124.39   32.80
  -2  -4  10  123.59   21.90
  -2  -4  10  145.29   26.30
  -2  -4  10   87.59   19.60
   1   4 -10  565.84   47.00
   1   4 -10  647.54   38.50
   1   4 -10  550.74   55.29
   1   4 -10  575.54   45.50
  -1  -4  10  646.94   49.00
  -1  -4  10  573.04   71.49
  -1  -4  10  551.54   52.79
  -1  -4  10  637.74   44.00
   0   4 -10   61.79   21.30
   0   4 -10   28.60   17.40
   0   4 -10   47.90   15.00
   0   4 -10   55.29   11.60
   0  -4  10   85.59   30.60
   0  -4  10   72.99   17.20
   0  -4  10   29.20   15.20
  -1   4 -10  648.84   48.30
  -1   4 -10  561.64   53.89
  -1   4 -10  570.24   36.00
  -1   4 -10  576.94   57.79
   1  -4  10  591.74   49.60
   1  -4  10  624.74   47.10
   1  -4  10  701.63   75.69
  -2   4 -10  363.46   49.60
  -2   4 -10  330.47   51.19
  -2   4 -10  375.16   37.40
   2  -4  10  358.06   40.20
   2  -4  10  432.66   65.29
   2  -4  10  305.27   40.10
  -3   4 -10   -3.90   13.20
   3  -4  10   -7.10   22.10
   3  -4  10  -20.00   18.60
   3  -4  10    5.10   21.60
   6   3 -10   77.79   36.20
   6   3 -10   58.59   37.60
  -6  -3  10   61.39   22.60
  -6  -3  10   46.60   12.80
   5   3 -10    9.80   10.60
  -5  -3  10    7.00    7.80
  -5  -3  10   10.90   15.80
   4   3 -10  229.18   26.00
   4   3 -10  239.88   22.50
   4   3 -10  166.08   23.90
  -4  -3  10  202.88   32.00
   3   3 -10  646.74   42.40
   3   3 -10  733.83   47.60
   3   3 -10  646.24   40.50
   3   3 -10  584.14   44.40
  -3  -3  10  534.55   52.69
   2   3 -10   28.60    9.70
   2   3 -10   44.00   12.30
   2   3 -10   38.90   11.60
   2   3 -10   31.30   13.60
  -2  -3  10    0.50   12.00
  -2  -3  10   22.00   13.50
  -2  -3  10   14.70   10.00
   1   3 -10  552.04   44.60
   1   3 -10  495.15   39.50
   1   3 -10  530.65   34.90
  -1  -3  10  464.45   37.70
  -1  -3  10  496.95   41.60
   0   3 -10  894.91   64.29
   0   3 -10  877.61   48.70
   0   3 -10  852.81   65.09
   0   3 -10  854.81   55.79
   0  -3  10  904.31   65.09
   0  -3  10  873.51   54.99
   0  -3  10  827.12   81.69
  -1   3 -10   66.99   20.50
  -1   3 -10   65.09   21.70
  -1   3 -10   16.20   11.70
  -1   3 -10   29.70   10.00
   1  -3  10    3.20   22.10
   1  -3  10   37.30   13.50
   1  -3  10   50.09   13.80
  -2   3 -10  480.85   51.19
  -2   3 -10  464.45   54.89
  -2   3 -10  424.56   39.70
  -2   3 -10  453.05   29.90
   2  -3  10  430.16   43.30
   2  -3  10  498.15   63.89
   2  -3  10  417.46   42.30
  -3   3 -10  403.46   39.70
  -3   3 -10  340.87   57.89
   3  -3  10  390.06   46.00
   3  -3  10  338.67   41.10
   7   2 -10   -2.60   10.70
  -7  -2  10    0.50    9.20
   6   2 -10   69.79   38.90
   6   2 -10  143.39   20.10
  -6  -2  10  127.99   18.00
  -6  -2  10  121.99   27.40
   5   2 -10  336.27   42.90
   5   2 -10  374.66   51.49
  -5  -2  10  523.05   53.39
  -5  -2  10  416.56   29.10
   4   2 -10   20.70    8.60
  -4  -2  10   20.80   13.40
   3   2 -10  778.82   53.29
   3   2 -10  833.22   50.09
   3   2 -10  803.32   47.10
   3   2 -10  837.72   49.10
  -3  -2  10  659.63   57.69
   2   2 -10  978.40   53.99
   2   2 -10  942.11   56.09
   2   2 -10  948.01   53.79
   2   2 -10 1031.90   62.79
  -2  -2  10  954.10   58.59
   1   2 -10   69.39   21.10
   1   2 -10   70.39   14.40
   1   2 -10   95.29   14.90
  -1  -2  10   45.20   14.40
  -1  -2  10   98.89   18.70
   0   2 -10  293.67   36.50
   0   2 -10  253.07   26.90
   0   2 -10  271.07   23.40
   0  -2  10  179.88   38.50
   0  -2  10  257.67   29.80
   0  -2  10  241.28   29.40
  -1   2 -10  300.87   43.90
  -1   2 -10  340.77   26.70
  -1   2 -10  336.77   33.10
   1  -2  10  280.57   34.30
   1  -2  10  358.56   35.50
   1  -2  10  337.57   47.60
  -2   2 -10   11.60   26.20
  -2   2 -10   39.40   15.80
  -2   2 -10   51.89   11.60
   2  -2  10   65.49   29.90
   2  -2  10   78.39   20.50
   2  -2  10   90.79   20.80
  -3   2 -10   57.79   34.60
  -3   2 -10  133.39   25.20
   3  -2  10   97.39   32.70
   3  -2  10   73.19   20.80
   3  -2  10   65.99   26.20
   7   1 -10  479.65   36.80
  -7  -1  10  533.65   36.20
  -7  -1  10  415.66   51.69
   6   1 -10   10.90   10.20
  -6  -1  10  -15.70   14.30
  -6  -1  10   -4.20    6.20
   5   1 -10  762.22   48.50
   4   1 -10  800.22   45.60
  -4  -1  10  569.34   53.29
   3   1 -10   -4.30    8.90
   3   1 -10   14.50    7.10
   3   1 -10   14.30   11.30
   3   1 -10   11.60    8.10
  -3  -1  10    8.20   12.30
   2   1 -10  379.56   29.70
   2   1 -10  362.86   29.70
   2   1 -10  353.36   29.50
   2   1 -10  366.76   36.80
  -2  -1  10  368.16   32.20
  -2  -1  10  277.27   40.00
   1   1 -10  357.56   40.20
   1   1 -10  393.16   30.10
   1   1 -10  360.86   31.10
  -1  -1  10  340.17   34.40
  -1  -1  10  354.26   33.20
   0   1 -10   77.29   22.00
   0   1 -10   28.40   12.10
   0  -1  10   51.69   15.60
   0  -1  10   44.00   17.80
  -1   1 -10  160.68   23.10
  -1   1 -10  105.79   30.10
   1  -1  10  131.29   25.50
  -2   1 -10  522.05   59.49
  -2   1 -10  469.45   41.70
   2  -1  10  559.54   51.69
   2  -1  10  512.35   45.90
   2  -1  10  356.96   51.99
  -3   1 -10   41.00   16.50
  -3   1 -10   94.89   35.30
   3  -1  10   23.10   14.30
   3  -1  10   49.50   25.40
   3  -1  10   72.09   43.20
   7   0 -10  306.77   30.30
  -7   0  10  319.57   46.20
  -7   0  10  411.06   31.20
   6   0 -10  308.37   27.00
  -6   0  10  278.07   23.80
  -6   0  10  216.68   37.00
   5   0 -10    5.30   26.40
   5   0 -10   47.90   13.10
   4   0 -10   46.40   12.50
  -4   0  10   37.60   16.80
   3   0 -10  465.25   37.60
   3   0 -10  481.75   44.30
   3   0 -10  542.35   37.70
   3   0 -10  590.34   37.00
   2   0 -10  242.58   36.10
   2   0 -10  267.77   25.50
   2   0 -10  290.87   28.70
  -2   0  10  311.17   28.30
   1   0 -10  453.55   46.80
   1   0 -10  396.06   32.50
  -1   0  10  389.96   39.20
  -1   0  10  418.76   36.30
   0   0 -10  659.53   60.59
   0   0 -10  668.83   46.50
   0   0  10  704.53   56.39
   0   0  10  666.83   50.19
  -1   0 -10   20.20   10.80
  -1   0 -10   34.80   24.60
   1   0  10    7.90   11.40
  -2   0 -10  377.06   59.59
  -2   0 -10  310.87   33.50
   2   0  10  414.76   40.10
   2   0  10  318.47   47.60
  -3   0 -10  430.96   81.59
  -3   0 -10  348.77   35.70
   3   0  10  344.57   53.89
   3   0  10  246.48   43.90
   3   0  10  295.17   39.10
  -7   1  10  -11.80   15.70
  -7   1  10   -9.50    8.70
  -6   1  10  127.29   28.70
   5  -1 -10  295.57   42.10
  -4   1  10   -8.70   13.10
   3  -1 -10  256.07   29.40
   3  -1 -10  276.17   24.00
   3  -1 -10  288.67   36.70
  -3   1  10  213.78   34.80
   2  -1 -10  627.64   44.60
   2  -1 -10  663.93   43.50
   2  -1 -10  657.93   57.89
  -2   1  10  632.34   44.50
  -2   1  10  658.63   42.00
   1  -1 -10   68.29   15.70
   1  -1 -10   54.29   23.60
  -1   1  10   34.70   13.50
  -1   1  10   55.19   19.00
   0  -1 -10  338.17   33.30
   0  -1 -10  432.46   54.29
   0   1  10  386.06   44.80
   0   1  10  381.26   37.30
  -1  -1 -10  575.94   44.90
  -1  -1 -10  559.14   66.89
   1   1  10  549.85   54.49
   1   1  10  524.15   46.50
  -2  -1 -10   68.19   17.20
  -2  -1 -10   -3.70   36.30
   2   1  10   23.20   27.20
   2   1  10   45.10   18.80
   6  -2 -10   29.00   12.70
  -6   2  10   41.60   19.50
   4  -2 -10  837.62   56.29
  -4   2  10  715.93   62.69
  -4   2  10  847.12   64.89
   3  -2 -10   18.80   20.10
   3  -2 -10   21.30   18.80
  -3   2  10    5.30   14.30
  -3   2  10   -1.80    8.10
   2  -2 -10  304.57   32.10
  -2   2  10  270.07   30.60
  -2   2  10  315.47   28.00
   1  -2 -10  511.55   40.70
   1  -2 -10  512.45   57.59
  -1   2  10  325.37   46.50
  -1   2  10  462.85   41.10
  -1   2  10  436.06   33.10
   0  -2 -10  166.68   29.30
   0  -2 -10  106.19   32.20
   0   2  10  180.98   30.00
   0   2  10  110.69   27.70
  -1  -2 -10   -1.70   32.60
   1   2  10   32.30   18.80
  -2  -2 -10  494.45   91.69
  -2  -2 -10  450.85   45.00
   2   2  10  394.86   46.80
   6  -3 -10  619.64   45.70
  -6   3  10  681.03   60.19
  -5   3  10   10.10   27.90
  -5   3  10   26.20   12.50
  -4   3  10  113.89   22.00
  -4   3  10   97.69   25.10
   3  -3 -10  145.09   41.70
   3  -3 -10  224.68   25.20
  -3   3  10  236.38   36.90
  -3   3  10  233.98   27.00
   2  -3 -10   95.09   34.60
   2  -3 -10   88.19   33.60
   2  -3 -10  152.98   22.90
  -2   3  10  116.59   22.40
  -2   3  10  159.78   22.10
   1  -3 -10   41.20   14.00
   1  -3 -10   15.70   25.20
  -1   3  10    0.30    8.30
  -1   3  10   -5.10   14.60
   0  -3 -10  363.26   36.50
   0  -3 -10  399.76   74.19
  -1  -3 -10   97.69   21.00
  -1  -3 -10  102.59   44.10
   1   3  10  117.39   28.20
  -5   4  10  205.28   43.40
  -5   4  10  288.57   32.00
  -4   4  10   37.10   21.70
  -4   4  10   59.89   15.90
   3  -4 -10   38.30   13.60
   3  -4 -10   23.60   26.00
  -3   4  10   13.00   15.70
  -3   4  10   32.20   12.30
   2  -4 -10  526.65   42.60
   2  -4 -10  474.85   66.59
  -2   4  10  555.64   40.90
  -2   4  10  416.16   46.50
  -2   4  10  433.26   54.09
   1  -4 -10  236.88   49.00
   1  -4 -10  245.68   32.90
  -1   4  10  222.98   26.90
  -1   4  10  209.38   38.10
   0  -4 -10  293.97   36.90
   0  -4 -10  169.58   42.20
   0   4  10  240.68   40.90
   0   4  10  270.47   27.80
   1   7 -11  179.48   33.10
   1   7 -11  170.58   30.60
  -1  -7  11  288.67   57.69
   4   6 -11  205.18   35.20
   4   6 -11  192.38   35.90
   4   6 -11  230.08   27.10
  -4  -6  11  142.39   33.20
   3   6 -11  219.48   52.09
   3   6 -11  149.88   31.00
   3   6 -11  227.58   26.50
   3   6 -11  225.48   36.10
  -3  -6  11  172.18   35.40
  -3  -6  11  252.87   35.40
  -3  -6  11  277.07   38.50
   2   6 -11   39.60   19.40
   2   6 -11   -1.10   34.90
  -2  -6  11   69.29   22.80
  -2  -6  11   91.59   34.30
   1   6 -11  430.06   63.09
   1   6 -11  608.94   51.29
   1   6 -11  540.15   37.80
   1   6 -11  487.35   48.40
  -1  -6  11  616.54  109.69
  -1  -6  11  497.95   72.89
  -1  -6  11  445.66   50.09
   0   6 -11  157.68   27.30
   0   6 -11  171.68   55.19
   0   6 -11  139.59   28.80
   0   6 -11  215.98   49.20
   0  -6  11  122.09   36.00
   0  -6  11  127.89   28.30
   0  -6  11  148.89   54.39
  -1   6 -11   45.20   28.90
  -1   6 -11   64.79   21.60
   1  -6  11  138.99   43.60
   1  -6  11   85.69   24.70
   5   5 -11  208.28   38.10
   5   5 -11  221.38   55.19
   5   5 -11  211.28   34.40
   5   5 -11  230.98   27.10
  -5  -5  11  243.18   41.50
   4   5 -11  127.19   27.80
   4   5 -11   54.29   53.09
   4   5 -11  135.09   20.00
   4   5 -11  115.09   22.00
  -4  -5  11  153.08   30.00
  -4  -5  11  127.49   23.10
  -4  -5  11   99.69   25.60
   3   5 -11  558.94   37.50
   3   5 -11  322.97   63.39
   3   5 -11  565.44   46.20
   3   5 -11  426.56   45.10
  -3  -5  11  519.05   40.70
  -3  -5  11  443.36   48.90
  -3  -5  11  375.06   44.70
   2   5 -11   28.00   14.60
   2   5 -11   -3.60   25.50
   2   5 -11   27.10   11.20
   2   5 -11   -9.70   15.40
  -2  -5  11  -10.90   21.00
  -2  -5  11  -10.30   13.90
   1   5 -11  200.98   42.60
   1   5 -11  138.49   27.50
  -1  -5  11  160.28   35.30
  -1  -5  11  197.08   32.70
  -1  -5  11  184.58   36.90
  -1  -5  11  169.28   50.39
   0   5 -11  388.66   29.60
   0   5 -11  344.37   44.20
   0   5 -11  388.76   39.00
   0  -5  11  282.07   36.90
   0  -5  11  409.56   70.69
   0  -5  11  352.66   39.40
  -1   5 -11   53.49   32.20
  -1   5 -11   66.09   20.20
  -1   5 -11   57.59   12.60
   1  -5  11   43.40   36.30
   1  -5  11   93.79   22.90
   1  -5  11   97.89   22.50
  -2   5 -11   24.00   34.70
  -2   5 -11   -4.30   16.10
   2  -5  11  -26.00   26.80
   2  -5  11   54.39   22.20
   2  -5  11   15.70   15.00
   5   4 -11  444.16   45.70
   5   4 -11  505.25   39.10
   5   4 -11  468.65   69.79
  -5  -4  11  527.25   37.60
  -5  -4  11  609.34   55.19
   4   4 -11  142.89   20.50
   4   4 -11  120.89   27.00
   4   4 -11  103.09   36.40
   4   4 -11   83.49   21.00
  -4  -4  11  154.28   30.30
  -4  -4  11   91.89   22.50
   3   4 -11  176.58   28.50
   3   4 -11  132.89   22.20
   3   4 -11  144.99   19.80
   3   4 -11  150.98   25.60
  -3  -4  11   85.49   40.30
  -3  -4  11  103.99   23.50
   2   4 -11  276.27   41.40
   2   4 -11  325.07   37.90
   2   4 -11  334.37   30.60
   2   4 -11  301.27   46.80
  -2  -4  11  385.76   39.90
  -2  -4  11  296.57   39.90
   1   4 -11   56.39   11.80
   1   4 -11   60.59   20.80
   1   4 -11   84.89   18.10
  -1  -4  11   30.10   14.40
  -1  -4  11   62.29   17.70
  -1  -4  11   59.19   22.30
  -1  -4  11   66.39   35.60
   0   4 -11   -1.10   20.00
   0   4 -11    3.80   10.00
   0   4 -11   -4.90    7.90
   0  -4  11  -13.60   24.10
   0  -4  11    0.00   11.40
   0  -4  11   -0.20   14.50
  -1   4 -11  390.06   51.49
  -1   4 -11  360.06   50.79
  -1   4 -11  411.46   39.70
  -1   4 -11  370.36   28.50
   1  -4  11  364.36   41.20
   1  -4  11  399.86   66.79
   1  -4  11  393.06   42.00
  -2   4 -11  188.38   37.90
  -2   4 -11  239.38   50.79
  -2   4 -11  258.47   34.60
   2  -4  11  256.57   36.60
   2  -4  11  201.88   34.00
   2  -4  11  250.97   84.99
   6   3 -11   21.60   12.60
  -6  -3  11   93.69   17.70
  -6  -3  11   56.09   22.50
  -5  -3  11   86.99   25.10
   4   3 -11  339.87   36.20
   4   3 -11  263.27   25.00
   4   3 -11  236.48   28.60
   4   3 -11  275.37   30.70
  -4  -3  11  218.28   34.70
   3   3 -11  514.75   42.90
   3   3 -11  554.54   52.09
   3   3 -11  567.44   46.50
  -3  -3  11  420.26   42.30
   2   3 -11   -2.90    7.80
   2   3 -11  -10.40    9.50
   2   3 -11   -4.10   13.40
   2   3 -11   16.00   10.60
  -2  -3  11    5.30   11.30
  -2  -3  11   11.60   13.00
  -2  -3  11   21.60   11.60
   1   3 -11  959.90   67.49
   1   3 -11  851.01   51.79
   1   3 -11 1006.40   60.99
  -1  -3  11  957.80   62.39
  -1  -3  11  927.91   58.19
   0   3 -11  622.44   57.29
   0   3 -11  697.53   49.90
   0   3 -11  601.54   40.50
   0  -3  11  600.04   73.49
   0  -3  11  704.63   50.39
   0  -3  11  641.24   51.29
  -1   3 -11  -23.90   20.00
  -1   3 -11   45.40   19.80
  -1   3 -11   38.30   14.40
  -1   3 -11   19.70    8.90
   1  -3  11   10.00   12.20
   1  -3  11   24.00   23.00
  -2   3 -11  473.95   32.60
  -2   3 -11  510.15   44.80
  -2   3 -11  448.36   67.69
   2  -3  11  459.55   47.50
   2  -3  11  558.54   52.89
   6   2 -11  108.19   19.20
  -6  -2  11   95.69   17.30
  -6  -2  11   94.49   24.60
   5   2 -11   73.99   15.10
  -5  -2  11   68.79   23.10
   4   2 -11    3.40    9.00
   4   2 -11   12.20    9.30
   4   2 -11   15.30   13.00
  -4  -2  11   14.30   14.30
   3   2 -11  236.08   33.00
   3   2 -11  249.28   31.70
   3   2 -11  180.18   33.40
  -3  -2  11  149.39   38.80
   2   2 -11  593.24   39.30
   2   2 -11  586.54   40.20
   2   2 -11  665.13   44.20
   2   2 -11  541.55   49.70
  -2  -2  11  500.75   52.89
  -2  -2  11  603.74   44.70
   1   2 -11   23.60   17.10
   1   2 -11   34.70   11.20
   1   2 -11   52.79   14.40
  -1  -2  11   26.70   13.30
  -1  -2  11   24.80   15.00
   0   2 -11  609.34   40.30
   0   2 -11  622.64   46.50
   0   2 -11  557.74   58.59
   0  -2  11  625.94   49.50
   0  -2  11  623.74   49.70
  -1   2 -11  174.68   24.70
  -1   2 -11  101.99   29.60
  -1   2 -11  155.88   19.20
   1  -2  11  122.09   24.20
   1  -2  11  102.79   27.10
  -2   2 -11    6.50   12.40
  -2   2 -11    5.30    9.30
   2  -2  11   59.99   25.40
   2  -2  11   -5.40   13.30
   2  -2  11   18.10   25.50
   6   1 -11  -19.30    9.20
  -6  -1  11  -16.20   15.70
  -5  -1  11  113.09   28.30
   4   1 -11  432.26   35.40
   4   1 -11  389.06   31.70
  -4  -1  11  293.57   41.60
   3   1 -11  -10.00   12.70
   3   1 -11    1.80   11.50
   3   1 -11    3.00    8.70
  -3  -1  11  -10.10    9.80
  -3  -1  11   -9.30   14.50
   2   1 -11  518.35   37.60
   2   1 -11  513.75   36.90
   2   1 -11  479.65   47.70
   2   1 -11  474.25   36.20
  -2  -1  11  387.96   50.09
  -2  -1  11  423.56   38.30
   1   1 -11  200.98   37.80
   1   1 -11  259.47   27.40
   1   1 -11  218.28   24.30
  -1  -1  11  205.58   31.60
  -1  -1  11  194.78   28.20
   0   1 -11   -6.40   10.40
   0  -1  11   -4.80   19.10
   0  -1  11    3.10   17.30
  -1   1 -11  242.68   29.50
  -1   1 -11  272.87   49.00
   1  -1  11  172.98   30.90
   1  -1  11  174.48   30.60
  -2   1 -11  189.38   29.20
   2  -1  11  200.08   33.80
   2  -1  11  156.78   39.50
   6   0 -11  699.43   44.40
  -6   0  11  448.66   53.89
   5   0 -11    9.00   10.80
  -5   0  11   -1.40   15.10
   4   0 -11 1138.39   65.49
   4   0 -11 1119.99   61.79
  -4   0  11  838.72   73.89
   3   0 -11  128.59   27.40
   3   0 -11  169.58   26.70
  -3   0  11  138.69   50.89
   2   0 -11  -12.80   17.70
   2   0 -11   12.30   13.80
  -2   0  11   43.50   12.60
  -2   0  11   43.20   23.80
   1   0 -11  430.86   39.50
  -1   0  11  440.26   42.90
  -1   0  11  427.46   39.50
   0   0 -11  312.17   71.99
   0   0 -11  471.35   41.20
   0   0  11  332.77   53.29
   0   0  11  373.76   46.30
  -1   0 -11   -1.10   26.50
  -1   0 -11  -15.80   14.00
   1   0  11    8.50   13.70
  -2   0 -11  441.96   48.30
  -2   0 -11  469.55   95.79
   2   0  11  378.66   44.60
  -6   1  11   96.59   29.50
  -5   1  11  125.29   30.70
   4  -1 -11    5.20    9.50
  -4   1  11   -4.60   15.20
   3  -1 -11  389.76   40.20
   3  -1 -11  474.35   34.70
   3  -1 -11  423.06   47.80
   2  -1 -11  353.06   49.70
   2  -1 -11  352.76   31.50
  -2   1  11  334.37   35.40
   1  -1 -11   17.10   24.60
  -1   1  11   15.40   12.40
   0  -1 -11  402.26   36.70
   0  -1 -11  436.66   73.29
  -1  -1 -11  489.55   42.60
  -1  -1 -11  436.36   69.49
   1   1  11  480.45   45.70
   5  -2 -11  266.67   28.30
  -5   2  11  227.08   40.20
  -4   2  11  320.67   45.30
   3  -2 -11    0.50   22.10
   3  -2 -11   -9.80    8.30
  -3   2  11    7.10   17.10
  -3   2  11   10.80    8.70
   2  -2 -11  332.77   51.19
   2  -2 -11  400.16   34.70
  -2   2  11  333.37   37.20
  -2   2  11  432.46   36.50
   1  -2 -11  366.76   34.60
   1  -2 -11  288.77   55.79
  -1   2  11  348.07   38.30
   0  -2 -11   22.60   13.40
   0   2  11   33.10   17.30
  -5   3  11   12.60   12.30
  -5   3  11    5.70   20.30
  -4   3  11  192.18   40.10
  -4   3  11  295.67   31.80
   3  -3 -11  182.28   24.90
   3  -3 -11  161.48   35.00
  -3   3  11  151.18   24.30
  -3   3  11  122.59   32.20
   2  -3 -11   43.40   15.10
   2  -3 -11  -15.30   28.30
  -2   3  11   53.79   24.80
  -2   3  11   37.10   12.40
  -2   3  11   33.40   19.50
   1  -3 -11   36.30   34.50
   1  -3 -11  129.69   24.60
  -1   3  11   54.69   22.60
  -1   3  11   74.19   15.00
   4   5 -12   54.59   20.40
   4   5 -12   61.19   19.40
  -4  -5  12   37.40   22.80
   3   5 -12  253.37   26.50
   3   5 -12  193.78   33.90
   3   5 -12  134.39   44.70
   3   5 -12  268.27   37.10
  -3  -5  12  223.88   39.20
  -3  -5  12  254.17   42.70
   2   5 -12   22.90   19.70
   2   5 -12   -0.70   12.90
   2   5 -12   26.30   10.90
   2   5 -12   34.50   25.60
   2   5 -12   20.80   16.20
  -2  -5  12    1.20   17.70
   1   5 -12  242.68   25.00
   1   5 -12  289.27   73.49
   1   5 -12  248.58   42.00
   1   5 -12  178.08   32.30
  -1  -5  12  212.18   37.20
  -1  -5  12  191.08   36.20
  -1  -5  12  135.19   52.89
   0   5 -12  406.56   44.90
   0   5 -12  406.46   53.79
   0   5 -12  440.66   33.10
   0   5 -12  543.95   60.79
   0  -5  12  438.36   77.19
   0  -5  12  359.16   45.40
   4   4 -12   21.70   11.10
   4   4 -12   26.50   13.70
   4   4 -12   29.90   15.70
  -4  -4  12   25.50   16.30
  -4  -4  12   17.20   18.80
   3   4 -12  140.19   25.70
   3   4 -12  115.79   22.10
  -3  -4  12   83.39   25.70
  -3  -4  12   79.69   22.20
   2   4 -12  476.15   44.40
   2   4 -12  531.65   37.50
   2   4 -12  537.35   50.59
  -2  -4  12  403.06   48.10
  -2  -4  12  479.15   48.80
   1   4 -12   57.89   22.80
   1   4 -12   20.90   15.60
   1   4 -12   63.09   27.00
   1   4 -12   24.90   11.40
  -1  -4  12  -11.90   27.00
  -1  -4  12    8.60   20.60
   0   4 -12   86.49   22.80
   0   4 -12  148.79   32.90
   0   4 -12  110.59   18.60
   0   4 -12   92.29   32.10
   0  -4  12  127.69   25.50
   0  -4  12   96.49   42.70
  -1   4 -12  239.38   50.69
  -1   4 -12  325.87   57.89
  -1   4 -12  279.67   36.10
   1  -4  12  245.18   54.29
   1  -4  12  283.57   38.10
   5   3 -12  517.85   39.40
  -5  -3  12  464.65   53.09
   4   3 -12  488.15   44.20
   4   3 -12  575.04   39.30
   4   3 -12  446.06   41.40
  -4  -3  12  420.86   49.40
   3   3 -12   33.60   14.50
   3   3 -12   43.10   15.90
   3   3 -12   31.30   11.40
   3   3 -12   28.70   18.50
  -3  -3  12   12.00   15.80
  -3  -3  12   18.50   15.70
   2   3 -12   68.49   22.50
   2   3 -12   80.29   16.40
   2   3 -12   86.49   17.60
  -2  -3  12   66.89   19.00
  -2  -3  12   79.69   24.00
   1   3 -12  529.15   52.89
   1   3 -12  477.75   42.60
   1   3 -12  519.65   37.00
  -1  -3  12  480.15   45.60
   0   3 -12  289.07   27.30
   0   3 -12  296.07   48.10
   0   3 -12  253.57   31.70
   0  -3  12  241.88   36.30
  -1   3 -12   74.79   31.50
   1  -3  12   78.29   22.60
   1  -3  12   33.50   33.40
   5   2 -12   21.90   12.90
  -5  -2  12   -0.30   16.80
   4   2 -12   40.80   13.10
   4   2 -12   60.69   15.90
   4   2 -12   33.80   17.60
  -4  -2  12   41.00   19.40
   3   2 -12  332.87   38.50
   3   2 -12  206.08   27.70
   3   2 -12  295.47   27.70
   3   2 -12  281.37   31.00
  -3  -2  12  236.88   39.00
   2   2 -12  169.68   21.70
   2   2 -12  203.58   25.60
   2   2 -12  133.19   30.50
  -2  -2  12  149.49   27.60
  -2  -2  12  154.38   34.50
   1   2 -12   65.79   16.20
   1   2 -12   97.99   17.80
   1   2 -12  114.59   28.70
  -1  -2  12   92.49   20.60
   0   2 -12  570.74   62.39
   0   2 -12  646.14   42.90
   0   2 -12  664.73   50.19
   0  -2  12  628.84   52.09
  -1   2 -12   30.90   33.00
  -1   2 -12   48.80   13.50
  -1   2 -12   53.19   17.00
   1  -2  12   52.79   20.20
  -5  -1  12  135.59   31.60
   4   1 -12  247.68   25.50
   4   1 -12  227.98   26.00
   4   1 -12  208.38   33.30
   3   1 -12   71.19   26.20
   3   1 -12   41.10   13.40
   3   1 -12   69.69   17.70
   3   1 -12   11.60   10.50
  -3  -1  12   15.40   14.70
  -3  -1  12   14.40   17.80
   2   1 -12  472.25   37.90
   2   1 -12  579.04   55.09
   2   1 -12  516.85   38.30
  -2  -1  12  468.85   42.50
  -2  -1  12  384.26   52.89
   1   1 -12   46.10   13.10
   1   1 -12   39.30   14.20
   1   1 -12   70.99   26.00
  -1  -1  12   33.60   17.10
   0   1 -12    7.10   26.70
   0   1 -12   48.80   17.00
   0   1 -12   50.39   14.10
   0  -1  12   38.60   19.30
  -1   1 -12  234.28   32.40
  -1   1 -12  221.48   42.20
  -1   1 -12  215.88   24.80
   1  -1  12  202.98   35.30
   5   0 -12   89.59   19.80
   4   0 -12  655.43   45.00
  -4   0  12  530.45   58.39
   3   0 -12  137.39   30.00
   3   0 -12   92.69   23.70
   3   0 -12  110.69   18.80
   3   0 -12   68.79   16.40
  -3   0  12   95.09   27.30
   2   0 -12  136.99   31.90
   2   0 -12  157.78   23.80
  -2   0  12  123.99   33.70
  -2   0  12  179.18   28.10
   1   0 -12  209.58   41.50
   1   0 -12  321.47   32.90
  -1   0  12  254.17   35.30
   0   0 -12  128.29   25.40
   0   0 -12  174.68   40.10
   0   0  12  128.79   25.20
   5  -1 -12   35.90   14.30
  -5   1  12   37.30   24.30
   4  -1 -12   72.49   16.70
  -4   1  12   99.89   29.60
   3  -1 -12  325.37   30.20
   3  -1 -12  213.28   38.80
  -3   1  12  238.18   44.60
   2  -1 -12  151.28   22.70
   2  -1 -12   81.29   36.00
  -2   1  12  164.48   28.90
  -2   1  12  100.39   29.90
   1  -1 -12   38.60   13.90
   1  -1 -12   68.59   33.20
  -1   1  12   25.50   16.80
   0  -1 -12  292.57   33.50
   0  -1 -12  204.98   49.30
   0   1  12  280.67   39.70
  -4   2  12  109.29   34.80
   3  -2 -12   -1.90    9.40
  -3   2  12   14.40   22.20
   2  -2 -12  240.08   47.60
   2  -2 -12  342.47   34.40
  -2   2  12  356.76   54.99
  -2   2  12  409.56   33.20
  -2   2  12  372.36   40.20
   2   4 -13  374.86   40.10
   2   4 -13  323.57   29.90
   2   4 -13  317.87   48.40
  -2  -4  13  273.67   43.80
  -2  -4  13  233.38   43.20
   3   3 -13    0.50   18.40
   3   3 -13   12.10   10.70
   3   3 -13  -12.20   11.80
  -3  -3  13   -4.40   17.30
  -3  -3  13   27.50   18.30
   2   3 -13  241.18   45.30
   2   3 -13  307.17   29.40
   2   3 -13  245.58   32.40
  -2  -3  13  252.67   38.30
  -2  -3  13  198.98   41.20
   1   3 -13  141.29   22.60
   1   3 -13   95.39   21.90
   1   3 -13  126.49   33.40
   4   2 -13   61.29   21.60
   4   2 -13   80.79   21.20
  -4  -2  13   62.59   25.80
   3   2 -13  239.48   28.70
   3   2 -13  172.38   32.00
   3   2 -13  203.68   25.50
  -3  -2  13  182.38   39.80
   2   2 -13   15.10   11.90
   2   2 -13    3.10   21.70
   2   2 -13   16.40   12.30
  -2  -2  13    4.80   17.90
  -2  -2  13   16.60   17.50
   1   2 -13  135.69   23.00
   1   2 -13  155.58   25.80
   1   2 -13  117.49   57.49
  -1  -2  13  123.69   26.30
   4   1 -13  -23.70   17.60
  -4  -1  13   -0.70   19.30
   3   1 -13   44.70   24.20
   3   1 -13   63.39   15.70
   3   1 -13   33.80   14.00
  -3  -1  13   20.60   21.70
  -3  -1  13   81.89   28.20
   2   1 -13  530.35   40.10
   2   1 -13  494.35   41.00
   2   1 -13  411.96   57.19
   2   1 -13  555.84   45.50
  -2  -1  13  411.16   55.79
  -2  -1  13  465.05   46.40
   1   1 -13   21.10   13.10
   1   1 -13   50.39   32.00
   1   1 -13   43.80   14.20
  -1  -1  13   12.50   16.90
   3   0 -13    7.80   25.10
   3   0 -13   33.70   15.10
  -3   0  13   58.79   21.50
  -3   0  13   42.70   23.40
   2   0 -13  169.48   27.10
   2   0 -13  165.78   40.10
   2   0 -13  186.48   25.80
  -2   0  13  160.18   36.60
  -2   0  13  123.79   25.90
   0   0   0    0.00    0.00
_computing_structure_solution     'SHELXT 2014/5 (Sheldrick, 2014)'
;
_shelx_hkl_checksum              78267
_shelx_res_file
;
TITL P-1_a.res in P-1
REM P-1_a.res in P-1
REM 196 parameters refined using 2 restraints
REM Instructions for potential hydrogen bonds
REM Highest difference peak 0.938, deepest hole -1.085, 1-sigma level 0.169
CELL 0.71073 6.961 7.9482 10.9901 101.579 106.761 95.588
ZERR 2 0.0007 0.0009 0.0013 0.004 0.004 0.004
LATT 1
SFAC C H N O S Eu
UNIT 18 10 4 16 2 2
EQIV $1 1-X,-Y,1-Z
EQIV $2 1-X,1-Y,1-Z
EQIV $3 -X,-Y,1-Z
DFIX 0.86 0.01 H1 N1
DFIX 0.86 0.01 H2 N2
L.S. 10
PLAN  20
SIZE 0.14 0.12 0.1
TEMP 25
HTAB N1 O2_$1
HTAB N1 O4_$1
HTAB N2 O3_$2
HTAB N2 O6_$3
GRID
HTAB
fmap 2
acta
MERG 2
OMIT 0 0 1
REM <olex2.extras>
REM <HklSrc "%.\\2.hkl">
REM </olex2.extras>
WGHT    0.010300    1.918100
FVAR       0.46423
EU1   6    0.337339    0.676775    0.946713    11.00000    0.01161    0.01631 =
         0.01529    0.00361    0.00343    0.00305
S1    5    0.783700    0.599266    0.848818    11.00000    0.01159    0.01761 =
         0.01765    0.00523    0.00418    0.00304
O5    4    0.576754    0.080987    0.883486    11.00000    0.01518    0.01781 =
         0.01510    0.00183    0.00392    0.00351
O8    4    0.374663    0.363978    0.877336    11.00000    0.01870    0.01560 =
         0.01369    0.00100    0.00249    0.00397
O3    4    0.984130    0.718227    0.896201    11.00000    0.01184    0.01960 =
         0.02603    0.00767    0.00482    0.00340
O2    4    0.801353    0.456183    0.917495    11.00000    0.01418    0.02153 =
         0.01924    0.00839    0.00689    0.00425
O4    4    0.730665    0.526488    0.707795    11.00000    0.02375    0.02552 =
         0.01722    0.00354    0.00539    0.00672
O1    4    0.631015    0.701716    0.879349    11.00000    0.01507    0.01816 =
         0.02297    0.00667    0.00749    0.00518
O6    4    0.292838   -0.112321    0.825104    11.00000    0.01387    0.02028 =
         0.01977    0.00860    0.00515    0.00511
O7    4    0.216095    0.487389    0.724477    11.00000    0.02312    0.02012 =
         0.02005    0.00302    0.00361    0.00770
N1    3    0.185569   -0.192400    0.323699    11.00000    0.02021    0.01795 =
         0.01649    0.00138    0.00558    0.00163
C7    1    0.192737    0.084062    0.420752    11.00000    0.01160    0.01971 =
         0.01691    0.00314    0.00359    0.00041
N2    3    0.117101    0.056136    0.285440    11.00000    0.01595    0.02162 =
         0.01639    0.00527    0.00603    0.00385
C1    1    0.295185    0.360448    0.755347    11.00000    0.00528    0.02299 =
         0.01618    0.00348    0.00325    0.00155
C8    1    0.333827    0.041774    0.672294    11.00000    0.01086    0.02130 =
         0.01798    0.00501    0.00413    0.00072
C3    1    0.113910   -0.108609    0.231391    11.00000    0.01271    0.02089 =
         0.01837    0.00295    0.00407    0.00057
AFIX  43
H3    2    0.068234   -0.158664    0.141884    11.00000   -1.20000
AFIX   0
C5    1    0.217512    0.226863    0.522289    11.00000    0.01420    0.01922 =
         0.02002    0.00675    0.00562    0.00660
AFIX  43
H5    2    0.187137    0.333252    0.506103    11.00000   -1.20000
AFIX   0
C6    1    0.235095   -0.077672    0.443835    11.00000    0.01555    0.02106 =
         0.01369   -0.00018    0.00912    0.00399
C4    1    0.304989   -0.099862    0.570173    11.00000    0.01347    0.01936 =
         0.02042    0.00558    0.00272    0.00319
AFIX  43
H4    2    0.331585   -0.207539    0.585349    11.00000   -1.20000
AFIX   0
C2    1    0.406802    0.003790    0.806278    11.00000    0.01552    0.01345 =
         0.01355   -0.00099    0.00540    0.00410
C9    1    0.289605    0.206577    0.650059    11.00000    0.01037    0.01703 =
         0.01745    0.00303    0.00663    0.00155
H1    2    0.196062   -0.300763    0.307302    11.00000   -1.50000
H2    2    0.071250    0.123605    0.236154    11.00000   -1.50000
HKLF 4
REM  P-1_a.res in P-1
REM R1 =  0.0278 for    1954 Fo > 4sig(Fo)  and  0.0343 for all    2149 data
REM    196 parameters refined using      2 restraints
END
WGHT      0.0103      1.9181
REM Instructions for potential hydrogen bonds
EQIV $4 x-1, y-1, z-1
HTAB C3 O3_$4
HTAB C3 O2_$1
HTAB N1 S1_$1
HTAB N1 O2_$1
HTAB N1 O4_$1
HTAB N2 S1_$2
HTAB N2 O3_$2
HTAB N2 O6_$3
REM Highest difference peak  0.938,  deepest hole -1.085,  1-sigma level  0.169
Q1    1  -0.0265 -0.0358  0.1618  11.00000  0.05    0.94
Q2    1   0.7088  0.3065  0.9338  11.00000  0.05    0.79
Q3    1   0.3416  0.6710  0.8150  11.00000  0.05    0.77
Q4    1   0.5858  0.1636  0.9645  11.00000  0.05    0.72
Q5    1   0.3981  0.6604  0.8392  11.00000  0.05    0.71
Q6    1   0.2042  0.6738  0.9387  11.00000  0.05    0.70
Q7    1   0.4647  0.6956  0.9635  11.00000  0.05    0.66
Q8    1   0.4737  0.5821  0.8884  11.00000  0.05    0.66
Q9    1   0.2709  0.2070  0.5841  11.00000  0.05    0.66
Q10   1   0.5437  0.0374  0.9362  11.00000  0.05    0.65
Q11   1  -0.0629  0.0709  0.2209  11.00000  0.05    0.60
Q12   1   0.4602  0.6675  0.8573  11.00000  0.05    0.59
Q13   1   0.6253  0.6771  0.9439  11.00000  0.05    0.58
Q14   1   0.4028  0.6463  0.7381  11.00000  0.05    0.57
Q15   1   0.2116  0.5214  0.8450  11.00000  0.05    0.56
Q16   1   0.7346  0.4026  0.7961  11.00000  0.05    0.56
Q17   1   0.6313  0.1672  0.8233  11.00000  0.05    0.55
Q18   1   0.4101 -0.0625  0.9127  11.00000  0.05    0.53
Q19   1   0.1827 -0.0638  0.5596  11.00000  0.05    0.53
Q20   1   0.6644  0.6334  0.8578  11.00000  0.05    0.53
;
_shelx_res_checksum              3202
_shelxl_version_number           20.13
loop_
_space_group_symop_operation_xyz
'x, y, z'
'-x, -y, -z'
loop_
_atom_site_type_symbol
_atom_site_label
_atom_site_fract_x
_atom_site_fract_y
_atom_site_fract_z
_atom_site_U_iso_or_equiv
_atom_site_adp_type
_atom_site_calc_flag
_atom_site_occupancy
Eu Eu1 0.33734(4) 0.67677(3) 0.94671(3) 0.01456(9) Uani d 1
S S1 0.78370(19) 0.59927(16) 0.84882(12) 0.0155(3) Uani d 1
O O5 0.5768(5) 0.0810(4) 0.8835(3) 0.0165(8) Uani d 1
O O8 0.3747(5) 0.3640(4) 0.8773(3) 0.0169(8) Uani d 1
O O3 0.9841(5) 0.7182(5) 0.8962(4) 0.0190(8) Uani d 1
O O2 0.8014(5) 0.4562(4) 0.9175(3) 0.0174(8) Uani d 1
O O4 0.7307(6) 0.5265(5) 0.7078(3) 0.0224(8) Uani d 1
O O1 0.6310(5) 0.7017(4) 0.8793(3) 0.0180(8) Uani d 1
O O6 0.2928(5) -0.1123(4) 0.8251(3) 0.0173(8) Uani d 1
O O7 0.2161(6) 0.4874(5) 0.7245(4) 0.0218(8) Uani d 1
N N1 0.1856(7) -0.1924(6) 0.3237(4) 0.0188(10) Uani d 1
C C7 0.1927(7) 0.0841(7) 0.4208(5) 0.0166(11) Uani d 1
N N2 0.1171(7) 0.0561(6) 0.2854(4) 0.0176(9) Uani d 1
C C1 0.2952(7) 0.3604(7) 0.7553(5) 0.0151(11) Uani d 1
C C8 0.3338(7) 0.0418(7) 0.6723(5) 0.0169(11) Uani d 1
C C3 0.1139(8) -0.1086(7) 0.2314(5) 0.0179(11) Uani d 1
H H3 0.0682 -0.1587 0.1419 0.022 Uiso calc 1
C C5 0.2175(7) 0.2269(7) 0.5223(5) 0.0172(11) Uani d 1
H H5 0.1871 0.3333 0.5061 0.021 Uiso calc 1
C C6 0.2351(8) -0.0777(7) 0.4438(5) 0.0164(11) Uani d 1
C C4 0.3050(8) -0.0999(7) 0.5702(5) 0.0182(11) Uani d 1
H H4 0.3316 -0.2075 0.5853 0.022 Uiso calc 1
C C2 0.4068(8) 0.0038(6) 0.8063(5) 0.0145(11) Uani d 1
C C9 0.2896(7) 0.2066(6) 0.6501(5) 0.0147(11) Uani d 1
H H1 0.196(9) -0.301(2) 0.307(5) 0.022 Uiso d 1
H H2 0.071(8) 0.124(6) 0.236(5) 0.022 Uiso d 1
loop_
_atom_site_aniso_label
_atom_site_aniso_U_11
_atom_site_aniso_U_22
_atom_site_aniso_U_33
_atom_site_aniso_U_12
_atom_site_aniso_U_13
_atom_site_aniso_U_23
Eu1 0.01161(14) 0.01631(14) 0.01529(14) 0.00305(10) 0.00343(10) 0.00361(10)
S1 0.0116(6) 0.0176(6) 0.0177(7) 0.0030(5) 0.0042(5) 0.0052(5)
O5 0.0152(18) 0.0178(18) 0.0151(18) 0.0035(15) 0.0039(15) 0.0018(15)
O8 0.0187(19) 0.0156(18) 0.0137(18) 0.0040(15) 0.0025(15) 0.0010(14)
O3 0.0118(18) 0.0196(19) 0.026(2) 0.0034(15) 0.0048(15) 0.0077(16)
O2 0.0142(18) 0.0215(19) 0.0192(19) 0.0043(15) 0.0069(15) 0.0084(16)
O4 0.024(2) 0.026(2) 0.017(2) 0.0067(17) 0.0054(16) 0.0035(16)
O1 0.0151(18) 0.0182(19) 0.023(2) 0.0052(15) 0.0075(15) 0.0067(16)
O6 0.0139(18) 0.0203(19) 0.0198(19) 0.0051(15) 0.0052(15) 0.0086(16)
O7 0.023(2) 0.020(2) 0.020(2) 0.0077(16) 0.0036(16) 0.0030(16)
N1 0.020(2) 0.018(2) 0.016(2) 0.002(2) 0.0056(19) 0.0014(19)
C7 0.012(2) 0.020(3) 0.017(3) 0.000(2) 0.004(2) 0.003(2)
N2 0.016(2) 0.022(2) 0.016(2) 0.0038(19) 0.0060(19) 0.0053(19)
C1 0.005(2) 0.023(3) 0.016(3) 0.002(2) 0.003(2) 0.003(2)
C8 0.011(2) 0.021(3) 0.018(3) 0.001(2) 0.004(2) 0.005(2)
C3 0.013(3) 0.021(3) 0.018(3) 0.001(2) 0.004(2) 0.003(2)
C5 0.014(3) 0.019(3) 0.020(3) 0.007(2) 0.006(2) 0.007(2)
C6 0.016(3) 0.021(3) 0.014(3) 0.004(2) 0.009(2) 0.000(2)
C4 0.013(3) 0.019(3) 0.020(3) 0.003(2) 0.003(2) 0.006(2)
C2 0.016(3) 0.013(3) 0.014(3) 0.004(2) 0.005(2) -0.001(2)
C9 0.010(2) 0.017(3) 0.017(3) 0.002(2) 0.007(2) 0.003(2)
loop_
_atom_type_symbol
_atom_type_description
_atom_type_scat_dispersion_real
_atom_type_scat_dispersion_imag
_atom_type_scat_source
C C 0.0033 0.0016 'International Tables Vol C Tables 4.2.6.8 and 6.1.1.4'
H H 0.0000 0.0000 'International Tables Vol C Tables 4.2.6.8 and 6.1.1.4'
N N 0.0061 0.0033 'International Tables Vol C Tables 4.2.6.8 and 6.1.1.4'
O O 0.0106 0.0060 'International Tables Vol C Tables 4.2.6.8 and 6.1.1.4'
S S 0.1246 0.1234 'International Tables Vol C Tables 4.2.6.8 and 6.1.1.4'
Eu Eu -0.1578 3.6682 'International Tables Vol C Tables 4.2.6.8 and 6.1.1.4'
loop_
_geom_angle_atom_site_label_1
_geom_angle_atom_site_label_2
_geom_angle_atom_site_label_3
_geom_angle_site_symmetry_1
_geom_angle_site_symmetry_3
_geom_angle
O5 Eu1 Eu1 2_667 2_667 109.17(8)
O5 Eu1 O8 2_667 2_667 71.40(12)
O5 Eu1 O8 2_667 . 145.56(11)
O5 Eu1 O3 2_667 1_455 89.18(12)
O5 Eu1 O2 2_667 2_667 84.71(12)
O5 Eu1 O1 2_667 . 99.90(12)
O5 Eu1 O6 2_667 1_565 81.45(12)
O5 Eu1 O7 2_667 . 161.57(12)
O5 Eu1 C1 2_667 . 170.40(13)
O5 Eu1 C2 2_667 2_667 16.94(12)
O8 Eu1 Eu1 . 2_667 37.13(8)
O8 Eu1 Eu1 2_667 2_667 38.22(8)
O8 Eu1 O8 2_667 . 75.35(12)
O8 Eu1 O7 2_667 . 123.85(12)
O8 Eu1 C1 2_667 . 99.35(13)
O8 Eu1 C1 . . 26.69(12)
O8 Eu1 C2 . 2_667 133.54(12)
O8 Eu1 C2 2_667 2_667 58.27(12)
O3 Eu1 Eu1 1_455 2_667 137.94(8)
O3 Eu1 O8 1_455 . 112.78(12)
O3 Eu1 O8 1_455 2_667 142.48(12)
O3 Eu1 O7 1_455 . 82.99(12)
O3 Eu1 C1 1_455 . 100.02(13)
O3 Eu1 C2 1_455 2_667 106.07(12)
O2 Eu1 Eu1 2_667 2_667 71.45(8)
O2 Eu1 O8 2_667 . 77.39(12)
O2 Eu1 O8 2_667 2_667 73.37(12)
O2 Eu1 O3 2_667 1_455 73.11(12)
O2 Eu1 O1 2_667 . 141.40(12)
O2 Eu1 O7 2_667 . 108.68(12)
O2 Eu1 C1 2_667 . 95.25(13)
O2 Eu1 C2 2_667 2_667 90.93(12)
O1 Eu1 Eu1 . 2_667 70.88(8)
O1 Eu1 O8 . . 77.80(11)
O1 Eu1 O8 . 2_667 72.04(12)
O1 Eu1 O3 . 1_455 144.58(12)
O1 Eu1 O7 . . 77.77(12)
O1 Eu1 C1 . . 74.17(13)
O1 Eu1 C2 . 2_667 85.20(13)
O6 Eu1 Eu1 1_565 2_667 145.98(9)
O6 Eu1 O8 1_565 . 129.42(12)
O6 Eu1 O8 1_565 2_667 132.65(12)
O6 Eu1 O3 1_565 1_455 72.09(12)
O6 Eu1 O2 1_565 2_667 142.57(12)
O6 Eu1 O1 1_565 . 75.51(12)
O6 Eu1 O7 1_565 . 80.27(12)
O6 Eu1 C1 1_565 . 103.91(13)
O6 Eu1 C2 1_565 2_667 85.78(12)
O7 Eu1 Eu1 . 2_667 87.53(8)
O7 Eu1 O8 . . 52.36(11)
O7 Eu1 C1 . . 25.84(12)
O7 Eu1 C2 . 2_667 160.19(13)
C1 Eu1 Eu1 . 2_667 61.97(10)
C1 Eu1 C2 . 2_667 153.87(13)
C2 Eu1 Eu1 2_667 2_667 96.45(9)
O2 S1 O3 . . 108.8(2)
O4 S1 O3 . . 109.3(2)
O4 S1 O2 . . 109.4(2)
O4 S1 O1 . . 111.1(2)
O1 S1 O3 . . 107.8(2)
O1 S1 O2 . . 110.3(2)
C2 O5 Eu1 . 2_667 130.9(3)
Eu1 O8 Eu1 2_667 . 104.65(12)
C1 O8 Eu1 . . 92.1(3)
C1 O8 Eu1 . 2_667 148.7(3)
S1 O3 Eu1 . 1_655 134.8(2)
S1 O2 Eu1 . 2_667 142.6(2)
S1 O1 Eu1 . . 141.1(2)
C2 O6 Eu1 . 1_545 135.6(3)
C1 O7 Eu1 . . 95.6(3)
C3 N1 C6 . . 108.6(4)
N2 C7 C6 . . 105.3(4)
C5 C7 N2 . . 133.0(5)
C5 C7 C6 . . 121.6(5)
C3 N2 C7 . . 109.1(4)
O8 C1 Eu1 . . 61.2(3)
O8 C1 C9 . . 121.5(4)
O7 C1 Eu1 . . 58.5(3)
O7 C1 O8 . . 119.1(5)
O7 C1 C9 . . 119.3(4)
C9 C1 Eu1 . . 173.5(3)
C4 C8 C2 . . 114.1(4)
C4 C8 C9 . . 121.4(5)
C9 C8 C2 . . 124.4(5)
N2 C3 N1 . . 110.0(5)
C7 C5 C9 . . 117.9(5)
N1 C6 C7 . . 107.0(4)
N1 C6 C4 . . 131.9(5)
C4 C6 C7 . . 121.0(5)
C8 C4 C6 . . 118.1(5)
O5 C2 Eu1 . 2_667 32.2(2)
O5 C2 C8 . . 118.8(4)
O6 C2 Eu1 . 2_667 118.4(3)
O6 C2 O5 . . 126.2(5)
O6 C2 C8 . . 114.9(4)
C8 C2 Eu1 . 2_667 118.2(3)
C8 C9 C1 . . 124.3(4)
C5 C9 C1 . . 115.5(4)
C5 C9 C8 . . 120.0(5)
loop_
_geom_bond_atom_site_label_1
_geom_bond_atom_site_label_2
_geom_bond_site_symmetry_2
_geom_bond_distance
Eu1 Eu1 2_667 3.9278(6)
Eu1 O5 2_667 2.288(3)
Eu1 O8 . 2.512(3)
Eu1 O8 2_667 2.451(3)
Eu1 O3 1_455 2.430(3)
Eu1 O2 2_667 2.354(3)
Eu1 O1 . 2.371(3)
Eu1 O6 1_565 2.335(3)
Eu1 O7 . 2.456(4)
Eu1 C1 . 2.865(5)
Eu1 C2 2_667 3.248(5)
S1 O3 . 1.496(4)
S1 O2 . 1.482(3)
S1 O4 . 1.463(4)
S1 O1 . 1.473(4)
O5 Eu1 2_667 2.288(3)
O5 C2 . 1.252(6)
O8 Eu1 2_667 2.451(3)
O8 C1 . 1.288(6)
O3 Eu1 1_655 2.430(3)
O2 Eu1 2_667 2.354(3)
O6 Eu1 1_545 2.335(3)
O6 C2 . 1.246(6)
O7 C1 . 1.255(6)
N1 C3 . 1.329(6)
N1 C6 . 1.374(7)
C7 N2 . 1.390(6)
C7 C5 . 1.380(7)
C7 C6 . 1.402(7)
N2 C3 . 1.320(7)
C1 C9 . 1.494(7)
C8 C4 . 1.373(7)
C8 C2 . 1.515(7)
C8 C9 . 1.426(7)
C5 C9 . 1.396(7)
C6 C4 . 1.386(7)
C2 Eu1 2_667 3.248(5)
loop_
_geom_hbond_atom_site_label_D
_geom_hbond_atom_site_label_H
_geom_hbond_atom_site_label_A
_geom_hbond_site_symmetry_A
_geom_hbond_distance_DH
_geom_hbond_distance_HA
_geom_hbond_distance_DA
_geom_hbond_angle_DHA
N1 H1 O2 2_656 0.859(10) 2.54(5) 3.062(6) 120(4)
N1 H1 O4 2_656 0.859(10) 1.901(16) 2.750(6) 169(6)
N2 H2 O3 2_666 0.856(10) 2.086(17) 2.927(5) 168(5)
N2 H2 O6 2_556 0.856(10) 2.41(5) 2.878(6) 115(4)

_cod_database_fobs_code 2021967
