#------------------------------------------------------------------------------
#$Date: 2018-05-01 18:46:38 +0300 (Tue, 01 May 2018) $
#$Revision: 207602 $
#$URL: file:///home/coder/svn-repositories/cod/cif/2/02/11/2021117.cif $
#------------------------------------------------------------------------------
#
# This file is available in the Crystallography Open Database (COD),
# http://www.crystallography.net/. The original data for this entry
# were provided by IUCr Journals, http://journals.iucr.org/.
#
# The file may be used within the scientific community so long as
# proper attribution is given to the journal article from which the
# data were obtained.
#
data_2021117
loop_
_publ_author_name
'Schwendtner, Karolina'
'Kolitsch, Uwe'
_publ_section_title
;
 RbFe(HAsO4)2 and TlFe(HAsO4)2, two new hydrogenarsenates adopting two
 closely related structure types
;
_journal_issue                   6
_journal_name_full
'Acta Crystallographica Section E Crystallographic Communications'
_journal_page_first              766
_journal_paper_doi               10.1107/S2056989018006473
_journal_volume                  74
_journal_year                    2018
_chemical_formula_iupac          'Tl Fe (H As O4)2'
_chemical_formula_moiety         'As2 Fe H2 O8 Tl'
_chemical_formula_sum            'As2 Fe H2 O8 Tl'
_chemical_formula_weight         540.08
_chemical_name_common            'thallium iron bis(hydrogen arsenate)'
_chemical_name_systematic        'Thallium iron bis[hydrogen arsenate(V)]'
_space_group_crystal_system      triclinic
_space_group_IT_number           2
_space_group_name_Hall           '-P 1'
_space_group_name_H-M_alt        'P -1'
_symmetry_space_group_name_Hall  '-P 1'
_symmetry_space_group_name_H-M   'P -1'
_atom_sites_solution_hydrogens   difmap
_atom_sites_solution_primary     direct
_atom_sites_solution_secondary   difmap
_audit_creation_method           SHELXL-2016/6
_cell_angle_alpha                64.89(3)
_cell_angle_beta                 70.51(3)
_cell_angle_gamma                69.94(3)
_cell_formula_units_Z            3
_cell_length_a                   7.346(2)
_cell_length_b                   9.148(2)
_cell_length_c                   9.662(2)
_cell_measurement_reflns_used    3867
_cell_measurement_temperature    293(2)
_cell_measurement_theta_max      32.583
_cell_measurement_theta_min      2.530
_cell_volume                     538.6(3)
_computing_cell_refinement
;
HKL SCALEPACK (Otwinowski <i>et al.</i>,  2003)
;
_computing_data_collection
;
COLLECT (Nonius, 2003)
;
_computing_data_reduction
;
HKL DENZO and SCALEPACK (Otwinowski <i>et al.</i>,  2003)
;
_computing_molecular_graphics
;
DIAMOND (Brandenburg, 2005)
;
_computing_publication_material
;
WINGX (Farrugia, 2012)
;
_computing_structure_refinement
;
SHELXL2016 (Sheldrick, 2015)
;
_computing_structure_solution
;
SHELXS97 (Sheldrick, 2008)
;
_diffrn_ambient_temperature      293(2)
_diffrn_measured_fraction_theta_full 0.999
_diffrn_measured_fraction_theta_max 0.995
_diffrn_measurement_device_type  'Nonius KappaCCD single-crystal four-circle'
_diffrn_measurement_method       '\f and \w scans'
_diffrn_radiation_type           MoK\a
_diffrn_radiation_wavelength     0.71073
_diffrn_reflns_av_R_equivalents  0.0214
_diffrn_reflns_limit_h_max       11
_diffrn_reflns_limit_h_min       -11
_diffrn_reflns_limit_k_max       13
_diffrn_reflns_limit_k_min       -13
_diffrn_reflns_limit_l_max       14
_diffrn_reflns_limit_l_min       -14
_diffrn_reflns_number            7723
_diffrn_reflns_theta_full        25.242
_diffrn_reflns_theta_max         32.583
_diffrn_reflns_theta_min         2.530
_exptl_absorpt_coefficient_mu    33.582
_exptl_absorpt_correction_T_max  0.347
_exptl_absorpt_correction_T_min  0.134
_exptl_absorpt_correction_type   multi-scan
_exptl_absorpt_process_details
;
(HKL SCALEPACK; Otwinowski <i>et al.</i>,  2003)
;
_exptl_crystal_colour            'colourless with red inclusions'
_exptl_crystal_density_diffrn    4.995
_exptl_crystal_density_method    'not measured'
_exptl_crystal_description       'short prismatic'
_exptl_crystal_F_000             717
_exptl_crystal_size_max          0.100
_exptl_crystal_size_mid          0.050
_exptl_crystal_size_min          0.040
_refine_diff_density_max         0.960
_refine_diff_density_min         -1.130
_refine_ls_extinction_coef       0.0068(2)
_refine_ls_extinction_expression Fc^*^=kFc[1+0.001xFc^2^\l^3^/sin(2\q)]^-1/4^
_refine_ls_extinction_method
;
SHELXL2016 (Sheldrick, 2015)
;
_refine_ls_goodness_of_fit_ref   1.058
_refine_ls_hydrogen_treatment    refU
_refine_ls_matrix_type           full
_refine_ls_number_parameters     208
_refine_ls_number_reflns         3906
_refine_ls_number_restraints     4
_refine_ls_restrained_S_all      1.058
_refine_ls_R_factor_all          0.0293
_refine_ls_R_factor_gt           0.0224
_refine_ls_shift/su_max          0.005
_refine_ls_shift/su_mean         0.000
_refine_ls_structure_factor_coef Fsqd
_refine_ls_weighting_details
'w=1/[\s^2^(Fo^2^)+(0.0193P)^2^+0.8062P] where P=(Fo^2^+2Fc^2^)/3'
_refine_ls_weighting_scheme      calc
_refine_ls_wR_factor_gt          0.0487
_refine_ls_wR_factor_ref         0.0508
_reflns_number_gt                3391
_reflns_number_total             3906
_reflns_threshold_expression     'I > 2\s(I)'
_cod_data_source_file            pj2051sup1.cif
_cod_data_source_block           TlFeHAsO42
_cod_original_formula_sum        'As2 Fe H2  O8 Tl'
_cod_database_code               2021117
_shelx_space_group_comment
;
The symmetry employed for this shelxl refinement is uniquely defined
by the following loop, which should always be used as a source of
symmetry information in preference to the above space-group names.
They are only intended as comments.
;
_shelx_estimated_absorpt_t_min   0.134
_shelx_estimated_absorpt_t_max   0.347
_shelx_hkl_file
;
   0   0   2  131.20    2.40   1
   0   0  -2  130.60    2.50   1
   0   0   3  596.90   10.00   1
   0   0  -3  563.50    9.60   1
   0   0   4 4049.90   63.80   1
   0   0  -4 3731.30   59.00   1
   0   0   5  180.20    3.00   1
   0   0  -5  175.60    3.50   1
   0   0   6   19.10    0.80   1
   0   0  -6   19.30    1.30   1
   0   0   7 1285.30   25.00   1
   0   0  -7 1223.70   29.70   1
   0   0   8  115.00    2.90   1
   0   0  -8  113.80    4.30   1
   0   0   9  131.00    3.90   1
   0   0  -9  116.30    6.60   1
   0   0  10   23.20    1.50   1
   0   0  11  177.60    5.10   1
   0   0  12   22.80    3.40   1
   0  -1  12  113.60   10.60   1
   0  -1  11    9.00    1.50   1
   0  -1  10    9.60    2.10   1
   0  -1   9  195.80    5.00   1
   0   1  -8  423.90   17.60   1
   0  -1   8  460.20    9.20   1
   0   1  -7  196.90    6.00   1
   0  -1   7  201.60    4.30   1
   0   1  -6  701.90   17.10   1
   0  -1   6  692.90   17.00   1
   0   1  -5  305.60    7.90   1
   0  -1   5  302.50    4.70   1
   0   1  -4 1012.50   19.80   1
   0  -1   4 1057.60   14.40   1
   0   1  -3    4.50    0.30   1
   0  -1   3    4.30    0.20   1
   0   1  -2 1881.70   29.90   1
   0  -1   2 1958.80   25.40   1
   0   1  -1    1.30    0.20   1
   0  -1   1    1.30    0.20   1
   0   1   0   73.30    2.80   1
   0  -1   0   72.70    2.80   1
   0   1   1   27.30    0.50   1
   0  -1  -1   27.40    0.60   1
   0   1   2  173.40    2.50   1
   0  -1  -2  175.50    2.50   1
   0   1   3  203.00    2.90   1
   0  -1  -3  201.10    3.00   1
   0   1   4   12.70    0.40   1
   0  -1  -4   13.20    0.50   1
   0   1   5  128.90    2.10   1
   0  -1  -5  127.40    2.50   1
   0   1   6  101.50    1.70   1
   0  -1  -6   98.60    1.80   1
   0   1   7  480.30   12.10   1
   0  -1  -7  452.90    9.70   1
   0   1   8    2.00    0.80   1
   0  -1  -8    2.00    1.20   1
   0   1   9  298.50    8.90   1
   0  -1  -9  281.40   11.30   1
   0   1  10   61.00    2.60   1
   0  -1 -10   53.20    4.40   1
   0   1  11  195.40    5.60   1
   0  -1 -11  183.40   10.70   1
   0   1  12    5.10    1.80   1
   0   1  13  266.20   18.60   1
   0  -2  12  161.20   13.50   1
   0  -2  11    1.30    3.30   1
   0  -2  10   76.80    3.60   1
   0  -2   9    0.20    1.20   1
   0   2  -8  838.70   32.80   1
   0  -2   8  813.40   15.60   1
   0   2  -7    2.30    1.90   1
   0  -2   7    2.30    1.00   1
   0   2  -6  138.50    4.50   1
   0  -2   6  140.50    3.70   1
   0   2  -5   22.10    1.60   1
   0  -2   5   24.50    0.90   1
   0   2  -4  517.80    8.70   1
   0  -2   4  530.90    6.50   1
   0   2  -3  265.90    4.30   1
   0  -2   3  265.90    3.40   1
   0   2  -2   76.10    1.70   1
   0  -2   2   74.40    1.20   1
   0   2  -1   19.50    0.60   1
   0  -2   1   20.80    0.60   1
   0   2   0    4.20    0.30   1
   0  -2   0    5.00    0.30   1
   0   2   1 1357.80   22.00   1
   0  -2  -1 1375.60   19.80   1
   0   2   2   61.00    1.00   1
   0  -2  -2   61.30    1.10   1
   0   2   3  349.00    4.80   1
   0  -2  -3  342.80    4.90   1
   0   2   4   80.20    1.70   1
   0  -2  -4   80.90    1.40   1
   0   2   5 2179.90   31.20   1
   0  -2  -5 2157.00   28.10   1
   0   2   6   77.40    1.50   1
   0  -2  -6   80.90    1.70   1
   0   2   7  157.60    2.80   1
   0  -2  -7  159.30    2.90   1
   0   2   8   87.00    1.90   1
   0  -2  -8   89.10    2.00   1
   0   2   9  736.40   28.70   1
   0  -2  -9  710.00   26.40   1
   0   2  10   23.30    2.00   1
   0  -2 -10   18.70    2.70   1
   0   2  11   12.30    3.40   1
   0  -2 -11   15.80    3.10   1
   0   2  12   67.00    3.40   1
   0  -2 -12   71.50    6.50   1
   0   2  13    4.70    4.00   1
   0  -2 -13    8.90    3.50   1
   0  -3  11   19.50    4.80   1
   0  -3  10    0.70    1.50   1
   0   3  -9   26.10    4.00   1
   0  -3   9   35.80    2.40   1
   0   3  -8    5.40    2.50   1
   0  -3   8    4.30    1.20   1
   0   3  -7  225.60   10.70   1
   0  -3   7  233.30    6.30   1
   0   3  -6  170.00    5.40   1
   0  -3   6  171.30    4.50   1
   0   3  -5  269.50    5.10   1
   0  -3   5  272.10    4.50   1
   0   3  -4  122.50    2.60   1
   0  -3   4  122.10    1.90   1
   0   3  -3 1997.50   28.60   1
   0  -3   3 2005.70   22.80   1
   0   3  -2  512.50    9.10   1
   0  -3   2  513.40    7.20   1
   0   3  -1  849.90   14.20   1
   0  -3   1  863.70   11.70   1
   0   3   0  309.40    5.50   1
   0  -3   0  301.50    4.80   1
   0   3   1 3935.80   55.20   1
   0  -3  -1 3968.10   55.90   1
   0   3   2   38.70    0.90   1
   0  -3  -2   40.20    0.80   1
   0   3   3  599.80    8.90   1
   0  -3  -3  578.50    8.70   1
   0   3   4  106.00    1.60   1
   0  -3  -4  107.90    2.00   1
   0   3   5 2355.30   30.70   1
   0  -3  -5 2320.90   30.40   1
   0   3   6   17.60    0.60   1
   0  -3  -6   17.60    0.70   1
   0   3   7  187.00    2.90   1
   0  -3  -7  196.10    4.60   1
   0   3   8  191.20    4.50   1
   0  -3  -8  200.40    4.20   1
   0   3   9   85.80    2.30   1
   0  -3  -9   92.10    2.60   1
   0   3  10   53.40    2.40   1
   0  -3 -10   51.20    4.10   1
   0   3  11    2.30    2.00   1
   0  -3 -11   -0.40    2.20   1
   0   3  12   64.30    7.00   1
   0  -3 -12   62.00    5.90   1
   0   3  13   19.80    5.00   1
   0  -3 -13   24.30    4.60   1
   0   4 -10    5.30    3.80   1
   0  -4  10    1.00    2.20   1
   0   4  -9   35.00    5.10   1
   0  -4   9   47.60    3.70   1
   0   4  -8  563.70   23.70   1
   0  -4   8  577.10   26.40   1
   0   4  -7  442.40   18.70   1
   0  -4   7  413.70   10.70   1
   0   4  -6  229.30    5.30   1
   0  -4   6  229.00    4.50   1
   0   4  -5  358.00    7.00   1
   0  -4   5  351.90    6.20   1
   0   4  -4  730.50   11.70   1
   0  -4   4  741.00    9.30   1
   0   4  -3  656.70   10.30   1
   0  -4   3  647.90    9.20   1
   0   4  -2 1268.70   18.60   1
   0  -4   2 1327.00   17.70   1
   0   4  -1 1719.00   27.80   1
   0  -4   1 1748.30   23.10   1
   0   4   0   27.20    0.70   1
   0  -4   0   26.90    0.80   1
   0   4   1   39.90    1.20   1
   0  -4  -1   36.00    1.10   1
   0   4   2  692.00   13.90   1
   0  -4  -2  723.60   10.90   1
   0   4   3  799.30   10.90   1
   0  -4  -3  801.00   10.90   1
   0   4   4   85.00    1.40   1
   0  -4  -4   85.70    1.70   1
   0   4   5  411.80    5.20   1
   0  -4  -5  408.40    6.40   1
   0   4   6   76.40    1.30   1
   0  -4  -6   77.80    1.70   1
   0   4   7    5.60    0.40   1
   0  -4  -7    5.90    0.60   1
   0   4   8  463.20    7.80   1
   0  -4  -8  442.30    9.70   1
   0   4   9  299.10    5.80   1
   0  -4  -9  319.20    6.70   1
   0   4  10   27.80    1.40   1
   0  -4 -10   30.90    2.00   1
   0   4  11   22.90    2.50   1
   0  -4 -11   18.10    3.00   1
   0   4  12  266.60   15.80   1
   0  -4 -12  280.10   16.50   1
   0   4  13    9.30    6.00   1
   0  -4 -13    9.00    3.50   1
   0   5 -10   29.60    5.70   1
   0  -5  10   15.30    3.20   1
   0   5  -9  215.40   16.30   1
   0  -5   9  252.00   17.40   1
   0   5  -8   16.60    4.80   1
   0  -5   8   17.20    2.70   1
   0   5  -7  191.20   11.30   1
   0  -5   7  219.90   12.00   1
   0   5  -6    1.70    1.00   1
   0  -5   6    2.80    0.80   1
   0   5  -5  149.00    4.30   1
   0  -5   5  147.20    4.30   1
   0   5  -4  162.10    3.70   1
   0  -5   4  167.00    3.80   1
   0   5  -3  294.40    5.30   1
   0  -5   3  303.10    5.00   1
   0   5  -2   45.90    1.40   1
   0  -5   2   50.60    1.40   1
   0   5  -1   84.00    2.10   1
   0  -5   1   85.90    1.80   1
   0   5   0  109.40    2.40   1
   0  -5   0  106.90    2.20   1
   0   5   1    6.60    0.70   1
   0  -5  -1    6.50    0.70   1
   0   5   2  313.50    6.80   1
   0  -5  -2  295.30    5.00   1
   0   5   3  376.50    6.10   1
   0  -5  -3  378.30    5.50   1
   0   5   4   10.00    0.50   1
   0  -5  -4   10.10    0.50   1
   0   5   5   69.50    1.40   1
   0  -5  -5   66.20    1.80   1
   0   5   6 1463.50   18.50   1
   0  -5  -6 1432.00   21.30   1
   0   5   7    4.00    0.40   1
   0  -5  -7    4.40    0.70   1
   0   5   8   11.80    0.70   1
   0  -5  -8   11.00    0.80   1
   0   5   9   26.40    1.10   1
   0  -5  -9   26.60    1.20   1
   0   5  10  705.30   14.40   1
   0  -5 -10  729.70   21.20   1
   0   5  11  219.00   12.50   1
   0  -5 -11  254.60   12.60   1
   0   5  12    0.30    3.30   1
   0  -5 -12   -0.90    2.60   1
   0   5  13   38.10    6.20   1
   0  -5 -13   49.10    6.10   1
   0   6  -9    2.50    3.80   1
   0  -6   9    1.80    4.20   1
   0   6  -8    2.80    3.70   1
   0  -6   8    4.20    2.30   1
   0   6  -7   65.30    7.00   1
   0  -6   7   48.40    3.80   1
   0   6  -6  511.20   24.10   1
   0  -6   6  547.70   17.70   1
   0   6  -5    1.60    1.40   1
   0  -6   5    1.20    1.40   1
   0   6  -4   32.50    1.80   1
   0  -6   4   32.80    1.70   1
   0   6  -3 1008.00   20.70   1
   0  -6   3 1049.30   15.60   1
   0   6  -2  776.60   16.70   1
   0  -6   2  812.70   11.90   1
   0   6  -1  164.30    5.30   1
   0  -6   1  161.70    3.30   1
   0   6   0  765.80   15.80   1
   0  -6   0  726.60   11.60   1
   0   6   1 1327.80   22.20   1
   0  -6  -1 1297.80   18.00   1
   0   6   2  736.70   13.20   1
   0  -6  -2  672.80   10.80   1
   0   6   3  228.40    4.80   1
   0  -6  -3  210.90    3.50   1
   0   6   4 2302.60   38.40   1
   0  -6  -4 2322.60   34.10   1
   0   6   5  284.70    5.20   1
   0  -6  -5  283.10    4.90   1
   0   6   6    5.40    0.50   1
   0  -6  -6    5.90    0.70   1
   0   6   7   53.80    1.40   1
   0  -6  -7   51.10    1.70   1
   0   6   8  731.40   11.80   1
   0  -6  -8  744.60   13.70   1
   0   6   9    0.40    0.80   1
   0  -6  -9    1.70    1.00   1
   0   6  10   81.50    3.30   1
   0  -6 -10   77.40    3.80   1
   0   6  11   28.20    3.00   1
   0  -6 -11   31.30    2.70   1
   0   6  12   35.80    5.70   1
   0  -6 -12   44.50    5.30   1
   0   6  13   37.40    6.20   1
   0  -6 -13   28.80    5.00   1
   0   7  -8   36.60    7.10   1
   0  -7   8   36.90    6.00   1
   0   7  -7   94.40    8.80   1
   0  -7   7  108.90    6.60   1
   0   7  -6   21.30    5.40   1
   0  -7   6   28.90    3.30   1
   0   7  -5   -0.30    1.30   1
   0  -7   5    0.60    1.10   1
   0   7  -4  100.00    4.70   1
   0  -7   4  109.10    4.20   1
   0   7  -3   19.80    2.20   1
   0  -7   3   19.50    2.10   1
   0   7  -2  192.50    6.80   1
   0  -7   2  187.70    4.60   1
   0   7  -1   67.60    3.40   1
   0  -7   1   69.00    2.20   1
   0   7   0  365.10   14.10   1
   0  -7   0  365.60    7.50   1
   0   7   1   32.60    1.80   1
   0  -7  -1   29.20    1.30   1
   0   7   2  194.90    5.70   1
   0  -7  -2  192.70    3.90   1
   0   7   3  534.90   13.50   1
   0  -7  -3  489.90    8.70   1
   0   7   4   49.00    2.70   1
   0  -7  -4   47.60    1.30   1
   0   7   5  119.80    4.40   1
   0  -7  -5  122.90    3.00   1
   0   7   6   34.70    2.40   1
   0  -7  -6   38.00    1.80   1
   0   7   7  157.30    4.50   1
   0  -7  -7  153.50    3.80   1
   0   7   8   17.40    1.50   1
   0  -7  -8   14.20    1.20   1
   0   7   9   60.20    3.60   1
   0  -7  -9   60.40    3.40   1
   0   7  10  254.90    9.50   1
   0  -7 -10  273.10    9.80   1
   0   7  11   17.10    4.10   1
   0  -7 -11   21.60    2.60   1
   0  -7 -12    1.40    4.30   1
   0   7  13   31.30    6.20   1
   0  -7 -13   40.20    5.90   1
   0   8  -7   -7.10    4.00   1
   0  -8   7    2.70    4.30   1
   0   8  -6    1.00    5.00   1
   0  -8   6    2.10    2.80   1
   0   8  -5    2.70    3.50   1
   0  -8   5   -2.50    3.00   1
   0   8  -4  307.10   11.60   1
   0  -8   4  300.90    9.20   1
   0   8  -3   92.90    4.70   1
   0  -8   3   91.90    4.00   1
   0   8  -2    7.40    1.70   1
   0  -8   2   10.00    1.60   1
   0   8  -1   21.20    2.30   1
   0  -8   1   18.70    1.40   1
   0   8   0   20.40    2.90   1
   0  -8   0   24.40    1.60   1
   0   8   1  311.90    9.00   1
   0  -8  -1  304.60    7.30   1
   0   8   2    6.00    1.30   1
   0  -8  -2    3.60    0.50   1
   0   8   3   27.30    1.90   1
   0  -8  -3   21.50    1.60   1
   0   8   4   56.90    2.70   1
   0  -8  -4   54.40    2.70   1
   0   8   5  184.10    6.20   1
   0  -8  -5  175.90    5.80   1
   0   8   6   29.60    2.30   1
   0  -8  -6   33.20    1.90   1
   0   8   7   87.90    4.20   1
   0  -8  -7   82.10    5.40   1
   0   8   8    4.90    1.70   1
   0  -8  -8    6.60    1.80   1
   0   8   9   13.90    2.50   1
   0  -8  -9   18.50    2.50   1
   0   8  10    3.70    2.30   1
   0  -8 -10    1.50    2.00   1
   0   8  11   34.60    3.20   1
   0  -8 -11   35.00    3.20   1
   0   8  12   19.50    5.90   1
   0  -8 -12   14.00    3.80   1
   0   8  13   20.10    7.30   1
   0  -8 -13   13.70    4.40   1
   0   9  -6    8.30    4.50   1
   0   9  -5  326.80   21.80   1
   0  -9   5  352.80   15.60   1
   0   9  -4   -2.50    2.40   1
   0  -9   4    0.20    2.00   1
   0   9  -3   19.40    3.10   1
   0  -9   3   19.30    2.30   1
   0   9  -2  312.40   11.50   1
   0  -9   2  295.90    8.90   1
   0   9  -1  270.50   10.20   1
   0  -9   1  252.40    8.00   1
   0   9   0    9.40    2.60   1
   0  -9   0    2.30    1.50   1
   0   9   1  127.10    7.60   1
   0  -9  -1  113.60    4.30   1
   0   9   2 1075.10   28.70   1
   0  -9  -2  999.40   21.70   1
   0   9   3   59.80    3.00   1
   0  -9  -3   55.00    2.60   1
   0   9   4   88.40    3.90   1
   0  -9  -4   79.60    3.10   1
   0   9   5  501.00   14.00   1
   0  -9  -5  483.40   13.40   1
   0   9   6  124.90    5.40   1
   0  -9  -6  121.20    4.60   1
   0   9   7   11.60    1.90   1
   0  -9  -7   13.50    3.20   1
   0   9   8  117.80    5.70   1
   0  -9  -8  113.20    5.30   1
   0   9   9  654.60   20.90   1
   0  -9  -9  650.40   20.50   1
   0   9  10    7.00    3.50   1
   0  -9 -10    6.20    2.40   1
   0   9  11   46.10    4.40   1
   0  -9 -11   55.40    4.70   1
   0   9  12   -4.90    5.80   1
   0  -9 -12   -3.00    3.50   1
   0  10  -4   25.80    5.90   1
   0 -10   4   24.90    5.10   1
   0  10  -3  325.60   14.60   1
   0 -10   3  326.80   11.70   1
   0  10  -2   40.20    3.80   1
   0 -10   2   38.90    3.20   1
   0  10  -1   12.90    2.70   1
   0 -10   1   12.80    2.20   1
   0  10   0   67.00    4.80   1
   0 -10   0   66.60    3.60   1
   0  10   1  194.40   10.50   1
   0 -10  -1  195.80    6.50   1
   0  10   2  667.90   28.60   1
   0 -10  -2  653.60   16.10   1
   0  10   3   19.40    2.20   1
   0 -10  -3   16.00    1.90   1
   0  10   4    2.90    1.40   1
   0 -10  -4    3.80    1.40   1
   0  10   5    4.30    1.90   1
   0 -10  -5    2.70    1.30   1
   0  10   6  454.30   15.00   1
   0 -10  -6  461.50   20.20   1
   0  10   7   38.30    3.20   1
   0 -10  -7   45.10    5.10   1
   0  10   8    1.80    2.40   1
   0 -10  -8    0.70    3.00   1
   0  10   9  180.30    8.00   1
   0 -10  -9  160.20    7.70   1
   0  10  10   59.80    4.90   1
   0 -10 -10   57.20    4.70   1
   0  10  11    2.00    2.90   1
   0 -10 -11    0.30    2.80   1
   0  11  -2    6.20    3.90   1
   0 -11   2    1.90    2.70   1
   0  11  -1    4.20    3.10   1
   0 -11   1    9.50    2.40   1
   0  11   0  123.40    7.30   1
   0 -11   0  117.90    5.60   1
   0  11   1   39.50    5.00   1
   0 -11  -1   47.40    3.20   1
   0  11   2   40.80    4.90   1
   0 -11  -2   43.30    3.20   1
   0  11   3    9.80    3.40   1
   0 -11  -3   12.60    1.90   1
   0  11   4   16.20    3.80   1
   0 -11  -4   23.90    2.90   1
   0  11   5    5.20    2.00   1
   0 -11  -5   12.70    5.30   1
   0  11   6   25.70    2.80   1
   0 -11  -6   19.10    4.70   1
   0  11   7   87.00    5.20   1
   0 -11  -7   81.60    7.70   1
   0  11   8   17.00    3.50   1
   0 -11  -8   15.90    5.60   1
   0  11   9    5.60    2.70   1
   0 -11  -9    6.80    3.20   1
   0  11  10   46.90    4.70   1
   0 -11 -10   48.40    5.40   1
   0  12   0    8.40    4.00   1
   0 -12   0   -2.30    2.60   1
   0  12   1   25.10    3.70   1
   0 -12  -1   23.20    3.40   1
   0  12   2  100.40    8.90   1
   0 -12  -2  116.10    5.90   1
   0  12   3   15.40    4.20   1
   0 -12  -3   16.60    3.20   1
   0  12   4   -1.40    3.30   1
   0 -12  -4    4.40    4.00   1
   0  12   5   57.80    6.50   1
   0 -12  -5   54.70    6.80   1
   0  12   6   65.20    7.40   1
   0 -12  -6   77.40    8.20   1
   0  12   7   -0.80    3.50   1
   0 -12  -7    1.10    3.90   1
   0  12   8    6.00    2.60   1
   0 -12  -8    2.10    3.90   1
   0  12   9   10.30    3.10   1
   0 -12  -9   11.00    3.30   1
   1 -12  -7   10.70    5.00   1
  -1  12   7    4.90    4.40   1
   1 -12  -6   16.40    5.20   1
  -1  12   6   19.70    5.20   1
   1 -12  -5    7.20    4.40   1
  -1  12   5    7.00    4.30   1
   1 -12  -4   12.70    4.70   1
  -1  12   4   -4.30    3.60   1
   1 -12  -3    0.30    5.70   1
  -1  12   3   10.40    5.60   1
   1 -12  -2   42.80    4.30   1
  -1  12   2   39.30    6.00   1
   1 -12  -1   29.30    3.90   1
  -1  12   1   34.00    4.70   1
   1 -11  -9    3.70    3.60   1
  -1  11   9    0.50    3.10   1
   1 -11  -8  547.50   30.00   1
  -1  11   8  521.40   21.00   1
   1 -11  -7    6.60    4.00   1
  -1  11   7    3.90    2.80   1
   1 -11  -6   19.70    5.70   1
  -1  11   6    5.60    2.50   1
   1 -11  -5   17.60    4.40   1
  -1  11   5   16.70    4.10   1
   1 -11  -4  531.80   19.60   1
  -1  11   4  551.50   27.60   1
   1 -11  -3  234.70   10.20   1
  -1  11   3  232.30   14.30   1
   1 -11  -2    0.80    2.20   1
  -1  11   2   -1.30    2.90   1
   1 -11  -1  183.80    7.60   1
  -1  11   1  187.90   12.90   1
   1 -11   0   20.40    2.60   1
  -1  11   0   25.60    3.60   1
   1 -11   1  259.50   10.40   1
  -1  11  -1  262.40   12.60   1
   1 -11   2    1.40    2.00   1
  -1  11  -2    1.40    2.70   1
   1 -10 -11   49.80    5.30   1
  -1  10  11   63.70    6.00   1
   1 -10 -10   42.70    4.50   1
  -1  10  10   55.30    5.00   1
   1 -10  -9    6.20    3.50   1
  -1  10   9   -0.50    2.50   1
   1 -10  -8   19.30    4.40   1
  -1  10   8   22.60    3.70   1
   1 -10  -7   95.80    8.60   1
  -1  10   7   93.40    5.40   1
   1 -10  -6   82.20    7.40   1
  -1  10   6   95.90    5.00   1
   1 -10  -5   28.90    2.70   1
  -1  10   5   30.20    3.10   1
   1 -10  -4  109.50    5.90   1
  -1  10   4  134.10    6.10   1
   1 -10  -3   68.00    4.20   1
  -1  10   3   55.70    5.40   1
   1 -10  -2   12.80    2.10   1
  -1  10   2   15.70    4.10   1
   1 -10  -1   88.30    4.00   1
  -1  10   1   81.10    6.30   1
   1 -10   0  101.50    4.50   1
  -1  10   0   98.40    5.60   1
   1 -10   1   36.90    3.00   1
  -1  10  -1   30.40    3.70   1
   1 -10   2   42.20    3.30   1
  -1  10  -2   48.40    4.50   1
   1 -10   3  101.40    5.30   1
  -1  10  -3   98.80    6.30   1
   1 -10   4    7.10    3.30   1
  -1  10  -4   15.00    5.70   1
   1  -9 -11   22.60    3.60   1
  -1   9  11   26.70    3.80   1
   1  -9 -10   -1.40    2.60   1
  -1   9  10    1.90    2.30   1
   1  -9  -9    7.70    2.70   1
  -1   9   9   -1.10    2.60   1
   1  -9  -8    8.80    2.30   1
  -1   9   8    7.30    2.10   1
   1  -9  -7   92.40    7.00   1
  -1   9   7   88.80    5.00   1
   1  -9  -6   23.00    2.00   1
  -1   9   6   28.30    2.70   1
   1  -9  -5    1.90    1.60   1
  -1   9   5    3.40    1.90   1
   1  -9  -4   88.80    4.40   1
  -1   9   4  100.30    4.60   1
   1  -9  -3  134.70    5.60   1
  -1   9   3  140.30    8.40   1
   1  -9  -2   16.10    2.00   1
  -1   9   2   20.60    2.20   1
   1  -9  -1   23.50    2.10   1
  -1   9   1   23.60    3.40   1
   1  -9   0   48.10    2.70   1
  -1   9   0   45.00    4.50   1
   1  -9   1  169.00    5.70   1
  -1   9  -1  170.90    7.40   1
   1  -9   2   86.30    4.10   1
  -1   9  -2   86.80    5.20   1
   1  -9   3   61.60    3.40   1
  -1   9  -3   70.00    4.80   1
   1  -9   4    3.10    2.00   1
  -1   9  -4    6.00    2.70   1
   1  -9   5    2.40    2.90   1
  -1   9  -5   -1.40    4.10   1
   1  -8 -12   14.40    4.50   1
  -1   8  12   19.80    5.40   1
   1  -8 -11   57.00    4.90   1
  -1   8  11   54.10    4.60   1
   1  -8 -10   85.50    5.30   1
  -1   8  10   78.90    4.80   1
   1  -8  -9   14.20    2.40   1
  -1   8   9   13.70    2.60   1
   1  -8  -8   70.80    4.20   1
  -1   8   8   71.10    4.20   1
   1  -8  -7  214.40   11.50   1
  -1   8   7  197.80    7.50   1
   1  -8  -6   12.60    1.60   1
  -1   8   6   11.70    2.00   1
   1  -8  -5   20.20    2.00   1
  -1   8   5   20.40    1.50   1
   1  -8  -4   11.60    2.00   1
  -1   8   4   19.30    2.10   1
   1  -8  -3  443.90   12.20   1
  -1   8   3  467.90   13.40   1
   1  -8  -2  154.80    4.60   1
  -1   8   2  174.20    6.10   1
   1  -8  -1  111.40    3.80   1
  -1   8   1  123.90    4.50   1
   1  -8   0    4.40    1.30   1
  -1   8   0    2.00    2.10   1
   1  -8   1   45.60    2.50   1
  -1   8  -1   44.10    3.10   1
   1  -8   2  437.90   11.50   1
  -1   8  -2  456.20   14.50   1
   1  -8   3   19.20    2.10   1
  -1   8  -3   19.40    2.60   1
   1  -8   4   15.90    2.00   1
  -1   8  -4   21.60    2.40   1
   1  -8   5  142.90    7.20   1
  -1   8  -5  134.10   10.30   1
   1  -8   6  124.50    7.00   1
  -1   8  -6  119.10   10.60   1
   1  -8   7    0.00    4.10   1
  -1   8  -7    8.10    4.40   1
   1  -7 -12  256.20   18.40   1
  -1   7  12  235.80   16.90   1
   1  -7 -11    1.20    1.90   1
  -1   7  11    3.50    1.90   1
   1  -7 -10  282.90   10.30   1
  -1   7  10  275.60   10.40   1
   1  -7  -9  189.40    7.60   1
  -1   7   9  194.90    7.70   1
   1  -7  -8   11.50    2.50   1
  -1   7   8   13.30    2.20   1
   1  -7  -7  142.50    5.60   1
  -1   7   7  156.20    4.80   1
   1  -7  -6  563.20   13.10   1
  -1   7   6  598.00   13.70   1
   1  -7  -5  666.40   14.70   1
  -1   7   5  698.50   15.10   1
   1  -7  -4  328.30    7.90   1
  -1   7   4  346.10    8.30   1
   1  -7  -3  571.60   15.10   1
  -1   7   3  616.90   13.60   1
   1  -7  -2  229.90    5.80   1
  -1   7   2  254.60    7.60   1
   1  -7  -1   78.90    2.90   1
  -1   7   1   78.90    3.10   1
   1  -7   0  911.20   16.10   1
  -1   7   0  904.50   21.90   1
   1  -7   1  638.30   14.20   1
  -1   7  -1  647.70   24.20   1
   1  -7   2   50.50    1.80   1
  -1   7  -2   45.10    4.50   1
   1  -7   3  100.00    4.60   1
  -1   7  -3  104.70    4.70   1
   1  -7   4  603.80   14.40   1
  -1   7  -4  577.80   17.40   1
   1  -7   5   96.00    4.10   1
  -1   7  -5   90.00    4.90   1
   1  -7   6    8.20    3.00   1
  -1   7  -6   12.30    4.10   1
   1  -7   7   52.90    6.30   1
  -1   7  -7   53.30    6.70   1
   1  -7   8  146.60   12.50   1
  -1   7  -8  110.00   10.70   1
   1  -6 -13   35.70    5.80   1
  -1   6  13   26.40    6.70   1
   1  -6 -12  112.60   10.00   1
  -1   6  12   96.60    9.20   1
   1  -6 -11   20.40    3.70   1
  -1   6  11   25.50    4.80   1
   1  -6 -10   12.90    2.00   1
  -1   6  10    8.90    2.00   1
   1  -6  -9   -1.20    1.40   1
  -1   6   9   -0.60    1.40   1
   1  -6  -8  239.40    8.10   1
  -1   6   8  229.20    7.80   1
   1  -6  -7    9.10    1.10   1
  -1   6   7    6.70    0.80   1
   1  -6  -6  143.40    5.00   1
  -1   6   6  149.10    4.10   1
   1  -6  -5  116.20    3.20   1
  -1   6   5  122.80    3.40   1
   1  -6  -4   38.10    1.80   1
  -1   6   4   36.90    2.20   1
   1  -6  -3  200.70    5.00   1
  -1   6   3  214.20    5.20   1
   1  -6  -2  407.70    7.80   1
  -1   6   2  449.00    9.70   1
   1  -6  -1  106.80    2.80   1
  -1   6   1  115.80    2.90   1
   1  -6   0   16.20    0.90   1
  -1   6   0   17.80    1.20   1
   1  -6   1  100.60    2.10   1
  -1   6  -1  101.30    4.10   1
   1  -6   2  459.80    7.50   1
  -1   6  -2  449.00   10.40   1
   1  -6   3  263.90    4.90   1
  -1   6  -3  251.80    6.70   1
   1  -6   4   44.80    2.10   1
  -1   6  -4   43.60    2.30   1
   1  -6   5    2.10    1.20   1
  -1   6  -5    3.30    2.60   1
   1  -6   6   59.40    5.80   1
  -1   6  -6   54.00    5.60   1
   1  -6   7  520.50   17.90   1
  -1   6  -7  444.90   23.60   1
   1  -6   8   20.40    4.70   1
   1  -6   9    6.00    5.90   1
  -1   6  -9   -1.90    3.90   1
   1  -5 -13    7.90    3.90   1
  -1   5  13   14.80    5.40   1
   1  -5 -12   20.50    4.00   1
  -1   5  12   20.50    5.10   1
   1  -5 -11  261.80   13.30   1
  -1   5  11  223.10   14.00   1
   1  -5 -10  141.00    5.80   1
  -1   5  10  129.90    5.60   1
   1  -5  -9   20.70    2.10   1
  -1   5   9   20.20    2.50   1
   1  -5  -8  183.30    4.40   1
  -1   5   8  170.00    4.40   1
   1  -5  -7  641.60   12.10   1
  -1   5   7  638.70    9.90   1
   1  -5  -6  101.80    2.60   1
  -1   5   6  102.30    2.10   1
   1  -5  -5   42.70    1.40   1
  -1   5   5   44.20    1.50   1
   1  -5  -4 1159.50   19.60   1
  -1   5   4 1169.30   18.10   1
   1  -5  -3  110.00    2.70   1
  -1   5   3  117.00    2.50   1
   1  -5  -2   11.90    0.90   1
  -1   5   2   11.40    0.90   1
   1  -5  -1  273.50    5.30   1
  -1   5   1  288.20    5.10   1
   1  -5   0 1354.30   18.10   1
  -1   5   0 1446.00   21.80   1
   1  -5   1  241.20    3.80   1
  -1   5  -1  243.10    5.90   1
   1  -5   2  326.80    5.10   1
  -1   5  -2  312.00    6.50   1
   1  -5   3  181.10    3.40   1
  -1   5  -3  163.30    3.90   1
   1  -5   4  253.50    5.00   1
  -1   5  -4  238.40    5.30   1
   1  -5   5  535.70   10.80   1
  -1   5  -5  549.30   12.50   1
   1  -5   6  262.00    6.70   1
  -1   5  -6  268.80    8.50   1
   1  -5   7    2.20    1.70   1
  -1   5  -7   -5.70    3.60   1
   1  -5   8   -0.40    4.20   1
  -1   5  -8    0.10    3.00   1
   1  -5   9  166.60   12.80   1
  -1   5  -9  121.60   10.70   1
   1  -5  10   43.80    4.70   1
  -1   5 -10   71.10    8.90   1
   1  -4 -13   12.60    5.30   1
  -1   4  13   -2.60    4.10   1
  -1   4  12    3.50    5.30   1
   1  -4 -11   33.00    4.00   1
  -1   4  11   24.80    4.30   1
   1  -4 -10   23.30    2.00   1
  -1   4  10   25.90    2.10   1
   1  -4  -9    8.30    1.50   1
  -1   4   9   10.10    0.90   1
   1  -4  -8   83.40    2.40   1
  -1   4   8   76.70    2.00   1
   1  -4  -7   93.20    2.20   1
  -1   4   7   93.90    1.90   1
   1  -4  -6   94.00    2.00   1
  -1   4   6   90.90    1.90   1
   1  -4  -5  599.30   10.40   1
  -1   4   5  597.30    8.00   1
   1  -4  -4  268.00    4.40   1
  -1   4   4  272.90    4.20   1
   1  -4  -3 1721.70   24.80   1
  -1   4   3 1750.60   25.60   1
   1  -4  -2  180.30    3.80   1
  -1   4   2  188.00    3.40   1
   1  -4  -1 1365.80   22.70   1
  -1   4   1 1418.50   21.00   1
   1  -4   0   11.80    0.50   1
  -1   4   0   11.00    0.70   1
   1  -4   1 2345.80   30.70   1
  -1   4  -1 2437.30   35.30   1
   1  -4   2  828.70   11.40   1
  -1   4  -2  797.80   13.70   1
   1  -4   3  341.10    5.20   1
  -1   4  -3  326.80    6.30   1
   1  -4   4  100.10    1.60   1
  -1   4  -4   99.40    2.50   1
   1  -4   5  606.20    8.80   1
  -1   4  -5  600.10   11.30   1
   1  -4   6  331.80    5.60   1
  -1   4  -6  311.90    7.70   1
   1  -4   7   47.70    2.20   1
  -1   4  -7   53.40    4.80   1
   1  -4   8   61.90    3.70   1
  -1   4  -8   64.30    5.50   1
   1  -4   9  253.80   14.60   1
  -1   4  -9  243.40   13.90   1
   1  -4  10    5.90    2.60   1
  -1   4 -10    9.60    3.90   1
   1  -3 -13   32.20    5.40   1
  -1   3  13   28.60    6.00   1
   1  -3 -12   62.30    6.40   1
  -1   3  12   53.40    6.30   1
   1  -3 -11  161.10   10.70   1
  -1   3  11  155.40   10.40   1
   1  -3 -10   13.90    2.80   1
  -1   3  10    9.00    4.10   1
   1  -3  -9   10.10    1.10   1
  -1   3   9   10.70    0.80   1
   1  -3  -8   24.00    1.20   1
  -1   3   8   23.30    0.90   1
   1  -3  -7  902.40   15.60   1
  -1   3   7  908.50   12.20   1
   1  -3  -6    1.40    0.60   1
  -1   3   6    0.40    0.40   1
   1  -3  -5  295.60    5.30   1
  -1   3   5  299.90    4.40   1
   1  -3  -4   69.70    1.60   1
  -1   3   4   68.60    1.40   1
   1  -3  -3 1766.90   25.40   1
  -1   3   3 1792.20   23.60   1
   1  -3  -2  228.10    3.70   1
  -1   3   2  239.50    4.00   1
   1  -3  -1  673.30   10.10   1
  -1   3   1  675.50   10.30   1
   1  -3   0   18.20    0.50   1
  -1   3   0   16.70    0.70   1
   1  -3   1  173.60    2.40   1
  -1   3  -1  172.30    2.90   1
   1  -3   2    6.60    0.40   1
  -1   3  -2    7.60    0.60   1
   1  -3   3  194.80    2.80   1
  -1   3  -3  191.80    3.40   1
   1  -3   4    1.60    0.50   1
  -1   3  -4    0.40    0.60   1
   1  -3   5   33.10    0.90   1
  -1   3  -5   31.00    1.20   1
   1  -3   6   89.00    1.90   1
  -1   3  -6   89.60    2.40   1
   1  -3   7   10.90    1.20   1
   1  -3   8  299.10    7.90   1
  -1   3  -8  278.20   13.60   1
   1  -3   9    1.40    1.30   1
  -1   3  -9    0.60    2.80   1
   1  -3  10   84.00    5.10   1
  -1   3 -10   95.30    7.60   1
   1  -3  11   15.90    3.50   1
   1  -2 -13  205.90   14.70   1
  -1   2  13  215.00   16.30   1
   1  -2 -12    2.80    3.20   1
  -1   2  12    0.70    2.00   1
   1  -2 -11  116.50    8.20   1
  -1   2  11  123.80    6.40   1
   1  -2 -10   39.00    2.90   1
  -1   2  10   39.30    4.60   1
   1  -2  -9  426.10   12.90   1
  -1   2   9  451.80   10.00   1
   1  -2  -8    7.00    0.60   1
  -1   2   8    6.80    0.50   1
   1  -2  -7  405.70    7.50   1
  -1   2   7  402.60    7.40   1
   1  -2  -6  939.30   18.20   1
  -1   2   6 1010.80   12.30   1
   1  -2  -5  145.00    3.50   1
  -1   2   5  153.70    2.50   1
   1  -2  -4   15.10    0.50   1
  -1   2   4   15.20    0.50   1
   1  -2  -3  297.50    5.20   1
  -1   2   3  294.30    4.30   1
   1  -2  -2  311.20    4.40   1
  -1   2   2  302.70    4.80   1
   1  -2  -1  336.00    5.90   1
  -1   2   1  335.30    5.30   1
   1  -2   0  580.10    8.70   1
  -1   2   0  578.70    8.50   1
   1  -2   1 2107.10   25.20   1
  -1   2  -1 2089.50   27.10   1
   1  -2   2  589.20    7.50   1
  -1   2  -2  586.30    8.20   1
   1  -2   3  573.00    7.40   1
  -1   2  -3  588.30    9.00   1
   1  -2   4  645.20    7.90   1
  -1   2  -4  666.90   10.00   1
   1  -2   5  753.80    9.60   1
  -1   2  -5  747.20   12.60   1
   1  -2   6 1655.90   31.30   1
  -1   2  -6 1675.40   40.10   1
   1  -2   7  339.20    7.80   1
  -1   2  -7  346.00   13.80   1
   1  -2   8    3.70    1.00   1
  -1   2  -8    1.40    2.10   1
   1  -2   9    3.40    1.20   1
  -1   2  -9   -0.10    2.30   1
   1  -2  10  654.70   15.20   1
   1  -2  11   50.40    4.10   1
   1  -2  12   52.80    7.60   1
   1  -1 -12    5.90    3.40   1
  -1   1  12    3.10    2.00   1
   1  -1 -11  204.30   12.30   1
  -1   1  11  232.00    7.90   1
   1  -1 -10   33.60    3.10   1
  -1   1  10   26.20    4.00   1
   1  -1  -9  155.40    5.80   1
  -1   1   9  169.70    6.10   1
   1  -1  -8  113.10    4.30   1
  -1   1   8  121.30    4.00   1
   1  -1  -7  101.00    2.20   1
  -1   1   7  100.20    2.10   1
   1  -1  -6 1856.10   30.10   1
  -1   1   6 1956.30   26.70   1
   1  -1  -5  103.10    2.20   1
  -1   1   5  103.50    1.60   1
   1  -1  -4    9.40    0.60   1
  -1   1   4    9.00    0.30   1
   1  -1  -3   28.70    0.80   1
  -1   1   3   28.20    0.60   1
   1  -1  -2 4629.80   83.10   1
  -1   1   2 4872.10   61.50   1
   1  -1  -1   72.70    1.50   1
  -1   1   1   73.30    1.50   1
   1  -1   0 1194.00   19.40   1
  -1   1   0 1220.30   19.70   1
   1  -1   1 1059.80   13.90   1
  -1   1  -1 1042.50   15.00   1
   1  -1   2 4140.60   45.80   1
  -1   1  -2 4010.50   51.00   1
   1  -1   3    2.60    0.30   1
  -1   1  -3    3.20    0.30   1
   1  -1   4 1096.60   12.80   1
  -1   1  -4 1087.10   17.50   1
   1  -1   5  939.90   12.00   1
  -1   1  -5  943.10   17.90   1
   1  -1   6  395.90   10.20   1
  -1   1  -6  408.00   10.70   1
   1  -1   7  167.00    4.20   1
  -1   1  -7  170.20    5.50   1
   1  -1   8  306.80    6.50   1
  -1   1  -8  324.80    9.60   1
   1  -1   9  172.90    5.20   1
   1  -1  10    2.90    1.20   1
   1  -1  11    7.30    1.60   1
   1  -1  12   30.20    5.20   1
  -1   0  12   10.30    2.40   1
  -1   0  11    5.10    1.70   1
   1   0 -10   50.10    3.40   1
  -1   0  10   57.30    3.40   1
   1   0  -9    3.20    1.70   1
  -1   0   9    3.00    1.10   1
   1   0  -8  205.10    6.80   1
  -1   0   8  224.50    6.80   1
   1   0  -7    3.40    1.20   1
  -1   0   7    2.90    0.80   1
   1   0  -6  888.90   16.80   1
  -1   0   6  879.40   20.80   1
   1   0  -5   17.30    0.60   1
  -1   0   5   17.60    0.50   1
   1   0  -4 1050.10   17.20   1
  -1   0   4 1106.30   13.60   1
   1   0  -3    9.80    0.50   1
  -1   0   3    9.60    0.40   1
   1   0  -2 1897.00   26.90   1
  -1   0   2 1919.50   25.00   1
   1   0  -1   85.40    1.50   1
  -1   0   1   87.00    1.40   1
   1   0   0  246.00    4.30   1
  -1   0   0  272.50    6.40   1
   1   0   1    3.10    0.20   1
  -1   0  -1    2.40    0.20   1
   1   0   2  875.30   10.60   1
  -1   0  -2  863.70   12.50   1
   1   0   3    1.40    0.20   1
  -1   0  -3    1.50    0.30   1
   1   0   4   64.80    1.00   1
  -1   0  -4   63.90    1.20   1
   1   0   5   10.30    0.50   1
  -1   0  -5   10.60    0.90   1
   1   0   6   95.90    1.70   1
  -1   0  -6   98.80    2.80   1
   1   0   7  492.70   10.10   1
  -1   0  -7  526.50   13.30   1
   1   0   8   76.60    2.10   1
  -1   0  -8   80.40    5.00   1
   1   0   9   97.90    2.80   1
  -1   0  -9  104.70    6.50   1
   1   0  10    1.50    1.10   1
   1   0  11  369.50    9.60   1
   1   0  12   27.50    2.50   1
   1   0  13    7.50    3.90   1
  -1  -1  12   42.60    6.40   1
  -1  -1  11   15.20    2.10   1
   1   1 -10  404.30   20.70   1
  -1  -1  10  426.10   10.30   1
   1   1  -9    4.00    2.70   1
  -1  -1   9    4.50    1.40   1
   1   1  -8  223.80    7.60   1
  -1  -1   8  249.00    6.80   1
   1   1  -7   27.60    2.10   1
  -1  -1   7   24.10    1.30   1
   1   1  -6  819.10   20.20   1
  -1  -1   6  844.00   20.90   1
   1   1  -5    0.20    0.80   1
  -1  -1   5    1.50    0.20   1
   1   1  -4  159.30    2.60   1
  -1  -1   4  160.20    2.60   1
   1   1  -3    0.80    0.20   1
  -1  -1   3    1.40    0.30   1
   1   1  -2  499.20    6.80   1
  -1  -1   2  512.70    7.10   1
   1   1  -1   17.70    0.40   1
  -1  -1   1   17.60    0.40   1
   1   1   0    9.00    0.30   1
  -1  -1   0    9.30    0.20   1
   1   1   1    9.60    0.30   1
  -1  -1  -1   11.10    0.30   1
   1   1   2   57.70    0.90   1
  -1  -1  -2   58.00    0.90   1
   1   1   3 1186.20   14.40   1
  -1  -1  -3 1191.20   17.20   1
   1   1   4  108.30    1.50   1
  -1  -1  -4  109.50    2.10   1
   1   1   5  447.40    5.80   1
  -1  -1  -5  425.20    7.20   1
   1   1   6    2.70    0.20   1
  -1  -1  -6    2.90    0.90   1
   1   1   7 1583.90   36.80   1
  -1  -1  -7 1548.70   36.60   1
   1   1   8    2.10    0.90   1
  -1  -1  -8    3.30    1.20   1
   1   1   9  147.70    3.60   1
  -1  -1  -9  142.70    5.00   1
   1   1  10   20.80    1.40   1
  -1  -1 -10   20.70    2.20   1
   1   1  11  275.00    8.60   1
   1   1  12   -1.30    1.50   1
   1   1  13   -1.70    3.50   1
  -1  -2  11    1.20    2.10   1
  -1  -2  10  187.70    6.50   1
   1   2  -9  118.00    7.70   1
  -1  -2   9  113.20    3.60   1
   1   2  -8  170.50    9.20   1
  -1  -2   8  172.50    6.60   1
   1   2  -7   29.70    2.40   1
  -1  -2   7   29.40    2.00   1
   1   2  -6    6.50    1.60   1
  -1  -2   6    8.50    1.30   1
   1   2  -5 1376.80   26.20   1
  -1  -2   5 1411.10   21.20   1
   1   2  -4  281.10    5.90   1
  -1  -2   4  281.00    4.00   1
   1   2  -3   12.00    0.50   1
  -1  -2   3   11.70    0.50   1
   1   2  -2  216.70    3.60   1
  -1  -2   2  214.90    3.00   1
   1   2  -1 5172.60   71.60   1
  -1  -2   1 5163.60   65.30   1
   1   2   0    5.50    0.40   1
  -1  -2   0    5.90    0.30   1
   1   2   1  770.10   12.60   1
  -1  -2  -1  774.70   12.70   1
   1   2   2 1079.00   17.30   1
  -1  -2  -2 1095.60   17.60   1
   1   2   3 4578.00   70.90   1
  -1  -2  -3 4456.00   61.90   1
   1   2   4   11.80    0.40   1
  -1  -2  -4   11.90    0.50   1
   1   2   5 1068.20   12.60   1
  -1  -2  -5 1056.00   15.40   1
   1   2   6  844.10   10.20   1
  -1  -2  -6  844.80   14.00   1
   1   2   7  441.00    5.80   1
  -1  -2  -7  437.50    7.60   1
   1   2   8   55.20    1.50   1
  -1  -2  -8   54.90    1.60   1
   1   2   9  265.30    6.70   1
  -1  -2  -9  259.90   10.80   1
   1   2  10  239.70    6.90   1
  -1  -2 -10  241.70    8.20   1
   1   2  11   18.50    1.50   1
  -1  -2 -11   20.00    3.10   1
   1   2  12    4.10    1.90   1
  -1  -2 -12   -0.60    2.30   1
   1   2  13   75.50    8.10   1
  -1  -3  11   13.60    4.90   1
  -1  -3  10  242.10   11.00   1
   1   3  -9   35.10    4.90   1
  -1  -3   9   25.40    1.80   1
   1   3  -8   62.30    3.70   1
  -1  -3   8   55.60    3.20   1
   1   3  -7  320.20   10.10   1
  -1  -3   7  313.00    9.80   1
   1   3  -6  256.20   10.50   1
  -1  -3   6  233.20    7.10   1
   1   3  -5  253.30    5.00   1
  -1  -3   5  246.30    4.70   1
   1   3  -4  132.40    2.80   1
  -1  -3   4  132.50    2.40   1
   1   3  -3 1979.80   31.80   1
  -1  -3   3 2001.40   23.10   1
   1   3  -2   90.20    1.60   1
  -1  -3   2   86.00    1.60   1
   1   3  -1 1641.70   21.60   1
  -1  -3   1 1648.40   26.60   1
   1   3   0    8.70    0.40   1
  -1  -3   0    7.50    0.60   1
   1   3   1 1960.00   31.50   1
  -1  -3  -1 2003.00   32.30   1
   1   3   2  304.70    5.40   1
  -1  -3  -2  313.30    5.60   1
   1   3   3  266.00    4.80   1
  -1  -3  -3  268.00    4.80   1
   1   3   4    0.90    0.30   1
  -1  -3  -4    1.30    0.40   1
   1   3   5   82.20    1.40   1
  -1  -3  -5   83.10    1.60   1
   1   3   6  143.10    2.20   1
  -1  -3  -6  138.80    2.50   1
   1   3   7    9.00    0.50   1
  -1  -3  -7    8.20    0.60   1
   1   3   8   15.80    0.80   1
  -1  -3  -8   17.40    0.80   1
   1   3   9  303.30    6.00   1
  -1  -3  -9  301.00    6.40   1
   1   3  10   85.30    3.20   1
  -1  -3 -10   95.70    4.20   1
   1   3  11    0.80    0.90   1
  -1  -3 -11    0.40    1.60   1
   1   3  12  283.20   16.90   1
  -1  -3 -12  290.20   13.50   1
   1   3  13   44.60    6.50   1
  -1  -3 -13   41.40    5.90   1
   1   3  14   17.90    5.30   1
  -1  -4  10   -5.40    2.60   1
   1   4  -9  417.80   21.50   1
  -1  -4   9  424.10   16.10   1
   1   4  -8    1.90    2.10   1
  -1  -4   8    1.70    1.70   1
   1   4  -7   67.70    3.90   1
  -1  -4   7   52.50    3.00   1
   1   4  -6    0.60    0.40   1
  -1  -4   6    0.40    0.40   1
   1   4  -5  958.90   16.50   1
  -1  -4   5  922.40   16.10   1
   1   4  -4   20.20    1.00   1
  -1  -4   4   22.70    1.00   1
   1   4  -3   59.10    1.50   1
  -1  -4   3   60.80    1.30   1
   1   4  -2  172.10    3.10   1
  -1  -4   2  172.10    2.80   1
   1   4  -1  220.40    3.40   1
  -1  -4   1  219.30    4.80   1
   1   4   0  555.00    8.40   1
  -1  -4   0  567.50    9.90   1
   1   4   1   40.80    1.20   1
  -1  -4  -1   38.20    1.30   1
   1   4   2    4.90    0.70   1
  -1  -4  -2    5.90    0.50   1
   1   4   3   57.30    1.50   1
  -1  -4  -3   54.80    1.20   1
   1   4   4 1806.70   26.10   1
  -1  -4  -4 1821.10   26.40   1
   1   4   5  174.70    3.00   1
  -1  -4  -5  175.50    3.10   1
   1   4   6   80.70    1.30   1
  -1  -4  -6   81.40    1.70   1
   1   4   7  437.20    5.90   1
  -1  -4  -7  441.70    7.20   1
   1   4   8 1119.00   15.60   1
  -1  -4  -8 1118.90   17.50   1
   1   4   9  382.10    6.20   1
  -1  -4  -9  371.90    7.50   1
   1   4  10  145.70    3.40   1
  -1  -4 -10  149.40    4.20   1
   1   4  11  203.10    6.20   1
  -1  -4 -11  194.30    7.60   1
   1   4  12   41.00    5.20   1
  -1  -4 -12   43.20    4.60   1
   1   4  13   76.60    8.50   1
  -1  -4 -13   90.10    8.10   1
   1   4  14   82.20    9.70   1
  -1  -4 -14   75.60    8.00   1
   1   5  -9   11.80    4.10   1
  -1  -5   9   -3.10    2.10   1
   1   5  -8  213.50   13.40   1
  -1  -5   8  230.00   10.30   1
   1   5  -7   81.00    4.60   1
  -1  -5   7   75.60    4.40   1
   1   5  -6   13.20    1.20   1
  -1  -5   6   11.30    1.30   1
   1   5  -5  158.00    4.40   1
  -1  -5   5  156.90    3.50   1
   1   5  -4  426.50    8.40   1
  -1  -5   4  415.30    8.10   1
   1   5  -3    0.30    0.70   1
  -1  -5   3    0.70    0.60   1
   1   5  -2  538.30    8.70   1
  -1  -5   2  544.30    9.80   1
   1   5  -1  872.40   13.50   1
  -1  -5   1  906.50   15.70   1
   1   5   0  607.80    9.60   1
  -1  -5   0  609.50    9.70   1
   1   5   1   18.10    0.80   1
  -1  -5  -1   17.20    0.90   1
   1   5   2 1917.60   35.90   1
  -1  -5  -2 1942.50   28.30   1
   1   5   3  376.10    7.00   1
  -1  -5  -3  344.10    6.40   1
   1   5   4 1092.10   16.30   1
  -1  -5  -4 1091.80   14.70   1
   1   5   5    5.40    0.70   1
  -1  -5  -5    5.40    0.70   1
   1   5   6 1187.20   17.90   1
  -1  -5  -6 1201.00   18.00   1
   1   5   7    1.40    0.50   1
  -1  -5  -7    0.60    0.60   1
   1   5   8  185.70    4.40   1
  -1  -5  -8  191.00    3.90   1
   1   5   9   11.50    0.50   1
  -1  -5  -9   11.50    0.90   1
   1   5  10  160.40    4.10   1
  -1  -5 -10  166.10    6.00   1
   1   5  11   21.80    1.60   1
  -1  -5 -11   23.60    1.60   1
   1   5  12   -4.80    3.30   1
  -1  -5 -12    2.80    2.50   1
   1   5  13   -1.50    3.80   1
  -1  -5 -13    8.80    4.30   1
   1   5  14    3.10    6.90   1
  -1  -5 -14   -0.50    4.70   1
   1   6  -9   80.90    8.50   1
  -1  -6   9   74.90    8.80   1
   1   6  -8   12.00    4.10   1
  -1  -6   8   22.30    3.60   1
   1   6  -7   15.40    4.70   1
  -1  -6   7   19.30    2.70   1
   1   6  -6  101.80    5.10   1
  -1  -6   6   99.20    5.10   1
   1   6  -5  213.10    6.20   1
  -1  -6   5  209.00    6.60   1
   1   6  -4  158.50    4.00   1
  -1  -6   4  148.70    4.80   1
   1   6  -3  134.40    3.30   1
  -1  -6   3  142.50    3.70   1
   1   6  -2  783.90   14.10   1
  -1  -6   2  788.10   12.90   1
   1   6  -1   47.20    1.60   1
  -1  -6   1   48.30    1.70   1
   1   6   0  351.30    5.70   1
  -1  -6   0  353.70    6.20   1
   1   6   1  199.20    4.20   1
  -1  -6  -1  202.60    3.90   1
   1   6   2  856.70   14.80   1
  -1  -6  -2  823.20   12.90   1
   1   6   3  225.80    5.60   1
  -1  -6  -3  215.50    4.40   1
   1   6   4   10.40    0.70   1
  -1  -6  -4    9.30    0.60   1
   1   6   5   58.30    1.60   1
  -1  -6  -5   58.10    1.20   1
   1   6   6  142.20    3.10   1
  -1  -6  -6  145.80    3.40   1
   1   6   7  187.20    4.30   1
  -1  -6  -7  187.30    3.70   1
   1   6   8  104.20    2.90   1
  -1  -6  -8  103.30    2.60   1
   1   6   9    3.40    0.90   1
  -1  -6  -9    4.00    0.90   1
   1   6  10   67.10    2.70   1
  -1  -6 -10   67.10    3.20   1
   1   6  11  179.70    5.50   1
  -1  -6 -11  187.70    5.80   1
   1   6  12   80.60    7.60   1
  -1  -6 -12   75.50    4.70   1
   1   6  13    8.80    4.50   1
  -1  -6 -13   10.70    3.60   1
   1   6  14   19.20    6.00   1
  -1  -6 -14   22.80    4.70   1
   1   7  -8   21.90    5.20   1
  -1  -7   8   30.50    4.10   1
   1   7  -7   20.80    4.60   1
  -1  -7   7   10.60    2.80   1
   1   7  -6   95.00    7.80   1
  -1  -7   6  106.60    5.90   1
   1   7  -5   17.60    1.60   1
  -1  -7   5   18.50    1.70   1
   1   7  -4  449.20   14.10   1
  -1  -7   4  462.40   11.50   1
   1   7  -3   37.50    1.80   1
  -1  -7   3   36.40    2.10   1
   1   7  -2  111.90    3.10   1
  -1  -7   2  109.70    3.80   1
   1   7  -1   99.40    3.00   1
  -1  -7   1   98.00    2.80   1
   1   7   0  171.50    5.20   1
  -1  -7   0  177.00    4.00   1
   1   7   1  451.50    8.10   1
  -1  -7  -1  433.80    9.60   1
   1   7   2    1.20    0.40   1
  -1  -7  -2    2.80    1.10   1
   1   7   3   32.00    2.90   1
  -1  -7  -3   27.40    1.50   1
   1   7   4   57.80    1.80   1
  -1  -7  -4   51.50    1.80   1
   1   7   5  392.50   10.00   1
  -1  -7  -5  401.00    6.80   1
   1   7   6    1.70    0.60   1
  -1  -7  -6   -0.60    0.70   1
   1   7   7    5.60    0.80   1
  -1  -7  -7    7.50    0.90   1
   1   7   8  328.00    7.00   1
  -1  -7  -8  331.10    7.20   1
   1   7   9  273.70    7.10   1
  -1  -7  -9  276.40    7.40   1
   1   7  10  180.00    5.60   1
  -1  -7 -10  187.10    5.60   1
   1   7  11   68.00    3.20   1
  -1  -7 -11   74.80    3.40   1
   1   7  12   95.30    9.00   1
  -1  -7 -12   85.80    7.00   1
   1   7  13    7.90    4.80   1
  -1  -7 -13    6.60    3.40   1
   1   8  -7  174.60   14.10   1
  -1  -8   7  211.90   11.10   1
   1   8  -6  105.00    9.80   1
  -1  -8   6  128.50    7.30   1
   1   8  -5   11.40    5.00   1
  -1  -8   5   26.10    3.10   1
   1   8  -4  420.90   14.10   1
  -1  -8   4  427.30   14.90   1
   1   8  -3  140.40    9.30   1
  -1  -8   3  141.20    5.00   1
   1   8  -2   83.50    3.30   1
  -1  -8   2   88.30    4.60   1
   1   8  -1  432.00   10.30   1
  -1  -8   1  456.50    9.60   1
   1   8   0  911.30   23.40   1
  -1  -8   0  950.00   20.70   1
   1   8   1   10.90    0.70   1
  -1  -8  -1    9.10    1.00   1
   1   8   2   18.40    1.50   1
  -1  -8  -2   19.20    1.80   1
   1   8   3 1606.10   38.70   1
  -1  -8  -3 1620.50   32.40   1
   1   8   4  258.10    7.40   1
  -1  -8  -4  242.50    6.00   1
   1   8   5    6.10    1.30   1
  -1  -8  -5    5.20    0.70   1
   1   8   6    5.50    0.60   1
  -1  -8  -6    5.80    0.50   1
   1   8   7 1381.00   27.70   1
  -1  -8  -7 1399.50   34.50   1
   1   8   8   65.70    3.60   1
  -1  -8  -8   67.20    2.60   1
   1   8   9    1.00    1.10   1
  -1  -8  -9   -0.10    0.90   1
   1   8  10   49.80    2.60   1
  -1  -8 -10   43.50    2.40   1
   1   8  11  232.90    7.50   1
  -1  -8 -11  237.80    7.80   1
   1   8  12  154.80   12.50   1
  -1  -8 -12  168.90   12.20   1
   1   8  13   -1.30    4.20   1
  -1  -8 -13   -4.00    3.40   1
   1   9  -6   23.40    5.90   1
  -1  -9   6   32.30    4.60   1
   1   9  -5   74.10    8.00   1
  -1  -9   5   84.60    5.90   1
   1   9  -4    3.90    3.70   1
  -1  -9   4    0.10    2.50   1
   1   9  -3   19.20    2.60   1
  -1  -9   3   22.20    2.40   1
   1   9  -2   24.70    2.90   1
  -1  -9   2   22.40    2.20   1
   1   9  -1   78.30    4.40   1
  -1  -9   1   74.70    3.40   1
   1   9   0   64.50    3.90   1
  -1  -9   0   70.10    3.10   1
   1   9   1  258.90   12.10   1
  -1  -9  -1  261.40    7.00   1
   1   9   2   47.40    2.00   1
  -1  -9  -2   46.60    2.00   1
   1   9   3   79.40    3.30   1
  -1  -9  -3   63.90    2.80   1
   1   9   4  105.10    4.50   1
  -1  -9  -4  108.80    3.10   1
   1   9   5   91.90    4.10   1
  -1  -9  -5   81.10    2.50   1
   1   9   6   88.90    4.00   1
  -1  -9  -6   96.30    3.00   1
   1   9   7    1.60    1.50   1
  -1  -9  -7    1.30    0.80   1
   1   9   8   25.80    2.30   1
  -1  -9  -8   26.30    1.80   1
   1   9   9   81.50    4.50   1
  -1  -9  -9   87.00    3.60   1
   1   9  10   36.60    4.60   1
  -1  -9 -10   43.90    2.80   1
   1   9  11   20.30    3.20   1
  -1  -9 -11   19.10    2.70   1
   1   9  12    1.60    2.20   1
  -1  -9 -12    0.50    2.30   1
   1   9  13  103.00   10.60   1
  -1  -9 -13  109.20    9.90   1
  -1 -10   4    4.10    3.00   1
   1  10  -3   12.20    2.50   1
  -1 -10   3    9.50    2.20   1
   1  10  -2    9.70    2.80   1
  -1 -10   2    9.60    2.60   1
   1  10  -1  164.00    7.30   1
  -1 -10   1  162.60    6.20   1
   1  10   0   91.30    5.10   1
  -1 -10   0   90.10    4.00   1
   1  10   1   24.80    4.30   1
  -1 -10  -1   25.00    2.30   1
   1  10   2   25.30    4.00   1
  -1 -10  -2   23.00    2.20   1
   1  10   3   47.80    2.80   1
  -1 -10  -3   48.60    2.60   1
   1  10   4  157.00    6.20   1
  -1 -10  -4  158.00    5.30   1
   1  10   5   20.00    1.90   1
  -1 -10  -5   20.60    1.80   1
   1  10   6    2.20    1.50   1
  -1 -10  -6    9.20    3.10   1
   1  10   7    3.70    1.70   1
  -1 -10  -7    3.50    2.80   1
   1  10   8   75.30    4.50   1
  -1 -10  -8   78.00    6.80   1
   1  10   9   25.20    2.70   1
  -1 -10  -9   27.30    3.00   1
   1  10  10   18.60    3.10   1
  -1 -10 -10   12.60    2.80   1
   1  10  11   -0.50    2.20   1
  -1 -10 -11    3.70    2.30   1
   1  10  12   46.30    4.50   1
  -1 -10 -12   50.00    4.60   1
   1  11  -3    9.40    6.90   1
  -1 -11   3   16.40    3.30   1
   1  11  -2   29.80    3.70   1
  -1 -11   2   29.70    3.00   1
   1  11  -1    9.50    2.70   1
  -1 -11   1    9.90    2.20   1
   1  11   0  215.90    9.60   1
  -1 -11   0  206.40    7.50   1
   1  11   1  168.40    7.90   1
  -1 -11  -1  161.60    6.30   1
   1  11   2    3.00    2.90   1
  -1 -11  -2    5.30    1.70   1
   1  11   3   12.90    3.40   1
  -1 -11  -3   14.10    2.10   1
   1  11   4  346.80   16.40   1
  -1 -11  -4  334.60    9.50   1
   1  11   5   63.60    3.90   1
  -1 -11  -5   49.80    4.20   1
   1  11   6    4.10    1.70   1
  -1 -11  -6   -4.00    3.00   1
   1  11   7    7.90    2.30   1
  -1 -11  -7   13.70    5.20   1
   1  11   8  297.90   11.90   1
  -1 -11  -8  298.00   16.10   1
   1  11   9   29.50    3.30   1
  -1 -11  -9   24.40    3.20   1
   1  11  10    0.40    2.30   1
  -1 -11 -10   -0.40    2.40   1
   1  11  11    2.50    2.60   1
  -1 -11 -11    0.20    2.40   1
   1  12  -1  144.90    8.80   1
  -1 -12   1  149.40    7.20   1
   1  12   0   19.90    4.40   1
  -1 -12   0   11.40    2.90   1
   1  12   1  117.20    7.60   1
  -1 -12  -1  114.40    5.80   1
   1  12   2    5.50    3.50   1
  -1 -12  -2   14.90    2.50   1
   1  12   3   81.80    7.80   1
  -1 -12  -3   90.70    4.60   1
   1  12   4    6.90    3.40   1
  -1 -12  -4    0.30    2.80   1
   1  12   5  282.00   18.00   1
  -1 -12  -5  291.40   13.60   1
   1  12   6   86.70    8.40   1
  -1 -12  -6   97.90    8.80   1
   1  12   7   18.60    2.80   1
  -1 -12  -7   32.60    6.50   1
   1  12   8   38.70    3.70   1
  -1 -12  -8   33.10    5.80   1
   1  12   9   91.60    6.40   1
  -1 -12  -9   85.00    6.60   1
   1  12  10   53.60    5.00   1
  -1 -12 -10   52.40    4.90   1
   1  13   2    0.60    4.90   1
  -1 -13  -2    0.40    3.40   1
   1  13   3   35.90    6.90   1
  -1 -13  -3   34.60    4.60   1
   1  13   4   64.20    7.60   1
  -1 -13  -4   60.80    5.70   1
   1  13   5   57.70    8.20   1
  -1 -13  -5   42.30    7.80   1
   1  13   6   27.30    6.40   1
  -1 -13  -6   23.00    6.50   1
   1  13   7   57.70    7.90   1
  -1 -13  -7   55.90    8.30   1
   2 -11  -8    2.80    4.50   1
  -2  11   8   -0.60    3.40   1
   2 -11  -7    2.00    4.40   1
  -2  11   7    3.60    3.20   1
   2 -11  -6    0.30    4.10   1
  -2  11   6    4.60    3.80   1
   2 -11  -5   30.10    7.00   1
  -2  11   5   43.70    6.70   1
   2 -11  -4    2.20    5.40   1
  -2  11   4    7.90    5.20   1
   2 -11  -3    3.00    2.90   1
  -2  11   3    7.50    3.50   1
   2 -11  -2   10.30    2.80   1
  -2  11   2   10.70    3.80   1
   2 -11  -1  131.50    7.80   1
  -2  11   1  124.40   10.50   1
   2 -11   0   43.80    4.70   1
  -2  11   0   47.50    4.70   1
   2 -11   1   -0.50    2.80   1
  -2  11  -1   -0.50    2.70   1
   2 -10  -9    3.40    3.40   1
  -2  10   9    0.70    2.90   1
   2 -10  -8    6.00    5.60   1
  -2  10   8    8.50    3.70   1
   2 -10  -7    5.80    3.90   1
  -2  10   7    4.40    2.50   1
   2 -10  -6   14.60    4.40   1
  -2  10   6   21.10    3.00   1
   2 -10  -5    8.90    3.80   1
  -2  10   5    4.90    2.60   1
   2 -10  -4   27.90    3.10   1
  -2  10   4   34.00    3.30   1
   2 -10  -3    6.20    2.30   1
  -2  10   3    5.10    3.30   1
   2 -10  -2   14.80    2.60   1
  -2  10   2   14.10    3.50   1
   2 -10  -1   87.10    5.30   1
  -2  10   1   82.20    6.90   1
   2 -10   0    2.60    2.60   1
  -2  10   0   -3.70    2.80   1
   2 -10   1   36.20    3.80   1
  -2  10  -1   36.00    3.90   1
   2 -10   2    3.70    2.20   1
  -2  10  -2    1.10    2.90   1
   2 -10   3  112.10    5.60   1
  -2  10  -3  118.70    7.60   1
   2  -9 -10   46.40    5.00   1
  -2   9  10   57.60    5.40   1
   2  -9  -9  290.90   13.10   1
  -2   9   9  306.30   13.60   1
   2  -9  -8   -1.20    2.30   1
  -2   9   8    3.40    2.50   1
   2  -9  -7   29.40    4.60   1
  -2   9   7   28.80    3.50   1
   2  -9  -6  291.80   10.80   1
  -2   9   6  313.00   11.10   1
   2  -9  -5  487.90   17.00   1
  -2   9   5  512.40   17.20   1
   2  -9  -4  183.30    7.80   1
  -2   9   4  216.20    8.10   1
   2  -9  -3   87.20    4.80   1
  -2   9   3   88.00    4.70   1
   2  -9  -2  347.60   11.70   1
  -2   9   2  390.60   14.00   1
   2  -9  -1   62.60    3.90   1
  -2   9   1   58.10    5.30   1
   2  -9   0  469.60   14.60   1
  -2   9   0  484.50   21.00   1
   2  -9   1  231.60    7.60   1
  -2   9  -1  227.70    9.30   1
   2  -9   2   96.00    4.40   1
  -2   9  -2  104.10    5.90   1
   2  -9   3  106.60    5.40   1
  -2   9  -3  114.00    6.80   1
   2  -9   4  100.80    5.00   1
  -2   9  -4   99.30    6.20   1
   2  -9   5   93.70    9.80   1
  -2   9  -5  100.20   10.60   1
   2  -8 -11   82.40    8.80   1
  -2   8  11   84.70    9.00   1
   2  -8 -10   -2.60    3.20   1
  -2   8  10    6.70    3.60   1
   2  -8  -9   24.00    3.30   1
  -2   8   9   29.90    4.00   1
   2  -8  -8   10.20    2.40   1
  -2   8   8   16.00    2.90   1
   2  -8  -7  419.30   20.40   1
  -2   8   7  384.80   13.40   1
   2  -8  -6  226.80    8.00   1
  -2   8   6  229.10    8.80   1
   2  -8  -5    3.90    1.70   1
  -2   8   5    5.20    1.90   1
   2  -8  -4   38.90    2.80   1
  -2   8   4   53.80    3.30   1
   2  -8  -3    6.40    1.80   1
  -2   8   3   10.40    1.80   1
   2  -8  -2  303.50    9.90   1
  -2   8   2  337.40   10.70   1
   2  -8  -1   42.30    3.20   1
  -2   8   1   41.70    2.90   1
   2  -8   0   54.10    2.80   1
  -2   8   0   53.10    2.80   1
   2  -8   1  346.90    9.30   1
  -2   8  -1  349.70   12.20   1
   2  -8   2   81.10    3.70   1
  -2   8  -2   82.90    4.40   1
   2  -8   3   46.60    2.80   1
  -2   8  -3   46.90    3.50   1
   2  -8   4  139.60    5.40   1
  -2   8  -4  138.90    6.90   1
   2  -8   5  183.20    8.90   1
  -2   8  -5  200.10   15.40   1
   2  -8   6   16.90    5.10   1
  -2   8  -6   17.10    4.90   1
   2  -7 -12    8.70    4.20   1
  -2   7  12   13.70    5.60   1
   2  -7 -11   10.90    4.00   1
  -2   7  11    2.60    4.20   1
   2  -7 -10   14.50    2.90   1
  -2   7  10   11.50    2.70   1
   2  -7  -9    8.30    3.00   1
  -2   7   9    5.40    2.50   1
   2  -7  -8  192.70    8.10   1
  -2   7   8  212.00    8.40   1
   2  -7  -7    2.40    3.50   1
  -2   7   7    1.40    2.10   1
   2  -7  -6   25.00    2.00   1
  -2   7   6   31.50    2.80   1
   2  -7  -5  162.40    5.00   1
  -2   7   5  162.60    5.10   1
   2  -7  -4  387.10    9.50   1
  -2   7   4  430.20   10.50   1
   2  -7  -3    6.00    1.90   1
  -2   7   3    5.30    1.30   1
   2  -7  -2   12.70    2.10   1
  -2   7   2   15.70    1.90   1
   2  -7  -1  517.10   14.50   1
  -2   7   1  571.20   15.90   1
   2  -7   0  294.40    9.20   1
  -2   7   0  302.40    9.20   1
   2  -7   1  214.90    5.70   1
  -2   7  -1  214.60   10.30   1
   2  -7   2  127.00    5.30   1
  -2   7  -2  131.50    5.40   1
   2  -7   3  178.10    7.00   1
  -2   7  -3  192.20    7.30   1
   2  -7   4   56.00    3.60   1
  -2   7  -4   51.50    3.50   1
   2  -7   5  252.40    8.30   1
  -2   7  -5  233.90    9.40   1
   2  -7   6  241.60   10.20   1
  -2   7  -6  186.10   12.90   1
   2  -7   7    6.00    4.30   1
  -2   7  -7    7.70    4.40   1
   2  -7   8   41.00    6.40   1
  -2   7  -8   29.00    5.70   1
   2  -6 -12   66.20    7.40   1
  -2   6  12   48.20    7.90   1
   2  -6 -10   47.80    3.70   1
  -2   6  10   47.50    3.90   1
   2  -6  -9  176.70    7.20   1
  -2   6   9  168.20    7.30   1
   2  -6  -8   37.10    3.00   1
  -2   6   8   36.90    3.00   1
   2  -6  -7   47.40    3.00   1
  -2   6   7   43.90    2.30   1
   2  -6  -6  269.10    6.80   1
  -2   6   6  261.20    6.70   1
   2  -6  -5  352.50    8.30   1
  -2   6   5  369.70    9.20   1
   2  -6  -4   90.20    3.00   1
  -2   6   4   96.30    3.20   1
   2  -6  -3   -0.30    1.20   1
  -2   6   3    0.00    1.20   1
   2  -6  -2  473.70   10.50   1
  -2   6   2  475.00   10.50   1
   2  -6  -1    5.70    1.50   1
  -2   6   1    4.20    1.10   1
   2  -6   0   50.30    1.60   1
  -2   6   0   50.30    2.50   1
   2  -6   1   62.30    2.00   1
  -2   6  -1   60.60    2.70   1
   2  -6   2  405.40    7.10   1
  -2   6  -2  407.20   11.80   1
   2  -6   3   51.00    1.80   1
  -2   6  -3   48.30    3.00   1
   2  -6   4   21.90    1.80   1
  -2   6  -4   21.40    2.20   1
   2  -6   5   99.50    3.90   1
  -2   6  -5   93.30    4.70   1
   2  -6   6    2.20    1.40   1
  -2   6  -6    1.00    1.60   1
   2  -6   7   42.70    4.90   1
  -2   6  -7   24.80    4.60   1
   2  -6   8   81.80    8.30   1
  -2   6  -8   74.50    7.70   1
   2  -6   9   21.60    5.40   1
  -2   6  -9   16.40    4.60   1
   2  -5 -12   28.80    5.10   1
  -2   5  12   24.30    7.20   1
   2  -5 -11   32.10    5.00   1
  -2   5  11   32.60    5.70   1
   2  -5 -10  151.90    6.80   1
  -2   5  10  143.00    6.90   1
   2  -5  -9   73.80    3.20   1
  -2   5   9   66.60    4.20   1
   2  -5  -8   69.20    2.80   1
  -2   5   8   70.40    3.80   1
   2  -5  -7   83.80    2.30   1
  -2   5   7   74.80    2.50   1
   2  -5  -6  404.40    7.80   1
  -2   5   6  408.40    7.70   1
   2  -5  -5  392.80    7.20   1
  -2   5   5  397.20    7.50   1
   2  -5  -4  231.60    4.60   1
  -2   5   4  236.50    5.70   1
   2  -5  -3  258.20    4.60   1
  -2   5   3  268.60    5.60   1
   2  -5  -2  371.50    6.70   1
  -2   5   2  389.30    6.80   1
   2  -5  -1 1278.30   19.10   1
  -2   5   1 1309.40   20.30   1
   2  -5   0  286.90    4.50   1
  -2   5   0  293.80    5.40   1
   2  -5   1  305.00    4.70   1
  -2   5  -1  307.50    6.20   1
   2  -5   2  115.10    2.10   1
  -2   5  -2  112.20    3.10   1
   2  -5   3 1077.00   15.60   1
  -2   5  -3 1037.70   18.70   1
   2  -5   4  344.70    6.10   1
  -2   5  -4  332.90    7.20   1
   2  -5   5   43.30    2.30   1
  -2   5  -5   42.30    2.20   1
   2  -5   6  371.70   10.20   1
  -2   5  -6  362.20   12.10   1
   2  -5   7  312.30   11.70   1
  -2   5  -7  279.20   14.90   1
   2  -5   8   59.50    5.70   1
  -2   5  -8   57.20    6.20   1
   2  -5   9   29.50    4.30   1
  -2   5  -9   29.50    5.60   1
   2  -5  10   61.40    8.10   1
  -2   5 -10   65.70    8.60   1
   2  -4 -12   40.10    6.50   1
  -2   4  12   39.00    6.80   1
   2  -4 -11    1.90    2.90   1
  -2   4  11    0.80    3.80   1
   2  -4 -10    2.00    1.80   1
  -2   4  10    0.60    2.90   1
   2  -4  -9  156.20    5.10   1
  -2   4   9  139.60    6.10   1
   2  -4  -8   66.40    2.50   1
  -2   4   8   62.10    2.40   1
   2  -4  -7  411.70    8.50   1
  -2   4   7  409.90    7.70   1
   2  -4  -6    7.20    1.00   1
  -2   4   6    8.90    0.90   1
   2  -4  -5  128.30    2.90   1
  -2   4   5  120.80    2.60   1
   2  -4  -4   22.30    0.90   1
  -2   4   4   22.80    0.80   1
   2  -4  -3 1024.40   15.40   1
  -2   4   3 1048.80   14.60   1
   2  -4  -2   60.70    1.50   1
  -2   4   2   59.90    1.60   1
   2  -4  -1   39.10    1.40   1
  -2   4   1   40.50    1.30   1
   2  -4   0  613.40   10.70   1
  -2   4   0  615.40    9.90   1
   2  -4   1  706.90    9.70   1
  -2   4  -1  698.80   10.00   1
   2  -4   2   39.90    1.00   1
  -2   4  -2   40.60    1.40   1
   2  -4   3   87.30    1.70   1
  -2   4  -3   82.40    2.10   1
   2  -4   4  350.00    5.20   1
  -2   4  -4  349.30    6.80   1
   2  -4   5  134.80    3.00   1
  -2   4  -5  131.20    3.30   1
   2  -4   6  361.30    6.10   1
  -2   4  -6  357.90    8.90   1
   2  -4   7  130.20    4.00   1
  -2   4  -7  113.70    7.50   1
   2  -4   8   -1.70    1.70   1
  -2   4  -8    1.00    2.60   1
   2  -4   9   74.30    5.00   1
  -2   4  -9   76.70    6.80   1
   2  -4  10  147.40    8.50   1
  -2   4 -10  162.90   12.30   1
   2  -3 -12  165.20   12.80   1
  -2   3  12  156.30   13.50   1
   2  -3 -11  114.80    8.80   1
  -2   3  11  132.80   10.10   1
   2  -3 -10  112.50    5.60   1
  -2   3  10  101.00    8.00   1
   2  -3  -9  340.70    9.40   1
  -2   3   9  345.10   11.30   1
   2  -3  -8  619.70   14.50   1
  -2   3   8  630.20   12.70   1
   2  -3  -7    3.00    0.90   1
  -2   3   7    2.90    0.80   1
   2  -3  -6    6.40    0.90   1
  -2   3   6    6.90    0.80   1
   2  -3  -5 1577.10   23.10   1
  -2   3   5 1504.50   24.90   1
   2  -3  -4  706.50   13.90   1
  -2   3   4  692.50   10.70   1
   2  -3  -3  377.20    5.60   1
  -2   3   3  368.30    5.80   1
   2  -3  -2   53.90    1.30   1
  -2   3   2   56.20    1.20   1
   2  -3  -1 2669.70   43.10   1
  -2   3   1 2573.50   33.60   1
   2  -3   0  169.00    3.40   1
  -2   3   0  163.20    2.60   1
   2  -3   1  148.20    2.70   1
  -2   3  -1  145.60    2.50   1
   2  -3   2   56.70    1.10   1
  -2   3  -2   56.10    1.20   1
   2  -3   3 1218.80   15.40   1
  -2   3  -3 1183.80   16.40   1
   2  -3   4 2462.40   30.30   1
  -2   3  -4 2383.30   34.70   1
   2  -3   5   30.90    0.90   1
  -2   3  -5   31.80    1.10   1
   2  -3   6    1.30    0.50   1
  -2   3  -6    2.90    0.60   1
   2  -3   7    3.30    0.60   1
  -2   3  -7    4.10    1.00   1
   2  -3   8  800.20   18.80   1
  -2   3  -8  750.80   28.90   1
   2  -3   9    2.10    2.70   1
  -2   3  -9    6.40    3.20   1
   2  -3  10    9.40    2.80   1
  -2   3 -10    9.70    3.50   1
   2  -3  11  219.30   11.20   1
  -2   3 -11  258.10   17.90   1
   2  -2 -12    8.70    4.90   1
  -2   2  12   10.00    4.90   1
   2  -2 -11    6.40    2.70   1
  -2   2  11    6.00    3.80   1
   2  -2 -10   66.70    4.00   1
  -2   2  10   71.80    7.00   1
   2  -2  -9    8.30    1.10   1
  -2   2   9   10.60    1.40   1
   2  -2  -8   93.10    3.10   1
  -2   2   8   90.50    3.00   1
   2  -2  -7   15.70    1.00   1
  -2   2   7   15.50    1.00   1
   2  -2  -6   12.90    0.90   1
  -2   2   6   12.90    0.80   1
   2  -2  -5    1.10    0.70   1
  -2   2   5    2.70    0.60   1
   2  -2  -4  789.60   12.30   1
  -2   2   4  786.90   11.80   1
   2  -2  -3  147.60    2.40   1
  -2   2   3  141.60    2.70   1
   2  -2  -2 1151.30   18.90   1
  -2   2   2 1092.50   18.30   1
   2  -2  -1   14.20    0.80   1
  -2   2   1   13.10    0.70   1
   2  -2   0 1413.40   22.90   1
  -2   2   0 1406.20   26.30   1
   2  -2   1  612.00   10.40   1
  -2   2  -1  625.10    9.40   1
   2  -2   2 2080.70   29.80   1
  -2   2  -2 2048.50   26.80   1
   2  -2   3  228.10    3.20   1
  -2   2  -3  230.30    3.50   1
   2  -2   4  781.40   11.10   1
  -2   2  -4  793.80   11.90   1
   2  -2   5  881.40   11.50   1
  -2   2  -5  884.60   14.90   1
   2  -2   6  441.90    7.20   1
  -2   2  -6  451.50    8.10   1
   2  -2   7   89.90    2.40   1
  -2   2  -7   94.70    2.30   1
   2  -2   8  279.00    7.40   1
  -2   2  -8  297.90    9.20   1
   2  -2   9  247.40    6.30   1
  -2   2  -9  256.80   13.30   1
   2  -2  10   26.20    2.30   1
  -2   2 -10   32.50    4.70   1
   2  -2  11    3.40    2.60   1
   2  -2  12  116.20    7.20   1
   2  -1 -12    3.70    3.50   1
  -2   1  12   -1.10    2.40   1
   2  -1 -11   15.90    2.70   1
  -2   1  11   16.70    3.10   1
   2  -1 -10    3.50    1.90   1
  -2   1  10   -1.50    3.00   1
   2  -1  -9   23.40    2.30   1
  -2   1   9   22.60    3.90   1
   2  -1  -8  285.00    6.20   1
  -2   1   8  295.00    5.10   1
   2  -1  -7    1.70    0.50   1
  -2   1   7    1.60    0.20   1
   2  -1  -6  136.80    3.00   1
  -2   1   6  138.00    2.90   1
   2  -1  -5   65.80    1.70   1
  -2   1   5   69.20    1.40   1
   2  -1  -4 1646.90   24.20   1
  -2   1   4 1711.20   25.20   1
   2  -1  -3    5.60    0.50   1
  -2   1   3    5.00    0.50   1
   2  -1  -2 1190.10   17.90   1
  -2   1   2 1209.20   19.80   1
   2  -1  -1   49.30    1.40   1
  -2   1   1   50.60    1.30   1
   2  -1   0 1668.80   26.90   1
  -2   1   0 1617.10   26.10   1
   2  -1   1   33.70    1.10   1
  -2   1  -1   33.90    0.90   1
   2  -1   2  547.60    9.30   1
  -2   1  -2  535.80    6.90   1
   2  -1   3  203.30    3.10   1
  -2   1  -3  199.80    3.00   1
   2  -1   4   92.80    1.40   1
  -2   1  -4   95.90    1.70   1
   2  -1   5    9.40    0.50   1
  -2   1  -5   10.20    0.60   1
   2  -1   6    2.10    0.40   1
  -2   1  -6    1.90    0.40   1
   2  -1   7    0.90    0.20   1
  -2   1  -7   -0.30    1.10   1
   2  -1   8   18.30    1.30   1
  -2   1  -8   23.90    2.10   1
   2  -1   9  182.70    5.40   1
  -2   1  -9  191.60    6.90   1
   2  -1  10    6.80    1.60   1
   2  -1  11   31.80    2.40   1
   2  -1  12    1.70    2.20   1
  -2   0  12   64.20    4.40   1
   2   0 -11   15.80    3.00   1
  -2   0  11   13.30    2.70   1
   2   0 -10  196.00    8.60   1
  -2   0  10  197.10    8.40   1
   2   0  -9   27.50    2.60   1
  -2   0   9   22.40    2.60   1
   2   0  -8  474.70   13.60   1
  -2   0   8  525.70   19.70   1
   2   0  -7  187.00    4.50   1
  -2   0   7  190.50    3.70   1
   2   0  -6  186.00    3.80   1
  -2   0   6  194.90    3.90   1
   2   0  -5    4.10    0.50   1
  -2   0   5    3.00    0.30   1
   2   0  -4 1208.90   20.40   1
  -2   0   4 1243.10   13.50   1
   2   0  -3  618.20    9.40   1
  -2   0   3  632.80    9.40   1
   2   0  -2   13.50    0.60   1
  -2   0   2   12.30    0.40   1
   2   0  -1    3.80    0.30   1
  -2   0   1    5.40    0.30   1
   2   0   0 1269.30   18.40   1
  -2   0   0 1273.70   18.40   1
   2   0   1  309.40    4.90   1
  -2   0  -1  301.40    4.80   1
   2   0   2  232.50    3.80   1
  -2   0  -2  234.70    3.40   1
   2   0   3   57.50    1.20   1
  -2   0  -3   59.20    1.20   1
   2   0   4  482.70    5.80   1
  -2   0  -4  483.40    7.50   1
   2   0   5 1674.60   19.20   1
  -2   0  -5 1643.70   26.20   1
   2   0   6   20.30    0.60   1
  -2   0  -6   19.20    0.70   1
   2   0   7   33.90    1.40   1
  -2   0  -7   38.20    2.20   1
   2   0   8    4.20    0.80   1
  -2   0  -8    4.30    1.30   1
   2   0   9 1044.40   26.30   1
  -2   0  -9 1069.20   39.70   1
   2   0  10    1.20    0.80   1
  -2   0 -10    3.30    2.70   1
   2   0  11    2.80    1.50   1
   2   0  12  120.50    5.40   1
   2   0  13   91.30    8.90   1
   2   1 -11  150.90   12.90   1
  -2  -1  11  153.70    7.30   1
   2   1 -10   34.40    5.00   1
  -2  -1  10   25.60    2.70   1
   2   1  -9  178.10    7.20   1
  -2  -1   9  174.50    7.00   1
   2   1  -8   36.80    2.80   1
  -2  -1   8   32.90    2.10   1
   2   1  -7  566.30   22.70   1
  -2  -1   7  566.60   12.80   1
   2   1  -6   12.80    0.70   1
  -2  -1   6   11.30    0.70   1
   2   1  -5  501.40    8.80   1
  -2  -1   5  515.60    8.20   1
   2   1  -4  479.60    7.50   1
  -2  -1   4  487.50    6.10   1
   2   1  -3 2121.50   30.40   1
  -2  -1   3 2234.30   29.00   1
   2   1  -2   88.80    1.70   1
  -2  -1   2   95.30    1.50   1
   2   1  -1  563.40    8.40   1
  -2  -1   1  582.00    7.90   1
   2   1   0 1249.60   18.00   1
  -2  -1   0 1255.90   16.40   1
   2   1   1 2952.70   41.80   1
  -2  -1  -1 2926.30   37.60   1
   2   1   2  558.40    7.00   1
  -2  -1  -2  555.30    7.50   1
   2   1   3 3349.50   42.80   1
  -2  -1  -3 3308.90   42.10   1
   2   1   4  709.60    8.80   1
  -2  -1  -4  705.60   10.50   1
   2   1   5 1028.50   12.00   1
  -2  -1  -5 1013.00   14.80   1
   2   1   6   21.10    0.50   1
  -2  -1  -6   21.40    0.70   1
   2   1   7 1477.60   18.60   1
  -2  -1  -7 1479.60   27.30   1
   2   1   8  275.40    6.00   1
  -2  -1  -8  290.40   12.40   1
   2   1   9    3.20    0.80   1
  -2  -1  -9    4.80    2.10   1
   2   1  10  198.80    6.90   1
  -2  -1 -10  209.60   11.50   1
   2   1  11  215.20    7.10   1
  -2  -1 -11  192.40   11.30   1
   2   1  12    7.70    2.00   1
   2   1  13    4.80    3.60   1
  -2  -2  11   20.10    3.40   1
   2   2 -10    5.30    3.90   1
  -2  -2  10    1.80    2.40   1
   2   2  -9   48.70    5.40   1
  -2  -2   9   53.30    3.30   1
   2   2  -8   18.80    3.30   1
  -2  -2   8   20.60    1.70   1
   2   2  -7   96.40    6.20   1
  -2  -2   7   99.30    6.50   1
   2   2  -6   28.10    0.90   1
  -2  -2   6   28.80    1.00   1
   2   2  -5  872.40   13.20   1
  -2  -2   5  897.10   17.60   1
   2   2  -4  229.60    3.50   1
  -2  -2   4  223.60    3.00   1
   2   2  -3 1527.60   20.20   1
  -2  -2   3 1571.70   19.10   1
   2   2  -2   48.70    1.00   1
  -2  -2   2   53.80    1.00   1
   2   2  -1  719.30   10.70   1
  -2  -2   1  729.30    9.20   1
   2   2   0   62.00    1.30   1
  -2  -2   0   60.20    1.10   1
   2   2   1 2248.50   32.00   1
  -2  -2  -1 2314.70   30.10   1
   2   2   2  146.70    2.30   1
  -2  -2  -2  146.90    2.20   1
   2   2   3   11.40    0.50   1
  -2  -2  -3   11.50    0.40   1
   2   2   4   13.10    0.40   1
  -2  -2  -4   12.50    0.50   1
   2   2   5  431.60    6.00   1
  -2  -2  -5  436.30    6.70   1
   2   2   6   52.60    1.00   1
  -2  -2  -6   54.70    1.40   1
   2   2   7  174.70    2.40   1
  -2  -2  -7  166.30    3.20   1
   2   2   8  146.90    3.00   1
  -2  -2  -8  142.70    2.90   1
   2   2   9   22.60    1.60   1
  -2  -2  -9   22.50    2.10   1
   2   2  10  621.70   14.30   1
  -2  -2 -10  608.10   17.30   1
   2   2  11   71.10    2.80   1
  -2  -2 -11   72.80    6.40   1
   2   2  12    1.10    1.50   1
  -2  -2 -12    6.10    4.50   1
   2   2  13   16.30    6.00   1
   2   3 -10   -4.90    5.20   1
  -2  -3  10    0.50    2.00   1
   2   3  -9   40.00    5.50   1
  -2  -3   9   40.30    4.30   1
   2   3  -8   69.50    6.00   1
  -2  -3   8   67.10    3.80   1
   2   3  -7  787.30   21.90   1
  -2  -3   7  777.30   22.20   1
   2   3  -6   92.40    2.30   1
  -2  -3   6   84.00    2.20   1
   2   3  -5  328.20    6.10   1
  -2  -3   5  316.50    6.20   1
   2   3  -4  192.20    3.80   1
  -2  -3   4  181.60    2.90   1
   2   3  -3  830.00   12.50   1
  -2  -3   3  812.30   10.60   1
   2   3  -2  189.30    3.30   1
  -2  -3   2  189.90    3.10   1
   2   3  -1  544.00    7.70   1
  -2  -3   1  539.60    7.70   1
   2   3   0  142.00    2.60   1
  -2  -3   0  144.00    2.30   1
   2   3   1  155.40    2.70   1
  -2  -3  -1  160.20    3.00   1
   2   3   2  773.90   13.00   1
  -2  -3  -2  769.50   11.60   1
   2   3   3  928.10   15.20   1
  -2  -3  -3  931.60   12.40   1
   2   3   4    6.40    0.40   1
  -2  -3  -4    8.30    0.40   1
   2   3   5  304.10    4.40   1
  -2  -3  -5  311.50    5.10   1
   2   3   6  765.60    9.10   1
  -2  -3  -6  752.70   11.30   1
   2   3   7  296.20    4.00   1
  -2  -3  -7  296.10    5.70   1
   2   3   8  718.50   11.40   1
  -2  -3  -8  702.40   12.30   1
   2   3   9  266.10    4.80   1
  -2  -3  -9  261.90    5.80   1
   2   3  10  146.60    3.50   1
  -2  -3 -10  148.10    3.90   1
   2   3  11   38.20    3.70   1
  -2  -3 -11   35.90    2.70   1
   2   3  12  162.50    5.70   1
  -2  -3 -12  172.20    7.50   1
   2   3  13   44.60    7.10   1
  -2  -3 -13   49.50    6.70   1
   2   3  14    3.10    6.00   1
  -2  -4  10   74.40    5.60   1
   2   4  -9   17.40    4.50   1
  -2  -4   9    4.00    2.80   1
   2   4  -8   -1.00    1.80   1
  -2  -4   8    2.60    3.30   1
   2   4  -7   10.30    2.00   1
  -2  -4   7   13.80    2.20   1
   2   4  -6  180.50    5.20   1
  -2  -4   6  169.00    5.70   1
   2   4  -5    2.40    0.70   1
  -2  -4   5    1.70    0.60   1
   2   4  -4   28.50    1.10   1
  -2  -4   4   29.20    1.10   1
   2   4  -3  227.00    4.40   1
  -2  -4   3  214.20    3.40   1
   2   4  -2 1057.60   14.50   1
  -2  -4   2 1023.00   14.10   1
   2   4  -1   45.50    1.10   1
  -2  -4   1   45.60    1.10   1
   2   4   0  271.20    4.10   1
  -2  -4   0  289.50    5.30   1
   2   4   1  229.00    3.90   1
  -2  -4  -1  234.90    4.40   1
   2   4   2 1766.80   28.70   1
  -2  -4  -2 1778.90   28.80   1
   2   4   3   35.40    1.10   1
  -2  -4  -3   36.00    0.90   1
   2   4   4 1485.70   24.20   1
  -2  -4  -4 1509.40   19.70   1
   2   4   5  523.10    9.10   1
  -2  -4  -5  535.50    7.50   1
   2   4   6 1496.10   20.00   1
  -2  -4  -6 1547.40   22.70   1
   2   4   7   43.70    1.00   1
  -2  -4  -7   45.90    1.30   1
   2   4   8  752.70   11.70   1
  -2  -4  -8  745.20   12.00   1
   2   4   9  173.40    4.30   1
  -2  -4  -9  167.60    3.80   1
   2   4  10   58.00    1.80   1
  -2  -4 -10   63.90    2.00   1
   2   4  11    2.30    1.20   1
  -2  -4 -11    3.20    1.60   1
   2   4  12  112.80    8.80   1
  -2  -4 -12  123.90    5.80   1
   2   4  13   47.10    6.40   1
  -2  -4 -13   52.40    4.70   1
   2   4  14   62.50    8.30   1
  -2  -4 -14   55.50    6.50   1
   2   5  -9   70.40    7.50   1
  -2  -5   9   56.60    4.70   1
   2   5  -8   46.80    3.80   1
  -2  -5   8   44.30    3.80   1
   2   5  -7  177.50    7.40   1
  -2  -5   7  164.60    7.10   1
   2   5  -6    5.80    2.40   1
  -2  -5   6    4.10    1.40   1
   2   5  -5    8.10    0.80   1
  -2  -5   5    8.70    1.00   1
   2   5  -4  663.30   12.30   1
  -2  -5   4  657.50   13.90   1
   2   5  -3    0.90    0.70   1
  -2  -5   3    1.60    0.70   1
   2   5  -2  168.00    3.20   1
  -2  -5   2  170.00    3.10   1
   2   5  -1   34.50    1.00   1
  -2  -5   1   32.50    1.30   1
   2   5   0 1890.70   25.00   1
  -2  -5   0 1935.00   31.70   1
   2   5   1  228.40    4.40   1
  -2  -5  -1  225.70    4.60   1
   2   5   2  681.70   12.00   1
  -2  -5  -2  696.10   12.20   1
   2   5   3   30.80    1.20   1
  -2  -5  -3   29.60    1.20   1
   2   5   4  262.00    5.10   1
  -2  -5  -4  264.80    4.00   1
   2   5   5  234.30    4.70   1
  -2  -5  -5  240.30    3.80   1
   2   5   6   57.60    1.50   1
  -2  -5  -6   57.70    1.50   1
   2   5   7   11.50    0.80   1
  -2  -5  -7   13.50    0.80   1
   2   5   8  128.20    2.90   1
  -2  -5  -8  131.40    2.80   1
   2   5   9   25.00    1.20   1
  -2  -5  -9   28.30    1.30   1
   2   5  10   12.90    0.80   1
  -2  -5 -10   14.60    1.20   1
   2   5  11  133.30    5.30   1
  -2  -5 -11  135.60    4.60   1
   2   5  12   65.50    7.00   1
  -2  -5 -12   70.20    4.20   1
   2   5  13    4.30    5.40   1
  -2  -5 -13    1.30    2.10   1
   2   5  14    9.20    5.00   1
  -2  -5 -14    5.80    3.60   1
   2   6  -8    7.00    2.70   1
  -2  -6   8    5.70    3.00   1
   2   6  -7    8.00    2.30   1
  -2  -6   7    9.70    2.50   1
   2   6  -6  633.60   20.10   1
  -2  -6   6  588.30   19.40   1
   2   6  -5  141.00    4.90   1
  -2  -6   5  150.70    5.60   1
   2   6  -4  136.00    4.10   1
  -2  -6   4  139.10    4.40   1
   2   6  -3   70.70    2.30   1
  -2  -6   3   73.70    3.20   1
   2   6  -2  689.00   12.50   1
  -2  -6   2  682.50   14.70   1
   2   6  -1  710.00   11.20   1
  -2  -6   1  684.90   14.60   1
   2   6   0  462.20    6.90   1
  -2  -6   0  462.10    8.90   1
   2   6   1  241.80    4.20   1
  -2  -6  -1  242.80    5.10   1
   2   6   2   77.90    2.10   1
  -2  -6  -2   75.40    2.20   1
   2   6   3  722.30   12.90   1
  -2  -6  -3  706.50   11.00   1
   2   6   4  495.90    9.30   1
  -2  -6  -4  482.10    7.80   1
   2   6   5   40.10    1.50   1
  -2  -6  -5   38.90    1.50   1
   2   6   6 1361.10   20.90   1
  -2  -6  -6 1388.70   19.10   1
   2   6   7  241.30    4.60   1
  -2  -6  -7  247.30    4.70   1
   2   6   8  349.90    6.50   1
  -2  -6  -8  347.30    6.30   1
   2   6   9  207.90    5.60   1
  -2  -6  -9  225.50    5.00   1
   2   6  10  393.40   12.10   1
  -2  -6 -10  422.90   12.50   1
   2   6  11    2.80    1.10   1
  -2  -6 -11    2.50    1.20   1
   2   6  12  166.60   11.30   1
  -2  -6 -12  194.70    8.00   1
   2   6  13  343.40   22.40   1
  -2  -6 -13  376.60   16.40   1
   2   6  14   12.90    4.90   1
  -2  -6 -14   14.30    3.10   1
   2   7  -7   63.20    4.80   1
  -2  -7   7   61.70    5.10   1
   2   7  -6  143.30    6.70   1
  -2  -7   6  125.90    6.90   1
   2   7  -5    4.30    1.40   1
  -2  -7   5    4.30    2.30   1
   2   7  -4  167.00    5.40   1
  -2  -7   4  163.20    5.60   1
   2   7  -3  470.60   11.30   1
  -2  -7   3  442.60   11.00   1
   2   7  -2  330.80    7.20   1
  -2  -7   2  320.70    8.10   1
   2   7  -1   57.70    2.00   1
  -2  -7   1   53.70    2.80   1
   2   7   0   20.10    1.00   1
  -2  -7   0   18.60    1.50   1
   2   7   1 1589.10   37.40   1
  -2  -7  -1 1568.50   30.40   1
   2   7   2   76.60    2.30   1
  -2  -7  -2   73.60    2.60   1
   2   7   3   78.90    4.70   1
  -2  -7  -3   95.10    2.90   1
   2   7   4  163.70    5.20   1
  -2  -7  -4  159.90    4.20   1
   2   7   5 1670.50   39.00   1
  -2  -7  -5 1610.90   30.50   1
   2   7   6   87.90    2.70   1
  -2  -7  -6   84.30    2.70   1
   2   7   7  320.50    9.30   1
  -2  -7  -7  306.80    7.10   1
   2   7   8   84.30    2.90   1
  -2  -7  -8   78.10    2.70   1
   2   7   9  305.10    9.30   1
  -2  -7  -9  314.00    7.60   1
   2   7  10   28.90    2.20   1
  -2  -7 -10   31.00    2.30   1
   2   7  11   91.00    6.10   1
  -2  -7 -11   93.20    3.70   1
   2   7  12   30.20    2.90   1
  -2  -7 -12   31.60    4.20   1
   2   7  13    0.60    5.40   1
  -2  -7 -13   -0.80    2.00   1
   2   7  14    0.50    4.20   1
  -2  -7 -14    1.70    2.50   1
   2   8  -7    3.40    4.20   1
  -2  -8   7   10.00    3.40   1
   2   8  -6    8.30    2.70   1
  -2  -8   6    5.10    2.70   1
   2   8  -5   34.50    3.50   1
  -2  -8   5   32.70    3.70   1
   2   8  -4   13.80    1.80   1
  -2  -8   4   12.00    2.00   1
   2   8  -3   51.10    3.20   1
  -2  -8   3   50.90    2.70   1
   2   8  -2   70.10    2.90   1
  -2  -8   2   65.90    3.10   1
   2   8  -1  132.80    4.30   1
  -2  -8   1  134.60    4.30   1
   2   8   0   67.70    2.60   1
  -2  -8   0   65.30    2.70   1
   2   8   1  351.00    7.80   1
  -2  -8  -1  338.60    8.00   1
   2   8   2    2.60    0.80   1
  -2  -8  -2    1.20    1.10   1
   2   8   3   77.10    2.90   1
  -2  -8  -3   78.00    2.80   1
   2   8   4  146.60    7.00   1
  -2  -8  -4  156.20    4.20   1
   2   8   5  316.00   13.00   1
  -2  -8  -5  321.20    7.20   1
   2   8   6   73.20    2.50   1
  -2  -8  -6   69.50    2.60   1
   2   8   7   43.60    2.00   1
  -2  -8  -7   39.40    1.90   1
   2   8   8   54.90    2.30   1
  -2  -8  -8   54.20    2.40   1
   2   8   9   45.60    3.90   1
  -2  -8  -9   43.20    2.20   1
   2   8  10   44.50    4.10   1
  -2  -8 -10   38.50    2.60   1
   2   8  11  195.00    6.60   1
  -2  -8 -11  200.40    6.60   1
   2   8  12    0.60    1.30   1
  -2  -8 -12    1.70    1.50   1
   2   8  13   -3.70    3.80   1
  -2  -8 -13   -1.60    2.10   1
   2   8  14   65.70    9.60   1
  -2  -8 -14   63.70    7.80   1
   2   9  -5   49.20    7.60   1
  -2  -9   5   67.60    5.40   1
   2   9  -4    5.50    2.10   1
  -2  -9   4   -2.00    3.30   1
   2   9  -3  196.80    6.70   1
  -2  -9   3  199.80    6.90   1
   2   9  -2   27.30    2.00   1
  -2  -9   2   26.10    2.20   1
   2   9  -1  194.60    5.70   1
  -2  -9   1  178.10    5.90   1
   2   9   0   72.10    3.00   1
  -2  -9   0   64.50    3.00   1
   2   9   1  246.90    7.70   1
  -2  -9  -1  234.80    6.60   1
   2   9   2   52.10    1.70   1
  -2  -9  -2   61.20    2.80   1
   2   9   3    5.50    0.70   1
  -2  -9  -3    6.30    1.20   1
   2   9   4   57.80    2.20   1
  -2  -9  -4   57.60    2.40   1
   2   9   5   29.10    1.00   1
  -2  -9  -5   25.80    1.60   1
   2   9   6   32.20    1.70   1
  -2  -9  -6   29.40    1.20   1
   2   9   7   99.30    6.20   1
  -2  -9  -7  100.80    4.20   1
   2   9   8    7.00    1.80   1
  -2  -9  -8    5.30    1.30   1
   2   9   9    9.10    1.70   1
  -2  -9  -9    6.10    1.40   1
   2   9  10   80.80    3.60   1
  -2  -9 -10   80.80    3.50   1
   2   9  11   51.80    3.00   1
  -2  -9 -11   51.40    3.00   1
   2   9  12    2.10    1.50   1
  -2  -9 -12    1.10    1.60   1
   2   9  13    1.60    4.00   1
  -2  -9 -13    5.20    3.50   1
   2  10  -4   19.40    5.10   1
  -2 -10   4   17.10    3.30   1
   2  10  -3  230.60   10.40   1
  -2 -10   3  206.30    8.30   1
   2  10  -2  396.10   14.70   1
  -2 -10   2  393.50   12.10   1
   2  10  -1  173.50    7.60   1
  -2 -10   1  163.70    6.00   1
   2  10   0   10.50    2.40   1
  -2 -10   0    7.00    1.80   1
   2  10   1    0.40    1.80   1
  -2 -10  -1    3.40    1.80   1
   2  10   2  782.50   32.30   1
  -2 -10  -2  781.30   18.90   1
   2  10   3  124.80    5.20   1
  -2 -10  -3  124.80    4.50   1
   2  10   4  102.30    4.50   1
  -2 -10  -4  109.90    3.90   1
   2  10   5   58.00    3.10   1
  -2 -10  -5   56.60    2.60   1
   2  10   6  686.80   20.00   1
  -2 -10  -6  684.50   14.10   1
   2  10   7    4.60    1.60   1
  -2 -10  -7    1.70    1.30   1
   2  10   8    1.20    2.30   1
  -2 -10  -8    1.30    1.20   1
   2  10   9   80.00    4.80   1
  -2 -10  -9   74.00    3.40   1
   2  10  10  291.20   16.00   1
  -2 -10 -10  302.80   11.80   1
   2  10  11  152.90   11.20   1
  -2 -10 -11  160.60    8.30   1
   2  10  12   18.20    3.10   1
  -2 -10 -12   14.50    2.60   1
   2  10  13   50.60    7.70   1
  -2 -10 -13   59.50    7.20   1
   2  11  -3  131.20   12.10   1
  -2 -11   3  122.30    7.70   1
   2  11  -2    6.20    2.50   1
  -2 -11   2    3.30    2.20   1
   2  11  -1   30.60    4.00   1
  -2 -11   1   25.10    2.80   1
   2  11   0   62.10    4.50   1
  -2 -11   0   60.50    3.60   1
   2  11   1   -0.10    2.30   1
  -2 -11  -1    3.40    1.90   1
   2  11   2   -0.20    2.60   1
  -2 -11  -2    3.00    1.70   1
   2  11   3   26.30    4.00   1
  -2 -11  -3   33.90    2.70   1
   2  11   4  230.10   12.70   1
  -2 -11  -4  237.40    7.30   1
   2  11   5   91.80    4.60   1
  -2 -11  -5   90.50    4.00   1
   2  11   6    5.20    1.90   1
  -2 -11  -6    6.30    2.20   1
   2  11   7   10.80    2.20   1
  -2 -11  -7   21.00    4.50   1
   2  11   8    8.70    2.00   1
  -2 -11  -8    9.90    3.40   1
   2  11   9  152.50    7.50   1
  -2 -11  -9  146.60    7.00   1
   2  11  10    9.30    3.30   1
  -2 -11 -10   11.20    2.80   1
   2  11  11   -1.30    2.40   1
  -2 -11 -11    0.40    2.20   1
   2  11  12   98.50    6.60   1
  -2 -11 -12   99.50    6.70   1
   2  12  -1   32.70    4.80   1
  -2 -12   1   19.40    3.00   1
   2  12   0    0.90    2.60   1
  -2 -12   0   -1.50    2.50   1
   2  12   1   -1.00    2.50   1
  -2 -12  -1    0.70    2.40   1
   2  12   2  283.70   13.00   1
  -2 -12  -2  273.10   10.30   1
   2  12   3  239.20   16.30   1
  -2 -12  -3  252.80    9.70   1
   2  12   4   10.00    4.50   1
  -2 -12  -4   10.20    3.50   1
   2  12   5   76.60    7.10   1
  -2 -12  -5   82.30    5.40   1
   2  12   6   15.00    3.70   1
  -2 -12  -6   10.90    2.70   1
   2  12   7  211.10   10.10   1
  -2 -12  -7  195.00   14.00   1
   2  12   8    2.80    2.70   1
   2  12   9  160.30    8.70   1
  -2 -12  -9  161.80    8.70   1
   2  12  10   99.60    6.60   1
  -2 -12 -10   97.30    6.30   1
   2  12  11   87.20    6.30   1
  -2 -12 -11   84.70    6.00   1
   2  13   2   24.60    4.20   1
  -2 -13  -2   20.50    3.80   1
   2  13   3   51.30    6.90   1
  -2 -13  -3   53.70    4.90   1
   2  13   4   -8.00    5.00   1
  -2 -13  -4   -1.70    2.80   1
   2  13   5   10.30    4.30   1
  -2 -13  -5   13.20    3.30   1
   2  13   6   56.10    7.00   1
  -2 -13  -6   58.60    5.40   1
   2  13   7   14.90    5.00   1
  -2 -13  -7   23.00    5.30   1
   2  13   8   10.40    4.60   1
  -2 -13  -8    1.20    4.20   1
   2  13   9    9.60    5.90   1
  -2 -13  -9    9.90    3.20   1
   3 -11  -4    9.50    5.00   1
  -3  11   4    6.40    4.60   1
   3 -11  -3   63.40    8.00   1
  -3  11   3   57.90    7.40   1
   3 -11  -2   23.80    4.50   1
  -3  11   2   41.90    6.90   1
   3 -11  -1   26.50    3.80   1
  -3  11   1   18.00    4.70   1
   3 -10  -8  326.90   15.80   1
  -3  10   8  331.60   15.60   1
   3 -10  -7   68.30    8.20   1
  -3  10   7   87.10    6.50   1
   3 -10  -6   89.10    9.50   1
  -3  10   6   89.70    6.60   1
   3 -10  -5   99.80    9.60   1
  -3  10   5  111.10    7.00   1
   3 -10  -4  211.40   10.70   1
  -3  10   4  229.40   16.00   1
   3 -10  -3   23.30    3.30   1
  -3  10   3   28.20    5.00   1
   3 -10  -2  121.00    7.40   1
  -3  10   2  128.20   10.70   1
   3 -10  -1  358.30   16.00   1
  -3  10   1  357.70   21.90   1
   3 -10   0   29.80    3.80   1
  -3  10   0   31.50    3.90   1
   3 -10   1    4.80    3.10   1
  -3  10  -1    6.10    2.90   1
   3 -10   2    4.50    2.90   1
  -3  10  -2   -1.80    2.50   1
   3  -9  -9   21.60    3.90   1
  -3   9   9   24.30    4.10   1
   3  -9  -8   18.10    3.60   1
  -3   9   8   22.90    4.30   1
   3  -9  -7   72.10    7.50   1
  -3   9   7   60.50    4.90   1
   3  -9  -6   18.70    4.50   1
  -3   9   6   23.40    3.60   1
   3  -9  -5    5.20    2.00   1
  -3   9   5    4.30    2.30   1
   3  -9  -4   20.90    3.00   1
  -3   9   4   15.70    3.00   1
   3  -9  -3   28.70    3.10   1
  -3   9   3   37.00    3.50   1
   3  -9  -2   77.80    5.00   1
  -3   9   2   85.50    7.20   1
   3  -9  -1   69.70    4.50   1
  -3   9   1   78.90    7.10   1
   3  -9   0   22.20    3.70   1
  -3   9   0   26.60    4.30   1
   3  -9   1   17.60    3.20   1
  -3   9  -1   21.00    3.40   1
   3  -9   2  208.20   10.40   1
  -3   9  -2  215.60   10.80   1
   3  -9   3  153.10    8.30   1
  -3   9  -3  166.20    8.80   1
   3  -9   4    3.60    3.50   1
  -3   9  -4    1.60    3.00   1
   3  -8 -10   58.60    5.50   1
  -3   8  10   67.30    5.70   1
   3  -8  -9   39.80    4.40   1
  -3   8   9   47.00    4.60   1
   3  -8  -8   15.70    3.10   1
  -3   8   8   19.40    3.40   1
   3  -8  -7   23.50    4.40   1
  -3   8   7   27.20    3.30   1
   3  -8  -6   76.70    4.50   1
  -3   8   6   88.80    5.20   1
   3  -8  -5   31.90    2.90   1
  -3   8   5   42.70    3.70   1
   3  -8  -4   19.30    2.50   1
  -3   8   4   23.30    2.70   1
   3  -8  -3  175.80    7.70   1
  -3   8   3  202.10    8.00   1
   3  -8  -2   97.80    5.00   1
  -3   8   2  113.80    5.50   1
   3  -8  -1   16.50    2.60   1
  -3   8   1   12.00    1.90   1
   3  -8   0   88.10    4.70   1
  -3   8   0   99.50    6.90   1
   3  -8   1  203.80    8.40   1
  -3   8  -1  198.40   11.00   1
   3  -8   2   60.00    4.30   1
  -3   8  -2   64.00    4.30   1
   3  -8   3   56.70    4.20   1
  -3   8  -3   58.60    4.20   1
   3  -8   4  181.20    9.40   1
  -3   8  -4  200.60    9.80   1
   3  -8   5   39.40    6.00   1
  -3   8  -5   44.20    6.80   1
   3  -8   6   -0.70    5.90   1
  -3   8  -6   -0.40    4.20   1
   3  -7 -11   41.50    6.30   1
  -3   7  11   61.40    8.50   1
   3  -7 -10   89.90    6.30   1
  -3   7  10   84.50    6.20   1
   3  -7  -9   -1.80    2.10   1
  -3   7   9   -2.00    2.30   1
   3  -7  -8    2.00    2.10   1
  -3   7   8   -0.20    2.20   1
   3  -7  -7  264.90   10.20   1
  -3   7   7  266.40   10.30   1
   3  -7  -6   80.60    4.20   1
  -3   7   6   86.80    5.00   1
   3  -7  -5    6.10    2.10   1
  -3   7   5    0.60    2.00   1
   3  -7  -4  153.80    6.10   1
  -3   7   4  158.70    6.30   1
   3  -7  -3  317.30   10.30   1
  -3   7   3  347.90   11.10   1
   3  -7  -2   75.60    4.10   1
  -3   7   2   87.60    4.40   1
   3  -7  -1   38.90    3.00   1
  -3   7   1   45.40    2.80   1
   3  -7   0  487.90   14.80   1
  -3   7   0  518.70   14.50   1
   3  -7   1   22.10    2.70   1
  -3   7  -1   24.30    2.00   1
   3  -7   2   20.10    2.70   1
  -3   7  -2   25.20    3.20   1
   3  -7   3   88.70    4.70   1
  -3   7  -3   81.40    4.40   1
   3  -7   4  194.50    6.40   1
  -3   7  -4  185.20    8.00   1
   3  -7   5   12.10    1.70   1
  -3   7  -5    5.80    2.70   1
   3  -7   6   77.40    8.20   1
  -3   7  -6   67.00    7.30   1
   3  -7   7    4.70    4.40   1
  -3   7  -7    5.30    4.20   1
   3  -6 -11    8.00    4.00   1
  -3   6  11   10.90    5.50   1
   3  -6 -10   64.50    4.80   1
  -3   6  10   66.50    5.00   1
   3  -6  -9    6.20    1.60   1
  -3   6   9    7.90    2.60   1
   3  -6  -8  205.30    6.90   1
  -3   6   8  191.50   12.10   1
   3  -6  -7   54.00    2.70   1
  -3   6   7   60.00    4.00   1
   3  -6  -6    2.10    1.00   1
  -3   6   6    5.20    2.50   1
   3  -6  -5   13.20    1.10   1
  -3   6   5   16.20    2.80   1
   3  -6  -4  110.00    2.80   1
  -3   6   4  109.70    4.80   1
   3  -6  -3  314.90    6.60   1
  -3   6   3  327.10   10.10   1
   3  -6  -2   21.30    1.00   1
  -3   6   2   19.00    3.00   1
   3  -6  -1   91.70    2.20   1
  -3   6   1   79.90    3.90   1
   3  -6   0   87.50    2.40   1
  -3   6   0   97.10    4.20   1
   3  -6   1  271.60    5.90   1
  -3   6  -1  277.20    8.60   1
   3  -6   2   88.00    3.20   1
  -3   6  -2   90.80    4.50   1
   3  -6   3  245.30    7.00   1
  -3   6  -3  253.30    8.90   1
   3  -6   4  379.10   10.20   1
  -3   6  -4  374.20   12.70   1
   3  -6   5   40.70    2.30   1
  -3   6  -5   40.90    2.90   1
   3  -6   6   86.40    3.80   1
  -3   6  -6   70.40    4.20   1
   3  -6   7  162.60   12.20   1
  -3   6  -7  144.30   11.30   1
   3  -6   8  103.00    9.50   1
  -3   6  -8   73.80    8.70   1
   3  -5 -11   19.40    4.40   1
  -3   5  11   13.20    5.20   1
   3  -5 -10   53.40    4.20   1
  -3   5  10   49.00    7.60   1
   3  -5  -9  200.00    7.00   1
  -3   5   9  183.40    8.50   1
   3  -5  -8   92.30    3.90   1
  -3   5   8   92.30    5.00   1
   3  -5  -7    7.40    1.40   1
  -3   5   7    8.10    1.90   1
   3  -5  -6    2.10    0.50   1
  -3   5   6    2.00    0.90   1
   3  -5  -5  557.70   10.50   1
  -3   5   5  561.70   11.10   1
   3  -5  -4  169.30    3.70   1
  -3   5   4  176.80    4.10   1
   3  -5  -3    5.50    0.70   1
  -3   5   3    5.10    1.10   1
   3  -5  -2  890.80   15.60   1
  -3   5   2  867.70   18.50   1
   3  -5  -1  396.70    9.00   1
  -3   5   1  404.10   11.40   1
   3  -5   0   33.80    1.90   1
  -3   5   0   35.70    2.40   1
   3  -5   1  114.50    2.90   1
  -3   5  -1  119.80    3.70   1
   3  -5   2  956.90   16.80   1
  -3   5  -2  948.60   17.30   1
   3  -5   3    5.90    0.80   1
  -3   5  -3    2.90    1.50   1
   3  -5   4   96.70    2.50   1
  -3   5  -4   90.50    4.10   1
   3  -5   5  579.70   14.10   1
  -3   5  -5  567.40   16.20   1
   3  -5   6   62.80    2.80   1
  -3   5  -6   65.60    3.60   1
   3  -5   7   37.60    5.50   1
  -3   5  -7   25.70    4.30   1
   3  -5   8   48.70    6.80   1
  -3   5  -8   37.80    5.40   1
   3  -5   9  298.70   14.20   1
  -3   5  -9  278.20   18.40   1
   3  -4 -11  156.20    8.80   1
  -3   4  11  143.50   12.80   1
   3  -4 -10  142.40    7.10   1
  -3   4  10  128.20   10.30   1
   3  -4  -9   10.30    1.60   1
  -3   4   9    6.10    2.30   1
   3  -4  -8    0.30    1.10   1
  -3   4   8    1.80    1.70   1
   3  -4  -7  594.80   14.00   1
  -3   4   7  561.80   17.10   1
   3  -4  -6  230.40    5.80   1
  -3   4   6  224.10    6.00   1
   3  -4  -5   17.20    1.80   1
  -3   4   5   14.30    1.00   1
   3  -4  -4  376.50    7.00   1
  -3   4   4  363.50    6.90   1
   3  -4  -3 1328.20   20.30   1
  -3   4   3 1358.90   23.00   1
   3  -4  -2   20.80    1.10   1
  -3   4   2   24.00    0.80   1
   3  -4  -1   46.20    1.70   1
  -3   4   1   47.70    1.20   1
   3  -4   0  242.50    5.00   1
  -3   4   0  230.60    3.90   1
   3  -4   1  724.80   13.20   1
  -3   4  -1  705.30   11.40   1
   3  -4   2  503.10    8.60   1
  -3   4  -2  511.10    8.60   1
   3  -4   3  153.00    3.00   1
  -3   4  -3  148.00    3.20   1
   3  -4   4    2.50    0.60   1
  -3   4  -4    1.40    0.70   1
   3  -4   5   12.30    1.00   1
  -3   4  -5   10.90    1.00   1
   3  -4   6  201.20    5.60   1
  -3   4  -6  204.00    5.70   1
   3  -4   7   10.70    1.20   1
  -3   4  -7    9.70    1.50   1
   3  -4   8   28.60    3.10   1
  -3   4  -8   25.90    4.30   1
   3  -4   9   85.10    5.90   1
  -3   4  -9   69.70    7.00   1
   3  -4  10   11.60    3.70   1
  -3   4 -10   13.80    4.70   1
   3  -3 -11   16.30    3.10   1
  -3   3  11   18.30    5.10   1
   3  -3 -10    6.50    2.20   1
  -3   3  10   10.70    4.20   1
   3  -3  -9    1.60    1.20   1
  -3   3   9    0.10    1.30   1
   3  -3  -8    3.60    1.20   1
  -3   3   8    1.90    1.40   1
   3  -3  -7   34.70    1.70   1
  -3   3   7   36.70    2.20   1
   3  -3  -6    1.80    0.90   1
  -3   3   6    2.70    0.80   1
   3  -3  -5    0.50    0.80   1
  -3   3   5    1.50    0.70   1
   3  -3  -4  107.30    2.10   1
  -3   3   4   98.90    2.30   1
   3  -3  -3  111.70    2.20   1
  -3   3   3  112.80    2.50   1
   3  -3  -2  570.70   10.40   1
  -3   3   2  556.30    9.90   1
   3  -3  -1  100.10    2.50   1
  -3   3   1   95.10    2.20   1
   3  -3   0  739.50   13.00   1
  -3   3   0  717.80   10.20   1
   3  -3   1   26.00    1.30   1
  -3   3  -1   25.10    0.90   1
   3  -3   2 1174.30   20.20   1
  -3   3  -2 1108.90   15.30   1
   3  -3   3  321.90    5.70   1
  -3   3  -3  307.60    5.20   1
   3  -3   4  288.30    5.10   1
  -3   3  -4  278.20    5.00   1
   3  -3   5  193.60    4.30   1
  -3   3  -5  195.00    3.80   1
   3  -3   6  648.60   10.80   1
  -3   3  -6  645.70   17.80   1
   3  -3   7  343.90    8.60   1
  -3   3  -7  347.20   10.90   1
   3  -3   8   58.00    3.70   1
  -3   3  -8   61.80    3.80   1
   3  -3   9  153.90    7.00   1
  -3   3  -9  150.90    9.50   1
   3  -3  10  208.90   10.40   1
  -3   3 -10  217.50   15.00   1
   3  -3  11   32.30    4.10   1
  -3   3 -11   30.60    5.80   1
   3  -2 -11    7.90    3.10   1
  -3   2  11    6.10    4.90   1
   3  -2 -10    3.40    2.20   1
  -3   2  10   15.20    5.80   1
   3  -2  -9   36.40    3.40   1
  -3   2   9   36.90    5.50   1
   3  -2  -8   27.40    1.80   1
  -3   2   8   27.70    2.60   1
   3  -2  -7   90.50    2.70   1
  -3   2   7   90.50    3.30   1
   3  -2  -6  252.30    5.50   1
  -3   2   6  250.60    5.70   1
   3  -2  -5    0.50    0.70   1
  -3   2   5    0.10    0.60   1
   3  -2  -4  764.00   12.10   1
  -3   2   4  765.30   12.10   1
   3  -2  -3   43.30    0.90   1
  -3   2   3   43.00    1.50   1
   3  -2  -2  442.50    7.00   1
  -3   2   2  420.10    7.70   1
   3  -2  -1  149.40    3.20   1
  -3   2   1  133.50    2.90   1
   3  -2   0  591.50   10.50   1
  -3   2   0  596.00   10.30   1
   3  -2   1   18.40    1.10   1
  -3   2  -1   16.40    0.70   1
   3  -2   2  475.20    8.80   1
  -3   2  -2  486.20    7.50   1
   3  -2   3  473.90    7.80   1
  -3   2  -3  458.80    6.80   1
   3  -2   4   32.80    1.40   1
  -3   2  -4   27.80    1.10   1
   3  -2   5   41.80    1.30   1
  -3   2  -5   44.30    1.30   1
   3  -2   6  262.20    4.90   1
  -3   2  -6  268.80    5.50   1
   3  -2   7    5.60    0.70   1
  -3   2  -7    5.40    0.80   1
   3  -2   8   28.40    1.30   1
  -3   2  -8   29.70    1.50   1
   3  -2   9    0.60    1.70   1
  -3   2  -9    2.30    1.70   1
   3  -2  10   93.20    5.10   1
  -3   2 -10  104.20    5.60   1
   3  -2  11  173.00    8.70   1
  -3   2 -11  176.90   13.60   1
   3  -2  12   30.50    3.80   1
   3  -1 -11  110.00    6.70   1
  -3   1  11  112.60    6.90   1
   3  -1 -10  317.40   12.20   1
  -3   1  10  411.10   20.90   1
   3  -1  -9  124.20    5.70   1
  -3   1   9  119.50    9.10   1
   3  -1  -8   36.80    2.10   1
  -3   1   8   37.40    2.60   1
   3  -1  -7   16.70    1.10   1
  -3   1   7   12.60    1.10   1
   3  -1  -6 1405.40   24.40   1
  -3   1   6 1437.80   29.20   1
   3  -1  -5  115.40    2.80   1
  -3   1   5  110.30    2.30   1
   3  -1  -4   46.50    1.40   1
  -3   1   4   46.70    1.50   1
   3  -1  -3  430.70    7.00   1
  -3   1   3  419.60    7.80   1
   3  -1  -2 1686.30   24.30   1
  -3   1   2 1631.90   26.50   1
   3  -1  -1    0.90    0.40   1
  -3   1   1    2.30    0.60   1
   3  -1   0   18.00    0.70   1
  -3   1   0   16.80    0.90   1
   3  -1   1  725.80   11.10   1
  -3   1  -1  721.30   14.20   1
   3  -1   2  662.70   11.60   1
  -3   1  -2  628.00    8.20   1
   3  -1   3 1234.80   20.70   1
  -3   1  -3 1217.00   16.40   1
   3  -1   4  208.40    3.70   1
  -3   1  -4  205.10    3.20   1
   3  -1   5   64.20    1.60   1
  -3   1  -5   64.40    1.60   1
   3  -1   6   10.60    0.60   1
  -3   1  -6   10.10    0.80   1
   3  -1   7 1178.00   19.00   1
  -3   1  -7 1225.30   20.90   1
   3  -1   8   46.90    1.30   1
  -3   1  -8   43.90    1.50   1
   3  -1   9   30.30    2.60   1
  -3   1  -9   28.70    2.40   1
   3  -1  10  241.60    9.10   1
  -3   1 -10  254.60    9.50   1
   3  -1  11  114.90    4.90   1
  -3   1 -11  138.70    9.80   1
   3  -1  12    6.30    3.50   1
   3   0 -11  102.50    6.70   1
  -3   0  11  115.20    7.30   1
   3   0 -10    2.00    2.50   1
  -3   0  10    3.50    2.50   1
   3   0  -9   87.50    4.70   1
  -3   0   9   85.80    4.80   1
   3   0  -8   56.80    2.50   1
  -3   0   8   54.80    3.00   1
   3   0  -7   96.70    2.70   1
  -3   0   7   97.40    3.60   1
   3   0  -6  103.40    2.60   1
  -3   0   6  103.50    3.20   1
   3   0  -5   73.70    2.00   1
  -3   0   5   74.90    1.90   1
   3   0  -4  253.10    4.60   1
  -3   0   4  260.70    4.60   1
   3   0  -3  257.10    4.40   1
  -3   0   3  263.00    4.50   1
   3   0  -2  194.60    3.00   1
  -3   0   2  193.40    3.90   1
   3   0  -1  688.90   10.40   1
  -3   0   1  686.80   11.80   1
   3   0   0   52.80    1.20   1
  -3   0   0   51.80    1.40   1
   3   0   1 1717.20   24.90   1
  -3   0  -1 1762.00   33.00   1
   3   0   2   18.90    0.80   1
  -3   0  -2   19.20    0.80   1
   3   0   3 1208.10   17.70   1
  -3   0  -3 1247.20   16.60   1
   3   0   4  378.50    5.10   1
  -3   0  -4  378.00    6.00   1
   3   0   5 2089.10   25.80   1
  -3   0  -5 2077.10   30.00   1
   3   0   6   73.40    1.50   1
  -3   0  -6   72.30    1.70   1
   3   0   7  581.00   12.10   1
  -3   0  -7  593.60   10.50   1
   3   0   8  531.40    8.60   1
  -3   0  -8  566.70   10.40   1
   3   0   9   80.80    3.00   1
  -3   0  -9   94.90    4.10   1
   3   0  10   40.50    2.90   1
  -3   0 -10   47.70    4.50   1
   3   0  11  134.80    6.50   1
  -3   0 -11  150.70    9.80   1
   3   0  12  168.90    6.90   1
  -3   0 -12  165.60   12.70   1
   3   0  13    0.40    2.80   1
   3   1 -11   -2.40    6.30   1
  -3  -1  11   -2.50    3.30   1
   3   1 -10   36.60    6.90   1
  -3  -1  10   44.10    3.90   1
   3   1  -9    7.90    2.30   1
  -3  -1   9   10.00    2.10   1
   3   1  -8   10.20    1.90   1
  -3  -1   8   12.70    2.20   1
   3   1  -7    6.00    0.90   1
  -3  -1   7    9.30    0.80   1
   3   1  -6   95.20    2.40   1
  -3  -1   6   99.90    2.20   1
   3   1  -5  907.00   15.80   1
  -3  -1   5  925.70   16.30   1
   3   1  -4    2.10    0.60   1
  -3  -1   4    2.00    0.30   1
   3   1  -3  202.80    3.60   1
  -3  -1   3  211.30    3.40   1
   3   1  -2  104.10    2.10   1
  -3  -1   2  108.90    1.90   1
   3   1  -1 1477.90   21.20   1
  -3  -1   1 1525.30   20.10   1
   3   1   0    5.30    0.50   1
  -3  -1   0    6.00    0.30   1
   3   1   1  381.80    6.00   1
  -3  -1  -1  370.20    5.80   1
   3   1   2  875.00   13.00   1
  -3  -1  -2  864.10   11.60   1
   3   1   3 1033.70   14.00   1
  -3  -1  -3 1015.60   13.40   1
   3   1   4    6.70    0.40   1
  -3  -1  -4    5.40    0.40   1
   3   1   5   15.10    0.60   1
  -3  -1  -5   16.70    0.70   1
   3   1   6  506.50    7.20   1
  -3  -1  -6  507.70    7.90   1
   3   1   7   74.70    1.80   1
  -3  -1  -7   75.80    1.90   1
   3   1   8  358.90    5.40   1
  -3  -1  -8  371.00    8.00   1
   3   1   9   11.50    0.50   1
  -3  -1  -9   12.60    0.70   1
   3   1  10   50.90    3.00   1
  -3  -1 -10   52.50    4.60   1
   3   1  11   16.40    2.10   1
  -3  -1 -11    8.00    3.10   1
   3   1  12  380.70   14.30   1
  -3  -1 -12  429.80   22.40   1
   3   1  13   20.20    3.30   1
  -3  -1 -13   26.20    5.40   1
   3   2 -10    9.90    4.80   1
  -3  -2  10   11.80    2.60   1
   3   2  -9  351.20   19.80   1
  -3  -2   9  336.50   12.60   1
   3   2  -8    4.40    3.00   1
  -3  -2   8    0.10    1.70   1
   3   2  -7  149.70    4.40   1
  -3  -2   7  144.70    4.30   1
   3   2  -6   21.10    1.20   1
  -3  -2   6   18.50    1.00   1
   3   2  -5  691.70   12.40   1
  -3  -2   5  712.10   11.20   1
   3   2  -4   88.90    2.00   1
  -3  -2   4   89.80    1.70   1
   3   2  -3  722.70   11.10   1
  -3  -2   3  746.10    9.60   1
   3   2  -2  318.90    5.20   1
  -3  -2   2  326.00    4.40   1
   3   2  -1  675.40   11.30   1
  -3  -2   1  697.50    8.30   1
   3   2   0  105.40    2.00   1
  -3  -2   0  109.20    1.70   1
   3   2   1  782.10   11.50   1
  -3  -2  -1  811.30   11.20   1
   3   2   2  110.70    1.80   1
  -3  -2  -2  117.40    2.00   1
   3   2   3   99.90    1.50   1
  -3  -2  -3  100.80    1.80   1
   3   2   4  190.40    2.50   1
  -3  -2  -4  187.70    3.10   1
   3   2   5  184.90    2.60   1
  -3  -2  -5  187.80    3.30   1
   3   2   6   28.00    0.70   1
  -3  -2  -6   27.70    1.00   1
   3   2   7  117.90    1.80   1
  -3  -2  -7  122.60    3.10   1
   3   2   8  469.00    6.90   1
  -3  -2  -8  483.70   10.00   1
   3   2   9   18.10    0.60   1
  -3  -2  -9   16.80    1.30   1
   3   2  10  111.10    3.90   1
  -3  -2 -10  116.50    6.70   1
   3   2  11   39.20    2.70   1
  -3  -2 -11   36.00    4.90   1
   3   2  12  122.40    5.60   1
  -3  -2 -12  126.50    9.30   1
   3   2  13    0.60    2.00   1
  -3  -2 -13    1.10    3.90   1
   3   3 -10    7.80    4.80   1
  -3  -3  10   14.50    4.60   1
   3   3  -9   23.00    4.60   1
  -3  -3   9   17.20    2.70   1
   3   3  -8  234.20   14.20   1
  -3  -3   8  236.00    9.30   1
   3   3  -7   53.20    5.70   1
  -3  -3   7   46.40    3.10   1
   3   3  -6  102.60    6.60   1
  -3  -3   6   87.60    2.70   1
   3   3  -5   81.30    2.70   1
  -3  -3   5   71.40    2.50   1
   3   3  -4  217.70    4.10   1
  -3  -3   4  210.50    3.50   1
   3   3  -3   96.20    2.20   1
  -3  -3   3   97.90    1.80   1
   3   3  -2   12.20    0.70   1
  -3  -3   2   11.00    0.50   1
   3   3  -1  559.30    9.40   1
  -3  -3   1  563.80    7.30   1
   3   3   0 1071.10   17.40   1
  -3  -3   0 1074.70   14.50   1
   3   3   1  196.40    3.00   1
  -3  -3  -1  193.90    2.80   1
   3   3   2 1564.90   22.80   1
  -3  -3  -2 1619.30   23.30   1
   3   3   3  393.80    5.60   1
  -3  -3  -3  389.60    5.40   1
   3   3   4 1590.30   19.20   1
  -3  -3  -4 1593.80   20.90   1
   3   3   5   13.00    0.40   1
  -3  -3  -5   13.10    0.50   1
   3   3   6 2049.40   24.90   1
  -3  -3  -6 2087.70   27.40   1
   3   3   7  144.90    2.40   1
  -3  -3  -7  148.00    2.90   1
   3   3   8  164.00    2.80   1
  -3  -3  -8  159.10    3.30   1
   3   3   9   72.60    1.80   1
  -3  -3  -9   72.10    2.10   1
   3   3  10  444.10   12.30   1
  -3  -3 -10  427.30   10.00   1
   3   3  11   79.20    3.80   1
  -3  -3 -11   84.00    6.50   1
   3   3  12    6.00    1.90   1
  -3  -3 -12   11.20    4.50   1
   3   3  13   87.40    5.70   1
  -3  -3 -13   75.20    8.60   1
   3   3  14    8.90    6.60   1
  -3  -3 -14    8.50    4.90   1
   3   4  -9   -1.50    3.80   1
  -3  -4   9   -4.70    4.00   1
   3   4  -8   11.70    4.00   1
  -3  -4   8    7.60    3.90   1
   3   4  -7    6.30    4.10   1
  -3  -4   7    8.10    2.40   1
   3   4  -6   50.90    2.40   1
  -3  -4   6   43.60    2.30   1
   3   4  -5   36.80    1.50   1
  -3  -4   5   35.90    1.40   1
   3   4  -4  255.50    4.90   1
  -3  -4   4  243.20    4.80   1
   3   4  -3   19.80    0.90   1
  -3  -4   3   20.40    0.80   1
   3   4  -2  291.90    5.00   1
  -3  -4   2  275.50    4.40   1
   3   4  -1   79.80    1.80   1
  -3  -4   1   81.70    1.60   1
   3   4   0 2141.40   28.10   1
  -3  -4   0 2178.70   28.50   1
   3   4   1   19.50    0.80   1
  -3  -4  -1   19.20    0.70   1
   3   4   2  279.30    4.60   1
  -3  -4  -2  283.80    4.80   1
   3   4   3    2.90    0.60   1
  -3  -4  -3    2.70    0.30   1
   3   4   4 1299.50   21.30   1
  -3  -4  -4 1332.10   19.30   1
   3   4   5  299.30    4.90   1
  -3  -4  -5  309.40    4.50   1
   3   4   6   14.70    0.60   1
  -3  -4  -6   14.80    0.60   1
   3   4   7  436.60    6.50   1
  -3  -4  -7  449.30    7.30   1
   3   4   8   11.90    0.60   1
  -3  -4  -8   13.10    0.90   1
   3   4   9  323.20    5.80   1
  -3  -4  -9  326.40    7.70   1
   3   4  10    6.00    0.70   1
  -3  -4 -10    5.00    0.80   1
   3   4  11  142.40    5.80   1
  -3  -4 -11  147.40    6.00   1
   3   4  12  143.20    8.70   1
  -3  -4 -12  138.40    6.30   1
   3   4  13  325.60   18.90   1
  -3  -4 -13  319.30   19.20   1
   3   4  14   37.30    6.50   1
   3   5  -9   49.90    7.00   1
  -3  -5   9   48.20    5.10   1
   3   5  -8  323.20   20.70   1
  -3  -5   8  286.20   18.00   1
   3   5  -7  196.20    8.70   1
  -3  -5   7  192.00   11.00   1
   3   5  -6  248.20    9.40   1
  -3  -5   6  240.90    8.90   1
   3   5  -5  187.20    5.30   1
  -3  -5   5  177.60    5.40   1
   3   5  -4  447.10   10.30   1
  -3  -5   4  416.40   11.70   1
   3   5  -3  482.70    8.30   1
  -3  -5   3  476.00    7.70   1
   3   5  -2 1318.80   20.00   1
  -3  -5   2 1330.10   18.60   1
   3   5  -1  353.00    6.00   1
  -3  -5   1  359.60    5.70   1
   3   5   0   69.10    1.60   1
  -3  -5   0   68.30    1.70   1
   3   5   1  142.60    2.90   1
  -3  -5  -1  152.50    3.40   1
   3   5   2 1337.30   20.00   1
  -3  -5  -2 1368.90   23.10   1
   3   5   3   39.70    1.30   1
  -3  -5  -3   43.20    1.40   1
   3   5   4  956.90   16.40   1
  -3  -5  -4  980.80   13.40   1
   3   5   5    6.60    0.70   1
  -3  -5  -5    6.70    0.50   1
   3   5   6  554.80   14.00   1
  -3  -5  -6  595.40    7.90   1
   3   5   7  300.80    6.10   1
  -3  -5  -7  314.40    5.40   1
   3   5   8  290.00    6.10   1
  -3  -5  -8  300.00    5.90   1
   3   5   9    2.20    0.40   1
  -3  -5  -9    3.40    0.80   1
   3   5  10   48.00    1.40   1
  -3  -5 -10   50.00    2.30   1
   3   5  11  527.60   15.00   1
  -3  -5 -11  524.10   12.20   1
   3   5  12    6.70    2.30   1
  -3  -5 -12   10.00    2.00   1
   3   5  13    2.70    3.10   1
  -3  -5 -13    3.80    2.90   1
   3   5  14    4.30    4.10   1
  -3  -5 -14    6.90    2.80   1
   3   6  -8    3.20    5.50   1
  -3  -6   8    0.40    2.60   1
   3   6  -7   10.00    3.40   1
  -3  -6   7   14.00    4.70   1
   3   6  -6  118.20    5.80   1
  -3  -6   6  103.20    7.50   1
   3   6  -5  158.00    5.10   1
  -3  -6   5  155.10    6.60   1
   3   6  -4    1.10    0.90   1
  -3  -6   4    1.00    1.00   1
   3   6  -3   23.90    1.40   1
  -3  -6   3   23.00    1.30   1
   3   6  -2    2.00    0.60   1
  -3  -6   2    2.90    0.70   1
   3   6  -1  364.30    6.40   1
  -3  -6   1  356.00    7.30   1
   3   6   0   55.40    1.60   1
  -3  -6   0   54.80    1.60   1
   3   6   1  394.40    6.90   1
  -3  -6  -1  401.70    8.20   1
   3   6   2   63.70    1.80   1
  -3  -6  -2   65.20    2.00   1
   3   6   3  574.80    9.30   1
  -3  -6  -3  583.80   10.90   1
   3   6   4   42.10    1.50   1
  -3  -6  -4   42.20    1.30   1
   3   6   5  798.70   14.40   1
  -3  -6  -5  824.50   12.80   1
   3   6   6    2.20    0.90   1
  -3  -6  -6    3.10    0.60   1
   3   6   7  700.80   12.90   1
  -3  -6  -7  706.80   12.60   1
   3   6   8  104.90    2.80   1
  -3  -6  -8  113.00    2.90   1
   3   6   9  440.80    8.90   1
  -3  -6  -9  449.80    8.90   1
   3   6  10   -2.30    1.70   1
  -3  -6 -10    0.60    1.00   1
   3   6  11  126.00    5.20   1
  -3  -6 -11  134.30    4.30   1
   3   6  12   99.30    6.60   1
  -3  -6 -12   94.10    5.20   1
   3   6  13    2.80    2.10   1
  -3  -6 -13   -1.80    2.00   1
   3   6  14    0.20    4.10   1
  -3  -6 -14   -0.30    2.60   1
   3   7  -7    3.10    3.00   1
  -3  -7   7    5.50    3.70   1
   3   7  -6   29.90    3.20   1
  -3  -7   6   27.20    3.20   1
   3   7  -5   33.50    2.90   1
  -3  -7   5   39.30    4.90   1
   3   7  -4   50.10    2.50   1
  -3  -7   4   43.80    2.90   1
   3   7  -3   25.50    2.10   1
  -3  -7   3   26.30    2.40   1
   3   7  -2    4.30    1.10   1
  -3  -7   2    3.40    1.40   1
   3   7  -1  397.50    7.80   1
  -3  -7   1  367.20    9.30   1
   3   7   0    6.60    0.90   1
  -3  -7   0    3.20    1.40   1
   3   7   1  154.80    3.50   1
  -3  -7  -1  144.20    5.00   1
   3   7   2   69.80    3.00   1
  -3  -7  -2   71.90    3.20   1
   3   7   3  499.90   10.60   1
  -3  -7  -3  477.20   12.70   1
   3   7   4   32.50    2.10   1
  -3  -7  -4   33.70    2.40   1
   3   7   5  232.20    6.00   1
  -3  -7  -5  234.00    4.50   1
   3   7   6   33.60    1.80   1
  -3  -7  -6   31.50    1.50   1
   3   7   7  131.20    4.40   1
  -3  -7  -7  128.30    3.00   1
   3   7   8   25.70    1.60   1
  -3  -7  -8   26.30    1.60   1
   3   7   9   23.70    3.10   1
  -3  -7  -9   22.30    1.50   1
   3   7  10   34.70    3.50   1
  -3  -7 -10   36.50    2.00   1
   3   7  11    1.10    1.30   1
  -3  -7 -11    0.10    1.10   1
   3   7  12    5.10    1.50   1
  -3  -7 -12    4.20    1.20   1
   3   7  13  118.20    9.20   1
  -3  -7 -13  112.50    6.50   1
   3   7  14   11.40    5.00   1
  -3  -7 -14   12.60    3.00   1
   3   8  -6   17.20    3.00   1
  -3  -8   6   15.40    3.30   1
   3   8  -5  148.30    7.70   1
  -3  -8   5  132.30    7.40   1
   3   8  -4   52.40    2.90   1
  -3  -8   4   48.90    2.90   1
   3   8  -3  109.30    4.20   1
  -3  -8   3  107.90    5.10   1
   3   8  -2  330.40   10.20   1
  -3  -8   2  341.00   11.00   1
   3   8  -1  739.00   16.50   1
  -3  -8   1  756.70   20.90   1
   3   8   0    5.30    0.90   1
  -3  -8   0    4.00    1.50   1
   3   8   1    3.00    0.80   1
  -3  -8  -1    5.30    1.90   1
   3   8   2  103.30    3.10   1
  -3  -8  -2   97.50    4.10   1
   3   8   3  910.80   23.50   1
  -3  -8  -3  865.70   22.80   1
   3   8   4   10.40    1.60   1
  -3  -8  -4    8.40    1.10   1
   3   8   5  458.70   12.30   1
  -3  -8  -5  469.50    8.90   1
   3   8   6   24.30    2.00   1
  -3  -8  -6   20.80    0.70   1
   3   8   7  146.20    7.40   1
  -3  -8  -7  137.60    3.50   1
   3   8   8   93.90    4.30   1
  -3  -8  -8   91.50    3.20   1
   3   8   9  262.90   12.80   1
  -3  -8  -9  276.10    7.00   1
   3   8  10   24.60    2.10   1
  -3  -8 -10   21.60    1.70   1
   3   8  11   10.90    1.90   1
  -3  -8 -11   10.00    1.50   1
   3   8  12  290.70   15.00   1
  -3  -8 -12  306.20    9.30   1
   3   8  13    2.90    2.50   1
  -3  -8 -13   -0.60    1.90   1
   3   8  14   -9.90    6.30   1
  -3  -8 -14    9.30    3.80   1
   3   9  -5  166.40    8.50   1
  -3  -9   5  178.30    9.80   1
   3   9  -4  481.00   26.90   1
  -3  -9   4  433.70   18.70   1
   3   9  -3    8.20    1.60   1
  -3  -9   3    6.80    1.70   1
   3   9  -2   43.80    2.50   1
  -3  -9   2   46.90    2.90   1
   3   9  -1    4.50    1.30   1
  -3  -9   1    4.20    1.40   1
   3   9   0  658.00   15.20   1
  -3  -9   0  642.60   15.60   1
   3   9   1    9.90    1.40   1
  -3  -9  -1    8.80    1.50   1
   3   9   2   15.50    1.20   1
  -3  -9  -2   14.30    1.60   1
   3   9   3  170.40    5.10   1
  -3  -9  -3  167.60    4.90   1
   3   9   4  463.50   12.30   1
  -3  -9  -4  459.20   11.00   1
   3   9   5    2.50    3.10   1
  -3  -9  -5    5.10    1.20   1
   3   9   6   88.00    4.10   1
  -3  -9  -6   83.80    2.20   1
   3   9   7  218.80    6.10   1
  -3  -9  -7  217.40    5.40   1
   3   9   8  247.40    8.00   1
  -3  -9  -8  234.50    6.60   1
   3   9   9   21.50    2.30   1
  -3  -9  -9   22.60    1.80   1
   3   9  10  211.20    8.00   1
  -3  -9 -10  197.30    7.90   1
   3   9  11    8.50    2.00   1
  -3  -9 -11    6.20    1.50   1
   3   9  12    3.50    1.90   1
  -3  -9 -12    4.90    1.70   1
   3   9  13    1.50    2.20   1
  -3  -9 -13    4.70    2.50   1
   3  10  -4   -5.50    5.30   1
  -3 -10   4    0.90    3.00   1
   3  10  -3   18.00    4.50   1
  -3 -10   3   21.40    4.30   1
   3  10  -2   27.50    2.40   1
  -3 -10   2   28.60    2.50   1
   3  10  -1   35.20    3.20   1
  -3 -10   1   35.60    2.80   1
   3  10   0   22.70    2.00   1
  -3 -10   0   25.40    2.40   1
   3  10   1   25.30    2.00   1
  -3 -10  -1   27.20    2.40   1
   3  10   2   46.20    2.70   1
  -3 -10  -2   44.50    2.60   1
   3  10   3  190.00    7.30   1
  -3 -10  -3  189.50    5.70   1
   3  10   4  450.90   13.90   1
  -3 -10  -4  442.60   11.50   1
   3  10   5    0.80    0.90   1
  -3 -10  -5    2.10    1.10   1
   3  10   6    1.20    2.20   1
  -3 -10  -6    0.40    0.80   1
   3  10   7  138.60    8.50   1
  -3 -10  -7  158.50    5.50   1
   3  10   8  277.90   10.00   1
  -3 -10  -8  280.40    8.20   1
   3  10   9   58.00    3.80   1
  -3 -10  -9   52.70    2.70   1
   3  10  10  197.70    8.50   1
  -3 -10 -10  194.80    8.10   1
   3  10  11   11.20    2.80   1
  -3 -10 -11    9.20    1.80   1
   3  10  12   34.10    3.00   1
  -3 -10 -12   35.60    3.00   1
   3  10  13   57.20    8.30   1
  -3 -10 -13   63.50    6.80   1
   3  11  -2    2.00    2.60   1
  -3 -11   2    0.40    2.10   1
   3  11  -1    2.30    3.10   1
  -3 -11   1    1.30    2.80   1
   3  11   0  265.40   10.80   1
  -3 -11   0  269.00    8.90   1
   3  11   1   94.90    5.40   1
  -3 -11  -1   85.40    4.20   1
   3  11   2   24.30    3.00   1
  -3 -11  -2   19.30    2.10   1
   3  11   3   18.70    3.70   1
  -3 -11  -3   11.50    2.10   1
   3  11   4   53.00    3.10   1
  -3 -11  -4   56.60    3.00   1
   3  11   5  206.80   11.60   1
  -3 -11  -5  221.20    7.00   1
   3  11   6    6.10    4.00   1
  -3 -11  -6    8.20    2.50   1
   3  11   7   28.00    4.30   1
  -3 -11  -7   27.10    2.10   1
   3  11   8    7.30    3.00   1
  -3 -11  -8    8.20    2.30   1
   3  11   9   46.50    5.30   1
  -3 -11  -9   43.80    3.60   1
   3  11  10   -0.80    2.40   1
  -3 -11 -10    3.10    2.80   1
   3  11  11    4.70    2.80   1
  -3 -11 -11   11.00    2.80   1
   3  11  12   24.20    3.80   1
  -3 -11 -12   25.30    3.20   1
   3  12  -1   -2.30    2.90   1
  -3 -12   1    3.50    2.40   1
   3  12   0   10.10    2.70   1
  -3 -12   0    9.90    2.30   1
   3  12   1  268.20   12.50   1
  -3 -12  -1  250.30    9.90   1
   3  12   2    5.60    3.20   1
  -3 -12  -2    5.20    2.40   1
   3  12   3   -1.80    4.30   1
  -3 -12  -3    3.00    1.90   1
   3  12   4   50.90    5.70   1
  -3 -12  -4   54.10    4.30   1
   3  12   5  120.20    9.10   1
  -3 -12  -5  119.50    6.70   1
   3  12   6   15.30    4.20   1
  -3 -12  -6    5.50    2.90   1
   3  12   7    0.20    2.10   1
  -3 -12  -7    4.20    2.40   1
   3  12   8   71.30    5.10   1
  -3 -12  -8   74.30    7.50   1
   3  12   9   54.50    4.70   1
  -3 -12  -9   55.70    4.70   1
   3  12  10   11.50    3.00   1
  -3 -12 -10   17.40    3.60   1
   3  12  11   23.00    4.10   1
  -3 -12 -11   21.80    3.40   1
   3  13   2   -0.90    3.20   1
  -3 -13  -2    3.50    3.50   1
   3  13   3   27.10    4.00   1
  -3 -13  -3   19.00    3.60   1
   3  13   4   21.80    6.40   1
  -3 -13  -4   25.10    4.20   1
   3  13   5   -2.50    3.70   1
  -3 -13  -5   -1.20    3.00   1
  -3 -13  -6    4.10    4.10   1
   3  13   7    2.70    5.50   1
  -3 -13  -7   13.60    4.40   1
   3  13   8  109.00   10.20   1
  -3 -13  -8   95.40    9.30   1
   3  13   9   45.40    4.40   1
  -3 -13  -9   54.30    4.90   1
   3  13  10   11.30    2.90   1
  -3 -13 -10   10.80    2.90   1
   4 -10  -5   20.50    6.00   1
  -4  10   5   23.70    5.60   1
   4 -10  -4   67.00    8.10   1
  -4  10   4   82.40    8.70   1
   4 -10  -3    5.40    3.00   1
  -4  10   3    6.60    4.30   1
   4 -10  -2   51.80    5.10   1
  -4  10   2   43.60    6.50   1
   4 -10  -1    4.00    3.50   1
  -4  10   1    1.30    5.20   1
   4 -10   0   61.20    5.40   1
  -4  10   0   70.00    5.80   1
   4  -9  -7   12.80    6.60   1
  -4   9   7    4.90    3.10   1
   4  -9  -6   21.90    5.40   1
  -4   9   6   34.00    4.10   1
   4  -9  -5    6.30    4.40   1
  -4   9   5   -0.10    2.50   1
   4  -9  -4   20.70    3.60   1
  -4   9   4   18.40    3.30   1
   4  -9  -3    2.80    2.40   1
  -4   9   3    1.70    2.30   1
   4  -9  -2   15.50    3.10   1
  -4   9   2   18.30    4.40   1
   4  -9  -1  118.80    7.10   1
  -4   9   1  106.40    9.30   1
   4  -9   0   46.00    4.30   1
  -4   9   0   45.80    6.00   1
   4  -9   1    1.30    2.90   1
  -4   9  -1    2.90    2.60   1
   4  -9   2    5.60    2.90   1
  -4   9  -2   10.10    3.00   1
   4  -9   3   41.20    4.30   1
  -4   9  -3   44.00    4.80   1
   4  -8  -9  234.90   12.40   1
  -4   8   9  256.80   13.40   1
   4  -8  -8    1.80    3.40   1
  -4   8   8    8.50    3.50   1
   4  -8  -7   15.60    3.30   1
  -4   8   7   25.00    3.90   1
   4  -8  -6   62.60    4.70   1
  -4   8   6   74.00    5.90   1
   4  -8  -5  287.10   11.70   1
  -4   8   5  319.60   13.10   1
   4  -8  -4    6.90    2.30   1
  -4   8   4    4.40    2.40   1
   4  -8  -3    3.60    3.00   1
  -4   8   3   -0.20    3.10   1
   4  -8  -2  499.10   16.70   1
  -4   8   2  531.30   17.40   1
   4  -8  -1   11.80    2.60   1
  -4   8   1   12.20    2.30   1
   4  -8   0    7.50    2.40   1
  -4   8   0    4.50    3.00   1
   4  -8   1   -2.70    2.20   1
  -4   8  -1    2.70    2.40   1
   4  -8   2  401.70   14.60   1
  -4   8  -2  389.50   14.60   1
   4  -8   3    7.90    2.90   1
  -4   8  -3    2.60    3.30   1
   4  -8   4   -2.60    2.90   1
  -4   8  -4   -3.70    2.80   1
   4  -8   5   20.10    5.20   1
  -4   8  -5   24.00    5.60   1
   4  -7  -9    0.70    3.90   1
  -4   7   9    1.40    3.30   1
   4  -7  -8   64.50    5.50   1
  -4   7   8   64.80    5.50   1
   4  -7  -7    2.80    2.40   1
  -4   7   7   -1.50    2.80   1
   4  -7  -6   -0.60    2.90   1
  -4   7   6   -1.40    2.20   1
   4  -7  -5    9.40    2.60   1
  -4   7   5    4.70    2.60   1
   4  -7  -4  220.20    8.60   1
  -4   7   4  215.70    8.80   1
   4  -7  -3  203.60    8.60   1
  -4   7   3  239.50    9.00   1
   4  -7  -2    8.10    2.40   1
  -4   7   2    9.60    2.30   1
   4  -7  -1   11.30    2.50   1
  -4   7   1   15.20    2.50   1
   4  -7   0   10.70    2.50   1
  -4   7   0    8.10    2.30   1
   4  -7   1  312.30   11.50   1
  -4   7  -1  323.80   11.70   1
   4  -7   2   66.40    4.20   1
  -4   7  -2   62.90    4.50   1
   4  -7   3   45.70    4.00   1
  -4   7  -3   46.30    3.70   1
   4  -7   4  210.30    8.90   1
  -4   7  -4  201.10    8.50   1
   4  -7   5  254.60   11.60   1
  -4   7  -5  233.10   11.40   1
   4  -7   6   17.10    4.80   1
  -4   7  -6    7.10    4.30   1
   4  -6 -10  172.20   14.00   1
  -4   6  10  173.70   14.70   1
   4  -6  -9   32.10    3.80   1
  -4   6   9   31.00    3.90   1
   4  -6  -8    9.20    2.50   1
  -4   6   8   12.00    3.00   1
   4  -6  -7   84.20    3.90   1
  -4   6   7   94.90    5.70   1
   4  -6  -6  316.20   11.30   1
  -4   6   6  315.30   11.70   1
   4  -6  -5    1.30    1.20   1
  -4   6   5    0.50    1.90   1
   4  -6  -4  330.20    9.10   1
  -4   6   4  341.30   11.60   1
   4  -6  -3    3.40    1.00   1
  -4   6   3    2.60    1.80   1
   4  -6  -2  118.10    3.90   1
  -4   6   2  120.40    5.50   1
   4  -6  -1  152.10    6.20   1
  -4   6   1  166.20    6.50   1
   4  -6   0  458.70   14.20   1
  -4   6   0  478.90   14.90   1
   4  -6   1   46.60    3.50   1
  -4   6  -1   50.90    4.40   1
   4  -6   2    1.90    2.00   1
  -4   6  -2    3.20    1.10   1
   4  -6   3  592.50   18.40   1
  -4   6  -3  576.80   18.20   1
   4  -6   4   69.10    4.20   1
  -4   6  -4   58.80    5.90   1
   4  -6   5   17.00    2.80   1
  -4   6  -5   15.40    2.60   1
   4  -6   6   25.80    3.30   1
  -4   6  -6   22.30    2.70   1
   4  -6   7  345.30   21.80   1
  -4   6  -7  286.70   17.70   1
   4  -6   8   41.90    5.20   1
  -4   6  -8   35.80    6.10   1
   4  -5 -10    5.90    3.30   1
  -4   5  10    4.80    4.80   1
   4  -5  -9   84.80    4.50   1
  -4   5   9   90.20    6.00   1
   4  -5  -8   34.80    2.70   1
  -4   5   8   37.90    3.60   1
   4  -5  -7   18.70    1.80   1
  -4   5   7   25.80    3.00   1
   4  -5  -6  101.20    3.90   1
  -4   5   6  106.60    5.50   1
   4  -5  -5  119.60    3.30   1
  -4   5   5  115.50    5.30   1
   4  -5  -4   58.90    2.20   1
  -4   5   4   58.80    2.30   1
   4  -5  -3   77.20    2.50   1
  -4   5   3   79.90    4.00   1
   4  -5  -2   95.30    3.70   1
  -4   5   2  101.70    4.60   1
   4  -5  -1  321.30    9.60   1
  -4   5   1  335.00   10.40   1
   4  -5   0   43.30    2.30   1
  -4   5   0   41.20    2.70   1
   4  -5   1  232.80    6.50   1
  -4   5  -1  243.70    5.90   1
   4  -5   2    4.10    0.90   1
  -4   5  -2    6.30    1.00   1
   4  -5   3  310.80    8.20   1
  -4   5  -3  289.50    7.50   1
   4  -5   4    1.10    1.80   1
  -4   5  -4    3.50    1.20   1
   4  -5   5    5.70    1.90   1
  -4   5  -5    1.90    1.60   1
   4  -5   6   32.50    2.90   1
  -4   5  -6   29.30    2.70   1
   4  -5   7   18.20    4.30   1
  -4   5  -7   21.60    4.50   1
   4  -5   8    0.80    2.50   1
  -4   5  -8    1.00    3.70   1
   4  -5   9   95.80    6.80   1
  -4   5  -9   83.40    8.60   1
   4  -4 -10   17.00    3.30   1
  -4   4  10   20.20    5.50   1
   4  -4  -9   28.40    2.50   1
  -4   4   9   25.40    3.30   1
   4  -4  -8    1.90    1.80   1
  -4   4   8   -2.90    2.80   1
   4  -4  -7   21.30    1.80   1
  -4   4   7   22.30    2.70   1
   4  -4  -6   22.40    1.90   1
  -4   4   6   18.60    2.40   1
   4  -4  -5   97.60    3.40   1
  -4   4   5   90.10    3.50   1
   4  -4  -4   79.00    2.00   1
  -4   4   4   79.80    2.80   1
   4  -4  -3   18.70    1.20   1
  -4   4   3   18.00    1.20   1
   4  -4  -2   18.00    1.50   1
  -4   4   2   23.70    4.20   1
   4  -4  -1   27.80    1.70   1
  -4   4   1   26.20    1.20   1
   4  -4   0  464.90   11.10   1
  -4   4   0  483.10    9.30   1
   4  -4   1   11.80    1.40   1
  -4   4  -1   12.00    0.90   1
   4  -4   2  230.10    6.20   1
  -4   4  -2  225.20    4.90   1
   4  -4   3   56.20    2.10   1
  -4   4  -3   55.70    1.90   1
   4  -4   4  355.10    8.40   1
  -4   4  -4  351.70    8.20   1
   4  -4   5  137.40    5.20   1
  -4   4  -5  138.90    4.20   1
   4  -4   6  212.90    7.80   1
  -4   4  -6  219.40    6.60   1
   4  -4   7  204.10    6.80   1
  -4   4  -7  201.90    6.50   1
   4  -4   8   91.20    5.50   1
  -4   4  -8   75.30    6.70   1
   4  -4   9  174.50    9.00   1
  -4   4  -9  159.90   12.30   1
   4  -4  10   25.50    3.90   1
  -4   4 -10   26.80    6.40   1
   4  -3 -11    5.00    2.90   1
  -4   3  11    2.90    4.90   1
   4  -3 -10   32.60    3.60   1
  -4   3  10   29.30    5.90   1
   4  -3  -9  116.60    5.90   1
  -4   3   9  109.80    9.30   1
   4  -3  -8   11.20    1.70   1
  -4   3   8   14.70    2.30   1
   4  -3  -7    2.80    1.30   1
  -4   3   7    3.30    1.70   1
   4  -3  -6  279.10    7.40   1
  -4   3   6  271.00    9.30   1
   4  -3  -5  512.80   14.50   1
  -4   3   5  513.80   12.00   1
   4  -3  -4  103.00    4.10   1
  -4   3   4  105.00    3.50   1
   4  -3  -3  243.70    5.10   1
  -4   3   3  243.90    8.00   1
   4  -3  -2   91.20    2.70   1
  -4   3   2   87.60    3.10   1
   4  -3  -1  219.90    5.50   1
  -4   3   1  222.60    5.00   1
   4  -3   0  390.60    8.70   1
  -4   3   0  359.70    8.40   1
   4  -3   1  979.90   23.50   1
  -4   3  -1  979.30   16.70   1
   4  -3   2   28.10    1.60   1
  -4   3  -2   30.10    1.20   1
   4  -3   3   89.20    2.70   1
  -4   3  -3   89.50    2.10   1
   4  -3   4  914.40   16.80   1
  -4   3  -4  868.90   14.00   1
   4  -3   5   85.20    2.70   1
  -4   3  -5   81.90    2.10   1
   4  -3   6  140.40    3.80   1
  -4   3  -6  133.50    3.70   1
   4  -3   7   45.70    2.50   1
  -4   3  -7   47.00    2.30   1
   4  -3   8  479.00   15.70   1
  -4   3  -8  503.30   16.10   1
   4  -3   9   89.60    5.40   1
  -4   3  -9  104.00    5.30   1
   4  -3  10   15.00    3.30   1
  -4   3 -10   14.70    4.20   1
   4  -3  11   16.30    4.00   1
  -4   3 -11   25.90    6.30   1
   4  -2 -11   -0.20    2.80   1
  -4   2  11   15.90    7.50   1
   4  -2 -10   19.20    3.30   1
  -4   2  10   23.50    5.50   1
   4  -2  -9    0.20    2.00   1
  -4   2   9    4.60    4.20   1
   4  -2  -8  765.60   19.40   1
  -4   2   8  749.60   24.30   1
   4  -2  -7    4.90    1.30   1
  -4   2   7    4.90    1.90   1
   4  -2  -6   14.90    1.50   1
  -4   2   6   19.80    2.30   1
   4  -2  -5  373.90    8.90   1
  -4   2   5  372.50    9.40   1
   4  -2  -4  670.00   12.40   1
  -4   2   4  682.90   12.90   1
   4  -2  -3   83.30    1.60   1
  -4   2   3   81.30    2.60   1
   4  -2  -2  138.70    2.90   1
  -4   2   2  125.10    3.20   1
   4  -2  -1 1836.50   27.60   1
  -4   2   1 1719.50   29.40   1
   4  -2   0  330.90    5.70   1
  -4   2   0  309.30    6.30   1
   4  -2   1  153.70    3.60   1
  -4   2  -1  144.50    3.00   1
   4  -2   2  422.00    7.90   1
  -4   2  -2  392.40    6.00   1
   4  -2   3  175.30    4.00   1
  -4   2  -3  170.90    3.00   1
   4  -2   4   -1.00    0.70   1
  -4   2  -4    0.50    0.60   1
   4  -2   5  163.10    3.40   1
  -4   2  -5  157.00    3.20   1
   4  -2   6  408.60    8.40   1
  -4   2  -6  397.50    7.90   1
   4  -2   7   66.40    2.20   1
  -4   2  -7   64.10    2.30   1
   4  -2   8   28.20    2.00   1
  -4   2  -8   31.00    1.90   1
   4  -2   9   21.40    2.80   1
  -4   2  -9   18.70    2.60   1
   4  -2  10    1.30    2.30   1
  -4   2 -10    2.10    2.80   1
   4  -2  11   87.20    5.80   1
  -4   2 -11   88.20    6.00   1
   4  -1 -10   23.20    3.30   1
  -4   1  10   19.90    6.00   1
   4  -1  -9    1.20    2.00   1
  -4   1   9   -0.50    3.70   1
   4  -1  -8   11.20    1.60   1
  -4   1   8   10.40    2.10   1
   4  -1  -7   39.90    2.20   1
  -4   1   7   39.30    3.00   1
   4  -1  -6    1.50    0.90   1
  -4   1   6    4.20    1.20   1
   4  -1  -5    8.70    0.90   1
  -4   1   5    8.50    1.20   1
   4  -1  -4  203.20    4.50   1
  -4   1   4  218.90    5.90   1
   4  -1  -3   13.50    1.00   1
  -4   1   3   11.80    1.00   1
   4  -1  -2   23.40    0.90   1
  -4   1   2   19.00    1.20   1
   4  -1  -1  520.80    8.40   1
  -4   1   1  509.70    9.60   1
   4  -1   0  469.50    7.70   1
  -4   1   0  439.20    9.50   1
   4  -1   1 1276.30   19.20   1
  -4   1  -1 1245.50   24.40   1
   4  -1   2  214.60    3.90   1
  -4   1  -2  217.50    4.40   1
   4  -1   3  249.50    4.60   1
  -4   1  -3  237.60    3.60   1
   4  -1   4   20.20    1.00   1
  -4   1  -4   20.20    0.80   1
   4  -1   5 1431.60   21.70   1
  -4   1  -5 1412.80   20.50   1
   4  -1   6  597.10   10.20   1
  -4   1  -6  598.10   11.00   1
   4  -1   7    6.80    1.10   1
  -4   1  -7    8.20    0.90   1
   4  -1   8  163.40    4.70   1
  -4   1  -8  163.00    4.70   1
   4  -1   9  549.30   23.80   1
  -4   1  -9  578.00   17.20   1
   4  -1  10  151.70    6.70   1
  -4   1 -10  165.90    7.20   1
   4  -1  11    8.30    2.60   1
  -4   1 -11    9.10    3.60   1
   4  -1  12  224.20   16.90   1
  -4   1 -12  240.50   17.20   1
   4   0 -10    0.10    2.40   1
  -4   0  10   -0.20    2.90   1
   4   0  -9   46.20    3.70   1
  -4   0   9   41.30    3.70   1
   4   0  -8   44.00    3.30   1
  -4   0   8   40.00    5.50   1
   4   0  -7   52.20    2.50   1
  -4   0   7   48.00    3.30   1
   4   0  -6   19.30    1.50   1
  -4   0   6   19.00    1.50   1
   4   0  -5    4.20    0.80   1
  -4   0   5    4.30    1.10   1
   4   0  -4    9.20    0.90   1
  -4   0   4   11.80    0.90   1
   4   0  -3  644.20   11.60   1
  -4   0   3  671.90   10.90   1
   4   0  -2   40.30    1.10   1
  -4   0   2   40.60    1.50   1
   4   0  -1  220.90    4.00   1
  -4   0   1  224.00    4.70   1
   4   0   0   43.00    1.30   1
  -4   0   0   40.10    1.50   1
   4   0   1 1118.90   17.00   1
  -4   0  -1 1060.70   25.10   1
   4   0   2    6.40    0.70   1
  -4   0  -2    7.40    0.60   1
   4   0   3  183.90    3.40   1
  -4   0  -3  184.30    3.00   1
   4   0   4  502.10    8.10   1
  -4   0  -4  496.80    7.20   1
   4   0   5  189.30    3.30   1
  -4   0  -5  192.80    3.50   1
   4   0   6   27.90    1.10   1
  -4   0  -6   26.20    1.30   1
   4   0   7   27.70    1.20   1
  -4   0  -7   26.40    1.20   1
   4   0   8  270.70    6.10   1
  -4   0  -8  275.80    7.00   1
   4   0   9   29.70    1.80   1
  -4   0  -9   31.30    2.60   1
   4   0  10   78.30    4.40   1
  -4   0 -10   64.90    5.70   1
   4   0  11   15.60    2.70   1
  -4   0 -11   11.00    3.40   1
   4   0  12    3.20    2.30   1
  -4   0 -12   -0.20    3.40   1
   4   0  13    3.00    2.70   1
  -4   0 -13    0.80    4.20   1
   4   1 -10    2.60    2.60   1
  -4  -1  10   -2.00    3.40   1
   4   1  -9    5.90    2.90   1
  -4  -1   9    3.40    2.20   1
   4   1  -8    5.70    2.30   1
  -4  -1   8    4.20    2.10   1
   4   1  -7  760.40   17.50   1
  -4  -1   7  717.20   16.90   1
   4   1  -6   28.20    1.70   1
  -4  -1   6   28.00    1.90   1
   4   1  -5   95.50    2.70   1
  -4  -1   5   95.20    3.20   1
   4   1  -4  158.30    3.70   1
  -4  -1   4  164.30    3.20   1
   4   1  -3  921.50   14.70   1
  -4  -1   3  952.40   14.80   1
   4   1  -2   13.00    0.60   1
  -4  -1   2   12.30    0.50   1
   4   1  -1  165.10    3.00   1
  -4  -1   1  166.30    2.70   1
   4   1   0  939.30   14.30   1
  -4  -1   0  931.50   12.90   1
   4   1   1  162.70    3.00   1
  -4  -1  -1  157.60    3.00   1
   4   1   2  146.00    2.70   1
  -4  -1  -2  140.80    2.30   1
   4   1   3  118.80    2.30   1
  -4  -1  -3  119.40    1.90   1
   4   1   4  496.20    7.20   1
  -4  -1  -4  491.50    7.50   1
   4   1   5    9.60    0.60   1
  -4  -1  -5    9.10    0.70   1
   4   1   6  361.80    5.70   1
  -4  -1  -6  358.30    6.10   1
   4   1   7  164.50    3.00   1
  -4  -1  -7  158.90    3.20   1
   4   1   8    1.60    0.80   1
  -4  -1  -8    1.20    0.60   1
   4   1   9   77.60    2.70   1
  -4  -1  -9   76.50    3.10   1
   4   1  10  278.20   13.10   1
  -4  -1 -10  321.30   14.50   1
   4   1  11   39.20    3.20   1
  -4  -1 -11   40.40    4.70   1
   4   1  12   48.60    3.90   1
  -4  -1 -12   45.20    5.80   1
   4   1  13   83.80    7.80   1
  -4  -1 -13   96.80    9.50   1
   4   2 -10  112.70   11.40   1
  -4  -2  10  113.60    7.50   1
   4   2  -9  171.70   13.40   1
  -4  -2   9  134.70    7.70   1
   4   2  -8   15.10    2.40   1
  -4  -2   8   13.30    2.90   1
   4   2  -7   28.90    2.70   1
  -4  -2   7   29.00    2.70   1
   4   2  -6   14.90    1.80   1
  -4  -2   6   12.00    1.50   1
   4   2  -5  240.90    5.40   1
  -4  -2   5  234.70    4.90   1
   4   2  -4    5.60    0.70   1
  -4  -2   4    5.10    0.50   1
   4   2  -3  175.80    3.60   1
  -4  -2   3  181.00    3.20   1
   4   2  -2   13.90    0.80   1
  -4  -2   2   12.60    0.60   1
   4   2  -1   41.50    1.10   1
  -4  -2   1   44.30    1.00   1
   4   2   0  666.90   10.10   1
  -4  -2   0  677.00    8.80   1
   4   2   1    1.60    0.60   1
  -4  -2  -1    1.30    0.40   1
   4   2   2  395.60    6.40   1
  -4  -2  -2  403.70    5.80   1
   4   2   3   11.70    0.50   1
  -4  -2  -3   12.60    0.70   1
   4   2   4 1760.20   21.70   1
  -4  -2  -4 1726.00   25.40   1
   4   2   5   89.30    1.60   1
  -4  -2  -5   90.00    2.00   1
   4   2   6  900.30   12.70   1
  -4  -2  -6  893.80   16.00   1
   4   2   7  437.40    6.60   1
  -4  -2  -7  440.80    8.30   1
   4   2   8  370.10    7.00   1
  -4  -2  -8  375.70    8.20   1
   4   2   9   31.50    1.50   1
  -4  -2  -9   31.70    1.50   1
   4   2  10  344.30   11.00   1
  -4  -2 -10  380.40   11.10   1
   4   2  11  296.00   15.50   1
  -4  -2 -11  308.20   15.40   1
   4   2  12    9.60    2.00   1
  -4  -2 -12   19.40    4.20   1
   4   2  13  113.30    9.00   1
  -4  -2 -13  124.30   11.00   1
   4   3  -9   33.10    5.70   1
  -4  -3   9   27.50    3.90   1
   4   3  -8   76.80    7.40   1
  -4  -3   8   61.60    4.40   1
   4   3  -7   70.70    6.50   1
  -4  -3   7   52.00    3.90   1
   4   3  -6  276.80    9.40   1
  -4  -3   6  263.10    8.60   1
   4   3  -5    1.80    0.80   1
  -4  -3   5    0.40    0.60   1
   4   3  -4   51.30    1.80   1
  -4  -3   4   49.50    1.50   1
   4   3  -3   15.70    0.90   1
  -4  -3   3   18.60    0.80   1
   4   3  -2 1987.20   29.60   1
  -4  -3   2 2015.70   25.40   1
   4   3  -1  365.50    5.90   1
  -4  -3   1  377.20    5.00   1
   4   3   0    7.80    0.50   1
  -4  -3   0    7.70    0.70   1
   4   3   1  284.10    5.50   1
  -4  -3  -1  293.70    4.50   1
   4   3   2 1660.80   27.20   1
  -4  -3  -2 1694.20   22.90   1
   4   3   3  919.40   12.50   1
  -4  -3  -3  960.60   14.80   1
   4   3   4  147.10    2.20   1
  -4  -3  -4  147.10    2.70   1
   4   3   5 1569.90   21.00   1
  -4  -3  -5 1578.60   23.10   1
   4   3   6  111.80    2.00   1
  -4  -3  -6  111.70    2.40   1
   4   3   7  488.40    7.90   1
  -4  -3  -7  476.70    8.80   1
   4   3   8  184.20    3.30   1
  -4  -3  -8  191.00    4.80   1
   4   3   9  466.80   10.30   1
  -4  -3  -9  475.40   10.40   1
   4   3  10  260.00    6.60   1
  -4  -3 -10  261.10    7.90   1
   4   3  11  162.30    6.60   1
  -4  -3 -11  155.10    9.20   1
   4   3  12  124.20    5.90   1
  -4  -3 -12  117.70    8.80   1
   4   3  13   -3.10    3.50   1
  -4  -3 -13   -4.90    3.30   1
   4   3  14  157.20   12.20   1
  -4  -3 -14  191.60   14.50   1
   4   4  -9   86.00    9.60   1
  -4  -4   9   70.50    7.30   1
   4   4  -8   90.30    8.30   1
  -4  -4   8   84.00    7.40   1
   4   4  -7  109.50    8.70   1
  -4  -4   7   98.00    5.30   1
   4   4  -6  113.60    8.10   1
  -4  -4   6  111.50    4.00   1
   4   4  -5  133.50    5.30   1
  -4  -4   5  128.50    4.40   1
   4   4  -4 1091.80   18.00   1
  -4  -4   4 1029.60   16.80   1
   4   4  -3   38.60    1.40   1
  -4  -4   3   34.20    1.10   1
   4   4  -2   15.50    1.00   1
  -4  -4   2   17.50    0.90   1
   4   4  -1   19.60    0.90   1
  -4  -4   1   17.60    0.70   1
   4   4   0 1303.60   19.50   1
  -4  -4   0 1371.20   17.50   1
   4   4   1   54.00    1.30   1
  -4  -4  -1   55.10    1.10   1
   4   4   2   18.90    0.70   1
  -4  -4  -2   18.70    0.90   1
   4   4   3  268.70    4.60   1
  -4  -4  -3  281.50    4.70   1
   4   4   4  311.40    5.20   1
  -4  -4  -4  311.50    5.20   1
   4   4   5   25.60    0.70   1
  -4  -4  -5   25.70    0.80   1
   4   4   6   32.80    0.90   1
  -4  -4  -6   33.50    0.90   1
   4   4   7   13.60    0.60   1
  -4  -4  -7   14.30    0.90   1
   4   4   8    7.10    0.50   1
  -4  -4  -8    7.60    0.90   1
   4   4   9  160.00    3.80   1
  -4  -4  -9  164.00    3.80   1
   4   4  10   13.50    1.40   1
  -4  -4 -10   14.60    1.50   1
   4   4  11  145.60    4.40   1
  -4  -4 -11  148.80    5.30   1
   4   4  12    2.90    3.00   1
  -4  -4 -12    1.10    4.00   1
   4   4  13   48.40    5.50   1
  -4  -4 -13   45.00    6.10   1
   4   4  14   -6.90    3.90   1
  -4  -4 -14   -0.50    4.00   1
   4   5  -8   65.40    7.80   1
  -4  -5   8   65.00    7.80   1
   4   5  -7    1.90    3.20   1
  -4  -5   7    1.80    4.10   1
   4   5  -6   14.30    3.60   1
  -4  -5   6   11.70    2.20   1
   4   5  -5  220.00    6.20   1
  -4  -5   5  207.50    6.10   1
   4   5  -4   57.80    2.20   1
  -4  -5   4   54.00    2.20   1
   4   5  -3    0.30    0.80   1
  -4  -5   3    0.10    0.60   1
   4   5  -2   10.60    0.90   1
  -4  -5   2   10.30    0.80   1
   4   5  -1  264.40    4.80   1
  -4  -5   1  270.50    4.60   1
   4   5   0  151.40    3.30   1
  -4  -5   0  152.30    2.80   1
   4   5   1   79.90    1.70   1
  -4  -5  -1   81.70    1.70   1
   4   5   2  414.10    6.30   1
  -4  -5  -2  436.60    6.50   1
   4   5   3  661.60   10.50   1
  -4  -5  -3  670.60    9.50   1
   4   5   4   36.90    1.20   1
  -4  -5  -4   34.40    0.90   1
   4   5   5  592.30    9.50   1
  -4  -5  -5  585.10    9.20   1
   4   5   6  324.70    6.40   1
  -4  -5  -6  318.70    5.30   1
   4   5   7  354.90    5.70   1
  -4  -5  -7  345.20    5.90   1
   4   5   8    2.20    0.50   1
  -4  -5  -8    0.90    0.80   1
   4   5   9  622.30   11.50   1
  -4  -5  -9  629.60   13.60   1
   4   5  10  137.60    3.40   1
  -4  -5 -10  142.50    3.90   1
   4   5  11   31.40    2.10   1
  -4  -5 -11   28.40    1.80   1
   4   5  12   -1.40    1.90   1
  -4  -5 -12    3.00    1.80   1
   4   5  13   96.60    7.70   1
  -4  -5 -13   93.50    8.30   1
   4   5  14   68.90    6.80   1
  -4  -5 -14   69.10    7.70   1
   4   6  -7    3.00    5.50   1
  -4  -6   7    7.40    3.70   1
   4   6  -6    5.90    2.50   1
  -4  -6   6   -1.50    2.70   1
   4   6  -5    0.50    1.20   1
  -4  -6   5    0.90    1.00   1
   4   6  -4    1.00    1.20   1
  -4  -6   4    1.20    1.20   1
   4   6  -3    4.90    1.00   1
  -4  -6   3    3.70    1.20   1
   4   6  -2    3.00    0.80   1
  -4  -6   2    3.40    0.80   1
   4   6  -1  528.60    9.10   1
  -4  -6   1  533.70    9.20   1
   4   6   0   64.90    1.90   1
  -4  -6   0   68.40    2.00   1
   4   6   1  131.80    2.90   1
  -4  -6  -1  133.50    3.20   1
   4   6   2   22.70    1.30   1
  -4  -6  -2   20.60    1.30   1
   4   6   3 1222.50   18.80   1
  -4  -6  -3 1243.00   19.50   1
   4   6   4  379.70    6.50   1
  -4  -6  -4  380.80    6.40   1
   4   6   5  308.50    5.60   1
  -4  -6  -5  305.20    5.20   1
   4   6   6  108.90    2.80   1
  -4  -6  -6  107.50    2.20   1
   4   6   7   49.90    2.00   1
  -4  -6  -7   49.60    1.40   1
   4   6   8  222.90    5.00   1
  -4  -6  -8  224.70    5.40   1
   4   6   9   15.70    1.50   1
  -4  -6  -9   16.40    1.50   1
   4   6  10  103.40    4.00   1
  -4  -6 -10  111.70    3.60   1
   4   6  11  159.00    5.90   1
  -4  -6 -11  168.50    5.30   1
   4   6  12   17.00    3.00   1
  -4  -6 -12   11.20    2.10   1
   4   6  13   22.10    3.60   1
  -4  -6 -13   14.90    2.50   1
   4   6  14   -5.10    3.50   1
  -4  -6 -14    4.60    3.90   1
   4   7  -7   65.00    7.90   1
  -4  -7   7   38.40    6.10   1
   4   7  -6  169.20    8.50   1
  -4  -7   6  141.20   11.30   1
   4   7  -5   20.90    2.70   1
  -4  -7   5    8.50    3.40   1
   4   7  -4  253.60    7.60   1
  -4  -7   4  256.40    9.40   1
   4   7  -3  948.40   22.50   1
  -4  -7   3  911.00   26.20   1
   4   7  -2   33.90    2.30   1
  -4  -7   2   34.20    2.60   1
   4   7  -1   16.60    1.50   1
  -4  -7   1   13.50    1.40   1
   4   7   0   56.70    2.10   1
  -4  -7   0   58.70    2.40   1
   4   7   1 1840.00   36.00   1
  -4  -7  -1 1958.10   38.20   1
   4   7   2    4.90    1.40   1
  -4  -7  -2    5.60    1.80   1
   4   7   3  181.90    4.90   1
  -4  -7  -3  182.70    6.00   1
   4   7   4   57.50    2.30   1
  -4  -7  -4   54.80    2.20   1
   4   7   5  407.40    9.60   1
  -4  -7  -5  412.90    7.80   1
   4   7   6  206.60    5.40   1
  -4  -7  -6  204.40    4.30   1
   4   7   7  187.40    5.10   1
  -4  -7  -7  192.20    4.80   1
   4   7   8  192.50    6.70   1
  -4  -7  -8  197.50    5.20   1
   4   7   9   17.10    1.50   1
  -4  -7  -9   17.40    1.60   1
   4   7  10  245.70    8.60   1
  -4  -7 -10  261.10    7.20   1
   4   7  11    0.40    1.20   1
  -4  -7 -11    0.50    1.00   1
   4   7  12    4.50    1.40   1
  -4  -7 -12    6.30    1.40   1
   4   7  13   18.10    3.50   1
  -4  -7 -13   10.80    2.80   1
   4   7  14  162.70   11.90   1
  -4  -7 -14  161.00    9.00   1
   4   8  -6  262.10   12.20   1
  -4  -8   6  238.40   12.10   1
   4   8  -5   46.50    3.90   1
  -4  -8   5   47.60    5.90   1
   4   8  -4    2.00    2.20   1
  -4  -8   4   -2.20    4.20   1
   4   8  -3    4.30    1.50   1
  -4  -8   3    5.60    2.10   1
   4   8  -2  131.10    4.70   1
  -4  -8   2  129.90    5.90   1
   4   8  -1   43.50    2.80   1
  -4  -8   1   47.80    3.20   1
   4   8   0   23.90    1.60   1
  -4  -8   0   22.00    1.80   1
   4   8   1  161.70    4.20   1
  -4  -8  -1  144.40    4.50   1
   4   8   2   45.20    1.90   1
  -4  -8  -2   48.00    3.10   1
   4   8   3   17.90    1.70   1
  -4  -8  -3   20.10    2.20   1
   4   8   4  329.40    8.20   1
  -4  -8  -4  331.80    8.10   1
   4   8   5   27.10    2.10   1
  -4  -8  -5   25.30    1.50   1
   4   8   6   30.80    2.10   1
  -4  -8  -6   30.60    1.20   1
   4   8   7   38.00    3.60   1
  -4  -8  -7   40.00    1.90   1
   4   8   8  616.20   17.30   1
  -4  -8  -8  627.30   12.40   1
   4   8   9   23.70    2.00   1
  -4  -8  -9   23.80    1.80   1
   4   8  10   75.90    3.80   1
  -4  -8 -10   81.50    3.30   1
   4   8  11  102.60    4.80   1
  -4  -8 -11   96.90    4.00   1
   4   8  12   96.90    4.80   1
  -4  -8 -12   92.90    4.00   1
   4   8  13   41.70    5.10   1
  -4  -8 -13   37.70    3.50   1
   4   8  14   44.10    5.20   1
  -4  -8 -14   48.40    4.70   1
   4   9  -5   13.70    3.00   1
  -4  -9   5   16.80    3.60   1
   4   9  -4    3.20    2.30   1
  -4  -9   4   -0.70    2.80   1
   4   9  -3  119.90    5.20   1
  -4  -9   3  115.20    6.40   1
   4   9  -2   89.20    3.90   1
  -4  -9   2   89.80    5.20   1
   4   9  -1   60.00    3.00   1
  -4  -9   1   62.10    4.20   1
   4   9   0    4.20    1.40   1
  -4  -9   0   -0.70    2.50   1
   4   9   1  113.60    3.90   1
  -4  -9  -1  115.80    5.30   1
   4   9   2  463.00   11.40   1
  -4  -9  -2  455.20   13.90   1
   4   9   3    4.90    1.10   1
  -4  -9  -3    7.60    1.90   1
   4   9   4    4.00    1.90   1
  -4  -9  -4   11.00    2.10   1
   4   9   5   27.80    2.30   1
  -4  -9  -5   27.40    1.40   1
   4   9   6  584.60   16.70   1
  -4  -9  -6  622.90   12.30   1
   4   9   7  142.70    5.60   1
  -4  -9  -7  141.80    4.40   1
   4   9   8   39.10    2.80   1
  -4  -9  -8   38.40    1.90   1
   4   9   9   22.70    2.60   1
  -4  -9  -9   25.20    2.10   1
   4   9  10   99.00    4.70   1
  -4  -9 -10  102.10    4.10   1
   4   9  11  113.50    5.50   1
  -4  -9 -11  115.70    4.60   1
   4   9  12   63.70    4.00   1
  -4  -9 -12   64.30    3.30   1
   4   9  13   69.60    6.80   1
  -4  -9 -13   68.40    4.90   1
  -4  -9 -14   20.90    3.50   1
   4  10  -3   -4.30    2.80   1
  -4 -10   3   -0.30    2.70   1
   4  10  -2  224.30    8.20   1
  -4 -10   2  220.20    8.60   1
   4  10  -1   11.80    2.10   1
  -4 -10   1   11.70    2.30   1
   4  10   0   36.70    3.30   1
  -4 -10   0   37.60    2.80   1
   4  10   1    9.80    1.60   1
  -4 -10  -1   12.70    1.80   1
   4  10   2  331.50    9.20   1
  -4 -10  -2  322.10   10.90   1
   4  10   3   82.90    4.00   1
  -4 -10  -3   84.30    3.60   1
   4  10   4   14.80    1.60   1
  -4 -10  -4   15.30    1.80   1
   4  10   5   -3.60    3.30   1
  -4 -10  -5    2.00    1.10   1
   4  10   6   77.20    3.90   1
  -4 -10  -6   79.90    3.10   1
   4  10   7   24.90    3.00   1
  -4 -10  -7   25.10    1.80   1
   4  10   8    7.20    1.80   1
  -4 -10  -8    7.50    1.50   1
   4  10   9   11.90    2.20   1
  -4 -10  -9   18.60    1.90   1
   4  10  10    4.20    2.00   1
  -4 -10 -10    4.30    1.40   1
   4  10  11   37.90    3.30   1
  -4 -10 -11   36.80    2.70   1
   4  10  12    3.90    2.30   1
  -4 -10 -12    3.20    1.70   1
   4  10  13    8.70    3.40   1
  -4 -10 -13    9.00    3.00   1
   4  11  -2   30.60    5.30   1
  -4 -11   2   34.20    4.20   1
   4  11  -1  375.60   15.40   1
  -4 -11   1  372.60   12.80   1
   4  11   0   12.00    2.80   1
  -4 -11   0    9.70    2.30   1
   4  11   1    6.70    2.20   1
  -4 -11  -1    7.50    1.80   1
   4  11   2   24.40    3.10   1
  -4 -11  -2   20.70    2.70   1
   4  11   3  140.60    9.00   1
  -4 -11  -3  149.00    5.50   1
   4  11   4    0.90    2.60   1
  -4 -11  -4    1.60    1.40   1
   4  11   5   -2.00    2.50   1
  -4 -11  -5    1.00    1.10   1
   4  11   6  186.40   11.60   1
  -4 -11  -6  201.50    8.50   1
   4  11   7   16.40    3.60   1
  -4 -11  -7   10.70    2.70   1
   4  11   8    0.00    2.10   1
  -4 -11  -8   -2.10    1.30   1
   4  11   9   90.20    5.10   1
  -4 -11  -9   88.70    4.00   1
   4  11  10   33.60    3.40   1
  -4 -11 -10   39.10    2.70   1
   4  11  11   15.60    2.70   1
  -4 -11 -11   13.60    1.90   1
   4  11  12    5.80    2.60   1
  -4 -11 -12    6.80    2.70   1
   4  12   0   49.50    4.60   1
  -4 -12   0   49.10    3.90   1
   4  12   1    1.40    2.30   1
  -4 -12  -1    0.90    2.00   1
   4  12   2  105.30    6.20   1
  -4 -12  -2   95.10    4.90   1
   4  12   3   96.80    6.00   1
  -4 -12  -3   81.30    4.40   1
   4  12   4   11.50    3.80   1
  -4 -12  -4   14.50    3.00   1
   4  12   5   25.30    5.60   1
  -4 -12  -5   30.20    3.90   1
   4  12   6   73.80    6.80   1
  -4 -12  -6   68.70    4.80   1
   4  12   7  353.90   18.70   1
  -4 -12  -7  345.90   14.10   1
   4  12   8   35.60    5.40   1
  -4 -12  -8   40.50    3.10   1
   4  12   9   55.10    6.50   1
  -4 -12  -9   66.90    4.60   1
   4  12  10    5.80    4.70   1
  -4 -12 -10    4.70    2.80   1
   4  12  11   76.30    8.50   1
  -4 -12 -11   81.50    8.30   1
   4  13   2   80.60    6.40   1
  -4 -13  -2   72.90    6.40   1
   4  13   3   13.50    3.50   1
  -4 -13  -3    5.50    3.60   1
   4  13   4  215.40   10.90   1
  -4 -13  -4  203.10   11.10   1
   4  13   5  283.30   18.90   1
  -4 -13  -5  320.20   15.20   1
   4  13   6   14.40    5.50   1
  -4 -13  -6   10.30    3.50   1
   4  13   7   35.20    6.70   1
  -4 -13  -7   37.60    4.60   1
   4  13   8   24.90    6.40   1
  -4 -13  -8   25.00    4.30   1
   4  13   9   71.70    5.20   1
  -4 -13  -9   73.50    8.40   1
   4  13  10   -2.80    3.30   1
  -4 -13 -10    3.00    4.20   1
  -5   9   5   26.90    6.00   1
   5  -9  -4  122.70    7.90   1
  -5   9   4  106.90   11.00   1
   5  -9  -3    0.70    2.90   1
  -5   9   3   -0.30    3.60   1
   5  -9  -2   16.90    3.60   1
  -5   9   2   11.60    4.60   1
   5  -9  -1   22.20    3.80   1
  -5   9   1   18.00    4.80   1
   5  -9   0  146.10    8.80   1
  -5   9   0  155.20   12.70   1
   5  -9   1   12.10    3.90   1
  -5   9  -1    7.40    3.80   1
   5  -8  -7   20.40    4.30   1
  -5   8   7   23.10    4.40   1
   5  -8  -6   79.30    9.40   1
  -5   8   6   81.30    6.50   1
   5  -8  -5  175.40    9.40   1
  -5   8   5  166.40    9.40   1
   5  -8  -4    9.60    2.80   1
  -5   8   4    0.40    2.70   1
   5  -8  -3  113.50    7.00   1
  -5   8   3  108.30    6.90   1
   5  -8  -2   12.60    4.10   1
  -5   8   2   13.30    3.70   1
   5  -8  -1  214.10   10.70   1
  -5   8   1  201.90   14.20   1
   5  -8   0   24.40    3.90   1
  -5   8   0   20.60    4.50   1
   5  -8   1   78.60    5.90   1
  -5   8  -1   75.00    6.00   1
   5  -8   2  137.60    8.00   1
  -5   8  -2  148.90    8.40   1
   5  -8   3  108.50    7.10   1
  -5   8  -3  106.50    6.90   1
   5  -8   4    0.60    4.10   1
  -5   8  -4   10.80    4.00   1
   5  -7  -8  201.50   11.20   1
  -5   7   8  206.60   11.70   1
   5  -7  -7    2.00    3.10   1
  -5   7   7   -3.20    3.50   1
   5  -7  -6    6.60    4.20   1
  -5   7   6   16.30    3.50   1
   5  -7  -5   13.50    3.40   1
  -5   7   5    8.60    3.40   1
   5  -7  -4   81.60    5.40   1
  -5   7   4   75.60    5.40   1
   5  -7  -3   13.20    2.70   1
  -5   7   3   14.70    3.20   1
   5  -7  -2  108.60    6.00   1
  -5   7   2  112.40    6.10   1
   5  -7  -1   57.70    4.20   1
  -5   7   1   62.60    4.50   1
   5  -7   0   -0.30    3.00   1
  -5   7   0    4.10    2.20   1
   5  -7   1  118.70    6.50   1
  -5   7  -1  123.40    9.20   1
   5  -7   2   35.90    3.90   1
  -5   7  -2   35.00    3.70   1
   5  -7   3   -2.50    2.30   1
  -5   7  -3   -0.60    2.20   1
   5  -7   4   18.60    3.70   1
  -5   7  -4   17.70    3.40   1
   5  -7   5  145.60    8.20   1
  -5   7  -5  147.50    8.40   1
   5  -6  -9    9.30    4.40   1
  -5   6   9    7.80    7.30   1
   5  -6  -8    2.50    2.60   1
  -5   6   8    3.10    4.20   1
   5  -6  -7   24.20    3.50   1
  -5   6   7   21.30    3.60   1
   5  -6  -6   91.20    5.60   1
  -5   6   6   87.50    5.80   1
   5  -6  -5    1.40    2.00   1
  -5   6   5    8.20    2.70   1
   5  -6  -4   10.80    2.50   1
  -5   6   4    9.40    2.90   1
   5  -6  -3  122.20    5.80   1
  -5   6   3  109.30    6.00   1
   5  -6  -2  178.50    7.60   1
  -5   6   2  184.10    7.80   1
   5  -6  -1   18.60    4.30   1
  -5   6   1   19.30    2.90   1
   5  -6   0   20.40    2.60   1
  -5   6   0   29.20    2.80   1
   5  -6   1  387.90   12.70   1
  -5   6  -1  421.00   13.90   1
   5  -6   2   30.60    3.30   1
  -5   6  -2   25.50    2.20   1
   5  -6   3    1.60    2.00   1
  -5   6  -3    3.40    2.00   1
   5  -6   4    0.60    3.00   1
  -5   6  -4    0.90    2.40   1
   5  -6   5  190.10    9.30   1
  -5   6  -5  182.10    9.20   1
   5  -6   6    0.20    2.20   1
  -5   6  -6   -0.70    2.70   1
   5  -6   7    3.80    3.10   1
  -5   6  -7    6.80    5.60   1
   5  -5  -9    1.40    3.00   1
  -5   5   9   -1.10    2.80   1
   5  -5  -8   12.50    2.30   1
  -5   5   8   10.00    3.10   1
   5  -5  -7    5.90    1.70   1
  -5   5   7    1.70    2.80   1
   5  -5  -6    5.20    1.70   1
  -5   5   6    2.20    2.20   1
   5  -5  -5   82.90    4.50   1
  -5   5   5   86.20    5.00   1
   5  -5  -4   23.20    1.40   1
  -5   5   4   24.40    2.90   1
   5  -5  -3   80.10    2.70   1
  -5   5   3   73.80    4.40   1
   5  -5  -2    4.10    1.20   1
  -5   5   2    5.60    2.20   1
   5  -5  -1   40.20    3.10   1
  -5   5   1   39.50    2.90   1
   5  -5   0  366.80   11.80   1
  -5   5   0  367.90    8.80   1
   5  -5   1   17.00    2.30   1
  -5   5  -1   18.60    1.20   1
   5  -5   2    2.60    1.80   1
  -5   5  -2    0.10    0.70   1
   5  -5   3   93.00    4.70   1
  -5   5  -3   88.50    3.40   1
   5  -5   4  112.10    5.40   1
  -5   5  -4  115.20    4.30   1
   5  -5   5    3.00    1.90   1
  -5   5  -5    1.00    1.10   1
   5  -5   6   21.50    2.40   1
  -5   5  -6   19.10    2.60   1
   5  -5   7  465.60   27.50   1
  -5   5  -7  412.10   24.20   1
   5  -5   8   13.00    4.40   1
  -5   5  -8   14.30    4.50   1
   5  -4  -9   34.00    4.00   1
  -5   4   9   30.70    6.30   1
   5  -4  -8    8.00    2.30   1
  -5   4   8    6.30    3.10   1
   5  -4  -7  644.20   17.50   1
  -5   4   7  579.00   20.40   1
   5  -4  -6    7.40    1.60   1
  -5   4   6    6.90    2.20   1
   5  -4  -5  102.00    3.90   1
  -5   4   5  100.50    5.30   1
   5  -4  -4    0.80    0.50   1
  -5   4   4    1.70    2.30   1
   5  -4  -3  332.80    7.40   1
  -5   4   3  324.20   11.00   1
   5  -4  -2  436.60    9.10   1
  -5   4   2  439.80   13.30   1
   5  -4  -1  178.40    5.00   1
  -5   4   1  174.90    5.10   1
   5  -4   0  233.60    7.80   1
  -5   4   0  232.50    5.80   1
   5  -4   1    7.60    1.70   1
  -5   4  -1   11.30    0.90   1
   5  -4   2  563.10   15.40   1
  -5   4  -2  564.20   12.70   1
   5  -4   3   64.60    3.50   1
  -5   4  -3   71.40    2.50   1
   5  -4   4  114.90    5.20   1
  -5   4  -4  106.40    3.70   1
   5  -4   5  245.30    7.40   1
  -5   4  -5  245.90    7.00   1
   5  -4   6  359.50    9.90   1
  -5   4  -6  352.40    9.80   1
   5  -4   7   34.80    2.80   1
  -5   4  -7   36.60    2.40   1
   5  -4   8    3.70    2.60   1
  -5   4  -8    1.80    2.60   1
   5  -4   9   78.40    5.90   1
  -5   4  -9   76.20    8.00   1
   5  -3 -10  133.40    8.20   1
  -5   3  10  131.10   13.40   1
   5  -3  -9   54.50    4.60   1
  -5   3   9   47.60    7.60   1
   5  -3  -8    1.60    1.80   1
  -5   3   8    2.60    2.30   1
   5  -3  -7  138.20    5.20   1
  -5   3   7  118.40    6.30   1
   5  -3  -6  104.30    4.00   1
  -5   3   6   93.50    5.40   1
   5  -3  -5    1.10    1.20   1
  -5   3   5    2.40    2.30   1
   5  -3  -4   59.70    2.70   1
  -5   3   4   56.00    2.90   1
   5  -3  -3  371.50    7.40   1
  -5   3   3  348.70   11.20   1
   5  -3  -2   34.90    1.60   1
  -5   3   2   29.90    2.50   1
   5  -3  -1   69.10    2.50   1
  -5   3   1   61.90    3.40   1
   5  -3   0  317.60    7.40   1
  -5   3   0  300.00    9.40   1
   5  -3   1   62.80    2.40   1
  -5   3  -1   60.70    2.00   1
   5  -3   2  129.90    3.50   1
  -5   3  -2  125.10    3.20   1
   5  -3   3   56.10    2.20   1
  -5   3  -3   52.30    1.80   1
   5  -3   4  152.50    4.20   1
  -5   3  -4  150.90    3.80   1
   5  -3   5   27.40    2.00   1
  -5   3  -5   30.70    2.10   1
   5  -3   6  178.90    5.50   1
  -5   3  -6  173.60    6.60   1
   5  -3   7   27.60    2.20   1
  -5   3  -7   24.00    1.80   1
   5  -3   8    4.10    2.30   1
  -5   3  -8    3.50    1.70   1
   5  -3   9   57.90    4.70   1
  -5   3  -9   58.10    4.30   1
   5  -3  10   13.90    3.30   1
  -5   3 -10   14.50    3.00   1
   5  -2 -10   22.00    3.70   1
  -5   2  10   10.80    5.60   1
   5  -2  -9    9.70    2.80   1
  -5   2   9   10.30    6.50   1
   5  -2  -8   21.80    2.40   1
  -5   2   8   20.10    3.30   1
   5  -2  -7   -1.10    1.40   1
  -5   2   7    1.20    2.50   1
   5  -2  -6  105.00    4.10   1
  -5   2   6  102.70    5.40   1
   5  -2  -5    1.40    1.20   1
  -5   2   5    0.20    1.80   1
   5  -2  -4   35.00    2.60   1
  -5   2   4   38.40    3.00   1
   5  -2  -3    6.70    0.60   1
  -5   2   3    4.00    1.60   1
   5  -2  -2  281.90    6.50   1
  -5   2   2  254.00    8.40   1
   5  -2  -1  343.50    7.50   1
  -5   2   1  322.50    9.70   1
   5  -2   0   20.30    1.30   1
  -5   2   0   21.90    2.20   1
   5  -2   1   15.60    1.30   1
  -5   2  -1   14.70    1.30   1
   5  -2   2  184.90    4.30   1
  -5   2  -2  174.10    4.00   1
   5  -2   3  659.20   13.80   1
  -5   2  -3  636.10   11.50   1
   5  -2   4   64.50    2.30   1
  -5   2  -4   61.30    1.90   1
   5  -2   5   11.60    1.20   1
  -5   2  -5    9.70    0.90   1
   5  -2   6  105.80    3.60   1
  -5   2  -6  111.90    4.20   1
   5  -2   7  518.10   12.30   1
  -5   2  -7  505.20   11.80   1
   5  -2   8  198.10    6.30   1
  -5   2  -8  201.90    6.20   1
   5  -2   9    4.10    2.40   1
  -5   2  -9    7.50    2.00   1
   5  -2  10  271.20   12.00   1
  -5   2 -10  263.00   11.60   1
   5  -2  11  136.90    8.10   1
  -5   2 -11  141.30    8.30   1
   5  -1 -10   24.80    3.70   1
  -5   1  10   24.70    6.90   1
   5  -1  -9    5.50    2.50   1
  -5   1   9    7.70    5.20   1
   5  -1  -8    2.20    2.10   1
  -5   1   8    0.30    3.60   1
   5  -1  -7    6.20    1.70   1
  -5   1   7    5.50    2.30   1
   5  -1  -6  162.20    5.60   1
  -5   1   6  167.60    7.30   1
   5  -1  -5  134.10    5.70   1
  -5   1   5  147.80    6.10   1
   5  -1  -4    0.40    1.20   1
  -5   1   4    0.50    1.40   1
   5  -1  -3    3.00    1.20   1
  -5   1   3    4.90    2.00   1
   5  -1  -2  145.10    3.60   1
  -5   1   2  128.90    4.90   1
   5  -1  -1  602.20   12.40   1
  -5   1   1  568.60   15.50   1
   5  -1   0   12.70    1.10   1
  -5   1   0   14.80    2.00   1
   5  -1   1    4.40    0.80   1
  -5   1  -1    2.70    1.40   1
   5  -1   2  108.00    2.90   1
  -5   1  -2  105.10    3.60   1
   5  -1   3  634.50   13.00   1
  -5   1  -3  611.60    9.80   1
   5  -1   4    5.80    1.00   1
  -5   1  -4    4.30    0.60   1
   5  -1   5    2.60    0.90   1
  -5   1  -5    1.70    0.50   1
   5  -1   6  384.90    9.50   1
  -5   1  -6  394.60    8.30   1
   5  -1   7  176.20    5.00   1
  -5   1  -7  177.70    4.40   1
   5  -1   8    7.60    1.50   1
  -5   1  -8    6.00    1.30   1
   5  -1   9    0.70    2.20   1
  -5   1  -9    2.50    1.10   1
   5  -1  10   81.80    5.00   1
  -5   1 -10   92.00    5.10   1
   5  -1  11   13.70    3.00   1
  -5   1 -11    9.20    3.60   1
   5  -1  12   47.00    4.70   1
  -5   1 -12   63.10    7.50   1
   5   0  -9  298.60   14.30   1
  -5   0   9  307.00   14.70   1
   5   0  -8   69.70    4.60   1
  -5   0   8   70.90    8.00   1
   5   0  -7    4.80    1.50   1
  -5   0   7    5.10    1.90   1
   5   0  -6   60.10    2.90   1
  -5   0   6   53.20    3.70   1
   5   0  -5  470.10   14.80   1
  -5   0   5  481.30   14.70   1
   5   0  -4  111.20    3.60   1
  -5   0   4  120.00    4.00   1
   5   0  -3   84.30    2.80   1
  -5   0   3   79.80    2.90   1
   5   0  -2  673.70   13.60   1
  -5   0   2  665.90   17.80   1
   5   0  -1   99.40    2.50   1
  -5   0   1   96.70    3.30   1
   5   0   0    2.50    0.60   1
  -5   0   0    1.00    0.90   1
   5   0   1  182.70    3.60   1
  -5   0  -1  177.30    4.20   1
   5   0   2  915.20   15.90   1
  -5   0  -2  877.50   14.10   1
   5   0   3   19.40    1.10   1
  -5   0  -3   16.80    1.10   1
   5   0   4    1.20    0.80   1
  -5   0  -4    0.80    0.50   1
   5   0   5  346.10    7.30   1
  -5   0  -5  327.40    6.50   1
   5   0   6    2.30    0.90   1
  -5   0  -6   -0.50    0.80   1
   5   0   7    2.90    1.00   1
  -5   0  -7    1.40    0.80   1
   5   0   8   64.00    2.40   1
  -5   0  -8   59.60    2.50   1
   5   0   9  107.50    3.90   1
  -5   0  -9  106.80    3.60   1
   5   0  10  125.00    6.30   1
  -5   0 -10  123.10    5.70   1
   5   0  11    6.70    3.10   1
  -5   0 -11    0.60    2.70   1
   5   0  12    1.50    3.00   1
  -5   0 -12    0.20    3.20   1
   5   1  -9    0.50    2.30   1
  -5  -1   9   -1.60    2.60   1
   5   1  -8    9.00    2.40   1
  -5  -1   8    7.10    3.30   1
   5   1  -7   11.20    1.70   1
  -5  -1   7   10.90    1.70   1
   5   1  -6   23.10    2.10   1
  -5  -1   6   17.80    2.40   1
   5   1  -5   15.10    1.50   1
  -5  -1   5   16.60    2.30   1
   5   1  -4    7.10    1.10   1
  -5  -1   4    7.60    1.20   1
   5   1  -3   37.90    1.50   1
  -5  -1   3   34.70    1.50   1
   5   1  -2   22.70    1.00   1
  -5  -1   2   23.60    1.20   1
   5   1  -1  469.40    8.70   1
  -5  -1   1  471.90    7.70   1
   5   1   0  155.00    3.10   1
  -5  -1   0  152.20    2.70   1
   5   1   1  173.70    3.30   1
  -5  -1  -1  174.50    3.10   1
   5   1   2   70.80    1.80   1
  -5  -1  -2   70.20    1.70   1
   5   1   3  260.00    4.60   1
  -5  -1  -3  250.60    4.10   1
   5   1   4 1523.50   23.30   1
  -5  -1  -4 1530.20   20.90   1
   5   1   5  308.80    5.10   1
  -5  -1  -5  302.70    5.40   1
   5   1   6    2.70    0.80   1
  -5  -1  -6    2.40    0.80   1
   5   1   7   15.30    1.10   1
  -5  -1  -7   15.50    1.00   1
   5   1   8 1113.70   20.60   1
  -5  -1  -8 1116.70   20.50   1
   5   1   9   65.70    3.10   1
  -5  -1  -9   75.00    3.30   1
   5   1  10   22.80    2.80   1
  -5  -1 -10   27.30    4.50   1
   5   1  11  438.10   14.90   1
  -5  -1 -11  420.40   21.20   1
   5   1  12  231.70   10.30   1
  -5  -1 -12  231.70   15.70   1
   5   1  13    2.60    3.60   1
  -5  -1 -13    1.40    5.50   1
   5   2  -9    6.50    6.60   1
  -5  -2   9   13.50    3.50   1
   5   2  -8   85.50    5.70   1
  -5  -2   8   91.60    6.10   1
   5   2  -7    5.10    1.90   1
  -5  -2   7    4.00    2.00   1
   5   2  -6  192.40    6.20   1
  -5  -2   6  195.70    6.20   1
   5   2  -5    3.40    1.70   1
  -5  -2   5    4.20    1.40   1
   5   2  -4  388.70    9.40   1
  -5  -2   4  409.00    8.00   1
   5   2  -3  505.30   10.00   1
  -5  -2   3  516.00    9.10   1
   5   2  -2    4.00    0.70   1
  -5  -2   2    1.90    0.50   1
   5   2  -1   79.80    2.00   1
  -5  -2   1   84.50    2.00   1
   5   2   0 1081.70   16.70   1
  -5  -2   0 1088.50   15.30   1
   5   2   1  734.50   10.50   1
  -5  -2  -1  731.20   10.60   1
   5   2   2  311.00    5.40   1
  -5  -2  -2  311.10    4.90   1
   5   2   3  543.10    8.90   1
  -5  -2  -3  546.90    8.30   1
   5   2   4   71.90    1.60   1
  -5  -2  -4   69.00    1.70   1
   5   2   5  109.30    2.40   1
  -5  -2  -5  108.40    3.20   1
   5   2   6  302.60    4.90   1
  -5  -2  -6  301.20    6.10   1
   5   2   7  538.60    8.30   1
  -5  -2  -7  541.90   10.70   1
   5   2   8   71.50    2.30   1
  -5  -2  -8   70.60    2.60   1
   5   2   9    0.20    0.70   1
  -5  -2  -9   -0.80    0.80   1
   5   2  10   67.90    3.30   1
  -5  -2 -10   72.20    3.60   1
   5   2  11   12.00    2.00   1
  -5  -2 -11    7.90    3.10   1
   5   2  12   22.00    2.80   1
  -5  -2 -12   25.20    4.50   1
   5   2  13    2.20    3.30   1
  -5  -2 -13   -1.10    3.70   1
   5   3  -8   33.90    6.30   1
  -5  -3   8   23.70    3.70   1
   5   3  -7   41.60    6.60   1
  -5  -3   7   49.00    3.90   1
   5   3  -6  125.80    6.20   1
  -5  -3   6  124.10    5.00   1
   5   3  -5   10.50    2.00   1
  -5  -3   5   11.50    2.00   1
   5   3  -4  196.20    5.00   1
  -5  -3   4  190.30    4.50   1
   5   3  -3    2.00    0.70   1
  -5  -3   3    1.50    0.60   1
   5   3  -2  444.50    8.60   1
  -5  -3   2  453.70    7.30   1
   5   3  -1   29.70    1.20   1
  -5  -3   1   29.50    1.00   1
   5   3   0  186.00    3.50   1
  -5  -3   0  195.20    3.70   1
   5   3   1   10.30    0.50   1
  -5  -3  -1   10.10    0.70   1
   5   3   2  334.50    6.70   1
  -5  -3  -2  334.10    5.50   1
   5   3   3  195.90    3.70   1
  -5  -3  -3  206.60    3.60   1
   5   3   4   74.20    1.60   1
  -5  -3  -4   78.60    1.80   1
   5   3   5   19.50    0.70   1
  -5  -3  -5   17.60    0.90   1
   5   3   6   19.70    0.80   1
  -5  -3  -6   19.40    0.80   1
   5   3   7   32.30    1.10   1
  -5  -3  -7   34.50    1.50   1
   5   3   8    3.00    0.60   1
  -5  -3  -8    2.90    0.90   1
   5   3   9   86.50    2.60   1
  -5  -3  -9   89.80    3.10   1
   5   3  10   41.90    2.00   1
  -5  -3 -10   38.50    2.40   1
   5   3  11    6.80    1.80   1
  -5  -3 -11    9.30    3.10   1
   5   3  12    5.30    2.80   1
  -5  -3 -12    1.50    3.20   1
   5   3  13   97.80    8.70   1
  -5  -3 -13  114.80   10.10   1
   5   3  14    2.20    3.30   1
  -5  -3 -14   -1.30    4.00   1
   5   4  -8   11.60    4.70   1
  -5  -4   8   11.80    5.30   1
   5   4  -7   91.80    8.50   1
  -5  -4   7   78.40    5.00   1
   5   4  -6  145.40    9.80   1
  -5  -4   6  139.90    6.50   1
   5   4  -5    2.40    1.40   1
  -5  -4   5    2.90    1.20   1
   5   4  -4    6.80    1.70   1
  -5  -4   4   10.00    1.40   1
   5   4  -3   16.30    1.50   1
  -5  -4   3   14.00    0.80   1
   5   4  -2   40.50    1.90   1
  -5  -4   2   41.70    1.50   1
   5   4  -1    3.00    1.00   1
  -5  -4   1    2.50    0.70   1
   5   4   0   39.20    1.50   1
  -5  -4   0   41.40    1.40   1
   5   4   1   43.20    1.70   1
  -5  -4  -1   48.10    1.40   1
   5   4   2   46.50    1.70   1
  -5  -4  -2   49.10    1.40   1
   5   4   3  280.70    5.70   1
  -5  -4  -3  300.80    5.50   1
   5   4   4    1.90    0.30   1
  -5  -4  -4    0.60    0.50   1
   5   4   5  381.70    6.30   1
  -5  -4  -5  374.20    7.40   1
   5   4   6    5.30    0.50   1
  -5  -4  -6    4.50    0.70   1
   5   4   7  278.50    4.70   1
  -5  -4  -7  283.10    6.00   1
   5   4   8   16.40    0.90   1
  -5  -4  -8   15.60    1.10   1
   5   4   9  466.40    9.80   1
  -5  -4  -9  488.40   11.80   1
   5   4  10   40.80    1.90   1
  -5  -4 -10   43.00    2.40   1
   5   4  11   75.40    3.90   1
  -5  -4 -11   82.80    4.10   1
   5   4  12  122.90    8.50   1
  -5  -4 -12  116.50    8.30   1
   5   4  13   49.80    5.90   1
  -5  -4 -13   42.70    5.80   1
   5   4  14    6.50    4.60   1
  -5  -4 -14    2.80    4.30   1
   5   5  -7   60.20    8.30   1
  -5  -5   7   56.50    7.20   1
   5   5  -6    5.60    3.80   1
  -5  -5   6   12.30    2.40   1
   5   5  -5  208.20   13.30   1
  -5  -5   5  176.90    6.90   1
   5   5  -4    2.50    1.50   1
  -5  -5   4    1.20    1.50   1
   5   5  -3  399.10   12.90   1
  -5  -5   3  372.40    9.20   1
   5   5  -2  266.10    6.60   1
  -5  -5   2  272.10    5.50   1
   5   5  -1    1.20    0.70   1
  -5  -5   1    1.40    0.60   1
   5   5   0  172.70    3.90   1
  -5  -5   0  167.60    3.50   1
   5   5   1  705.70   12.70   1
  -5  -5  -1  740.30   13.30   1
   5   5   2 1169.20   19.90   1
  -5  -5  -2 1229.60   21.80   1
   5   5   3  331.40    6.20   1
  -5  -5  -3  354.60    7.10   1
   5   5   4  224.60    5.30   1
  -5  -5  -4  229.30    5.60   1
   5   5   5   69.60    1.80   1
  -5  -5  -5   66.40    2.20   1
   5   5   6  311.50    5.30   1
  -5  -5  -6  304.90    6.80   1
   5   5   7  582.40    9.40   1
  -5  -5  -7  582.40   12.20   1
   5   5   8  227.50    4.20   1
  -5  -5  -8  219.50    5.50   1
   5   5   9  268.70    5.70   1
  -5  -5  -9  272.50    8.50   1
   5   5  10    0.50    0.90   1
  -5  -5 -10    2.10    1.40   1
   5   5  11  102.80    4.20   1
  -5  -5 -11  104.70    4.60   1
   5   5  12    6.00    2.60   1
  -5  -5 -12   10.30    3.30   1
   5   5  13  227.60   14.50   1
  -5  -5 -13  259.20   17.40   1
  -5  -5 -14   -1.40    3.70   1
   5   6  -7    6.10    4.50   1
  -5  -6   7    0.80    5.30   1
   5   6  -6   72.30    8.50   1
  -5  -6   6   61.40    6.90   1
   5   6  -5  587.60   30.30   1
  -5  -6   5  549.60   26.90   1
   5   6  -4   -1.30    1.20   1
  -5  -6   4    2.00    1.40   1
   5   6  -3    4.40    1.20   1
  -5  -6   3    8.50    1.70   1
   5   6  -2    9.60    1.30   1
  -5  -6   2    8.20    1.10   1
   5   6  -1 1066.00   21.80   1
  -5  -6   1 1034.30   19.10   1
   5   6   0  100.60    2.90   1
  -5  -6   0  100.70    2.80   1
   5   6   1    7.50    0.90   1
  -5  -6  -1    4.60    0.60   1
   5   6   2  140.00    3.40   1
  -5  -6  -2  142.40    4.00   1
   5   6   3  373.20    6.70   1
  -5  -6  -3  386.80    8.80   1
   5   6   4   20.00    1.30   1
  -5  -6  -4   20.00    1.40   1
   5   6   5    6.30    1.00   1
  -5  -6  -5    6.20    1.20   1
   5   6   6  121.30    3.50   1
  -5  -6  -6  121.60    2.80   1
   5   6   7    1.90    0.80   1
  -5  -6  -7    0.50    0.50   1
   5   6   8   17.30    1.10   1
  -5  -6  -8   17.40    1.10   1
   5   6   9   39.10    1.90   1
  -5  -6  -9   38.50    1.90   1
   5   6  10    6.80    1.40   1
  -5  -6 -10    5.90    1.00   1
   5   6  11   26.00    2.30   1
  -5  -6 -11   27.20    1.80   1
   5   6  12   20.30    3.30   1
  -5  -6 -12   25.10    2.50   1
   5   6  13   17.10    3.70   1
  -5  -6 -13   14.40    5.60   1
  -5  -6 -14   52.50    7.20   1
   5   7  -6   56.20    7.30   1
  -5  -7   6   46.60    5.80   1
   5   7  -5   16.60    2.60   1
  -5  -7   5   13.80    4.20   1
   5   7  -4    6.10    1.60   1
  -5  -7   4    8.00    2.00   1
   5   7  -3   21.90    1.90   1
  -5  -7   3   25.20    2.10   1
   5   7  -2  180.80    5.60   1
  -5  -7   2  169.40    5.70   1
   5   7  -1   20.90    1.70   1
  -5  -7   1   18.80    1.60   1
   5   7   0    7.00    1.40   1
  -5  -7   0    7.10    1.20   1
   5   7   1   57.70    2.40   1
  -5  -7  -1   62.00    2.30   1
   5   7   2  186.40    4.40   1
  -5  -7  -2  202.10    5.10   1
   5   7   3   25.80    1.50   1
  -5  -7  -3   26.80    1.00   1
   5   7   4    4.50    1.30   1
  -5  -7  -4    4.30    0.40   1
   5   7   5  254.50    7.60   1
  -5  -7  -5  275.20    5.50   1
   5   7   6  239.40    5.90   1
  -5  -7  -6  220.70    4.60   1
   5   7   7   82.40    2.80   1
  -5  -7  -7   81.30    2.20   1
   5   7   8  380.40    9.30   1
  -5  -7  -8  371.90    7.40   1
   5   7   9  189.30    6.50   1
  -5  -7  -9  204.90    5.80   1
   5   7  10   70.70    3.40   1
  -5  -7 -10   71.70    3.00   1
   5   7  11   60.20    3.30   1
  -5  -7 -11   55.30    2.80   1
   5   7  12  369.70   13.30   1
  -5  -7 -12  358.00   10.30   1
   5   7  13   57.10    6.50   1
  -5  -7 -13   54.50    4.40   1
  -5  -7 -14   19.10    5.00   1
   5   8  -5   40.80    4.00   1
  -5  -8   5   36.80    6.00   1
   5   8  -4    6.00    2.30   1
  -5  -8   4    7.20    3.80   1
   5   8  -3    6.10    1.70   1
  -5  -8   3    9.70    2.40   1
   5   8  -2   -0.20    1.40   1
  -5  -8   2   -0.50    2.00   1
   5   8  -1   72.80    3.20   1
  -5  -8   1   66.30    4.00   1
   5   8   0   68.10    3.30   1
  -5  -8   0   67.00    3.90   1
   5   8   1    1.90    1.00   1
  -5  -8  -1    1.20    0.80   1
   5   8   2   25.10    1.90   1
  -5  -8  -2   20.30    1.40   1
   5   8   3   49.40    2.30   1
  -5  -8  -3   50.80    2.10   1
   5   8   4  336.70   10.00   1
  -5  -8  -4  365.40    9.10   1
   5   8   5   24.00    2.40   1
  -5  -8  -5   21.00    1.10   1
   5   8   6    9.20    1.80   1
  -5  -8  -6   11.70    0.90   1
   5   8   7    0.20    1.60   1
  -5  -8  -7    0.70    0.50   1
   5   8   8  133.70    5.20   1
  -5  -8  -8  153.00    3.80   1
   5   8   9   19.80    2.00   1
  -5  -8  -9   17.20    1.70   1
   5   8  10   20.10    2.20   1
  -5  -8 -10   22.80    1.80   1
   5   8  11    7.60    1.60   1
  -5  -8 -11    8.20    1.50   1
   5   8  12    2.30    2.20   1
  -5  -8 -12    1.80    1.40   1
   5   8  13   18.90    4.50   1
  -5  -8 -13   13.30    2.50   1
   5   8  14   55.20    6.10   1
  -5  -8 -14   47.50    4.90   1
   5   9  -4  164.10    8.40   1
  -5  -9   4  144.00   12.60   1
   5   9  -3   -3.20    1.80   1
  -5  -9   3   -2.70    2.50   1
   5   9  -2    2.50    1.50   1
  -5  -9   2   -4.30    2.30   1
   5   9  -1    8.40    1.60   1
  -5  -9   1    2.60    2.20   1
   5   9   0  648.40   17.10   1
  -5  -9   0  628.90   20.70   1
   5   9   1  128.60    5.70   1
  -5  -9  -1  127.50    6.10   1
   5   9   2   36.30    2.10   1
  -5  -9  -2   38.60    3.10   1
   5   9   3    3.10    1.50   1
  -5  -9  -3    1.70    2.00   1
   5   9   4  414.80   12.80   1
  -5  -9  -4  421.30   13.10   1
   5   9   5  113.10    4.80   1
  -5  -9  -5  127.00    4.40   1
   5   9   6    3.80    1.50   1
  -5  -9  -6    4.40    0.80   1
   5   9   7  111.90    4.70   1
  -5  -9  -7  114.70    3.90   1
   5   9   8    2.00    1.40   1
  -5  -9  -8    0.40    1.00   1
   5   9   9   38.00    3.10   1
  -5  -9  -9   40.30    2.00   1
   5   9  10    4.30    1.90   1
  -5  -9 -10    3.40    1.50   1
   5   9  11   68.40    4.10   1
  -5  -9 -11   72.70    3.50   1
   5   9  12   38.50    3.20   1
  -5  -9 -12   42.00    2.80   1
   5   9  13    9.90    3.30   1
  -5  -9 -13   16.00    3.20   1
   5   9  14   19.80    4.50   1
  -5  -9 -14   16.90    5.30   1
   5  10  -3  140.40    7.80   1
  -5 -10   3  136.80   12.40   1
   5  10  -2   69.50    3.90   1
  -5 -10   2   70.20    5.40   1
   5  10  -1   17.30    2.20   1
  -5 -10   1   18.10    2.90   1
   5  10   0    4.90    1.80   1
  -5 -10   0    6.60    2.30   1
   5  10   1    4.30    1.40   1
  -5 -10  -1    5.30    2.10   1
   5  10   2   10.10    2.10   1
  -5 -10  -2    7.70    2.30   1
   5  10   3   57.30    2.80   1
  -5 -10  -3   53.40    3.90   1
   5  10   4   31.30    3.80   1
  -5 -10  -4   35.90    3.20   1
   5  10   5    0.70    2.00   1
  -5 -10  -5    2.20    2.20   1
   5  10   6   73.60    4.00   1
  -5 -10  -6   75.10    2.60   1
   5  10   7  168.70    7.00   1
  -5 -10  -7  189.30    5.90   1
   5  10   8    9.20    2.20   1
  -5 -10  -8   10.10    1.50   1
   5  10   9   12.20    2.20   1
  -5 -10  -9   15.50    1.50   1
   5  10  10   51.40    3.70   1
  -5 -10 -10   61.00    3.10   1
   5  10  11   53.40    4.00   1
  -5 -10 -11   58.40    3.20   1
   5  10  12   33.80    3.30   1
  -5 -10 -12   37.80    3.60   1
   5  10  13  136.60    7.30   1
  -5 -10 -13  149.80    8.40   1
   5  11  -2   23.30    4.70   1
   5  11  -1  100.40    6.40   1
  -5 -11   1   90.50    5.50   1
   5  11   0   45.60    4.10   1
  -5 -11   0   40.90    3.50   1
   5  11   1  205.60    7.30   1
  -5 -11  -1  196.90    7.40   1
   5  11   2    3.70    2.40   1
  -5 -11  -2    7.20    1.90   1
   5  11   3  120.20    4.70   1
  -5 -11  -3  118.00    5.00   1
   5  11   4    3.50    1.50   1
  -5 -11  -4    6.60    1.70   1
   5  11   5  363.10   12.20   1
  -5 -11  -5  389.60   11.10   1
   5  11   6  309.90   15.90   1
  -5 -11  -6  318.00   11.90   1
   5  11   7   25.00    2.70   1
  -5 -11  -7   20.90    2.80   1
   5  11   8   66.50    4.40   1
  -5 -11  -8   71.10    3.70   1
   5  11   9  111.30    6.20   1
  -5 -11  -9  114.90    5.20   1
   5  11  10  340.00   13.60   1
  -5 -11 -10  355.60   13.60   1
   5  11  11    1.30    2.50   1
  -5 -11 -11    0.30    2.20   1
   5  11  12  101.50    6.30   1
  -5 -11 -12  110.00    6.80   1
   5  12   0   15.60    3.30   1
  -5 -12   0   14.40    2.80   1
   5  12   1   28.30    3.50   1
  -5 -12  -1   19.90    2.80   1
   5  12   2   72.70    5.20   1
  -5 -12  -2   60.90    4.10   1
   5  12   3  144.30    8.10   1
  -5 -12  -3  138.60    6.40   1
   5  12   4    4.00    2.80   1
  -5 -12  -4    1.70    3.00   1
   5  12   5    9.90    3.60   1
  -5 -12  -5   10.40    3.10   1
   5  12   6   10.60    4.70   1
  -5 -12  -6    9.10    3.20   1
   5  12   7   59.60    6.70   1
  -5 -12  -7   55.10    4.70   1
   5  12   8   -3.40    4.20   1
  -5 -12  -8   -3.30    2.40   1
   5  12   9    2.40    2.20   1
  -5 -12  -9    2.40    1.70   1
   5  12  10    1.80    2.60   1
   5  12  11    1.00    2.70   1
  -5 -12 -11   -1.40    3.20   1
   5  13   3   15.20    3.40   1
  -5 -13  -3    9.20    3.30   1
   5  13   4    5.20    3.30   1
  -5 -13  -4    7.80    3.60   1
   5  13   5   24.60    5.30   1
  -5 -13  -5   24.10    3.80   1
   5  13   6   10.80    4.00   1
  -5 -13  -6   16.10    3.40   1
   5  13   7    2.30    5.00   1
  -5 -13  -7   -2.10    3.20   1
   5  13   8    8.20    5.40   1
  -5 -13  -8    0.00    3.40   1
   5  13   9   41.50    6.10   1
  -5 -13  -9   26.30    4.00   1
   5  13  10    4.80    3.80   1
  -5 -13 -10    2.40    4.10   1
   6  -8  -4    9.30    4.50   1
  -6   8   4    7.60    4.70   1
   6  -8  -3   -6.30    2.90   1
  -6   8   3   -2.00    2.80   1
   6  -8  -2    5.90    3.80   1
  -6   8   2    2.60    3.80   1
   6  -8  -1    4.30    3.30   1
  -6   8   1    3.30    3.80   1
   6  -8   0   31.70    4.80   1
  -6   8   0   25.90    6.70   1
   6  -8   1    2.90    3.10   1
  -6   8  -1    5.00    3.20   1
   6  -7  -6   34.90    4.70   1
  -6   7   6   33.10    4.80   1
   6  -7  -5   31.20    6.40   1
  -6   7   5   29.10    4.50   1
   6  -7  -4   24.20    3.80   1
  -6   7   4   23.90    4.60   1
   6  -7  -3    5.30    2.70   1
  -6   7   3    1.80    3.30   1
   6  -7  -2   40.50    4.30   1
  -6   7   2   34.20    3.90   1
   6  -7  -1   76.40    4.30   1
  -6   7   1   96.40    6.20   1
   6  -7   0    5.50    2.10   1
  -6   7   0   -0.90    3.30   1
   6  -7   1   61.90    5.00   1
  -6   7  -1   63.60    5.20   1
   6  -7   2   16.40    2.60   1
  -6   7  -2   17.90    3.20   1
   6  -7   3   72.70    4.70   1
  -6   7  -3   67.30    5.50   1
   6  -7   4    5.60    3.10   1
  -6   7  -4    2.50    3.80   1
   6  -6  -7    1.10    4.00   1
  -6   6   7    4.50    4.30   1
   6  -6  -6  157.20    9.00   1
  -6   6   6  152.50    9.50   1
   6  -6  -5   23.90    5.40   1
  -6   6   5   14.10    3.30   1
   6  -6  -4  114.70    7.00   1
  -6   6   4  100.10    6.90   1
   6  -6  -3    2.90    3.10   1
  -6   6   3   -3.60    2.80   1
   6  -6  -2  315.80   10.00   1
  -6   6   2  310.40   12.70   1
   6  -6  -1  321.30    9.70   1
  -6   6   1  315.30   12.40   1
   6  -6   0   23.50    2.50   1
  -6   6   0   22.00    3.10   1
   6  -6   1  133.20    5.50   1
  -6   6  -1  138.50    6.80   1
   6  -6   2   48.80    3.30   1
  -6   6  -2   48.40    3.90   1
   6  -6   3  177.90    7.50   1
  -6   6  -3  178.90    9.40   1
   6  -6   4   -2.30    2.00   1
  -6   6  -4    0.00    2.10   1
   6  -6   5  435.90   15.50   1
  -6   6  -5  456.50   19.00   1
   6  -6   6   16.90    3.60   1
  -6   6  -6   21.70    5.20   1
   6  -5  -8   24.50    4.20   1
  -6   5   8   25.30    5.00   1
   6  -5  -7    4.90    2.70   1
  -6   5   7    5.60    3.40   1
   6  -5  -6   54.50    4.60   1
  -6   5   6   53.40    5.10   1
   6  -5  -5  172.70    8.10   1
  -6   5   5  165.10    8.60   1
   6  -5  -4  134.80    5.20   1
  -6   5   4  131.90    7.20   1
   6  -5  -3    0.70    1.40   1
  -6   5   3   -2.20    2.30   1
   6  -5  -2  141.10    4.40   1
  -6   5   2  131.20    6.50   1
   6  -5  -1    2.30    1.30   1
  -6   5   1    1.30    2.10   1
   6  -5   0   63.30    3.20   1
  -6   5   0   65.10    4.00   1
   6  -5   1    4.70    1.70   1
  -6   5  -1    7.50    2.70   1
   6  -5   2   13.90    1.90   1
  -6   5  -2   15.10    2.00   1
   6  -5   3  155.70    5.80   1
  -6   5  -3  167.70    7.20   1
   6  -5   4   53.60    3.30   1
  -6   5  -4   55.50    4.00   1
   6  -5   5   -2.30    1.90   1
  -6   5  -5    3.50    2.80   1
   6  -5   6   32.20    3.30   1
  -6   5  -6   32.00    3.70   1
   6  -5   7   33.70    4.70   1
  -6   5  -7   26.10    4.90   1
   6  -4  -8    3.30    2.20   1
  -6   4   8    5.80    3.20   1
   6  -4  -7   11.50    2.20   1
  -6   4   7   20.40    4.30   1
   6  -4  -6   27.70    2.60   1
  -6   4   6   24.50    3.70   1
   6  -4  -5    2.00    1.70   1
  -6   4   5    0.50    2.20   1
   6  -4  -4    5.20    2.10   1
  -6   4   4    5.20    2.90   1
   6  -4  -3  217.10    6.90   1
  -6   4   3  210.90    8.70   1
   6  -4  -2    1.20    1.00   1
  -6   4   2    0.70    1.90   1
   6  -4  -1    6.60    1.60   1
  -6   4   1    7.50    1.00   1
   6  -4   0  249.10    7.20   1
  -6   4   0  243.20    7.10   1
   6  -4   1  275.80    7.80   1
  -6   4  -1  285.80    7.60   1
   6  -4   2    2.70    1.30   1
  -6   4  -2    2.10    1.00   1
   6  -4   3    2.00    1.50   1
  -6   4  -3    2.50    1.10   1
   6  -4   4  540.60   14.00   1
  -6   4  -4  529.60   13.30   1
   6  -4   5   16.20    2.20   1
  -6   4  -5   12.30    1.60   1
   6  -4   6    5.70    1.80   1
  -6   4  -6    1.00    1.30   1
   6  -4   7    0.10    1.80   1
  -6   4  -7    1.30    1.40   1
   6  -4   8  191.20    9.90   1
  -6   4  -8  187.50    8.90   1
   6  -3  -8    1.70    2.20   1
  -6   3   8    3.30    3.40   1
   6  -3  -7    1.50    1.80   1
  -6   3   7   -3.50    2.40   1
   6  -3  -6   10.50    2.00   1
  -6   3   6    6.50    2.50   1
   6  -3  -5    4.30    1.70   1
  -6   3   5   -1.00    2.90   1
   6  -3  -4   38.70    2.50   1
  -6   3   4   36.30    3.60   1
   6  -3  -3   -0.90    1.30   1
  -6   3   3    2.70    2.00   1
   6  -3  -2    0.90    0.70   1
  -6   3   2    0.90    1.90   1
   6  -3  -1    7.50    1.30   1
  -6   3   1   10.00    2.40   1
   6  -3   0  136.10    4.40   1
  -6   3   0  140.60    5.80   1
   6  -3   1   31.40    1.90   1
  -6   3  -1   33.30    1.80   1
   6  -3   2   16.20    1.70   1
  -6   3  -2   18.40    1.40   1
   6  -3   3   37.00    2.30   1
  -6   3  -3   31.20    1.60   1
   6  -3   4   15.20    1.80   1
  -6   3  -4   17.10    1.60   1
   6  -3   5  145.90    5.10   1
  -6   3  -5  134.40    4.50   1
   6  -3   6  120.90    4.60   1
  -6   3  -6  129.80    4.50   1
   6  -3   7   -1.50    1.50   1
  -6   3  -7    2.60    1.30   1
   6  -3   8   22.00    3.60   1
  -6   3  -8   22.20    2.80   1
   6  -3   9   93.30    6.30   1
  -6   3  -9   91.70    5.70   1
   6  -2  -8  192.90    9.70   1
  -6   2   8  179.30   15.80   1
   6  -2  -7   28.50    2.60   1
  -6   2   7   24.10    3.90   1
   6  -2  -6   12.70    1.90   1
  -6   2   6   12.50    2.80   1
   6  -2  -5   50.80    2.90   1
  -6   2   5   45.60    4.10   1
   6  -2  -4  416.70   11.10   1
  -6   2   4  413.60   14.30   1
   6  -2  -3  420.70    9.80   1
  -6   2   3  415.40   13.80   1
   6  -2  -2   45.50    2.10   1
  -6   2   2   37.30    3.30   1
   6  -2  -1   52.00    2.30   1
  -6   2   1   56.20    3.40   1
   6  -2   0    1.70    1.10   1
  -6   2   0    1.20    1.80   1
   6  -2   1  491.10   11.40   1
  -6   2  -1  504.10   14.90   1
   6  -2   2    4.70    1.40   1
  -6   2  -2    3.00    0.70   1
   6  -2   3   85.40    3.20   1
  -6   2  -3   80.30    2.30   1
   6  -2   4  368.50    9.20   1
  -6   2  -4  375.20    8.10   1
   6  -2   5   89.30    3.40   1
  -6   2  -5   89.00    3.20   1
   6  -2   6    5.30    1.60   1
  -6   2  -6    2.80    1.30   1
   6  -2   7    5.80    1.50   1
  -6   2  -7    2.80    1.20   1
   6  -2   8  289.20    8.70   1
  -6   2  -8  296.80    8.70   1
   6  -2   9   28.80    3.70   1
  -6   2  -9   27.60    3.10   1
   6  -2  10   24.20    3.70   1
  -6   2 -10   17.90    2.80   1
   6  -1  -8   16.80    3.00   1
  -6   1   8   12.30    6.30   1
   6  -1  -7   13.10    2.10   1
  -6   1   7   10.40    3.10   1
   6  -1  -6   75.90    3.80   1
  -6   1   6   68.50    5.20   1
   6  -1  -5  109.40    4.20   1
  -6   1   5  108.70    9.10   1
   6  -1  -4  118.80    7.00   1
  -6   1   4  116.40    5.70   1
   6  -1  -3    8.20    1.30   1
  -6   1   3    7.30    1.90   1
   6  -1  -2   60.90    2.20   1
  -6   1   2   55.40    3.30   1
   6  -1  -1  208.40    5.40   1
  -6   1   1  185.70    7.00   1
   6  -1   0   66.80    2.40   1
  -6   1   0   63.90    3.40   1
   6  -1   1    9.00    1.10   1
  -6   1  -1    8.80    1.70   1
   6  -1   2  286.70    7.00   1
  -6   1  -2  270.30    6.90   1
   6  -1   3  121.10    3.60   1
  -6   1  -3  119.10    3.30   1
   6  -1   4    6.10    1.30   1
  -6   1  -4    5.20    0.80   1
   6  -1   5  206.10    5.60   1
  -6   1  -5  203.80    4.70   1
   6  -1   6   98.80    3.60   1
  -6   1  -6  102.00    3.30   1
   6  -1   7    8.10    1.70   1
  -6   1  -7    5.00    1.80   1
   6  -1   8   82.60    3.50   1
  -6   1  -8   84.00    3.30   1
   6  -1   9  281.50   10.50   1
  -6   1  -9  271.90    8.10   1
   6  -1  10    0.20    2.60   1
  -6   1 -10   -1.30    2.20   1
   6  -1  11   29.20    3.90   1
  -6   1 -11   33.20    5.10   1
   6   0  -8   10.50    2.80   1
  -6   0   8   19.60    6.20   1
   6   0  -7  127.30    5.80   1
  -6   0   7  136.40    7.30   1
   6   0  -6    3.50    1.40   1
  -6   0   6    4.80    2.20   1
   6   0  -5  187.30    6.40   1
  -6   0   5  199.80    8.90   1
   6   0  -4   58.60    3.80   1
  -6   0   4   68.40    4.40   1
   6   0  -3  243.80    6.90   1
  -6   0   3  251.10    6.80   1
   6   0  -2  188.00    4.70   1
  -6   0   2  182.40    5.00   1
   6   0  -1  134.80    3.30   1
  -6   0   1  134.60    5.30   1
   6   0   0  232.60    5.60   1
  -6   0   0  214.40    7.20   1
   6   0   1  271.50    6.30   1
  -6   0  -1  268.90    8.50   1
   6   0   2 1146.20   22.90   1
  -6   0  -2 1067.90   22.20   1
   6   0   3    2.60    1.00   1
  -6   0  -3    3.90    1.00   1
   6   0   4   73.40    2.70   1
  -6   0  -4   70.00    2.10   1
   6   0   5   23.60    1.90   1
  -6   0  -5   26.70    0.90   1
   6   0   6  788.10   17.30   1
  -6   0  -6  779.70   17.10   1
   6   0   7   26.70    1.80   1
  -6   0  -7   28.70    1.70   1
   6   0   8    8.10    1.30   1
  -6   0  -8    6.10    1.30   1
   6   0   9  553.40   14.40   1
  -6   0  -9  567.20   13.80   1
   6   0  10  186.00    8.50   1
  -6   0 -10  173.90    7.50   1
   6   0  11   -2.00    2.10   1
  -6   0 -11    0.80    4.20   1
   6   0  12   32.30    4.30   1
  -6   0 -12   27.90    5.10   1
   6   1  -8   60.10    5.10   1
  -6  -1   8   80.80    6.00   1
   6   1  -7    3.30    2.70   1
  -6  -1   7    0.90    2.90   1
   6   1  -6   34.00    2.60   1
  -6  -1   6   33.90    5.80   1
   6   1  -5   88.90    3.80   1
  -6  -1   5   92.90    5.40   1
   6   1  -4   15.60    1.60   1
  -6  -1   4   17.40    2.50   1
   6   1  -3    8.50    1.20   1
  -6  -1   3    8.40    1.40   1
   6   1  -2  107.60    3.00   1
  -6  -1   2  109.10    3.60   1
   6   1  -1  184.50    4.60   1
  -6  -1   1  193.00    5.10   1
   6   1   0  148.00    3.30   1
  -6  -1   0  148.30    4.00   1
   6   1   1    5.70    1.00   1
  -6  -1  -1    7.30    1.60   1
   6   1   2   80.60    2.60   1
  -6  -1  -2   82.30    2.40   1
   6   1   3   72.70    2.40   1
  -6  -1  -3   72.00    2.40   1
   6   1   4   70.50    2.50   1
  -6  -1  -4   72.60    2.10   1
   6   1   5  100.60    2.70   1
  -6  -1  -5   96.70    2.10   1
   6   1   6   26.60    1.50   1
  -6  -1  -6   27.50    1.40   1
   6   1   7   74.10    3.30   1
  -6  -1  -7   73.90    2.70   1
   6   1   8    5.10    1.20   1
  -6  -1  -8    5.70    1.00   1
   6   1   9  106.60    3.70   1
  -6  -1  -9  103.70    4.40   1
   6   1  10   -0.40    2.00   1
  -6  -1 -10    3.80    1.30   1
   6   1  11    4.00    2.20   1
  -6  -1 -11   -0.70    2.90   1
   6   1  12    3.80    2.40   1
  -6  -1 -12    2.30    3.60   1
   6   2  -8    1.30    2.50   1
  -6  -2   8   -0.40    3.30   1
   6   2  -7    5.80    2.20   1
  -6  -2   7    2.30    2.80   1
   6   2  -6  154.10    5.70   1
  -6  -2   6  146.40    5.70   1
   6   2  -5   78.70    3.70   1
  -6  -2   5   77.40    3.70   1
   6   2  -4  149.30    4.90   1
  -6  -2   4  148.20    4.90   1
   6   2  -3   58.20    3.30   1
  -6  -2   3   55.00    2.20   1
   6   2  -2  204.40    4.90   1
  -6  -2   2  219.90    5.60   1
   6   2  -1   54.40    2.00   1
  -6  -2   1   62.00    1.90   1
   6   2   0  114.60    3.00   1
  -6  -2   0  124.70    2.90   1
   6   2   1  251.50    4.90   1
  -6  -2  -1  248.20    5.30   1
   6   2   2   36.50    1.70   1
  -6  -2  -2   35.00    1.50   1
   6   2   3   14.30    1.20   1
  -6  -2  -3   13.90    1.00   1
   6   2   4  272.40    5.30   1
  -6  -2  -4  260.10    7.40   1
   6   2   5  208.70    4.50   1
  -6  -2  -5  203.20    5.80   1
   6   2   6    1.10    0.70   1
  -6  -2  -6    2.50    1.10   1
   6   2   7    0.70    0.90   1
  -6  -2  -7    1.20    1.30   1
   6   2   8   97.70    3.30   1
  -6  -2  -8   92.70    3.80   1
   6   2   9    0.70    1.10   1
  -6  -2  -9   -0.10    1.00   1
   6   2  10    2.30    1.10   1
  -6  -2 -10    1.40    1.20   1
   6   2  11   10.20    2.40   1
  -6  -2 -11   16.10    3.80   1
   6   2  12    6.80    2.60   1
  -6  -2 -12    1.40    3.30   1
   6   2  13   23.50    4.50   1
  -6  -2 -13   18.30    4.90   1
   6   3  -8   23.50    6.60   1
  -6  -3   8   25.10    3.80   1
   6   3  -7   37.00    6.30   1
  -6  -3   7   34.70    4.10   1
   6   3  -6   31.30    5.50   1
  -6  -3   6   28.20    3.30   1
   6   3  -5    1.40    1.20   1
  -6  -3   5   -0.50    1.20   1
   6   3  -4   33.20    2.20   1
  -6  -3   4   34.80    2.40   1
   6   3  -3    5.30    1.20   1
  -6  -3   3    5.20    1.40   1
   6   3  -2   64.00    2.50   1
  -6  -3   2   61.30    2.00   1
   6   3  -1    1.80    0.60   1
  -6  -3   1    2.80    0.60   1
   6   3   0  210.30    5.10   1
  -6  -3   0  211.50    4.80   1
   6   3   1   98.30    2.60   1
  -6  -3  -1   97.60    2.80   1
   6   3   2  132.50    3.10   1
  -6  -3  -2  135.60    3.40   1
   6   3   3  494.50   10.40   1
  -6  -3  -3  520.50   10.00   1
   6   3   4   62.30    1.60   1
  -6  -3  -4   67.30    2.80   1
   6   3   5    3.40    0.60   1
  -6  -3  -5    4.90    1.00   1
   6   3   6    6.80    0.70   1
  -6  -3  -6    8.00    0.80   1
   6   3   7 1090.50   17.50   1
  -6  -3  -7 1016.20   26.00   1
   6   3   8   24.60    1.30   1
  -6  -3  -8   22.70    1.90   1
   6   3   9   33.50    1.90   1
  -6  -3  -9   31.00    2.50   1
   6   3  10  249.30    9.00   1
  -6  -3 -10  262.40    9.40   1
   6   3  11  228.90    8.90   1
  -6  -3 -11  223.50   11.90   1
   6   3  12   13.70    2.50   1
  -6  -3 -12   16.30    4.30   1
   6   3  13    6.70    4.00   1
  -6  -3 -13    8.70    4.40   1
   6   4  -7  195.90   15.80   1
  -6  -4   7  180.50    9.60   1
   6   4  -6   77.70    8.90   1
  -6  -4   6   68.70    5.00   1
   6   4  -5  135.40    6.40   1
  -6  -4   5  119.90    5.10   1
   6   4  -4  469.30   15.80   1
  -6  -4   4  421.50   11.80   1
   6   4  -3   21.50    2.70   1
  -6  -4   3   17.00    2.00   1
   6   4  -2  134.90    5.40   1
  -6  -4   2  134.60    4.10   1
   6   4  -1   61.20    2.60   1
  -6  -4   1   62.20    2.20   1
   6   4   0 1016.90   25.30   1
  -6  -4   0 1032.10   18.70   1
   6   4   1  435.50   11.90   1
  -6  -4  -1  455.20    9.10   1
   6   4   2  109.60    3.80   1
  -6  -4  -2  117.50    3.10   1
   6   4   3   19.40    1.50   1
  -6  -4  -3   19.90    1.50   1
   6   4   4  171.80    4.30   1
  -6  -4  -4  186.40    4.90   1
   6   4   5  776.60   15.90   1
  -6  -4  -5  816.40   17.50   1
   6   4   6   88.40    2.00   1
  -6  -4  -6   81.70    2.70   1
   6   4   7  153.10    3.30   1
  -6  -4  -7  153.00    3.70   1
   6   4   8   54.50    1.70   1
  -6  -4  -8   57.40    2.60   1
   6   4   9  155.50    4.50   1
  -6  -4  -9  156.10    6.10   1
   6   4  10    0.30    1.00   1
  -6  -4 -10    0.00    1.50   1
   6   4  11   91.20    3.50   1
  -6  -4 -11   96.10    3.70   1
   6   4  12  105.30    8.10   1
  -6  -4 -12   99.00    8.10   1
   6   4  13    8.40    3.70   1
  -6  -4 -13    6.20    4.10   1
   6   5  -7   64.00    9.50   1
  -6  -5   7   68.50    7.50   1
   6   5  -6    7.80    4.50   1
  -6  -5   6   15.40    3.00   1
   6   5  -5   -2.30    5.20   1
  -6  -5   5   13.10    3.00   1
   6   5  -4    2.20    1.90   1
  -6  -5   4    0.20    1.50   1
   6   5  -3  207.50    8.30   1
  -6  -5   3  189.20    6.70   1
   6   5  -2  104.00    5.00   1
  -6  -5   2   98.70    4.50   1
   6   5  -1  259.30    8.50   1
  -6  -5   1  257.00    6.10   1
   6   5   0    3.20    1.20   1
  -6  -5   0    5.60    1.40   1
   6   5   1  161.70    5.30   1
  -6  -5  -1  168.90    4.90   1
   6   5   2    4.70    1.20   1
  -6  -5  -2    4.90    1.30   1
   6   5   3  245.30    7.30   1
  -6  -5  -3  258.80    7.90   1
   6   5   4   14.70    1.50   1
  -6  -5  -4   12.20    1.30   1
   6   5   5    2.00    1.30   1
  -6  -5  -5    1.10    0.90   1
   6   5   6  176.90    4.50   1
  -6  -5  -6  169.20    4.60   1
   6   5   7   16.00    0.90   1
  -6  -5  -7   13.20    1.10   1
   6   5   8   16.30    1.10   1
  -6  -5  -8   18.20    1.80   1
   6   5   9    0.10    0.90   1
  -6  -5  -9    0.60    1.20   1
   6   5  10   71.10    2.80   1
  -6  -5 -10   67.10    3.60   1
   6   5  11   -0.60    1.40   1
  -6  -5 -11   -0.40    1.60   1
   6   5  12   96.50    7.60   1
  -6  -5 -12  112.10    8.90   1
   6   5  13   35.70    5.20   1
  -6  -5 -13   33.10    6.60   1
   6   5  14   -0.30    3.40   1
  -6  -5 -14    6.90    4.60   1
   6   6  -6  -15.50    5.70   1
  -6  -6   6   -1.30    3.50   1
   6   6  -5    6.40    3.90   1
  -6  -6   5    2.10    3.10   1
   6   6  -4  102.70    7.60   1
  -6  -6   4  102.50    4.70   1
   6   6  -3  108.20    5.60   1
  -6  -6   3   94.20    5.10   1
   6   6  -2    1.10    1.50   1
  -6  -6   2    2.30    1.50   1
   6   6  -1   43.00    3.00   1
  -6  -6   1   47.60    2.50   1
   6   6   0   29.80    1.50   1
  -6  -6   0   27.10    1.90   1
   6   6   1   97.40    2.90   1
  -6  -6  -1   96.40    3.60   1
   6   6   2   17.10    0.90   1
  -6  -6  -2   11.20    1.90   1
   6   6   3  128.70    4.50   1
  -6  -6  -3  134.20    4.90   1
   6   6   4   19.80    1.90   1
  -6  -6  -4   20.50    1.70   1
   6   6   5   46.50    1.70   1
  -6  -6  -5   39.60    2.00   1
   6   6   6  345.00    6.80   1
  -6  -6  -6  317.40    7.90   1
   6   6   7   95.60    2.50   1
  -6  -6  -7   92.20    3.10   1
   6   6   8   15.40    1.00   1
  -6  -6  -8   14.40    1.20   1
   6   6   9    7.80    0.90   1
  -6  -6  -9    9.80    1.80   1
   6   6  10  374.20    9.60   1
  -6  -6 -10  373.10   12.70   1
   6   6  11   15.50    1.90   1
  -6  -6 -11   11.90    1.90   1
   6   6  12    0.30    1.60   1
  -6  -6 -12    4.90    2.00   1
   6   6  13   22.50    4.00   1
  -6  -6 -13   17.30    4.70   1
   6   6  14  130.40   10.90   1
  -6  -6 -14  126.60   12.70   1
   6   7  -5    0.80    3.90   1
  -6  -7   5    6.70    4.00   1
   6   7  -4   14.10    4.40   1
  -6  -7   4   12.40    4.00   1
   6   7  -3   78.00    4.80   1
  -6  -7   3   73.40    4.50   1
   6   7  -2   26.70    1.80   1
  -6  -7   2   26.30    2.90   1
   6   7  -1   46.40    2.40   1
  -6  -7   1   46.80    2.60   1
   6   7   0    3.10    0.90   1
  -6  -7   0    9.00    1.90   1
   6   7   1  163.90    5.70   1
  -6  -7  -1  156.50    6.00   1
   6   7   2  143.00    4.00   1
  -6  -7  -2  139.80    5.50   1
   6   7   3   19.30    1.20   1
  -6  -7  -3   19.30    2.50   1
   6   7   4   15.80    1.30   1
  -6  -7  -4   14.20    1.90   1
   6   7   5  171.00    5.80   1
  -6  -7  -5  175.20    5.30   1
   6   7   6  407.30   11.40   1
  -6  -7  -6  390.90    9.30   1
   6   7   7   10.60    0.90   1
  -6  -7  -7   11.00    1.30   1
   6   7   8   22.80    1.60   1
  -6  -7  -8   24.80    1.90   1
   6   7   9    0.20    1.30   1
  -6  -7  -9    0.20    1.40   1
   6   7  10  168.60    6.70   1
  -6  -7 -10  172.90    7.10   1
   6   7  11    1.10    1.40   1
  -6  -7 -11    2.20    1.60   1
   6   7  12  109.40    5.30   1
  -6  -7 -12  108.70    5.80   1
   6   7  13   31.50    4.70   1
  -6  -7 -13   27.80    5.20   1
   6   7  14   14.50    5.30   1
  -6  -7 -14    2.80    4.20   1
   6   8  -4   15.40    4.40   1
  -6  -8   4   12.80    4.60   1
   6   8  -3   -0.90    1.50   1
  -6  -8   3   -0.30    2.10   1
   6   8  -2  473.50   12.90   1
  -6  -8   2  455.80   17.10   1
   6   8  -1  145.30    5.10   1
  -6  -8   1  143.40    6.70   1
   6   8   0   59.60    2.80   1
  -6  -8   0   63.00    3.90   1
   6   8   1   36.50    2.00   1
  -6  -8  -1   34.60    2.80   1
   6   8   2  296.00    8.30   1
  -6  -8  -2  300.00   10.50   1
   6   8   3  242.50    6.60   1
  -6  -8  -3  238.50    8.50   1
   6   8   4   61.50    2.50   1
  -6  -8  -4   63.50    3.50   1
   6   8   5  117.70    4.80   1
  -6  -8  -5  126.80    4.40   1
   6   8   6    5.60    1.50   1
  -6  -8  -6    4.10    1.30   1
   6   8   7    2.30    1.40   1
  -6  -8  -7    2.50    1.40   1
   6   8   8   48.70    3.00   1
  -6  -8  -8   45.70    2.00   1
   6   8   9   50.00    3.10   1
  -6  -8  -9   53.30    2.20   1
   6   8  10   88.80    4.30   1
  -6  -8 -10   96.20    3.50   1
   6   8  11   16.20    2.40   1
  -6  -8 -11   12.10    1.50   1
   6   8  12   10.00    2.00   1
  -6  -8 -12    9.80    2.10   1
   6   8  13    3.20    3.00   1
  -6  -8 -13    3.00    5.00   1
   6   8  14    6.00    4.90   1
  -6  -8 -14   10.10    4.60   1
   6   9  -3  128.30   10.90   1
  -6  -9   3  111.50   10.60   1
   6   9  -2   25.80    2.50   1
  -6  -9   2   24.80    3.30   1
   6   9  -1    0.50    1.40   1
  -6  -9   1    3.90    2.50   1
   6   9   0   11.80    1.70   1
  -6  -9   0   17.50    3.20   1
   6   9   1  174.40    5.90   1
  -6  -9  -1  166.40    7.70   1
   6   9   2   82.40    3.40   1
  -6  -9  -2   83.40    4.90   1
   6   9   3   19.60    1.80   1
  -6  -9  -3   29.70    3.10   1
   6   9   4  300.30    8.00   1
  -6  -9  -4  292.00   10.60   1
   6   9   5   19.60    2.70   1
  -6  -9  -5   16.80    2.60   1
   6   9   6  133.70    5.60   1
  -6  -9  -6  139.10    6.20   1
   6   9   7  123.40    5.40   1
  -6  -9  -7  122.50    5.70   1
   6   9   8  251.30    9.40   1
  -6  -9  -8  240.30    9.20   1
   6   9   9    3.60    1.90   1
  -6  -9  -9    5.20    1.40   1
   6   9  10   92.40    4.90   1
  -6  -9 -10  105.30    5.40   1
   6   9  11  533.20   18.20   1
  -6  -9 -11  534.40   18.00   1
   6   9  12   24.40    2.90   1
  -6  -9 -12   21.90    2.90   1
   6   9  13   28.00    4.40   1
  -6  -9 -13   16.70    4.90   1
   6  10  -2    7.30    2.50   1
  -6 -10   2    9.20    2.90   1
   6  10  -1   96.30    6.30   1
  -6 -10   1  113.10    7.20   1
   6  10   0   46.00    4.00   1
  -6 -10   0   34.70    3.80   1
   6  10   1  115.30    4.70   1
  -6 -10  -1  105.80    6.10   1
   6  10   2   51.80    2.80   1
  -6 -10  -2   43.00    3.80   1
   6  10   3  130.80    4.80   1
  -6 -10  -3  125.70    6.50   1
   6  10   4  251.20    9.10   1
  -6 -10  -4  265.10   10.30   1
   6  10   5    1.40    2.20   1
  -6 -10  -5    9.20    5.00   1
   6  10   6   68.70    4.10   1
  -6 -10  -6   74.20    4.60   1
   6  10   7   35.60    2.90   1
  -6 -10  -7   33.70    3.10   1
   6  10   8  238.50    9.30   1
  -6 -10  -8  232.30    9.20   1
   6  10   9   72.20    4.40   1
  -6 -10  -9   61.80    3.50   1
   6  10  10   25.60    3.10   1
  -6 -10 -10   33.80    3.20   1
   6  10  11    1.50    1.90   1
  -6 -10 -11    2.10    2.20   1
   6  10  12   57.90    4.30   1
  -6 -10 -12   52.70    4.50   1
   6  10  13    1.60    2.30   1
  -6 -10 -13    3.20    2.40   1
   6  11  -1   51.20    4.70   1
  -6 -11   1   62.30    5.70   1
   6  11   0   11.90    3.20   1
  -6 -11   0   15.70    3.80   1
   6  11   1   28.40    3.20   1
  -6 -11  -1   23.50    3.50   1
   6  11   2    0.30    1.50   1
  -6 -11  -2    2.90    2.50   1
   6  11   3  130.90    5.20   1
  -6 -11  -3  142.50    7.50   1
   6  11   4   51.10    3.00   1
  -6 -11  -4   49.60    4.10   1
   6  11   5   37.60    3.20   1
  -6 -11  -5   42.10    3.70   1
   6  11   6   23.00    3.20   1
  -6 -11  -6   28.60    3.50   1
   6  11   7   44.50    3.80   1
  -6 -11  -7   46.20    3.90   1
   6  11   8   12.80    2.70   1
  -6 -11  -8   12.90    2.90   1
   6  11   9    2.60    2.40   1
  -6 -11  -9    1.00    1.60   1
   6  11  10   53.20    4.40   1
  -6 -11 -10   53.70    4.60   1
   6  11  11   13.80    3.10   1
  -6 -11 -11    7.20    2.90   1
   6  11  12    7.60    2.90   1
  -6 -11 -12    6.50    3.10   1
   6  12   1   46.70    7.40   1
  -6 -12  -1   41.50    4.00   1
   6  12   2   31.10    5.10   1
  -6 -12  -2   24.10    2.80   1
   6  12   3    7.80    3.90   1
  -6 -12  -3    1.90    2.20   1
   6  12   4    2.70    3.30   1
  -6 -12  -4    4.10    2.70   1
   6  12   5   10.80    5.00   1
  -6 -12  -5    7.80    3.80   1
   6  12   6    5.00    3.70   1
  -6 -12  -6    8.10    3.20   1
   6  12   7   11.60    4.10   1
  -6 -12  -7   12.90    3.00   1
   6  12   8   -1.30    2.30   1
  -6 -12  -8    3.70    2.90   1
   6  12   9   29.80    3.90   1
  -6 -12  -9   34.00    3.20   1
   6  12  10   -1.60    3.50   1
  -6 -12 -10   -0.20    2.80   1
   6  12  11    8.10    3.20   1
  -6 -12 -11   10.70    3.90   1
   6  13   4   78.70    8.70   1
  -6 -13  -4   90.90    6.90   1
   6  13   5  124.50   11.30   1
  -6 -13  -5  135.10    8.40   1
   6  13   6   16.50    5.00   1
  -6 -13  -6   23.80    3.90   1
   6  13   7   92.20    9.00   1
  -6 -13  -7  101.60    6.90   1
  -6 -13  -8   35.30    4.70   1
   6  13   9  326.10   20.90   1
  -6 -13  -9  342.00   15.10   1
   7  -7  -2   17.50    5.80   1
  -7   7   2   20.10    7.20   1
   7  -7  -1   68.30    8.40   1
   7  -7   0   12.40    3.60   1
  -7   7   0    6.40    4.00   1
   7  -6  -4    5.10    3.00   1
  -7   6   4   -0.10    3.00   1
   7  -6  -3   -0.30    2.80   1
  -7   6   3    1.60    2.90   1
   7  -6  -2    4.00    2.90   1
  -7   6   2    2.30    2.90   1
   7  -6  -1   10.40    3.20   1
  -7   6   1    4.10    2.70   1
   7  -6   0    1.90    1.90   1
  -7   6   0    2.30    2.60   1
   7  -6   1   10.20    2.40   1
  -7   6  -1    8.40    2.60   1
   7  -6   2   25.90    2.80   1
  -7   6  -2   23.50    3.50   1
   7  -6   3   15.30    2.90   1
  -7   6  -3   23.70    3.40   1
   7  -6   4    6.90    2.50   1
  -7   6  -4    8.10    2.90   1
   7  -5  -6    3.50    2.90   1
  -7   5   6    6.60    3.80   1
   7  -5  -5   50.80    5.00   1
  -7   5   5   48.10    5.30   1
   7  -5  -4    3.40    4.10   1
  -7   5   4    7.40    3.10   1
   7  -5  -3   -0.70    2.60   1
  -7   5   3    0.60    2.80   1
   7  -5  -2   63.00    4.90   1
  -7   5   2   66.40    5.30   1
   7  -5  -1  112.00    6.50   1
  -7   5   1  117.40    6.90   1
   7  -5   0    7.40    1.80   1
  -7   5   0    9.60    2.90   1
   7  -5   1    4.20    2.00   1
  -7   5  -1    0.30    2.60   1
   7  -5   2  167.30    6.90   1
  -7   5  -2  181.00    7.50   1
   7  -5   3   23.40    2.60   1
  -7   5  -3   23.70    3.30   1
   7  -5   4    0.40    2.90   1
  -7   5  -4    5.10    3.20   1
   7  -5   5    1.80    2.30   1
  -7   5  -5    1.50    2.40   1
   7  -5   6  181.60    8.20   1
  -7   5  -6  170.30    9.40   1
   7  -4  -6   -1.70    2.60   1
  -7   4   6   -1.60    3.80   1
   7  -4  -5  104.30    6.50   1
  -7   4   5   79.00    6.40   1
   7  -4  -4   41.90    3.10   1
  -7   4   4   40.70    4.30   1
   7  -4  -3   47.30    3.20   1
  -7   4   3   45.70    4.20   1
   7  -4  -2  148.50    5.80   1
  -7   4   2  166.30    8.20   1
   7  -4  -1   -0.20    1.50   1
  -7   4   1   -0.30    2.20   1
   7  -4   0   34.80    2.50   1
  -7   4   0   32.70    4.00   1
   7  -4   1   12.60    2.10   1
  -7   4  -1   17.90    3.50   1
   7  -4   2  240.30    7.80   1
  -7   4  -2  240.00    8.40   1
   7  -4   3   55.10    3.40   1
  -7   4  -3   63.80    3.60   1
   7  -4   4   62.10    3.60   1
  -7   4  -4   52.70    4.20   1
   7  -4   5   15.80    2.70   1
  -7   4  -5   16.80    3.10   1
   7  -4   6    5.60    2.00   1
  -7   4  -6    4.70    2.10   1
   7  -4   7   85.70    4.90   1
  -7   4  -7   91.10    6.00   1
   7  -3  -7   68.20    5.10   1
  -7   3   7   51.30    5.90   1
   7  -3  -6   80.30    4.80   1
  -7   3   6   85.20    6.70   1
   7  -3  -5  144.00    6.50   1
  -7   3   5  156.20    9.00   1
   7  -3  -4   54.10    3.40   1
  -7   3   4   63.40    5.60   1
   7  -3  -3   52.80    3.20   1
  -7   3   3   48.10    4.20   1
   7  -3  -2   18.00    2.30   1
  -7   3   2   13.10    3.10   1
   7  -3  -1   82.90    3.70   1
  -7   3   1   87.20    5.10   1
   7  -3   0   81.30    3.70   1
  -7   3   0   88.40    5.00   1
   7  -3   1   11.20    2.00   1
  -7   3  -1    8.70    1.30   1
   7  -3   2  101.40    5.10   1
  -7   3  -2  106.90    3.60   1
   7  -3   3    0.70    1.50   1
  -7   3  -3    3.30    1.30   1
   7  -3   4    0.00    1.90   1
  -7   3  -4    4.80    1.30   1
   7  -3   5    2.60    1.80   1
  -7   3  -5    3.20    1.20   1
   7  -3   6  175.60    6.50   1
  -7   3  -6  170.70    5.90   1
   7  -3   7    1.20    2.10   1
  -7   3  -7   -0.40    1.50   1
   7  -3   8   16.80    3.30   1
  -7   3  -8   15.10    2.40   1
   7  -2  -7   66.20    6.00   1
  -7   2   7   68.90    6.20   1
   7  -2  -6   23.10    2.90   1
  -7   2   6   25.20    4.30   1
   7  -2  -5   -0.10    2.10   1
  -7   2   5    1.00    2.60   1
   7  -2  -4  102.40    4.40   1
  -7   2   4   93.70    5.90   1
   7  -2  -3   20.30    2.10   1
  -7   2   3   21.90    3.10   1
   7  -2  -2    7.20    1.90   1
  -7   2   2    2.30    2.00   1
   7  -2  -1   36.70    2.10   1
  -7   2   1   38.00    3.30   1
   7  -2   0  301.50    8.30   1
  -7   2   0  285.50   10.50   1
   7  -2   1   20.40    1.80   1
  -7   2  -1   23.10    2.90   1
   7  -2   2    8.80    1.50   1
  -7   2  -2    7.50    1.10   1
   7  -2   3  503.40   12.60   1
  -7   2  -3  497.20   11.00   1
   7  -2   4  175.90    5.50   1
  -7   2  -4  161.40    4.90   1
   7  -2   5    4.20    1.70   1
  -7   2  -5    9.40    1.50   1
   7  -2   6    2.90    1.60   1
  -7   2  -6    1.30    1.20   1
   7  -2   7  460.00   12.40   1
  -7   2  -7  451.40   12.10   1
   7  -2   8    7.80    2.00   1
  -7   2  -8    9.50    1.90   1
   7  -2   9   32.70    4.30   1
  -7   2  -9   28.60    3.20   1
   7  -1  -7   62.40    5.20   1
  -7   1   7   71.50    9.60   1
   7  -1  -6   42.20    3.30   1
  -7   1   6   47.70    5.10   1
   7  -1  -5   48.10    3.20   1
  -7   1   5   54.50    4.90   1
   7  -1  -4   56.50    3.30   1
  -7   1   4   59.30    4.80   1
   7  -1  -3  105.50    4.30   1
  -7   1   3   95.30    5.40   1
   7  -1  -2  128.80    6.20   1
  -7   1   2  132.90    6.40   1
   7  -1  -1   24.50    1.70   1
  -7   1   1   20.30    2.60   1
   7  -1   0  145.30    4.50   1
  -7   1   0  135.60    5.90   1
   7  -1   1   25.90    1.70   1
  -7   1  -1   28.20    2.60   1
   7  -1   2   70.50    2.90   1
  -7   1  -2   67.00    3.00   1
   7  -1   3    0.40    1.30   1
  -7   1  -3    2.40    1.20   1
   7  -1   4  322.90    8.60   1
  -7   1  -4  321.00    7.70   1
   7  -1   5   50.40    2.60   1
  -7   1  -5   57.30    2.50   1
   7  -1   6    6.60    1.50   1
  -7   1  -6    9.70    1.40   1
   7  -1   7   79.50    3.60   1
  -7   1  -7   76.90    4.00   1
   7  -1   8   58.60    3.20   1
  -7   1  -8   54.60    2.80   1
   7  -1   9   -6.60    3.50   1
  -7   1  -9    4.30    2.10   1
   7  -1  10   16.20    3.20   1
  -7   1 -10   13.60    2.60   1
   7   0  -7    0.40    2.00   1
  -7   0   7    3.70    5.70   1
   7   0  -6   23.90    2.90   1
  -7   0   6   21.30    6.50   1
   7   0  -5   22.70    2.30   1
  -7   0   5   15.20    3.10   1
   7   0  -4   28.90    2.20   1
  -7   0   4   27.30    3.10   1
   7   0  -3  103.10    5.60   1
  -7   0   3  107.30    5.90   1
   7   0  -2    5.60    0.90   1
  -7   0   2    3.20    2.00   1
   7   0  -1   41.50    1.90   1
  -7   0   1   45.30    3.30   1
   7   0   0   71.70    2.70   1
  -7   0   0   69.40    3.90   1
   7   0   1   53.60    2.30   1
  -7   0  -1   51.40    3.40   1
   7   0   2    1.10    1.40   1
  -7   0  -2    2.10    1.00   1
   7   0   3   24.20    1.80   1
  -7   0  -3   25.80    1.60   1
   7   0   4   22.50    1.70   1
  -7   0  -4   25.00    1.30   1
   7   0   5    0.00    1.10   1
  -7   0  -5    0.40    0.60   1
   7   0   6    2.70    1.20   1
  -7   0  -6    0.20    0.80   1
   7   0   7  179.10    5.90   1
  -7   0  -7  168.30    5.40   1
   7   0   8   11.00    1.70   1
  -7   0  -8    7.80    1.60   1
   7   0   9    0.00    1.60   1
  -7   0  -9   -0.80    1.40   1
   7   0  10   -1.30    2.20   1
  -7   0 -10   -0.20    2.60   1
   7   0  11   43.20    4.70   1
  -7   0 -11   43.10    6.30   1
   7   1  -7   39.10    3.90   1
  -7  -1   7   39.00    4.90   1
   7   1  -6   38.90    3.10   1
  -7  -1   6   44.10    4.40   1
   7   1  -5    2.90    1.50   1
  -7  -1   5    0.20    2.10   1
   7   1  -4   38.30    2.50   1
  -7  -1   4   46.20    3.80   1
   7   1  -3   31.20    2.10   1
  -7  -1   3   33.70    3.20   1
   7   1  -2  178.40    5.30   1
  -7  -1   2  173.30    7.30   1
   7   1  -1    9.70    1.10   1
  -7  -1   1   10.30    2.00   1
   7   1   0   15.40    1.10   1
  -7  -1   0   17.10    1.10   1
   7   1   1   76.20    2.90   1
  -7  -1  -1   80.60    2.20   1
   7   1   2   41.80    2.10   1
  -7  -1  -2   41.90    1.80   1
   7   1   3  103.50    3.50   1
  -7  -1  -3   99.20    3.00   1
   7   1   4   21.60    1.60   1
  -7  -1  -4   22.50    1.10   1
   7   1   5  161.40    4.80   1
  -7  -1  -5  167.30    3.70   1
   7   1   6    0.30    1.10   1
  -7  -1  -6    0.70    0.70   1
   7   1   7    7.30    1.30   1
  -7  -1  -7   10.70    1.20   1
   7   1   8   80.30    3.50   1
  -7  -1  -8   84.40    4.10   1
   7   1   9   -1.50    1.20   1
  -7  -1  -9    0.30    1.30   1
   7   1  10    6.10    2.50   1
  -7  -1 -10    7.90    4.10   1
   7   1  11    4.80    2.90   1
  -7  -1 -11    4.30    3.30   1
   7   1  12   30.90    3.80   1
  -7  -1 -12   39.60    7.40   1
   7   2  -7   10.60    2.90   1
  -7  -2   7   15.00    3.30   1
   7   2  -6  119.40    7.20   1
  -7  -2   6  115.50    7.20   1
   7   2  -5   26.00    2.30   1
  -7  -2   5   27.20    2.60   1
   7   2  -4   95.50    5.60   1
  -7  -2   4   91.50    4.20   1
   7   2  -3   91.30    3.80   1
  -7  -2   3   90.40    4.00   1
   7   2  -2  125.70    4.50   1
  -7  -2   2  128.90    4.70   1
   7   2  -1  382.60    9.40   1
  -7  -2   1  370.50    9.90   1
   7   2   0   45.10    1.80   1
  -7  -2   0   47.10    2.40   1
   7   2   1  548.60   12.60   1
  -7  -2  -1  539.30   12.80   1
   7   2   2   16.50    1.00   1
  -7  -2  -2   13.20    1.60   1
   7   2   3  133.80    4.90   1
  -7  -2  -3  143.50    3.70   1
   7   2   4   45.00    2.50   1
  -7  -2  -4   44.50    2.20   1
   7   2   5  652.10   14.30   1
  -7  -2  -5  630.50   17.40   1
   7   2   6  300.70    7.70   1
  -7  -2  -6  300.10    5.80   1
   7   2   7    5.50    1.40   1
  -7  -2  -7    6.60    1.50   1
   7   2   8  278.20    7.80   1
  -7  -2  -8  286.10    9.50   1
   7   2   9   76.90    3.40   1
  -7  -2  -9   76.50    4.20   1
   7   2  10   93.50    5.00   1
  -7  -2 -10   95.00    5.00   1
   7   2  11   97.80    5.80   1
  -7  -2 -11   93.70    8.20   1
   7   2  12  352.60   15.10   1
  -7  -2 -12  383.50   22.60   1
   7   3  -6  119.50   11.50   1
  -7  -3   6  122.80    7.60   1
   7   3  -5   14.70    2.20   1
  -7  -3   5   13.30    2.10   1
   7   3  -4   46.40    3.70   1
  -7  -3   4   46.90    3.10   1
   7   3  -3   22.20    1.90   1
  -7  -3   3   22.20    2.40   1
   7   3  -2  234.20    7.00   1
  -7  -3   2  228.60    7.20   1
   7   3  -1  118.00    3.90   1
  -7  -3   1  117.30    3.60   1
   7   3   0    1.40    0.60   1
  -7  -3   0    0.40    1.00   1
   7   3   1   10.60    0.80   1
  -7  -3  -1   11.20    1.10   1
   7   3   2   89.30    2.60   1
  -7  -3  -2   84.90    3.30   1
   7   3   3  321.30    5.80   1
  -7  -3  -3  299.10    9.50   1
   7   3   4   13.70    0.80   1
  -7  -3  -4   14.90    1.60   1
   7   3   5    4.30    0.60   1
  -7  -3  -5    4.90    1.00   1
   7   3   6   17.30    1.30   1
  -7  -3  -6   15.70    1.50   1
   7   3   7   27.90    2.50   1
  -7  -3  -7   26.00    2.30   1
   7   3   8    5.50    1.50   1
  -7  -3  -8    5.40    1.20   1
   7   3   9    2.60    1.30   1
  -7  -3  -9    0.60    1.50   1
   7   3  10   67.50    3.20   1
  -7  -3 -10   66.10    3.70   1
   7   3  11   -0.20    1.90   1
  -7  -3 -11   -0.30    3.00   1
   7   3  12    9.50    4.90   1
  -7  -3 -12    3.40    4.90   1
   7   3  13    7.30    4.30   1
  -7  -3 -13   16.40    4.80   1
   7   4  -6  -10.80    6.30   1
  -7  -4   6    1.90    2.70   1
   7   4  -5   16.10    4.00   1
  -7  -4   5   18.20    3.50   1
   7   4  -4   10.60    2.60   1
  -7  -4   4    8.80    2.00   1
   7   4  -3  151.10    6.80   1
  -7  -4   3  142.80    5.40   1
   7   4  -2   33.60    3.00   1
  -7  -4   2   30.30    2.30   1
   7   4  -1   76.20    3.30   1
  -7  -4   1   69.20    3.30   1
   7   4   0   27.10    2.10   1
  -7  -4   0   28.20    1.70   1
   7   4   1  138.80    5.20   1
  -7  -4  -1  139.60    4.70   1
   7   4   2   21.10    1.80   1
  -7  -4  -2   26.80    1.80   1
   7   4   3   39.20    3.40   1
  -7  -4  -3   42.30    3.00   1
   7   4   4  207.70    5.50   1
  -7  -4  -4  210.90    7.00   1
   7   4   5    0.90    1.00   1
  -7  -4  -5    2.60    1.40   1
   7   4   6    1.60    0.40   1
  -7  -4  -6    2.20    1.00   1
   7   4   7   62.50    2.60   1
  -7  -4  -7   64.60    2.60   1
   7   4   8  251.80    7.00   1
  -7  -4  -8  265.90    9.10   1
   7   4   9   17.70    2.10   1
  -7  -4  -9   17.90    2.00   1
   7   4  10   10.40    1.70   1
  -7  -4 -10   10.30    1.80   1
   7   4  11   63.20    3.20   1
  -7  -4 -11   75.80    4.20   1
   7   4  12    6.60    3.30   1
  -7  -4 -12    5.10    3.70   1
   7   4  13   28.40    5.30   1
  -7  -4 -13   35.40    5.70   1
   7   5  -6   57.20    8.20   1
  -7  -5   6   52.60    7.00   1
   7   5  -5   40.60    6.90   1
  -7  -5   5   27.90    3.60   1
   7   5  -4    4.10    2.60   1
  -7  -5   4    1.00    1.70   1
   7   5  -3    8.70    2.60   1
  -7  -5   3    0.80    2.00   1
   7   5  -2   30.90    3.00   1
  -7  -5   2   33.50    2.60   1
   7   5  -1    3.40    2.00   1
  -7  -5   1    4.30    1.60   1
   7   5   0    3.60    1.50   1
  -7  -5   0    5.30    1.70   1
   7   5   1   49.70    2.80   1
  -7  -5  -1   52.70    2.70   1
   7   5   2   17.00    1.80   1
  -7  -5  -2   17.50    1.70   1
   7   5   3   11.70    1.60   1
  -7  -5  -3    9.40    1.50   1
   7   5   4   -1.40    1.10   1
  -7  -5  -4    1.40    1.20   1
   7   5   5   27.30    2.20   1
  -7  -5  -5   30.90    2.10   1
   7   5   6   49.10    2.10   1
  -7  -5  -6   49.60    2.80   1
   7   5   7   42.00    2.00   1
  -7  -5  -7   40.20    2.40   1
   7   5   8  161.80    5.00   1
  -7  -5  -8  162.00    6.20   1
   7   5   9   56.30    2.60   1
  -7  -5  -9   53.80    3.40   1
   7   5  10   27.60    1.90   1
  -7  -5 -10   27.00    2.50   1
   7   5  11    7.70    1.80   1
  -7  -5 -11    9.70    2.10   1
   7   5  12  105.30    9.20   1
  -7  -5 -12  115.10   10.10   1
   7   5  13   88.70    8.70   1
  -7  -5 -13  100.20    9.60   1
   7   6  -5  150.20   12.80   1
  -7  -6   5  130.80   11.50   1
   7   6  -4    6.50    2.60   1
  -7  -6   4   11.50    3.60   1
   7   6  -3  155.30    7.50   1
  -7  -6   3  151.50    6.00   1
   7   6  -2   17.90    2.70   1
  -7  -6   2   24.10    2.40   1
   7   6  -1  212.90    8.90   1
  -7  -6   1  213.00    7.00   1
   7   6   0   67.50    3.80   1
  -7  -6   0   65.70    3.10   1
   7   6   1    6.20    1.60   1
  -7  -6  -1    7.50    1.70   1
   7   6   2   75.70    3.60   1
  -7  -6  -2   83.60    4.00   1
   7   6   3  115.30    4.70   1
  -7  -6  -3  125.90    5.10   1
   7   6   4  532.90   15.00   1
  -7  -6  -4  576.20   16.90   1
   7   6   5   33.50    2.30   1
  -7  -6  -5   35.30    2.50   1
   7   6   6   30.20    2.40   1
  -7  -6  -6   29.90    2.50   1
   7   6   7    3.60    1.40   1
  -7  -6  -7    3.70    1.30   1
   7   6   8  278.20   12.90   1
  -7  -6  -8  298.50    8.90   1
   7   6   9   35.90    2.00   1
  -7  -6  -9   40.90    2.90   1
   7   6  10   26.40    1.80   1
  -7  -6 -10   29.00    2.60   1
   7   6  11   90.90    4.70   1
  -7  -6 -11   99.40    5.30   1
   7   6  12    6.40    2.20   1
  -7  -6 -12    4.60    1.90   1
   7   6  13   16.00    3.90   1
  -7  -6 -13   17.60    5.00   1
   7   7  -4   59.20    7.60   1
  -7  -7   4   48.90    6.50   1
   7   7  -3   96.20    6.40   1
  -7  -7   3   87.80    5.60   1
   7   7  -2   64.80    4.50   1
  -7  -7   2   65.10    3.70   1
   7   7  -1   -0.40    1.90   1
  -7  -7   1   -0.60    1.50   1
   7   7   0   96.80    5.00   1
  -7  -7   0  101.40    4.40   1
   7   7   1   35.80    2.80   1
  -7  -7  -1   38.90    3.10   1
   7   7   2  169.70    6.60   1
  -7  -7  -2  178.80    7.00   1
   7   7   3   -0.60    1.40   1
  -7  -7  -3    1.30    1.50   1
   7   7   4    4.60    1.80   1
  -7  -7  -4    0.90    1.50   1
   7   7   5   93.70    4.30   1
  -7  -7  -5  100.00    4.70   1
   7   7   6   26.70    2.20   1
  -7  -7  -6   28.30    2.40   1
   7   7   7    4.20    1.50   1
  -7  -7  -7    4.50    1.50   1
   7   7   8    1.30    1.40   1
  -7  -7  -8    0.50    1.20   1
   7   7   9  195.20    7.20   1
  -7  -7  -9  200.90    6.10   1
   7   7  10   21.00    2.30   1
  -7  -7 -10   22.00    2.50   1
   7   7  11   43.20    3.20   1
  -7  -7 -11   46.20    3.60   1
   7   7  12   47.90    3.90   1
  -7  -7 -12   44.10    3.70   1
   7   7  13   15.70    5.30   1
  -7  -7 -13   18.60    5.20   1
   7   8  -3    1.30    5.50   1
  -7  -8   3    6.00    3.90   1
   7   8  -2   40.80    3.90   1
  -7  -8   2   28.90    3.50   1
   7   8  -1  103.70    6.00   1
  -7  -8   1  102.50    5.90   1
   7   8   0  264.50   10.90   1
  -7  -8   0  254.10   10.40   1
   7   8   1   22.50    2.60   1
  -7  -8  -1   24.30    3.00   1
   7   8   2  213.50    8.20   1
  -7  -8  -2  219.60    9.20   1
   7   8   3   35.00    2.90   1
  -7  -8  -3   34.80    3.00   1
   7   8   4  189.40    7.30   1
  -7  -8  -4  200.20    8.00   1
   7   8   5  200.00    7.40   1
  -7  -8  -5  203.20    8.20   1
   7   8   6  219.60    8.00   1
  -7  -8  -6  219.60    8.40   1
   7   8   7  114.90    5.10   1
  -7  -8  -7  116.90    5.40   1
   7   8   8    1.80    1.70   1
  -7  -8  -8    1.30    1.50   1
   7   8   9  451.40   14.60   1
  -7  -8  -9  449.00   11.90   1
   7   8  10   -2.00    1.70   1
  -7  -8 -10    0.60    1.80   1
   7   8  11   48.60    3.70   1
  -7  -8 -11   52.20    3.90   1
   7   8  12   30.80    3.20   1
  -7  -8 -12   28.40    3.30   1
   7   8  13  242.80   16.20   1
  -7  -8 -13  249.50   18.10   1
   7   9  -2    2.00    2.50   1
  -7  -9   2    5.70    2.90   1
   7   9  -1   53.30    5.00   1
  -7  -9   1   40.30    4.20   1
   7   9   0    0.40    2.90   1
  -7  -9   0    2.40    2.60   1
   7   9   1    7.70    2.30   1
  -7  -9  -1    5.00    2.30   1
   7   9   2   35.20    3.40   1
  -7  -9  -2   29.90    3.10   1
   7   9   3    1.20    2.10   1
  -7  -9  -3    0.70    2.10   1
   7   9   4    2.90    1.70   1
  -7  -9  -4    2.30    2.10   1
   7   9   5   71.50    4.20   1
  -7  -9  -5   81.70    4.70   1
   7   9   6   66.30    3.90   1
  -7  -9  -6   71.20    4.50   1
   7   9   7    1.40    1.50   1
  -7  -9  -7    3.20    1.80   1
   7   9   8    8.40    2.50   1
  -7  -9  -8    6.40    2.10   1
   7   9   9   68.20    4.00   1
  -7  -9  -9   65.30    3.90   1
   7   9  10   18.10    2.40   1
  -7  -9 -10   11.70    2.60   1
   7   9  11    8.10    2.20   1
  -7  -9 -11    6.30    2.40   1
   7   9  12    3.00    2.30   1
  -7  -9 -12    6.40    3.20   1
   7   9  13    1.70    3.30   1
  -7  -9 -13    2.90    4.40   1
   7  10  -1   -0.40    2.30   1
  -7 -10   1    0.60    2.80   1
   7  10   0   11.90    2.80   1
  -7 -10   0    9.10    3.00   1
   7  10   1  107.90    6.20   1
  -7 -10  -1  100.60    6.70   1
   7  10   2   66.90    4.40   1
  -7 -10  -2   63.20    4.90   1
   7  10   3   62.90    4.40   1
  -7 -10  -3   64.40    4.60   1
   7  10   4    5.60    2.10   1
  -7 -10  -4    7.00    2.70   1
   7  10   5   67.30    4.20   1
  -7 -10  -5   61.00    4.50   1
   7  10   6   30.70    2.90   1
  -7 -10  -6   33.60    3.40   1
   7  10   7   34.30    3.00   1
  -7 -10  -7   35.30    3.30   1
   7  10   8   13.30    2.30   1
  -7 -10  -8   13.50    2.60   1
   7  10   9   -1.20    2.80   1
  -7 -10  -9    1.80    2.10   1
   7  10  10    7.50    2.60   1
  -7 -10 -10   10.10    2.50   1
   7  10  11    2.10    2.10   1
  -7 -10 -11   -1.50    2.20   1
   7  10  12   24.20    3.60   1
  -7 -10 -12   22.00    3.60   1
   7  11   0   73.60    5.50   1
  -7 -11   0   64.60    5.50   1
   7  11   1   96.30    6.60   1
  -7 -11  -1  125.60    8.00   1
   7  11   2   16.50    3.20   1
  -7 -11  -2   18.60    3.50   1
   7  11   3   90.40    5.70   1
  -7 -11  -3   86.80    6.10   1
   7  11   4    5.30    2.10   1
  -7 -11  -4    4.00    2.60   1
   7  11   5   33.30    5.50   1
  -7 -11  -5   32.60    4.10   1
   7  11   6   47.50    4.00   1
  -7 -11  -6   43.40    4.00   1
   7  11   7  126.00    6.50   1
  -7 -11  -7  122.80    6.60   1
   7  11   8   95.90    5.60   1
  -7 -11  -8  103.50    6.40   1
   7  11   9    4.20    2.60   1
  -7 -11  -9   -1.10    2.20   1
   7  11  10  160.40    8.40   1
  -7 -11 -10  143.90    6.60   1
   7  11  11    5.90    2.60   1
  -7 -11 -11    4.30    2.60   1
   7  11  12   25.70    3.50   1
  -7 -11 -12   29.50    4.10   1
   7  12   2   16.10    5.10   1
  -7 -12  -2   11.50    3.50   1
   7  12   3  187.20   14.40   1
  -7 -12  -3  178.50   10.50   1
   7  12   4   12.70    4.30   1
  -7 -12  -4    5.50    3.10   1
   7  12   5   90.50    8.60   1
  -7 -12  -5  102.50    6.80   1
   7  12   6   -5.00    4.90   1
  -7 -12  -6    0.60    3.40   1
   7  12   7  197.20    9.70   1
  -7 -12  -7  207.40   10.40   1
   7  12   8   59.20    5.00   1
  -7 -12  -8   57.00    4.90   1
   7  12   9    6.60    3.40   1
  -7 -12  -9    3.80    3.80   1
   7  12  10    6.90    2.50   1
  -7 -12 -10    4.60    2.30   1
  -7 -13  -6   61.80    8.50   1
  -7 -13  -7   23.30    6.00   1
  -7 -13  -8    0.60    6.30   1
   8  -5  -2  109.80    7.70   1
  -8   5   2  110.50    7.80   1
   8  -5  -1    0.40    2.90   1
  -8   5   1    4.90    2.80   1
   8  -5   0  190.40   10.40   1
  -8   5   0  202.70   11.20   1
   8  -5   1   75.10    6.00   1
  -8   5  -1   90.80    6.40   1
   8  -5   2   -0.30    2.10   1
  -8   5  -2    2.40    3.00   1
   8  -5   3   35.20    3.40   1
  -8   5  -3   29.90    5.30   1
   8  -4  -4    1.00    2.90   1
  -8   4   4    9.10    5.10   1
   8  -4  -3   15.30    6.50   1
  -8   4   3   13.70    4.20   1
   8  -4  -2   89.70    6.60   1
  -8   4   2   88.70    6.80   1
   8  -4  -1    0.00    2.60   1
  -8   4   1    3.10    2.80   1
   8  -4   0   -0.80    2.80   1
  -8   4   0    2.20    3.00   1
   8  -4   1   63.40    3.80   1
  -8   4  -1   68.50    5.20   1
   8  -4   2   13.40    2.40   1
  -8   4  -2   10.00    2.80   1
   8  -4   3    2.70    2.10   1
  -8   4  -3    4.10    2.50   1
   8  -4   4    1.40    2.20   1
  -8   4  -4   -5.20    4.10   1
   8  -4   5   37.90    3.60   1
  -8   4  -5   40.50    6.00   1
   8  -3  -5    6.80    2.50   1
  -8   3   5    4.90    4.10   1
   8  -3  -4   51.50    3.80   1
  -8   3   4   57.70    5.60   1
   8  -3  -3  102.50    5.30   1
  -8   3   3  109.80    7.30   1
   8  -3  -2   95.30    5.30   1
  -8   3   2   92.90    6.60   1
   8  -3  -1   80.90    5.40   1
  -8   3   1   96.00    6.50   1
   8  -3   0   15.00    3.10   1
  -8   3   0   18.80    3.90   1
   8  -3   1  198.00    7.20   1
  -8   3  -1  203.30    9.80   1
   8  -3   2   24.90    2.50   1
  -8   3  -2   18.80    3.40   1
   8  -3   3   73.30    4.00   1
  -8   3  -3   75.90    5.20   1
   8  -3   4   92.40    4.90   1
  -8   3  -4   82.30    7.60   1
   8  -3   5  248.80    9.80   1
  -8   3  -5  250.60   15.70   1
   8  -3   6   13.70    2.80   1
  -8   3  -6   19.70    4.80   1
   8  -3   7   -0.70    2.20   1
  -8   3  -7   -2.10    2.70   1
   8  -2  -5   39.50    3.70   1
  -8   2   5   44.80    5.40   1
   8  -2  -4   10.10    2.50   1
  -8   2   4   12.00    3.50   1
   8  -2  -3    3.50    2.10   1
  -8   2   3    4.20    2.70   1
   8  -2  -2    6.80    1.80   1
  -8   2   2   10.10    3.30   1
   8  -2  -1    5.10    2.30   1
  -8   2   1    7.20    2.70   1
   8  -2   0    2.40    1.50   1
  -8   2   0    3.60    2.30   1
   8  -2   1   37.80    2.70   1
  -8   2  -1   36.20    7.30   1
   8  -2   2   50.00    3.20   1
  -8   2  -2   45.50    3.20   1
   8  -2   3    2.20    1.50   1
  -8   2  -3    0.70    1.20   1
   8  -2   4   -1.10    1.60   1
  -8   2  -4    1.00    1.70   1
   8  -2   5    5.50    1.80   1
  -8   2  -5    6.60    2.00   1
   8  -2   6   64.40    3.90   1
  -8   2  -6   53.90    3.80   1
   8  -2   7   -0.60    2.60   1
  -8   2  -7   -1.40    2.30   1
   8  -2   8    4.40    2.50   1
  -8   2  -8    4.40    2.10   1
   8  -1  -5   19.80    2.60   1
  -8   1   5   12.90    5.50   1
   8  -1  -4   34.30    3.00   1
  -8   1   4   34.50    4.30   1
   8  -1  -3   13.60    2.60   1
  -8   1   3    8.80    3.40   1
   8  -1  -2   35.00    2.60   1
  -8   1   2   27.50    3.90   1
   8  -1  -1  180.60    7.50   1
  -8   1   1  179.90    8.40   1
   8  -1   0    2.80    1.40   1
  -8   1   0    1.50    2.10   1
   8  -1   1    2.40    1.30   1
  -8   1  -1    5.00    2.70   1
   8  -1   2    4.80    1.40   1
  -8   1  -2    4.90    2.30   1
   8  -1   3   70.80    3.40   1
  -8   1  -3   71.40    3.40   1
   8  -1   4    2.10    1.40   1
  -8   1  -4    2.40    1.40   1
   8  -1   5   69.80    3.60   1
  -8   1  -5   64.90    3.80   1
   8  -1   6   13.00    2.20   1
  -8   1  -6   16.60    2.30   1
   8  -1   7    5.60    1.80   1
  -8   1  -7    1.00    1.60   1
   8  -1   8    1.00    2.00   1
  -8   1  -8   -2.40    2.40   1
   8  -1   9   39.10    4.90   1
  -8   1  -9   42.20    5.00   1
   8   0  -6   10.10    3.70   1
  -8   0   6    1.70    8.10   1
   8   0  -5    4.40    2.40   1
  -8   0   5   -2.70    3.40   1
   8   0  -4   20.20    2.30   1
  -8   0   4   23.60    3.90   1
   8   0  -3   49.50    3.20   1
  -8   0   3   51.40    4.90   1
   8   0  -2   56.90    4.20   1
  -8   0   2   60.50    4.50   1
   8   0  -1  109.30    5.00   1
  -8   0   1  105.50    6.10   1
   8   0   0   35.40    2.30   1
  -8   0   0   36.40    3.40   1
   8   0   1    1.00    1.40   1
  -8   0  -1   -2.30    2.40   1
   8   0   2  177.50    5.70   1
  -8   0  -2  165.50    7.50   1
   8   0   3   95.00    3.90   1
  -8   0  -3   85.90    5.10   1
   8   0   4  144.90    5.00   1
  -8   0  -4  144.40    5.10   1
   8   0   5  137.80    5.00   1
  -8   0  -5  129.20    5.60   1
   8   0   6  254.40    8.00   1
  -8   0  -6  248.50    9.40   1
   8   0   7    4.30    1.70   1
  -8   0  -7   10.10    2.00   1
   8   0   8    5.90    1.90   1
  -8   0  -8    3.40    1.80   1
   8   0   9  175.50    7.40   1
  -8   0  -9  159.80    7.90   1
   8   0  10   76.00    6.00   1
  -8   0 -10   99.90    8.60   1
   8   1  -6   19.30    6.20   1
  -8  -1   6   12.70    4.00   1
   8   1  -5  189.30   10.30   1
  -8  -1   5  196.30    8.70   1
   8   1  -4   11.40    2.10   1
  -8  -1   4   18.20    2.80   1
   8   1  -3  315.20   12.50   1
  -8  -1   3  309.90   13.30   1
   8   1  -2   33.00    2.40   1
  -8  -1   2   41.40    3.80   1
   8   1  -1  223.30    8.50   1
  -8  -1   1  223.40    9.50   1
   8   1   0   60.50    2.60   1
  -8  -1   0   57.90    4.20   1
   8   1   1   98.30    3.10   1
  -8  -1  -1  100.50    5.40   1
   8   1   2  138.60    4.70   1
  -8  -1  -2  124.10    5.80   1
   8   1   3  105.80    3.80   1
  -8  -1  -3  107.00    4.10   1
   8   1   4  399.60    9.90   1
  -8  -1  -4  372.70    9.80   1
   8   1   5   35.90    2.40   1
  -8  -1  -5   33.00    2.30   1
   8   1   6   95.00    3.90   1
  -8  -1  -6   78.90    4.10   1
   8   1   7    2.10    1.50   1
  -8  -1  -7   -1.40    2.80   1
   8   1   8   57.80    3.20   1
  -8  -1  -8   50.90    3.40   1
   8   1   9  139.50    7.50   1
  -8  -1  -9  137.50    7.00   1
   8   1  10  108.90    6.80   1
  -8  -1 -10  112.30    8.80   1
   8   1  11   21.10    4.00   1
  -8  -1 -11   19.10    4.60   1
   8   2  -5   16.10    3.90   1
  -8  -2   5   15.50    2.60   1
   8   2  -4    0.40    3.10   1
  -8  -2   4    6.70    2.30   1
   8   2  -3    5.20    2.70   1
  -8  -2   3    0.90    2.20   1
   8   2  -2    9.00    1.40   1
  -8  -2   2   10.80    1.90   1
   8   2  -1   -1.60    1.00   1
  -8  -2   1    1.60    1.70   1
   8   2   0   31.40    1.80   1
  -8  -2   0   26.20    2.30   1
   8   2   1    2.30    0.80   1
  -8  -2  -1    0.80    1.50   1
   8   2   2   56.90    2.10   1
  -8  -2  -2   63.40    3.10   1
   8   2   3   39.90    2.10   1
  -8  -2  -3   37.20    2.30   1
   8   2   4   29.40    1.90   1
  -8  -2  -4   26.30    1.90   1
   8   2   5    0.10    1.20   1
  -8  -2  -5    0.70    1.10   1
   8   2   6   11.20    1.50   1
  -8  -2  -6   13.80    1.90   1
   8   2   7   44.10    2.50   1
  -8  -2  -7   46.10    3.20   1
   8   2   8    4.50    1.50   1
  -8  -2  -8    5.30    1.60   1
   8   2   9   30.90    2.60   1
  -8  -2  -9   20.80    2.50   1
   8   2  10  118.10    9.50   1
  -8  -2 -10   91.60    5.60   1
   8   2  11    4.20    2.60   1
  -8  -2 -11    7.80    3.80   1
   8   3  -5   39.80    7.60   1
  -8  -3   5   54.40    5.20   1
   8   3  -4   50.30    5.30   1
  -8  -3   4   60.10    4.20   1
   8   3  -3   47.70    4.00   1
  -8  -3   3   48.70    3.30   1
   8   3  -2    1.10    2.50   1
  -8  -3   2   -1.10    1.60   1
   8   3  -1   20.80    2.10   1
  -8  -3   1   18.60    2.10   1
   8   3   0   32.30    2.50   1
  -8  -3   0   30.20    2.30   1
   8   3   1   76.40    3.70   1
  -8  -3  -1   73.00    3.50   1
   8   3   2  125.00    5.30   1
  -8  -3  -2  116.60    3.70   1
   8   3   3   -0.30    1.00   1
  -8  -3  -3    0.60    1.10   1
   8   3   4    8.50    1.40   1
  -8  -3  -4    3.90    1.10   1
   8   3   5   15.30    1.60   1
  -8  -3  -5   15.40    1.50   1
   8   3   6  185.30    5.70   1
  -8  -3  -6  171.70    5.40   1
   8   3   7    1.70    1.20   1
  -8  -3  -7    5.40    1.80   1
   8   3   8    3.00    1.30   1
  -8  -3  -8    5.50    1.80   1
   8   3   9   55.60    3.00   1
  -8  -3  -9   50.60    3.70   1
   8   3  10   15.60    2.10   1
  -8  -3 -10   18.70    2.60   1
   8   3  11    2.90    2.10   1
  -8  -3 -11    0.10    3.00   1
   8   3  12    5.20    4.10   1
  -8  -3 -12   19.90    6.10   1
   8   4  -5   22.60    6.40   1
  -8  -4   5   20.20    3.70   1
   8   4  -4  189.50   10.40   1
  -8  -4   4  186.70    8.30   1
   8   4  -3    1.70    2.70   1
  -8  -4   3    3.20    1.80   1
   8   4  -2  107.60    6.10   1
  -8  -4   2   99.60    4.80   1
   8   4  -1    5.40    2.60   1
  -8  -4   1    2.30    2.50   1
   8   4   0  164.20    6.80   1
  -8  -4   0  164.70    6.00   1
   8   4   1    7.60    1.60   1
  -8  -4  -1    8.20    1.80   1
   8   4   2  147.60    5.90   1
  -8  -4  -2  156.70    5.50   1
   8   4   3  166.60    6.10   1
  -8  -4  -3  170.90    5.60   1
   8   4   4   38.50    2.80   1
  -8  -4  -4   39.00    2.80   1
   8   4   5  160.50    6.00   1
  -8  -4  -5  152.90    6.20   1
   8   4   6    3.20    1.20   1
  -8  -4  -6    1.80    1.10   1
   8   4   7  227.80    6.70   1
  -8  -4  -7  229.80   11.20   1
   8   4   8   30.80    2.30   1
  -8  -4  -8   31.40    3.10   1
   8   4   9  145.90    5.40   1
  -8  -4  -9  141.80    5.10   1
   8   4  10  156.70    5.50   1
  -8  -4 -10  139.80   10.00   1
   8   4  11   89.30    4.40   1
  -8  -4 -11   92.50    5.30   1
   8   4  12    4.80    3.70   1
  -8  -4 -12    2.10    3.90   1
   8   5  -4   99.20    7.10   1
  -8  -5   4   94.80    6.30   1
   8   5  -3   38.40    4.30   1
  -8  -5   3   42.20    3.60   1
   8   5  -2   45.30    4.20   1
  -8  -5   2   60.00    3.20   1
   8   5  -1    3.00    2.70   1
  -8  -5   1   -1.20    1.80   1
   8   5   0  118.50    5.60   1
  -8  -5   0  117.70    5.00   1
   8   5   1   54.70    3.40   1
  -8  -5  -1   53.20    3.00   1
   8   5   2  214.60    8.00   1
  -8  -5  -2  207.20    6.80   1
   8   5   3  132.40    5.50   1
  -8  -5  -3  138.60    6.10   1
   8   5   4   -2.70    1.50   1
  -8  -5  -4   -1.10    1.30   1
   8   5   5    1.20    1.40   1
  -8  -5  -5    1.50    1.60   1
   8   5   6   75.00    3.80   1
  -8  -5  -6   72.40    3.70   1
   8   5   7   85.30    3.40   1
  -8  -5  -7   84.70    4.10   1
   8   5   8   -0.60    1.10   1
  -8  -5  -8   -1.60    1.60   1
   8   5   9   29.40    2.10   1
  -8  -5  -9   28.10    2.70   1
   8   5  10   14.70    2.00   1
  -8  -5 -10   13.40    2.60   1
   8   5  11    4.30    2.20   1
  -8  -5 -11    6.10    2.70   1
   8   5  12    3.20    4.60   1
  -8  -5 -12    3.90    3.70   1
   8   6  -4   43.70    8.90   1
  -8  -6   4   51.80    5.70   1
   8   6  -3   27.20    4.40   1
  -8  -6   3   26.50    3.00   1
   8   6  -2    0.30    2.90   1
  -8  -6   2   -2.70    2.00   1
   8   6  -1   18.80    3.40   1
  -8  -6   1   11.40    2.30   1
   8   6   0  115.30    5.80   1
  -8  -6   0  111.80    5.00   1
   8   6   1  135.60    6.20   1
  -8  -6  -1  127.90    5.10   1
   8   6   2   66.90    3.80   1
  -8  -6  -2   74.30    3.70   1
   8   6   3  187.90    7.30   1
  -8  -6  -3  189.80    7.50   1
   8   6   4   -0.10    1.50   1
  -8  -6  -4    2.20    1.80   1
   8   6   5  130.00    5.50   1
  -8  -6  -5  148.40    5.90   1
   8   6   6  114.70    5.10   1
  -8  -6  -6  113.30    5.20   1
   8   6   7  355.90   11.40   1
  -8  -6  -7  330.70   10.70   1
   8   6   8  132.60    5.70   1
  -8  -6  -8  136.70    8.30   1
   8   6   9    3.40    1.70   1
  -8  -6  -9    3.10    1.90   1
   8   6  10  188.20    8.10   1
  -8  -6 -10  190.10    8.30   1
   8   6  11   17.90    2.50   1
  -8  -6 -11   26.80    3.10   1
   8   6  12  108.00    6.30   1
  -8  -6 -12  119.10    7.00   1
   8   6  13    9.50    4.20   1
  -8  -6 -13   25.10    7.10   1
   8   7  -3   20.20    3.80   1
  -8  -7   3   21.90    5.20   1
   8   7  -2  159.00    8.60   1
  -8  -7   2  150.00    6.80   1
   8   7  -1   49.90    4.40   1
  -8  -7   1   43.20    3.20   1
   8   7   0   64.60    4.60   1
  -8  -7   0   68.80    4.00   1
   8   7   1   18.10    2.50   1
  -8  -7  -1   20.70    2.70   1
   8   7   2   21.20    2.90   1
  -8  -7  -2   19.10    2.90   1
   8   7   3   85.60    4.40   1
  -8  -7  -3   82.40    4.90   1
   8   7   4   51.50    3.30   1
  -8  -7  -4   51.00    3.40   1
   8   7   5   83.80    4.20   1
  -8  -7  -5   85.80    4.60   1
   8   7   6    9.20    1.90   1
  -8  -7  -6    9.40    1.90   1
   8   7   7  104.90    4.80   1
  -8  -7  -7   91.50    4.80   1
   8   7   8   -0.60    1.50   1
  -8  -7  -8    0.60    2.10   1
   8   7   9   10.30    2.10   1
  -8  -7  -9    6.80    2.00   1
   8   7  10    7.90    2.10   1
  -8  -7 -10    7.90    2.20   1
   8   7  11   64.10    4.50   1
  -8  -7 -11   59.00    4.50   1
   8   7  12   -2.10    2.50   1
  -8  -7 -12    1.50    2.60   1
   8   7  13   18.50    4.60   1
  -8  -7 -13   19.90    5.40   1
   8   8  -2   43.00    5.40   1
  -8  -8   2   33.60    4.40   1
   8   8  -1   -0.70    3.20   1
  -8  -8   1    6.40    3.60   1
   8   8   0   11.80    3.20   1
  -8  -8   0   15.30    3.20   1
   8   8   1   57.20    4.40   1
  -8  -8  -1   60.70    4.50   1
   8   8   2   27.80    3.10   1
  -8  -8  -2   26.80    3.20   1
   8   8   3   62.30    4.20   1
  -8  -8  -3   65.70    4.40   1
   8   8   4    7.00    2.00   1
  -8  -8  -4    8.40    2.30   1
   8   8   5   40.50    3.00   1
  -8  -8  -5   44.60    3.60   1
   8   8   6   33.10    2.80   1
  -8  -8  -6   36.40    3.40   1
   8   8   7  175.00    7.30   1
  -8  -8  -7  164.60    7.30   1
   8   8   8   61.20    3.80   1
  -8  -8  -8   58.40    3.80   1
   8   8   9    7.20    2.20   1
  -8  -8  -9    5.00    2.70   1
   8   8  10   10.40    2.50   1
  -8  -8 -10   -0.70    2.60   1
   8   8  11   31.80    3.50   1
  -8  -8 -11   37.00    3.70   1
   8   8  12   13.60    2.90   1
  -8  -8 -12   12.10    3.10   1
   8   9  -1   13.90    3.30   1
  -8  -9   1   12.30    3.30   1
   8   9   0   22.50    4.80   1
  -8  -9   0   22.80    3.90   1
   8   9   1   67.30    5.20   1
  -8  -9  -1   69.40    5.30   1
   8   9   2   20.20    3.50   1
  -8  -9  -2   18.60    3.30   1
   8   9   3   32.80    3.60   1
  -8  -9  -3   31.80    3.60   1
   8   9   4    0.70    1.90   1
  -8  -9  -4   -0.60    2.00   1
   8   9   5   44.70    3.70   1
  -8  -9  -5   45.00    3.70   1
   8   9   6   23.60    2.60   1
  -8  -9  -6   23.80    2.80   1
   8   9   7   35.20    3.30   1
  -8  -9  -7   33.60    3.20   1
   8   9   8   63.10    4.30   1
  -8  -9  -8   62.80    4.10   1
   8   9   9    7.60    2.20   1
  -8  -9  -9    7.30    4.20   1
   8   9  10    2.70    2.40   1
  -8  -9 -10   -4.50    2.50   1
   8   9  11   31.80    3.60   1
  -8  -9 -11   24.70    3.80   1
   8   9  12   24.10    3.10   1
  -8  -9 -12   23.60    3.40   1
   8  10   0   84.20    6.70   1
  -8 -10   0   79.70    6.80   1
   8  10   1  131.50    7.70   1
  -8 -10  -1  131.20    8.20   1
   8  10   2   40.10    4.20   1
  -8 -10  -2   38.70    4.50   1
   8  10   3   90.70    6.30   1
  -8 -10  -3  107.50    7.10   1
   8  10   4  190.40    9.40   1
  -8 -10  -4  182.50    9.60   1
   8  10   5  103.20    5.80   1
  -8 -10  -5  118.60    6.80   1
   8  10   6  332.60   13.00   1
  -8 -10  -6  337.90   13.80   1
   8  10   7   13.50    4.90   1
  -8 -10  -7   13.90    3.00   1
   8  10   8  189.20    9.00   1
  -8 -10  -8  185.30    9.30   1
   8  10   9    3.30    3.10   1
  -8 -10  -9    2.40    3.10   1
   8  10  10   68.30    5.20   1
  -8 -10 -10   70.10    5.50   1
   8  10  11   94.30    6.40   1
  -8 -10 -11   95.40    6.40   1
   8  10  12  158.70    8.90   1
  -8 -10 -12  159.60    9.70   1
   8  11   2   -0.80    2.60   1
  -8 -11  -2    0.90    3.30   1
   8  11   3    1.90    2.90   1
  -8 -11  -3   -2.50    3.90   1
   8  11   4   22.00    3.40   1
  -8 -11  -4   29.90    4.00   1
   8  11   5   28.40    3.50   1
  -8 -11  -5   28.40    4.00   1
   8  11   6    9.90    3.00   1
  -8 -11  -6   11.60    3.60   1
   8  11   7    0.20    2.70   1
  -8 -11  -7    0.30    2.40   1
   8  11   8   -0.40    2.70   1
  -8 -11  -8   -1.90    2.80   1
   8  11   9   -0.30    2.40   1
  -8 -11  -9    1.90    2.50   1
   8  11  10    3.70    2.60   1
  -8 -11 -10   -0.60    2.70   1
   8  11  11   28.00    3.70   1
  -8 -11 -11   29.50    4.30   1
   8  12   4  122.40   10.70   1
  -8 -12  -4  118.70    8.10   1
   8  12   5   39.10    6.40   1
  -8 -12  -5   30.00    4.60   1
   8  12   6    9.50    4.10   1
  -8 -12  -6   10.50    3.30   1
   8  12   7    1.60    3.10   1
  -8 -12  -7   10.50    4.30   1
   8  12   8   37.90    4.50   1
  -8 -12  -8   40.70    4.90   1
   8  12   9   34.60    4.30   1
  -8 -12  -9   26.00    4.00   1
   9  -3  -1   15.60    3.50   1
  -9   3   1   14.20    4.10   1
   9  -3   0   52.90    5.50   1
  -9   3   0   71.90    6.70   1
   9  -3   1   -0.20    2.70   1
  -9   3  -1   -0.80    3.10   1
   9  -3   2    5.30    3.00   1
  -9   3  -2    5.30    3.10   1
   9  -3   3   30.80    3.50   1
  -9   3  -3   35.30    4.60   1
   9  -3   4   85.00    5.00   1
  -9   3  -4   82.10    8.20   1
   9  -2  -3   48.70    5.30   1
  -9   2   3   46.90    6.10   1
   9  -2  -2    8.80    3.30   1
  -9   2   2    2.90    3.40   1
   9  -2  -1   13.20    3.30   1
  -9   2   1    9.90    3.30   1
   9  -2   0   -0.70    2.60   1
  -9   2   0    1.50    2.80   1
   9  -2   1   37.70    4.40   1
  -9   2  -1   46.00    5.10   1
   9  -2   2    2.50    2.00   1
  -9   2  -2    8.10    3.30   1
   9  -2   3    8.90    2.30   1
  -9   2  -3    9.30    3.00   1
   9  -2   4   12.50    2.40   1
  -9   2  -4    8.20    3.50   1
   9  -2   5   16.40    2.80   1
  -9   2  -5   12.70    4.20   1
   9  -2   6    3.90    2.30   1
  -9   2  -6    6.00    3.70   1
   9  -1  -3   15.70    3.60   1
  -9   1   3   17.20    4.30   1
   9  -1  -2  184.00   10.20   1
  -9   1   2  176.20   10.40   1
   9  -1  -1    4.40    2.80   1
  -9   1   1   -0.80    2.70   1
   9  -1   0  180.60    9.30   1
  -9   1   0  179.80   10.00   1
   9  -1   1   -1.80    2.80   1
  -9   1  -1    4.30    3.00   1
   9  -1   2  222.30    8.30   1
  -9   1  -2  222.40   11.20   1
   9  -1   3  294.00   10.40   1
  -9   1  -3  288.90   10.10   1
   9  -1   4  141.00    6.20   1
  -9   1  -4  151.70    7.30   1
   9  -1   5   51.30    3.50   1
  -9   1  -5   59.80    4.10   1
   9  -1   6    4.50    2.70   1
  -9   1  -6    3.60    2.00   1
   9  -1   7  210.50    8.70   1
  -9   1  -7  203.20    9.80   1
   9  -1   8   23.90    3.90   1
  -9   1  -8   20.70    3.20   1
   9   0  -4   26.50    4.30   1
  -9   0   4   38.20    5.10   1
   9   0  -3   40.30    4.90   1
  -9   0   3   50.20    5.30   1
   9   0  -2   12.80    4.50   1
  -9   0   2   13.20    4.00   1
   9   0  -1   29.10    6.00   1
  -9   0   1   29.10    4.20   1
   9   0   0   46.00    5.50   1
  -9   0   0   50.70    4.40   1
   9   0   1    1.80    2.30   1
  -9   0  -1    3.30    2.80   1
   9   0   2   14.70    2.10   1
  -9   0  -2   13.00    3.10   1
   9   0   3    7.70    1.80   1
  -9   0  -3    9.00    1.70   1
   9   0   4    3.70    1.80   1
  -9   0  -4    2.80    1.70   1
   9   0   5    0.20    1.70   1
  -9   0  -5   -1.10    1.90   1
   9   0   6    5.30    1.70   1
  -9   0  -6    7.60    2.00   1
   9   0   7   26.00    2.80   1
  -9   0  -7   26.00    3.00   1
   9   0   8    3.50    3.60   1
  -9   0  -8    0.20    2.20   1
   9   0   9    5.60    2.70   1
  -9   0  -9   10.70    3.60   1
   9   1  -4    9.30    3.70   1
  -9  -1   4    6.60    2.70   1
   9   1  -3    7.50    4.50   1
  -9  -1   3    3.70    2.50   1
   9   1  -2   14.90    3.70   1
  -9  -1   2   16.30    2.60   1
   9   1  -1    1.30    2.50   1
  -9  -1   1    1.50    1.90   1
   9   1   0   17.30    4.20   1
  -9  -1   0   21.50    2.40   1
   9   1   1   39.00    3.30   1
  -9  -1  -1   35.10    2.90   1
   9   1   2  116.90    4.60   1
  -9  -1  -2  110.00    4.80   1
   9   1   3    5.40    1.60   1
  -9  -1  -3    5.30    1.80   1
   9   1   4    3.50    1.60   1
  -9  -1  -4    0.30    2.10   1
   9   1   5   32.70    2.70   1
  -9  -1  -5   26.20    3.70   1
   9   1   6   28.30    2.80   1
  -9  -1  -6   26.50    2.80   1
   9   1   7   32.80    2.70   1
  -9  -1  -7   33.00    3.20   1
   9   1   8   44.80    3.20   1
  -9  -1  -8   46.50    3.60   1
   9   1   9    0.50    1.90   1
  -9  -1  -9   -0.80    1.80   1
   9   2  -4   -1.20    4.50   1
  -9  -2   4    0.80    2.80   1
   9   2  -3   50.90    5.10   1
  -9  -2   3   35.40    4.40   1
   9   2  -2   17.90    3.50   1
  -9  -2   2   20.60    2.70   1
   9   2  -1   -0.80    2.50   1
  -9  -2   1   -1.20    1.90   1
   9   2   0   -0.10    2.80   1
  -9  -2   0    4.00    1.90   1
   9   2   1   73.50    4.40   1
  -9  -2  -1   76.90    4.10   1
   9   2   2    0.30    1.60   1
  -9  -2  -2    1.40    1.70   1
   9   2   3    9.70    1.60   1
  -9  -2  -3    7.90    1.60   1
   9   2   4  151.70    5.50   1
  -9  -2  -4  145.50    6.60   1
   9   2   5    2.30    1.50   1
  -9  -2  -5   -2.80    2.10   1
   9   2   6    4.10    1.70   1
  -9  -2  -6    3.30    1.80   1
   9   2   7    1.30    1.80   1
  -9  -2  -7   -2.90    2.00   1
   9   2   8  208.90   10.00   1
  -9  -2  -8  178.30    8.60   1
   9   2   9    2.70    1.90   1
  -9  -2  -9    4.60    2.20   1
   9   2  10   18.50    2.80   1
  -9  -2 -10   13.10    2.60   1
   9   3  -3   38.20    4.60   1
  -9  -3   3   39.20    3.60   1
   9   3  -2   97.40    7.20   1
  -9  -3   2   94.60    5.10   1
   9   3  -1   33.50    4.10   1
  -9  -3   1   39.40    3.20   1
   9   3   0   91.10    7.60   1
  -9  -3   0   92.00    4.60   1
   9   3   1  303.00   11.30   1
  -9  -3  -1  304.00    9.40   1
   9   3   2   10.00    1.80   1
  -9  -3  -2   14.00    2.10   1
   9   3   3   90.70    4.50   1
  -9  -3  -3   84.40    4.00   1
   9   3   4    1.80    1.40   1
  -9  -3  -4    2.10    1.70   1
   9   3   5  114.30    4.60   1
  -9  -3  -5  103.40    7.40   1
   9   3   6    9.00    1.80   1
  -9  -3  -6    8.00    2.60   1
   9   3   7   93.90    4.00   1
  -9  -3  -7   92.80    5.10   1
   9   3   8  148.20    5.50   1
  -9  -3  -8  144.90    6.80   1
   9   3   9   20.10    2.60   1
  -9  -3  -9   14.70    2.80   1
   9   3  10    5.60    1.90   1
  -9  -3 -10   10.10    2.40   1
   9   3  11    1.70    2.60   1
  -9  -3 -11   16.70    5.90   1
   9   4  -3    4.30    3.20   1
  -9  -4   3    3.60    2.80   1
   9   4  -2   11.00    3.10   1
  -9  -4   2    9.60    2.30   1
   9   4  -1    0.40    5.70   1
  -9  -4   1    2.80    2.10   1
   9   4   0   -1.00    3.00   1
  -9  -4   0    3.00    2.20   1
   9   4   1   64.90    4.00   1
  -9  -4  -1   75.90    4.00   1
   9   4   2   15.30    2.10   1
  -9  -4  -2   17.60    1.80   1
   9   4   3   21.00    2.30   1
  -9  -4  -3   24.40    2.10   1
   9   4   4    5.20    1.90   1
  -9  -4  -4    2.70    1.80   1
   9   4   5   22.10    2.60   1
  -9  -4  -5   22.20    2.80   1
   9   4   6   68.00    3.30   1
  -9  -4  -6   63.20    4.00   1
   9   4   7   28.30    2.30   1
  -9  -4  -7   24.80    2.50   1
   9   4   8   59.30    3.30   1
  -9  -4  -8   56.10    4.00   1
   9   4   9   55.40    3.30   1
  -9  -4  -9   54.60    4.10   1
   9   4  10   10.90    2.10   1
  -9  -4 -10    7.40    2.50   1
   9   4  11    2.40    2.60   1
  -9  -4 -11    3.50    2.30   1
   9   5  -3   40.80    5.00   1
  -9  -5   3   38.70    3.80   1
   9   5  -2   25.50    3.90   1
  -9  -5   2   24.90    2.90   1
   9   5  -1  163.00   12.40   1
  -9  -5   1  156.90    7.20   1
   9   5   0   55.60    4.60   1
  -9  -5   0   52.90    3.10   1
   9   5   1   97.50    5.40   1
  -9  -5  -1   93.30    4.70   1
   9   5   2    6.90    2.30   1
  -9  -5  -2    2.40    1.70   1
   9   5   3  124.10    5.90   1
  -9  -5  -3  124.40    6.30   1
   9   5   4  153.30    6.40   1
  -9  -5  -4  167.70    7.90   1
   9   5   5  120.00    5.90   1
  -9  -5  -5  133.30    6.10   1
   9   5   6   95.40    5.10   1
  -9  -5  -6   80.60    6.80   1
   9   5   7    1.40    1.40   1
  -9  -5  -7    2.30    2.30   1
   9   5   8  170.90    6.30   1
  -9  -5  -8  161.20   10.60   1
   9   5   9   23.90    2.30   1
  -9  -5  -9   26.90    3.30   1
   9   5  10   74.00    4.00   1
  -9  -5 -10   74.10    4.10   1
   9   5  11   38.90    3.70   1
  -9  -5 -11   34.40    3.60   1
   9   6  -2    8.20    4.30   1
  -9  -6   2    7.50    2.80   1
   9   6  -1   20.90    3.80   1
  -9  -6   1   22.10    2.60   1
   9   6   0    8.90    3.00   1
  -9  -6   0    8.50    2.60   1
   9   6   1   -4.20    1.90   1
  -9  -6  -1   -1.90    1.80   1
   9   6   2   64.80    4.30   1
  -9  -6  -2   57.40    3.70   1
   9   6   3    7.10    2.30   1
  -9  -6  -3    8.40    2.20   1
   9   6   4    2.60    1.80   1
  -9  -6  -4    1.10    1.80   1
   9   6   5    2.70    2.00   1
  -9  -6  -5    5.10    2.50   1
   9   6   6   58.90    4.00   1
  -9  -6  -6   57.10    3.70   1
   9   6   7    0.00    1.80   1
  -9  -6  -7    0.50    2.30   1
   9   6   8    6.40    2.40   1
  -9  -6  -8    4.50    2.40   1
   9   6   9   33.00    3.30   1
  -9  -6  -9   34.30    3.40   1
   9   6  10   14.10    2.50   1
  -9  -6 -10   14.00    2.70   1
   9   6  11   10.30    3.20   1
  -9  -6 -11    9.10    3.40   1
   9   6  12   15.50    4.20   1
  -9  -6 -12   14.40    5.30   1
   9   7  -1   66.30    5.50   1
  -9  -7   1   59.80    5.20   1
   9   7   0    3.00    3.60   1
  -9  -7   0    1.20    2.30   1
   9   7   1    8.40    3.00   1
  -9  -7  -1    9.90    2.90   1
   9   7   2   17.10    2.60   1
  -9  -7  -2   17.00    2.90   1
   9   7   3   28.70    3.00   1
  -9  -7  -3   32.40    3.40   1
   9   7   4    0.80    2.10   1
  -9  -7  -4    5.00    2.40   1
   9   7   5   14.70    2.70   1
  -9  -7  -5   21.40    2.90   1
   9   7   6   67.40    4.30   1
  -9  -7  -6   65.40    4.40   1
   9   7   7    1.60    1.80   1
  -9  -7  -7    3.50    2.80   1
   9   7   8    1.40    1.90   1
  -9  -7  -8    2.80    2.80   1
   9   7   9    1.50    2.00   1
  -9  -7  -9    0.40    2.10   1
   9   7  10   10.30    2.70   1
  -9  -7 -10    6.80    2.70   1
   9   7  11    3.90    2.60   1
  -9  -7 -11    3.50    2.90   1
   9   7  12    1.10    2.80   1
  -9  -7 -12    2.10    4.20   1
   9   8   0  138.00    8.40   1
  -9  -8   0  135.30    8.50   1
   9   8   1   36.40    4.70   1
  -9  -8  -1   51.70    4.90   1
   9   8   2   23.20    3.40   1
  -9  -8  -2   24.00    3.80   1
   9   8   3    4.00    2.40   1
  -9  -8  -3    5.90    2.90   1
   9   8   4  118.70    6.20   1
  -9  -8  -4  125.60    6.80   1
   9   8   5  244.20    9.50   1
  -9  -8  -5  256.30   10.50   1
   9   8   6   85.00    4.90   1
  -9  -8  -6   80.30    5.00   1
   9   8   7   94.50    5.60   1
  -9  -8  -7   99.40    5.60   1
   9   8   8    1.70    2.40   1
  -9  -8  -8    0.10    3.90   1
   9   8   9   91.60    5.70   1
  -9  -8  -9   92.10    8.20   1
   9   8  10   15.30    2.70   1
  -9  -8 -10   12.40    3.20   1
   9   8  11  119.20    7.20   1
  -9  -8 -11  113.40    7.30   1
   9   9   1   39.10    5.00   1
  -9  -9  -1   28.80    4.90   1
   9   9   2  157.20    8.70   1
  -9  -9  -2  156.50    9.30   1
   9   9   3    2.80    2.80   1
  -9  -9  -3    0.30    2.90   1
   9   9   4   83.40    5.60   1
  -9  -9  -4   97.30    6.30   1
   9   9   5   51.40    4.40   1
  -9  -9  -5   54.00    4.50   1
   9   9   6   69.60    5.10   1
  -9  -9  -6   62.60    5.10   1
   9   9   7    3.50    3.00   1
  -9  -9  -7    7.10    2.60   1
   9   9   8   23.60    3.30   1
  -9  -9  -8   24.50    5.30   1
   9   9   9   69.90    5.10   1
  -9  -9  -9   83.30    8.00   1
   9   9  10   12.10    2.80   1
  -9  -9 -10   11.50    3.50   1
   9   9  11   13.80    3.40   1
  -9  -9 -11   14.60    4.00   1
   9  10   2    4.00    3.10   1
  -9 -10  -2    3.00    3.40   1
   9  10   3   -2.70    3.10   1
  -9 -10  -3    8.60    3.10   1
   9  10   4   20.90    3.80   1
  -9 -10  -4   22.60    3.70   1
   9  10   5    6.30    3.30   1
  -9 -10  -5    7.40    3.50   1
   9  10   6    7.50    2.70   1
  -9 -10  -6    6.40    2.70   1
   9  10   7   -0.80    2.60   1
  -9 -10  -7    1.30    2.60   1
   9  10   8    8.00    2.70   1
  -9 -10  -8    9.60    4.00   1
   9  10   9    8.70    2.90   1
  -9 -10  -9    8.20    3.90   1
   9  10  10   28.40    3.90   1
  -9 -10 -10   31.80    4.10   1
   9  11   4    5.40    3.60   1
  -9 -11  -4   11.00    4.40   1
   9  11   5    5.00    3.30   1
  -9 -11  -5    1.10    3.50   1
   9  11   6   52.30    5.00   1
  -9 -11  -6   70.40    5.90   1
   9  11   7   22.10    3.70   1
  -9 -11  -7   15.20    3.50   1
   9  11   8    1.80    2.70   1
  -9 -11  -8    4.20    3.70   1
   9  11   9   12.60    3.50   1
  -9 -11  -9   14.20    5.00   1
  10  -1   1    8.40    4.50   1
 -10   1  -1    5.70    6.00   1
  10  -1   2    0.30    2.80   1
 -10   1  -2    5.70    3.10   1
  10  -1   3   25.50    3.90   1
 -10   1  -3   28.20    4.30   1
  10  -1   4    7.20    2.40   1
 -10   1  -4   17.40    5.80   1
  10   0   0   30.50    7.20   1
 -10   0   0   31.80    3.80   1
  10   0   1    4.90    4.40   1
 -10   0  -1    4.00    2.30   1
  10   0   2   31.70    4.00   1
 -10   0  -2   43.00    5.00   1
  10   0   3    1.30    2.10   1
 -10   0  -3    4.00    3.80   1
  10   0   4   17.10    2.60   1
 -10   0  -4   12.60    2.50   1
  10   0   5   21.90    2.80   1
 -10   0  -5   15.70    2.60   1
  10   0   6   -0.20    2.20   1
 -10   0  -6    2.10    2.50   1
  10   1  -1  147.50    9.20   1
 -10  -1   1  154.20    7.30   1
  10   1   0   58.10    7.30   1
 -10  -1   0   57.90    4.10   1
  10   1   1   60.10    8.00   1
 -10  -1  -1   71.40    4.60   1
  10   1   2  191.20   13.40   1
 -10  -1  -2  202.30    8.60   1
  10   1   3   23.50    2.60   1
 -10  -1  -3   23.60    3.80   1
  10   1   4   71.90    4.20   1
 -10  -1  -4   70.90    7.20   1
  10   1   5    0.90    2.10   1
 -10  -1  -5   -4.50    2.40   1
  10   1   6  269.60    9.80   1
 -10  -1  -6  260.10   11.80   1
  10   1   7    2.50    2.40   1
 -10  -1  -7    8.30    2.70   1
  10   2  -1  132.10    8.80   1
 -10  -2   1  139.00    7.00   1
  10   2   0   21.90    4.90   1
 -10  -2   0   18.30    2.80   1
  10   2   1    2.90    3.80   1
 -10  -2  -1   -1.60    2.30   1
  10   2   2   12.60    4.20   1
 -10  -2  -2   10.60    2.20   1
  10   2   3   16.90    2.80   1
 -10  -2  -3   18.80    3.40   1
  10   2   4   26.50    2.40   1
 -10  -2  -4   24.90    4.60   1
  10   2   5    1.40    2.00   1
 -10  -2  -5   -4.00    4.10   1
  10   2   6   67.50    3.90   1
 -10  -2  -6   61.40    4.90   1
  10   2   7   23.40    2.80   1
 -10  -2  -7   21.10    3.30   1
  10   2   8    2.40    2.30   1
 -10  -2  -8    4.00    2.60   1
  10   3  -1    4.60    3.30   1
 -10  -3   1    2.90    2.50   1
  10   3   0   28.40    5.30   1
 -10  -3   0   33.70    3.40   1
  10   3   1   30.80    5.00   1
 -10  -3  -1   40.90    3.70   1
  10   3   2   61.10    6.70   1
 -10  -3  -2   75.40    4.50   1
  10   3   3    0.50    2.20   1
 -10  -3  -3    1.90    1.80   1
  10   3   4   55.60    4.20   1
 -10  -3  -4   47.30    5.70   1
  10   3   5  128.80    5.80   1
 -10  -3  -5  118.70    9.70   1
  10   3   6   30.40    2.70   1
 -10  -3  -6   28.00    4.50   1
  10   3   7   69.60    4.10   1
 -10  -3  -7   70.60    5.00   1
  10   3   8    2.30    1.80   1
 -10  -3  -8    2.00    2.40   1
  10   3   9   80.60    4.80   1
 -10  -3  -9   85.70    5.80   1
  10   4  -1    0.20    3.20   1
 -10  -4   1    5.40    2.40   1
  10   4   0    8.30    3.30   1
 -10  -4   0    5.40    2.50   1
  10   4   1   55.80    7.00   1
 -10  -4  -1   73.70    4.60   1
  10   4   2   71.90    7.00   1
 -10  -4  -2   64.40    4.40   1
  10   4   3   15.30    3.10   1
 -10  -4  -3   15.20    2.50   1
  10   4   4    4.70    2.10   1
 -10  -4  -4    5.00    3.20   1
  10   4   5   -0.10    2.20   1
 -10  -4  -5   -0.30    2.60   1
  10   4   6    7.80    1.90   1
 -10  -4  -6   14.70    3.60   1
  10   4   7   39.70    3.00   1
 -10  -4  -7   32.00    4.60   1
  10   4   8   17.90    2.90   1
 -10  -4  -8   16.90    3.10   1
  10   4   9   18.50    2.40   1
 -10  -4  -9   17.40    3.00   1
  10   5   0   98.00    7.00   1
 -10  -5   0   84.80    5.20   1
  10   5   1   -0.10    3.30   1
 -10  -5  -1    0.60    2.10   1
  10   5   2   13.10    2.70   1
 -10  -5  -2   10.40    2.40   1
  10   5   3    1.10    2.10   1
 -10  -5  -3    0.20    2.00   1
  10   5   4  139.40    7.30   1
 -10  -5  -4  138.50    6.20   1
  10   5   5   18.00    3.20   1
 -10  -5  -5   15.80    2.60   1
  10   5   6    7.90    2.80   1
 -10  -5  -6    0.80    2.10   1
  10   5   7   46.30    4.00   1
 -10  -5  -7   51.10    4.20   1
  10   5   8   20.90    2.60   1
 -10  -5  -8   21.40    3.30   1
  10   5   9   14.30    2.40   1
 -10  -5  -9   21.30    4.10   1
  10   5  10   21.30    4.00   1
 -10  -5 -10   12.60    3.20   1
  10   6   0   14.20    4.00   1
 -10  -6   0   16.60    3.00   1
  10   6   1    4.20    4.10   1
 -10  -6  -1    5.90    2.30   1
  10   6   2    5.40    2.60   1
 -10  -6  -2    3.70    2.90   1
  10   6   3   25.60    3.20   1
 -10  -6  -3   24.70    3.40   1
  10   6   4   17.70    2.90   1
 -10  -6  -4   20.00    3.40   1
  10   6   5   50.10    4.60   1
 -10  -6  -5   53.60    6.90   1
  10   6   6   69.00    5.20   1
 -10  -6  -6   74.00    8.00   1
  10   6   7   28.10    3.60   1
 -10  -6  -7   23.00    5.70   1
  10   6   8    5.60    2.90   1
 -10  -6  -8    9.60    3.60   1
  10   6   9   24.50    3.50   1
 -10  -6  -9   16.10    3.20   1
  10   6  10   58.30    4.90   1
 -10  -6 -10   66.20    4.30   1
  10   7   1   29.60    4.30   1
 -10  -7  -1   29.50    4.20   1
  10   7   2  114.90    7.10   1
 -10  -7  -2  103.40    7.00   1
  10   7   3  304.70   13.00   1
 -10  -7  -3  293.20   13.70   1
  10   7   4    0.80    2.20   1
 -10  -7  -4    3.80    2.50   1
  10   7   5  102.50    6.30   1
 -10  -7  -5  116.60    6.90   1
  10   7   6   11.10    2.60   1
 -10  -7  -6    7.90    3.90   1
  10   7   7  176.00    8.80   1
 -10  -7  -7  151.90   12.10   1
  10   7   8    2.90    2.50   1
 -10  -7  -8   10.30    4.00   1
  10   7   9   77.40    5.30   1
 -10  -7  -9   86.60    6.10   1
  10   7  10  194.00   10.20   1
 -10  -7 -10  207.80   11.00   1
  10   8   2   -2.40    3.00   1
 -10  -8  -2    0.50    2.80   1
  10   8   3   31.70    4.30   1
 -10  -8  -3   18.00    3.60   1
  10   8   4   -2.80    2.90   1
 -10  -8  -4   -0.70    2.70   1
  10   8   5    4.80    2.50   1
 -10  -8  -5    5.80    2.70   1
  10   8   6   -0.90    2.50   1
 -10  -8  -6    1.60    4.60   1
  10   8   7    4.70    2.80   1
 -10  -8  -7   12.00    5.00   1
  10   8   8   12.10    3.10   1
 -10  -8  -8   16.70    5.20   1
  10   8   9   -1.30    2.80   1
 -10  -8  -9    6.80    3.70   1
  10   8  10    4.90    3.00   1
 -10  -8 -10    4.20    5.00   1
  10   9   3    1.90    3.90   1
  10   9   4   -3.30    3.10   1
 -10  -9  -4   -2.10    2.70   1
  10   9   5    9.20    2.80   1
 -10  -9  -5    9.10    3.40   1
  10   9   6   27.40    3.70   1
 -10  -9  -6   30.70    5.30   1
  10   9   7    0.00    2.30   1
 -10  -9  -7    1.10    3.40   1
  10   9   8   19.90    3.70   1
 -10  -9  -8   15.20    4.30   1
  10   9   9   21.30    3.50   1
 -10  -9  -9   24.70    4.90   1
  11   3   5   45.00    5.60   1
  11   4   5   27.10    3.80   1
 -11  -4  -5   24.30    4.90   1
  11   4   6   -0.40    2.20   1
  11   5   4  130.60   10.90   1
  11   5   5   17.30    4.00   1
  11   5   6   23.20    4.40   1
  11   6   4   21.20    5.70   1
  11   6   5   55.20    6.50   1
  11   6   6    6.30    3.60   1
   0   0   0
;
_shelx_hkl_checksum              72555
_shelx_res_file
;
TITL tlfehas in P-1 = alpha-TlFe(HAsO4)2
    shelx.res
    created by SHELXL-2016/6 at 13:25:45 on 24-Apr-2018
REM isotyp mit alpha-CsSc(HAsO4)2, -(NH4)V(HPO4)2 (98Bircsak) u.a.
REM oder Z=1 und Tl3Fe3(HAsO4)6 !!! (vgl. N-V-P)
REM pseudo-"disphenoidic-monocl.", short prismatic cols glassy xls
REM partly with fine-grained inclusions of red Fe-O-(OH?), mainly in core
REM coordinates from 98Bircsak (vgl. csscast)
CELL 0.71073   7.346   9.148   9.662  64.89  70.51  69.94
ZERR    3.00   0.002   0.002   0.002   0.03   0.03   0.03
LATT  1
SFAC O H FE AS TL
UNIT 24 6 3 6 3
acta
temp 20
size 0.04 0.05 0.10
CONN 15 4.0 Tl1A Tl1B Tl2A Tl2B Tl2C
htab
bond $H
rem omit 2 1 0
rem omit 2 2 1
rem identisch wie in csscast
eqiv $1 x+1, y, z
eqiv $2 x, y+1, z
HTAB O2 O9_$1
HTAB O8 O10_$2
HTAB O12 O3
dfix 0.9 0.04 O2 H2
rem dfix 0.9 0.04 O8 H8
dfix 0.9 0.04 O12 H12
L.S. 8
BOND
FMAP 2
PLAN 20
SUMP 1 0.0001 1 2 2 3
SUMP 1 0.0001 1 4 1 5 1 6
WGHT    0.019300    0.806200
EXTI    0.006769
FVAR       0.24201   0.63131   0.18435   0.44909   0.43651   0.11439
MOLE   1
TL1A  5    0.500000    1.000000    0.000000    20.50000    0.06036    0.03474 =
         0.03122   -0.00605   -0.00339   -0.03173
TL1B  5    0.469497    0.999048   -0.017568    31.00000    0.04171    0.02267 =
         0.03143   -0.00280   -0.01303   -0.01865
TL2A  5    0.405157    0.832532    0.466652    41.00000    0.03963    0.02717 =
         0.02108   -0.00757   -0.00867    0.00196
TL2B  5    0.353099    0.826976    0.484029    51.00000    0.04334    0.03453 =
         0.02336    0.00117   -0.01357   -0.00397
TL2C  5    0.402368    0.851033    0.484074    61.00000    0.04135    0.01913 =
         0.01945   -0.00562   -0.00958    0.00102
FE1   3    0.000000    0.500000    0.500000    10.50000    0.00870    0.00577 =
         0.00720   -0.00170   -0.00228   -0.00065
FE2   3    0.205903    0.723089   -0.059117    11.00000    0.00853    0.00551 =
         0.00764   -0.00183   -0.00218   -0.00077
AS1   4    0.452032    0.560332    0.216623    11.00000    0.00724    0.00543 =
         0.00788   -0.00189   -0.00187   -0.00077
AS2   4   -0.078407    0.874351    0.234599    11.00000    0.00859    0.00441 =
         0.00832   -0.00177   -0.00242   -0.00028
AS3   4    0.091578    0.351048    0.216211    11.00000    0.00828    0.00481 =
         0.00847   -0.00200   -0.00238   -0.00135
O1    1    0.410087    0.701456    0.044099    11.00000    0.01168    0.00893 =
         0.00876    0.00081   -0.00468   -0.00233
O2    1    0.590603    0.639699    0.267958    11.00000    0.02033    0.01440 =
         0.03239   -0.01229   -0.01622    0.00064
O3    1    0.571322    0.365329    0.222110    11.00000    0.01008    0.00605 =
         0.01298   -0.00355   -0.00230    0.00158
O4    1    0.244046    0.552060    0.353092    11.00000    0.01631    0.01652 =
         0.01562   -0.00514    0.00684   -0.00453
O5    1   -0.019427    0.815087    0.080536    11.00000    0.01403    0.01302 =
         0.01241   -0.00738   -0.00192   -0.00086
O6    1   -0.159044    0.730611    0.402239    11.00000    0.01379    0.00560 =
         0.00922    0.00190   -0.00240   -0.00039
O7    1   -0.259352    1.050553    0.209501    11.00000    0.00959    0.00596 =
         0.01470   -0.00281   -0.00381    0.00077
O8    1    0.122277    0.918974    0.252963    11.00000    0.01492    0.01075 =
         0.03074   -0.00695   -0.01253   -0.00151
O9    1   -0.070337    0.428123    0.352732    11.00000    0.01136    0.01591 =
         0.01319   -0.00929   -0.00281    0.00134
O10   1   -0.015476    0.233635    0.188968    11.00000    0.01459    0.00812 =
         0.01611   -0.00393   -0.00796   -0.00411
O11   1    0.182819    0.491051    0.053376    11.00000    0.01495    0.00801 =
         0.01272   -0.00031   -0.00042   -0.00390
O12   1    0.287996    0.200659    0.288773    11.00000    0.01209    0.01191 =
         0.02119   -0.00172   -0.00831   -0.00056
H2    2    0.694326    0.569659    0.295153    11.00000    0.03253
H8    2   10.073100   11.037300   10.239694    11.00000    0.07796
rem H8    2    0.067817    1.026512    0.222607    11.00000    0.06440
H12   2    0.375998    0.259399    0.258165    11.00000    0.04213
HKLF 4
REM  tlfehas in P-1 = alpha-TlFe(HAsO4)2
REM R1 =  0.0224 for    3391 Fo > 4sig(Fo)  and  0.0293 for all    3906 data
REM    208 parameters refined using      4 restraints
END
WGHT      0.0194      0.8019
REM Instructions for potential hydrogen bonds
HTAB O2 O9_$1
HTAB O8 O10_$2
HTAB O12 O3
REM Highest difference peak  0.960,  deepest hole -1.130,  1-sigma level  0.194
Q1    1   0.0091  0.9266  0.2005  11.00000  0.05    0.96
Q2    1   0.1109  0.3045  0.3989  11.00000  0.05    0.83
Q3    1   0.4823  0.7251  0.4332  11.00000  0.05    0.78
Q4    1   0.7072  0.6837  0.3207  11.00000  0.05    0.77
Q5    1   0.5004  0.4630  0.1850  11.00000  0.05    0.76
Q6    1   0.3810  0.1773  0.2584  11.00000  0.05    0.75
Q7    1  -0.0071  0.3720  0.3352  11.00000  0.05    0.74
Q8    1   0.1636  0.9847  0.4872  11.00000  0.05    0.73
Q9    1   0.2400  0.9416  0.5367  11.00000  0.05    0.72
Q10   1   0.1227  0.8088 -0.0020  11.00000  0.05    0.70
Q11   1   0.0154  0.4365  0.2573  11.00000  0.05    0.70
Q12   1   0.4533  0.8228  0.3910  11.00000  0.05    0.70
Q13   1  -0.0182  0.4816  0.2800  11.00000  0.05    0.69
Q14   1   0.5883  0.6582  0.4108  11.00000  0.05    0.69
Q15   1   0.4349  0.6965  0.5604  11.00000  0.05    0.68
Q16   1  -0.0209  0.7651  0.0340  11.00000  0.05    0.67
Q17   1   0.0203  0.7775  0.1787  11.00000  0.05    0.66
Q18   1   0.3025  0.2203  0.2082  11.00000  0.05    0.66
Q19   1  -0.2220  0.2195  0.2979  11.00000  0.05    0.66
Q20   1   0.2917  0.0764  0.2263  11.00000  0.05    0.66
;
_shelx_res_checksum              77958
loop_
_space_group_symop_operation_xyz
'x, y, z'
'-x, -y, -z'
loop_
_atom_site_type_symbol
_atom_site_label
_atom_site_fract_x
_atom_site_fract_y
_atom_site_fract_z
_atom_site_U_iso_or_equiv
_atom_site_adp_type
_atom_site_calc_flag
_atom_site_occupancy
Tl Tl1A 0.500000 1.000000 0.000000 0.0401(16) Uani d 0.631(3)
Tl Tl1B 0.4695(15) 0.9990(11) -0.0176(13) 0.0299(8) Uani d 0.1843(14)
Tl Tl2A 0.4052(7) 0.8325(4) 0.4667(4) 0.0319(6) Uani d 0.449(3)
Tl Tl2B 0.3531(3) 0.8270(4) 0.4840(4) 0.0376(3) Uani d 0.437(3)
Tl Tl2C 0.402(3) 0.8510(16) 0.4841(15) 0.0286(13) Uani d 0.114(3)
Fe Fe1 0.000000 0.500000 0.500000 0.00759(10) Uani d 1
Fe Fe2 0.20590(6) 0.72309(5) -0.05912(5) 0.00754(8) Uani d 1
As As1 0.45203(4) 0.56033(3) 0.21662(3) 0.00716(6) Uani d 1
As As2 -0.07841(4) 0.87435(3) 0.23460(3) 0.00748(6) Uani d 1
As As3 0.09158(4) 0.35105(3) 0.21621(3) 0.00721(6) Uani d 1
O O1 0.4101(3) 0.7015(2) 0.0441(2) 0.0106(4) Uani d 1
O O2 0.5906(4) 0.6397(3) 0.2680(3) 0.0194(5) Uani d 1
O O3 0.5713(3) 0.3653(2) 0.2221(2) 0.0107(4) Uani d 1
O O4 0.2440(3) 0.5521(3) 0.3531(3) 0.0190(5) Uani d 1
O O5 -0.0194(3) 0.8151(3) 0.0805(2) 0.0130(4) Uani d 1
O O6 -0.1590(3) 0.7306(2) 0.4022(2) 0.0118(4) Uani d 1
O O7 -0.2594(3) 1.0506(2) 0.2095(2) 0.0108(4) Uani d 1
O O8 0.1223(3) 0.9190(3) 0.2530(3) 0.0173(4) Uani d 1
O O9 -0.0703(3) 0.4281(3) 0.3527(2) 0.0132(4) Uani d 1
O O10 -0.0155(3) 0.2336(2) 0.1890(2) 0.0114(4) Uani d 1
O O11 0.1828(3) 0.4911(3) 0.0534(2) 0.0135(4) Uani d 1
O O12 0.2880(3) 0.2007(3) 0.2888(3) 0.0159(4) Uani d 1
H H2 0.694(6) 0.570(5) 0.295(5) 0.033(13) Uiso d 1
H H8 0.073100 1.037300 0.239694 0.08(2) Uiso d 1
H H12 0.376(7) 0.259(6) 0.258(6) 0.042(14) Uiso d 1
loop_
_atom_site_aniso_label
_atom_site_aniso_U_11
_atom_site_aniso_U_22
_atom_site_aniso_U_33
_atom_site_aniso_U_12
_atom_site_aniso_U_13
_atom_site_aniso_U_23
Tl1A 0.060(2) 0.0347(7) 0.0312(14) -0.0317(10) -0.0034(15) -0.0060(7)
Tl1B 0.0417(9) 0.0227(11) 0.0314(14) -0.0187(13) -0.0130(8) -0.0028(9)
Tl2A 0.0396(9) 0.0272(9) 0.0211(6) 0.0020(7) -0.0087(6) -0.0076(4)
Tl2B 0.0433(6) 0.0345(5) 0.0234(5) -0.0040(6) -0.0136(6) 0.0012(3)
Tl2C 0.041(4) 0.0191(16) 0.019(2) 0.0010(14) -0.010(2) -0.0056(12)
Fe1 0.0087(2) 0.0058(2) 0.0072(2) -0.00065(19) -0.00228(18) -0.00170(19)
Fe2 0.00853(17) 0.00551(16) 0.00764(17) -0.00077(13) -0.00218(13) -0.00183(13)
As1 0.00724(12) 0.00543(12) 0.00788(13) -0.00077(9) -0.00187(9) -0.00189(9)
As2 0.00859(12) 0.00441(12) 0.00832(13) -0.00028(9) -0.00242(9) -0.00177(9)
As3 0.00828(12) 0.00481(12) 0.00847(13) -0.00135(9) -0.00238(9) -0.00200(9)
O1 0.0117(9) 0.0089(9) 0.0088(9) -0.0023(7) -0.0047(7) 0.0008(7)
O2 0.0203(11) 0.0144(10) 0.0324(13) 0.0006(9) -0.0162(10) -0.0123(10)
O3 0.0101(9) 0.0061(8) 0.0130(10) 0.0016(7) -0.0023(7) -0.0035(7)
O4 0.0163(10) 0.0165(11) 0.0156(11) -0.0045(9) 0.0068(8) -0.0051(9)
O5 0.0140(9) 0.0130(10) 0.0124(10) -0.0009(8) -0.0019(7) -0.0074(8)
O6 0.0138(9) 0.0056(8) 0.0092(9) -0.0004(7) -0.0024(7) 0.0019(7)
O7 0.0096(9) 0.0060(8) 0.0147(10) 0.0008(7) -0.0038(7) -0.0028(7)
O8 0.0149(10) 0.0108(10) 0.0307(13) -0.0015(8) -0.0125(9) -0.0070(9)
O9 0.0114(9) 0.0159(10) 0.0132(10) 0.0013(8) -0.0028(7) -0.0093(8)
O10 0.0146(9) 0.0081(9) 0.0161(10) -0.0041(7) -0.0080(8) -0.0039(8)
O11 0.0149(10) 0.0080(9) 0.0127(10) -0.0039(8) -0.0004(7) -0.0003(8)
O12 0.0121(10) 0.0119(10) 0.0212(11) -0.0006(8) -0.0083(8) -0.0017(9)
loop_
_atom_type_symbol
_atom_type_description
_atom_type_scat_dispersion_real
_atom_type_scat_dispersion_imag
_atom_type_scat_source
O O 0.0106 0.0060 'International Tables Vol C Tables 4.2.6.8 and 6.1.1.4'
H H 0.0000 0.0000 'International Tables Vol C Tables 4.2.6.8 and 6.1.1.4'
Fe Fe 0.3463 0.8444 'International Tables Vol C Tables 4.2.6.8 and 6.1.1.4'
As As 0.0499 2.0058 'International Tables Vol C Tables 4.2.6.8 and 6.1.1.4'
Tl Tl -2.8358 9.6688 'International Tables Vol C Tables 4.2.6.8 and 6.1.1.4'
loop_
_geom_angle_atom_site_label_1
_geom_angle_atom_site_label_2
_geom_angle_atom_site_label_3
_geom_angle_site_symmetry_1
_geom_angle_site_symmetry_3
_geom_angle
Tl1B Tl1A O1 2_675 . 123.3(15)
Tl1B Tl1A O1 2_675 2_675 56.7(15)
O1 Tl1A O1 . 2_675 180.0
Tl1B Tl1A O8 2_675 2_675 72.9(17)
O1 Tl1A O8 . 2_675 115.26(7)
O1 Tl1A O8 2_675 2_675 64.74(7)
Tl1B Tl1A O8 2_675 . 107.1(17)
O1 Tl1A O8 . . 64.74(7)
O1 Tl1A O8 2_675 . 115.26(7)
O8 Tl1A O8 2_675 . 180.0
Tl1B Tl1A O2 2_675 . 72.8(15)
O1 Tl1A O2 . . 51.62(6)
O1 Tl1A O2 2_675 . 128.38(6)
O8 Tl1A O2 2_675 . 112.41(7)
O8 Tl1A O2 . . 67.59(7)
Tl1B Tl1A O2 2_675 2_675 107.2(15)
O1 Tl1A O2 . 2_675 128.39(6)
O1 Tl1A O2 2_675 2_675 51.61(6)
O8 Tl1A O2 2_675 2_675 67.59(7)
O8 Tl1A O2 . 2_675 112.41(7)
O2 Tl1A O2 . 2_675 180.0
Tl1B Tl1A O7 2_675 2_575 169.8(17)
O1 Tl1A O7 . 2_575 52.66(6)
O1 Tl1A O7 2_675 2_575 127.34(6)
O8 Tl1A O7 2_675 2_575 99.91(6)
O8 Tl1A O7 . 2_575 80.09(6)
O2 Tl1A O7 . 2_575 104.24(6)
O2 Tl1A O7 2_675 2_575 75.76(6)
Tl1B Tl1A O7 2_675 1_655 10.2(17)
O1 Tl1A O7 . 1_655 127.34(6)
O1 Tl1A O7 2_675 1_655 52.66(6)
O8 Tl1A O7 2_675 1_655 80.09(6)
O8 Tl1A O7 . 1_655 99.91(6)
O2 Tl1A O7 . 1_655 75.76(6)
O2 Tl1A O7 2_675 1_655 104.24(6)
O7 Tl1A O7 2_575 1_655 180.0
Tl1B Tl1A O5 2_675 2_575 143.2(16)
O1 Tl1A O5 . 2_575 83.29(6)
O1 Tl1A O5 2_675 2_575 96.71(6)
O8 Tl1A O5 2_675 2_575 121.76(6)
O8 Tl1A O5 . 2_575 58.24(6)
O2 Tl1A O5 . 2_575 120.71(6)
O2 Tl1A O5 2_675 2_575 59.29(6)
O7 Tl1A O5 2_575 2_575 46.78(5)
O7 Tl1A O5 1_655 2_575 133.22(5)
Tl1B Tl1A O5 2_675 1_655 36.8(16)
O1 Tl1A O5 . 1_655 96.71(6)
O1 Tl1A O5 2_675 1_655 83.29(6)
O8 Tl1A O5 2_675 1_655 58.24(6)
O8 Tl1A O5 . 1_655 121.76(6)
O2 Tl1A O5 . 1_655 59.29(6)
O2 Tl1A O5 2_675 1_655 120.71(6)
O7 Tl1A O5 2_575 1_655 133.22(5)
O7 Tl1A O5 1_655 1_655 46.78(5)
O5 Tl1A O5 2_575 1_655 180.00(3)
Tl1B Tl1A O12 2_675 2_665 117.2(17)
O1 Tl1A O12 . 2_665 57.83(6)
O1 Tl1A O12 2_675 2_665 122.17(6)
O8 Tl1A O12 2_675 2_665 59.93(6)
O8 Tl1A O12 . 2_665 120.07(6)
O2 Tl1A O12 . 2_665 88.55(6)
O2 Tl1A O12 2_675 2_665 91.45(6)
O7 Tl1A O12 2_575 2_665 52.68(5)
O7 Tl1A O12 1_655 2_665 127.32(5)
O5 Tl1A O12 2_575 2_665 98.17(5)
O5 Tl1A O12 1_655 2_665 81.83(5)
Tl1B Tl1A O12 2_675 1_565 62.8(17)
O1 Tl1A O12 . 1_565 122.17(6)
O1 Tl1A O12 2_675 1_565 57.83(6)
O8 Tl1A O12 2_675 1_565 120.07(6)
O8 Tl1A O12 . 1_565 59.93(6)
O2 Tl1A O12 . 1_565 91.45(6)
O2 Tl1A O12 2_675 1_565 88.55(6)
O7 Tl1A O12 2_575 1_565 127.32(5)
O7 Tl1A O12 1_655 1_565 52.68(5)
O5 Tl1A O12 2_575 1_565 81.83(5)
O5 Tl1A O12 1_655 1_565 98.17(5)
O12 Tl1A O12 2_665 1_565 180.00(6)
Tl1B Tl1A As1 2_675 2_675 79.9(15)
O1 Tl1A As1 . 2_675 155.08(4)
O1 Tl1A As1 2_675 2_675 24.92(4)
O8 Tl1A As1 2_675 2_675 59.16(5)
O8 Tl1A As1 . 2_675 120.84(5)
O2 Tl1A As1 . 2_675 152.70(4)
O2 Tl1A As1 2_675 2_675 27.30(4)
O7 Tl1A As1 2_575 2_675 102.87(4)
O7 Tl1A As1 1_655 2_675 77.13(4)
O5 Tl1A As1 2_575 2_675 81.04(5)
O5 Tl1A As1 1_655 2_675 98.96(5)
O12 Tl1A As1 2_665 2_675 105.49(5)
O12 Tl1A As1 1_565 2_675 74.51(5)
Tl1B Tl1A As1 2_675 . 100.1(15)
O1 Tl1A As1 . . 24.92(4)
O1 Tl1A As1 2_675 . 155.08(4)
O8 Tl1A As1 2_675 . 120.84(5)
O8 Tl1A As1 . . 59.16(5)
O2 Tl1A As1 . . 27.30(4)
O2 Tl1A As1 2_675 . 152.70(4)
O7 Tl1A As1 2_575 . 77.13(4)
O7 Tl1A As1 1_655 . 102.87(4)
O5 Tl1A As1 2_575 . 98.96(5)
O5 Tl1A As1 1_655 . 81.04(5)
O12 Tl1A As1 2_665 . 74.51(5)
O12 Tl1A As1 1_565 . 105.49(5)
As1 Tl1A As1 2_675 . 180.0
Tl1B Tl1B O1 2_675 . 117.4(14)
Tl1B Tl1B O8 2_675 . 101.1(18)
O1 Tl1B O8 . . 67.8(3)
Tl1B Tl1B O7 2_675 2_575 168.7(18)
O1 Tl1B O7 . 2_575 58.0(3)
O8 Tl1B O7 . 2_575 86.8(3)
Tl1B Tl1B O1 2_675 2_675 51.6(15)
O1 Tl1B O1 . 2_675 169.0(4)
O8 Tl1B O1 . 2_675 112.0(4)
O7 Tl1B O1 2_575 2_675 132.7(3)
Tl1B Tl1B O2 2_675 2_675 101.5(16)
O1 Tl1B O2 . 2_675 139.6(5)
O8 Tl1B O2 . 2_675 117.0(2)
O7 Tl1B O2 2_575 2_675 81.7(3)
O1 Tl1B O2 2_675 2_675 51.03(17)
Tl1B Tl1B O8 2_675 2_675 67.3(17)
O1 Tl1B O8 . 2_675 116.7(3)
O8 Tl1B O8 . 2_675 168.4(5)
O7 Tl1B O8 2_575 2_675 104.7(4)
O1 Tl1B O8 2_675 2_675 61.3(2)
O2 Tl1B O8 2_675 2_675 67.3(2)
Tl1B Tl1B O5 2_675 2_575 139.8(18)
O1 Tl1B O5 . 2_575 91.0(4)
O8 Tl1B O5 . 2_575 62.0(2)
O7 Tl1B O5 2_575 2_575 51.3(2)
O1 Tl1B O5 2_675 2_575 98.6(2)
O2 Tl1B O5 2_675 2_575 62.93(16)
O8 Tl1B O5 2_675 2_575 126.7(3)
Tl1B Tl1B O2 2_675 . 67.4(14)
O1 Tl1B O2 . . 51.18(14)
O8 Tl1B O2 . . 67.03(19)
O7 Tl1B O2 2_575 . 109.2(4)
O1 Tl1B O2 2_675 . 118.1(4)
O2 Tl1B O2 2_675 . 168.9(5)
O8 Tl1B O2 2_675 . 106.8(2)
O5 Tl1B O2 2_575 . 125.3(3)
Tl1B Tl1B O12 2_675 2_665 112.4(17)
O1 Tl1B O12 . 2_665 60.9(3)
O8 Tl1B O12 . 2_665 127.2(4)
O7 Tl1B O12 2_575 2_665 56.4(2)
O1 Tl1B O12 2_675 2_665 120.7(3)
O2 Tl1B O12 2_675 2_665 95.5(3)
O8 Tl1B O12 2_675 2_665 60.63(19)
O5 Tl1B O12 2_575 2_665 106.2(4)
O2 Tl1B O12 . 2_665 89.1(2)
Tl1B Tl1B O7 2_675 1_655 9.3(16)
O1 Tl1B O7 . 1_655 121.3(3)
O8 Tl1B O7 . 1_655 94.6(3)
O7 Tl1B O7 2_575 1_655 178.0(3)
O1 Tl1B O7 2_675 1_655 47.9(2)
O2 Tl1B O7 2_675 1_655 98.9(4)
O8 Tl1B O7 2_675 1_655 73.9(3)
O5 Tl1B O7 2_575 1_655 130.7(3)
O2 Tl1B O7 . 1_655 70.2(2)
O12 Tl1B O7 2_665 1_655 121.6(3)
Tl1B Tl1B As2 2_675 2_575 162.4(16)
O1 Tl1B As2 . 2_575 79.5(4)
O8 Tl1B As2 . 2_575 80.1(3)
O7 Tl1B As2 2_575 2_575 26.69(11)
O1 Tl1B As2 2_675 2_575 111.5(2)
O2 Tl1B As2 2_675 2_575 63.25(18)
O8 Tl1B As2 2_675 2_575 110.9(3)
O5 Tl1B As2 2_575 2_575 26.86(11)
O2 Tl1B As2 . 2_575 127.7(4)
O12 Tl1B As2 2_665 2_575 79.4(3)
O7 Tl1B As2 1_655 2_575 155.0(3)
Tl1B Tl1B As1 2_675 . 95.1(14)
O1 Tl1B As1 . . 24.26(9)
O8 Tl1B As1 . . 60.26(18)
O7 Tl1B As1 2_575 . 81.8(3)
O1 Tl1B As1 2_675 . 145.5(4)
O2 Tl1B As1 2_675 . 163.4(5)
O8 Tl1B As1 2_675 . 119.0(2)
O5 Tl1B As1 2_575 . 104.8(3)
O2 Tl1B As1 . . 27.68(8)
O12 Tl1B As1 2_665 . 76.7(2)
O7 Tl1B As1 1_655 . 97.7(2)
As2 Tl1B As1 2_575 . 100.6(3)
Tl1B Tl1B O12 2_675 1_565 58.4(17)
O1 Tl1B O12 . 1_565 121.9(3)
O8 Tl1B O12 . 1_565 58.5(2)
O7 Tl1B O12 2_575 1_565 132.8(3)
O1 Tl1B O12 2_675 1_565 54.7(2)
O2 Tl1B O12 2_675 1_565 87.0(3)
O8 Tl1B O12 2_675 1_565 112.6(4)
O5 Tl1B O12 2_575 1_565 82.9(2)
O2 Tl1B O12 . 1_565 87.0(3)
O12 Tl1B O12 2_665 1_565 170.8(4)
O7 Tl1B O12 1_655 1_565 49.2(2)
As2 Tl1B O12 2_575 1_565 109.6(2)
As1 Tl1B O12 . 1_565 103.2(3)
Tl1B Tl1B O5 2_675 1_655 33.9(14)
O1 Tl1B O5 . 1_655 93.69(19)
O8 Tl1B O5 . 1_655 116.0(3)
O7 Tl1B O5 2_575 1_655 135.1(3)
O1 Tl1B O5 2_675 1_655 76.4(3)
O2 Tl1B O5 2_675 1_655 115.3(3)
O8 Tl1B O5 2_675 1_655 54.44(17)
O5 Tl1B O5 2_575 1_655 173.6(5)
O2 Tl1B O5 . 1_655 55.60(15)
O12 Tl1B O5 2_665 1_655 79.93(17)
O7 Tl1B O5 1_655 1_655 42.95(15)
As2 Tl1B O5 2_575 1_655 159.0(4)
As1 Tl1B O5 . 1_655 78.19(14)
O12 Tl1B O5 1_565 1_655 91.0(3)
O3 Tl2A O2 2_666 . 110.62(13)
O3 Tl2A O6 2_666 1_655 84.49(12)
O2 Tl2A O6 . 1_655 63.62(10)
O3 Tl2A O12 2_666 1_565 135.34(15)
O2 Tl2A O12 . 1_565 113.29(14)
O6 Tl2A O12 1_655 1_565 107.85(16)
O3 Tl2A O8 2_666 . 136.34(18)
O2 Tl2A O8 . . 72.45(11)
O6 Tl2A O8 1_655 . 129.21(14)
O12 Tl2A O8 1_565 . 67.16(10)
O3 Tl2A O7 2_666 1_655 124.09(17)
O2 Tl2A O7 . 1_655 80.54(12)
O6 Tl2A O7 1_655 1_655 50.58(9)
O12 Tl2A O7 1_565 1_655 57.75(9)
O8 Tl2A O7 . 1_655 99.55(11)
O3 Tl2A O7 2_666 2_576 51.02(8)
O2 Tl2A O7 . 2_576 161.15(13)
O6 Tl2A O7 1_655 2_576 106.12(14)
O12 Tl2A O7 1_565 2_576 84.49(11)
O8 Tl2A O7 . 2_576 122.69(13)
O7 Tl2A O7 1_655 2_576 105.65(13)
O3 Tl2A O9 2_666 2_566 67.53(10)
O2 Tl2A O9 . 2_566 84.95(13)
O6 Tl2A O9 1_655 2_566 127.21(12)
O12 Tl2A O9 1_565 2_566 123.73(15)
O8 Tl2A O9 . 2_566 69.50(12)
O7 Tl2A O9 1_655 2_566 164.03(13)
O7 Tl2A O9 2_576 2_566 90.22(11)
O3 Tl2A O10 2_666 2_566 50.72(8)
O2 Tl2A O10 . 2_566 129.09(16)
O6 Tl2A O10 1_655 2_566 135.10(13)
O12 Tl2A O10 1_565 2_566 103.61(12)
O8 Tl2A O10 . 2_566 92.25(13)
O7 Tl2A O10 1_655 2_566 150.35(13)
O7 Tl2A O10 2_576 2_566 46.17(7)
O9 Tl2A O10 2_566 2_566 44.78(7)
O3 Tl2A O12 2_666 2_666 48.01(9)
O2 Tl2A O12 . 2_666 114.65(14)
O6 Tl2A O12 1_655 2_666 54.68(9)
O12 Tl2A O12 1_565 2_666 104.24(13)
O8 Tl2A O12 . 2_666 171.01(13)
O7 Tl2A O12 1_655 2_666 76.97(12)
O7 Tl2A O12 2_576 2_666 51.73(8)
O9 Tl2A O12 2_566 2_666 115.55(11)
O10 Tl2A O12 2_566 2_666 87.20(9)
O3 Tl2A As1 2_666 2_666 25.72(5)
O2 Tl2A As1 . 2_666 84.90(10)
O6 Tl2A As1 1_655 2_666 72.19(9)
O12 Tl2A As1 1_565 2_666 160.16(14)
O8 Tl2A As1 . 2_666 128.92(15)
O7 Tl2A As1 1_655 2_666 121.50(13)
O7 Tl2A As1 2_576 2_666 76.68(8)
O9 Tl2A As1 2_566 2_666 63.26(8)
O10 Tl2A As1 2_566 2_666 67.47(8)
O12 Tl2A As1 2_666 2_666 58.90(7)
O3 Tl2A O4 2_666 2_666 46.68(8)
O2 Tl2A O4 . 2_666 68.41(9)
O6 Tl2A O4 1_655 2_666 47.49(8)
O12 Tl2A O4 1_565 2_666 153.38(18)
O8 Tl2A O4 . 2_666 133.41(14)
O7 Tl2A O4 1_655 2_666 97.99(12)
O7 Tl2A O4 2_576 2_666 92.92(10)
O9 Tl2A O4 2_566 2_666 82.69(9)
O10 Tl2A O4 2_566 2_666 93.26(10)
O12 Tl2A O4 2_666 2_666 55.57(8)
As1 Tl2A O4 2_666 2_666 25.87(4)
O3 Tl2A As2 2_666 1_655 107.80(14)
O2 Tl2A As2 . 1_655 64.63(10)
O6 Tl2A As2 1_655 1_655 25.22(6)
O12 Tl2A As2 1_565 1_655 84.29(12)
O8 Tl2A As2 . 1_655 111.92(11)
O7 Tl2A As2 1_655 1_655 26.59(5)
O7 Tl2A As2 2_576 1_655 113.46(13)
O9 Tl2A As2 2_566 1_655 145.94(11)
O10 Tl2A As2 2_566 1_655 155.68(13)
O12 Tl2A As2 2_666 1_655 68.51(9)
As1 Tl2A As2 2_666 1_655 97.41(10)
O4 Tl2A As2 2_666 1_655 72.43(9)
O3 Tl2A O4 2_666 . 100.56(13)
O2 Tl2A O4 . . 44.83(9)
O6 Tl2A O4 1_655 . 105.38(11)
O12 Tl2A O4 1_565 . 116.01(13)
O8 Tl2A O4 . . 49.45(9)
O7 Tl2A O4 1_655 . 120.12(11)
O7 Tl2A O4 2_576 . 134.10(14)
O9 Tl2A O4 2_566 . 43.94(7)
O10 Tl2A O4 2_566 . 88.11(12)
O12 Tl2A O4 2_666 . 139.43(11)
As1 Tl2A O4 2_666 . 82.21(9)
O4 Tl2A O4 2_666 . 84.55(10)
As2 Tl2A O4 1_655 . 109.33(10)
O3 Tl2A Tl1B 2_666 2_675 161.45(17)
O2 Tl2A Tl1B . 2_675 53.76(17)
O6 Tl2A Tl1B 1_655 2_675 79.28(18)
O12 Tl2A Tl1B 1_565 2_675 59.60(16)
O8 Tl2A Tl1B . 2_675 53.9(2)
O7 Tl2A Tl1B 1_655 2_675 49.1(2)
O7 Tl2A Tl1B 2_576 2_675 143.0(2)
O9 Tl2A Tl1B 2_566 2_675 116.1(2)
O10 Tl2A Tl1B 2_566 2_675 145.3(2)
O12 Tl2A Tl1B 2_666 2_675 124.9(2)
As1 Tl2A Tl1B 2_666 2_675 137.33(16)
O4 Tl2A Tl1B 2_666 2_675 114.80(15)
As2 Tl2A Tl1B 1_655 2_675 58.25(19)
O4 Tl2A Tl1B . 2_675 75.5(2)
O3 Tl2B O8 2_666 . 149.22(12)
O3 Tl2B O2 2_666 . 108.16(12)
O8 Tl2B O2 . . 73.17(13)
O3 Tl2B O12 2_666 1_565 134.7(2)
O8 Tl2B O12 . 1_565 68.56(8)
O2 Tl2B O12 . 1_565 108.07(11)
O3 Tl2B O9 2_666 2_566 73.06(8)
O8 Tl2B O9 . 2_566 76.24(10)
O2 Tl2B O9 . 2_566 88.85(14)
O12 Tl2B O9 1_565 2_566 133.58(9)
O3 Tl2B O10 2_666 2_566 54.99(8)
O8 Tl2B O10 . 2_566 102.08(8)
O2 Tl2B O10 . 2_566 136.68(14)
O12 Tl2B O10 1_565 2_566 109.78(14)
O9 Tl2B O10 2_566 2_566 49.37(6)
O3 Tl2B O6 2_666 1_655 78.90(8)
O8 Tl2B O6 . 1_655 122.70(14)
O2 Tl2B O6 . 1_655 58.07(8)
O12 Tl2B O6 1_565 1_655 98.30(9)
O9 Tl2B O6 2_566 1_655 126.44(12)
O10 Tl2B O6 2_566 1_655 133.58(11)
O3 Tl2B O7 2_666 2_576 52.16(10)
O8 Tl2B O7 . 2_576 131.34(12)
O2 Tl2B O7 . 2_576 155.48(9)
O12 Tl2B O7 1_565 2_576 84.81(13)
O9 Tl2B O7 2_566 2_576 97.20(9)
O10 Tl2B O7 2_566 2_576 48.95(8)
O6 Tl2B O7 1_655 2_576 100.23(12)
O3 Tl2B O4 2_666 . 105.48(12)
O8 Tl2B O4 . . 52.13(10)
O2 Tl2B O4 . . 46.54(9)
O12 Tl2B O4 1_565 . 119.12(12)
O9 Tl2B O4 2_566 . 46.87(8)
O10 Tl2B O4 2_566 . 95.76(9)
O6 Tl2B O4 1_655 . 101.98(13)
O7 Tl2B O4 2_576 . 144.05(8)
O3 Tl2B As1 2_666 2_666 25.50(5)
O8 Tl2B As1 . 2_666 135.81(15)
O2 Tl2B As1 . 2_666 83.25(10)
O12 Tl2B As1 1_565 2_666 155.60(15)
O9 Tl2B As1 2_566 2_666 66.26(6)
O10 Tl2B As1 2_566 2_666 70.68(6)
O6 Tl2B As1 1_655 2_666 68.82(6)
O7 Tl2B As1 2_576 2_666 77.62(8)
O4 Tl2B As1 . 2_666 84.53(9)
O3 Tl2B O7 2_666 1_655 114.48(10)
O8 Tl2B O7 . 1_655 95.62(9)
O2 Tl2B O7 . 1_655 73.45(8)
O12 Tl2B O7 1_565 1_655 53.44(7)
O9 Tl2B O7 2_566 1_655 162.11(18)
O10 Tl2B O7 2_566 1_655 148.46(17)
O6 Tl2B O7 1_655 1_655 45.34(6)
O7 Tl2B O7 2_576 1_655 100.05(12)
O4 Tl2B O7 . 1_655 115.66(12)
As1 Tl2B O7 2_666 1_655 113.00(6)
O3 Tl2B O4 2_666 2_666 44.76(7)
O8 Tl2B O4 . 2_666 134.38(18)
O2 Tl2B O4 . 2_666 65.24(9)
O12 Tl2B O4 1_565 2_666 141.63(9)
O9 Tl2B O4 2_566 2_666 84.79(8)
O10 Tl2B O4 2_566 2_666 95.78(8)
O6 Tl2B O4 1_655 2_666 44.76(6)
O7 Tl2B O4 2_576 2_666 91.56(9)
O4 Tl2B O4 . 2_666 84.79(11)
As1 Tl2B O4 2_666 2_666 25.29(4)
O7 Tl2B O4 1_655 2_666 90.02(7)
O3 Tl2B O12 2_666 2_666 45.24(8)
O8 Tl2B O12 . 2_666 165.47(10)
O2 Tl2B O12 . 2_666 106.12(8)
O12 Tl2B O12 1_565 2_666 98.54(12)
O9 Tl2B O12 2_566 2_666 118.27(9)
O10 Tl2B O12 2_566 2_666 88.37(11)
O6 Tl2B O12 1_655 2_666 50.52(7)
O7 Tl2B O12 2_576 2_666 50.28(8)
O4 Tl2B O12 . 2_666 137.64(10)
As1 Tl2B O12 2_666 2_666 57.16(6)
O7 Tl2B O12 1_655 2_666 70.64(7)
O4 Tl2B O12 2_666 2_666 52.86(6)
O3 Tl2B O2 2_666 2_666 46.10(7)
O8 Tl2B O2 . 2_666 109.73(14)
O2 Tl2B O2 . 2_666 72.92(11)
O12 Tl2B O2 1_565 2_666 177.42(8)
O9 Tl2B O2 2_566 2_666 43.85(7)
O10 Tl2B O2 2_566 2_666 68.46(7)
O6 Tl2B O2 1_655 2_666 84.25(9)
O7 Tl2B O2 2_576 2_666 95.15(8)
O4 Tl2B O2 . 2_666 59.71(8)
As1 Tl2B O2 2_666 2_666 26.23(4)
O7 Tl2B O2 1_655 2_666 129.04(9)
O4 Tl2B O2 2_666 2_666 40.95(6)
O12 Tl2B O2 2_666 2_666 83.38(7)
O3 Tl2B As3 2_666 2_566 66.57(6)
O8 Tl2B As3 . 2_566 84.53(8)
O2 Tl2B As3 . 2_566 114.04(13)
O12 Tl2B As3 1_565 2_566 119.79(9)
O9 Tl2B As3 2_566 2_566 25.19(4)
O10 Tl2B As3 2_566 2_566 25.27(4)
O6 Tl2B As3 1_655 2_566 140.22(8)
O7 Tl2B As3 2_576 2_566 74.20(7)
O4 Tl2B As3 . 2_566 70.61(7)
As1 Tl2B As3 2_666 2_566 71.55(5)
O7 Tl2B As3 1_655 2_566 172.07(14)
O4 Tl2B As3 2_666 2_566 95.54(7)
O12 Tl2B As3 2_666 2_566 108.40(9)
O2 Tl2B As3 2_666 2_566 57.80(6)
O3 Tl2C O12 2_666 1_565 145.5(4)
O3 Tl2C O6 2_666 1_655 85.5(4)
O12 Tl2C O6 1_565 1_655 109.3(5)
O3 Tl2C O2 2_666 . 105.8(4)
O12 Tl2C O2 1_565 . 108.6(4)
O6 Tl2C O2 1_655 . 60.2(3)
O3 Tl2C O7 2_666 2_576 54.9(2)
O12 Tl2C O7 1_565 2_576 90.7(3)
O6 Tl2C O7 1_655 2_576 112.0(4)
O2 Tl2C O7 . 2_576 160.6(5)
O3 Tl2C O8 2_666 . 132.8(6)
O12 Tl2C O8 1_565 . 66.0(3)
O6 Tl2C O8 1_655 . 121.8(4)
O2 Tl2C O8 . . 67.0(2)
O7 Tl2C O8 2_576 . 125.7(5)
O3 Tl2C O7 2_666 1_655 128.4(6)
O12 Tl2C O7 1_565 1_655 58.8(3)
O6 Tl2C O7 1_655 1_655 50.6(3)
O2 Tl2C O7 . 1_655 77.4(3)
O7 Tl2C O7 2_576 1_655 112.3(4)
O8 Tl2C O7 . 1_655 96.7(3)
O3 Tl2C O12 2_666 2_666 50.8(2)
O12 Tl2C O12 1_565 2_666 111.0(4)
O6 Tl2C O12 1_655 2_666 56.8(3)
O2 Tl2C O12 . 2_666 113.1(5)
O7 Tl2C O12 2_576 2_666 55.3(2)
O8 Tl2C O12 . 2_666 176.4(5)
O7 Tl2C O12 1_655 2_666 79.9(4)
O3 Tl2C O10 2_666 2_566 52.4(3)
O12 Tl2C O10 1_565 2_566 107.9(5)
O6 Tl2C O10 1_655 2_566 137.8(4)
O2 Tl2C O10 . 2_566 123.5(5)
O7 Tl2C O10 2_576 2_566 48.5(2)
O8 Tl2C O10 . 2_566 91.2(4)
O7 Tl2C O10 1_655 2_566 159.0(4)
O12 Tl2C O10 2_666 2_566 91.7(3)
O3 Tl2C O9 2_666 2_566 66.5(3)
O12 Tl2C O9 1_565 2_566 122.7(5)
O6 Tl2C O9 1_655 2_566 122.0(4)
O2 Tl2C O9 . 2_566 79.4(3)
O7 Tl2C O9 2_576 2_566 92.3(4)
O8 Tl2C O9 . 2_566 66.3(3)
O7 Tl2C O9 1_655 2_566 155.4(4)
O12 Tl2C O9 2_666 2_566 117.3(4)
O10 Tl2C O9 2_566 2_566 44.6(2)
O3 Tl2C Tl2C 2_666 2_676 93.7(5)
O12 Tl2C Tl2C 1_565 2_676 62.3(4)
O6 Tl2C Tl2C 1_655 2_676 75.3(6)
O2 Tl2C Tl2C . 2_676 128.9(8)
O7 Tl2C Tl2C 2_576 2_676 58.0(3)
O8 Tl2C Tl2C . 2_676 128.2(6)
O7 Tl2C Tl2C 1_655 2_676 54.3(4)
O12 Tl2C Tl2C 2_666 2_676 48.7(3)
O10 Tl2C Tl2C 2_566 2_676 105.9(5)
O9 Tl2C Tl2C 2_566 2_676 150.3(6)
O3 Tl2C As1 2_666 2_666 24.72(13)
O12 Tl2C As1 1_565 2_666 169.5(4)
O6 Tl2C As1 1_655 2_666 71.6(3)
O2 Tl2C As1 . 2_666 81.2(3)
O7 Tl2C As1 2_576 2_666 79.5(3)
O8 Tl2C As1 . 2_666 122.9(4)
O7 Tl2C As1 1_655 2_666 121.7(5)
O12 Tl2C As1 2_666 2_666 60.3(2)
O10 Tl2C As1 2_566 2_666 68.2(3)
O9 Tl2C As1 2_566 2_666 62.0(2)
Tl2C Tl2C As1 2_676 2_666 108.7(5)
O3 Tl2C O4 2_666 2_666 46.0(2)
O12 Tl2C O4 1_565 2_666 155.8(6)
O6 Tl2C O4 1_655 2_666 46.7(2)
O2 Tl2C O4 . 2_666 65.4(3)
O7 Tl2C O4 2_576 2_666 96.1(3)
O8 Tl2C O4 . 2_666 125.5(3)
O7 Tl2C O4 1_655 2_666 97.3(4)
O12 Tl2C O4 2_666 2_666 56.5(2)
O10 Tl2C O4 2_566 2_666 93.8(3)
O9 Tl2C O4 2_566 2_666 80.4(3)
Tl2C Tl2C O4 2_676 2_666 102.1(6)
As1 Tl2C O4 2_666 2_666 25.60(10)
O3 Tl2C As2 2_666 1_655 109.1(5)
O12 Tl2C As2 1_565 1_655 84.9(4)
O6 Tl2C As2 1_655 1_655 25.01(15)
O2 Tl2C As2 . 1_655 62.3(3)
O7 Tl2C As2 2_576 1_655 119.1(4)
O8 Tl2C As2 . 1_655 107.4(3)
O7 Tl2C As2 1_655 1_655 26.34(14)
O12 Tl2C As2 2_666 1_655 70.0(3)
O10 Tl2C As2 2_566 1_655 160.7(4)
O9 Tl2C As2 2_566 1_655 139.2(4)
Tl2C Tl2C As2 2_676 1_655 66.7(5)
As1 Tl2C As2 2_666 1_655 96.6(4)
O4 Tl2C As2 2_666 1_655 71.5(3)
O3 Tl2C Tl2A 2_666 2_676 92.3(3)
O12 Tl2C Tl2A 1_565 2_676 62.8(2)
O6 Tl2C Tl2A 1_655 2_676 77.0(3)
O2 Tl2C Tl2A . 2_676 131.1(5)
O7 Tl2C Tl2A 2_576 2_676 55.8(2)
O8 Tl2C Tl2A . 2_676 128.8(3)
O7 Tl2C Tl2A 1_655 2_676 56.5(2)
O12 Tl2C Tl2A 2_666 2_676 48.24(18)
O10 Tl2C Tl2A 2_566 2_676 103.7(3)
O9 Tl2C Tl2A 2_566 2_676 148.1(4)
Tl2C Tl2C Tl2A 2_676 2_676 2.3(3)
As1 Tl2C Tl2A 2_666 2_676 108.0(3)
O4 Tl2C Tl2A 2_666 2_676 102.4(3)
As2 Tl2C Tl2A 1_655 2_676 68.9(2)
O4 Fe1 O4 2_566 . 180.0
O4 Fe1 O6 2_566 2_566 91.70(10)
O4 Fe1 O6 . 2_566 88.30(10)
O4 Fe1 O6 2_566 . 88.30(10)
O4 Fe1 O6 . . 91.70(10)
O6 Fe1 O6 2_566 . 180.0
O4 Fe1 O9 2_566 . 87.04(9)
O4 Fe1 O9 . . 92.96(9)
O6 Fe1 O9 2_566 . 92.17(9)
O6 Fe1 O9 . . 87.83(9)
O4 Fe1 O9 2_566 2_566 92.96(9)
O4 Fe1 O9 . 2_566 87.04(9)
O6 Fe1 O9 2_566 2_566 87.83(9)
O6 Fe1 O9 . 2_566 92.17(9)
O9 Fe1 O9 . 2_566 180.00(12)
O4 Fe1 Tl2A 2_566 2_666 124.04(9)
O4 Fe1 Tl2A . 2_666 55.96(9)
O6 Fe1 Tl2A 2_566 2_666 33.14(8)
O6 Fe1 Tl2A . 2_666 146.86(8)
O9 Fe1 Tl2A . 2_666 99.80(8)
O9 Fe1 Tl2A 2_566 2_666 80.20(8)
O4 Fe1 Tl2A 2_566 1_455 55.96(9)
O4 Fe1 Tl2A . 1_455 124.04(9)
O6 Fe1 Tl2A 2_566 1_455 146.86(8)
O6 Fe1 Tl2A . 1_455 33.14(8)
O9 Fe1 Tl2A . 1_455 80.20(8)
O9 Fe1 Tl2A 2_566 1_455 99.80(8)
Tl2A Fe1 Tl2A 2_666 1_455 180.0
O4 Fe1 Tl2C 2_566 2_666 123.9(2)
O4 Fe1 Tl2C . 2_666 56.1(2)
O6 Fe1 Tl2C 2_566 2_666 32.4(2)
O6 Fe1 Tl2C . 2_666 147.6(2)
O9 Fe1 Tl2C . 2_666 96.31(16)
O9 Fe1 Tl2C 2_566 2_666 83.69(16)
Tl2A Fe1 Tl2C 2_666 2_666 3.50(15)
Tl2A Fe1 Tl2C 1_455 2_666 176.50(15)
O4 Fe1 Tl2C 2_566 1_455 56.1(2)
O4 Fe1 Tl2C . 1_455 123.9(2)
O6 Fe1 Tl2C 2_566 1_455 147.6(2)
O6 Fe1 Tl2C . 1_455 32.4(2)
O9 Fe1 Tl2C . 1_455 83.69(16)
O9 Fe1 Tl2C 2_566 1_455 96.31(16)
Tl2A Fe1 Tl2C 2_666 1_455 176.50(15)
Tl2A Fe1 Tl2C 1_455 1_455 3.50(15)
Tl2C Fe1 Tl2C 2_666 1_455 180.0
O4 Fe1 Tl2B 2_566 2_566 51.92(9)
O4 Fe1 Tl2B . 2_566 128.08(9)
O6 Fe1 Tl2B 2_566 2_566 77.24(7)
O6 Fe1 Tl2B . 2_566 102.76(7)
O9 Fe1 Tl2B . 2_566 39.51(8)
O9 Fe1 Tl2B 2_566 2_566 140.49(8)
Tl2A Fe1 Tl2B 2_666 2_566 103.44(5)
Tl2A Fe1 Tl2B 1_455 2_566 76.56(5)
Tl2C Fe1 Tl2B 2_666 2_566 100.63(18)
Tl2C Fe1 Tl2B 1_455 2_566 79.37(18)
O4 Fe1 Tl2B 2_566 . 128.08(9)
O4 Fe1 Tl2B . . 51.92(9)
O6 Fe1 Tl2B 2_566 . 102.76(7)
O6 Fe1 Tl2B . . 77.24(7)
O9 Fe1 Tl2B . . 140.49(8)
O9 Fe1 Tl2B 2_566 . 39.51(8)
Tl2A Fe1 Tl2B 2_666 . 76.56(5)
Tl2A Fe1 Tl2B 1_455 . 103.44(5)
Tl2C Fe1 Tl2B 2_666 . 79.37(18)
Tl2C Fe1 Tl2B 1_455 . 100.63(18)
Tl2B Fe1 Tl2B 2_566 . 180.0
O5 Fe2 O11 . . 95.79(10)
O5 Fe2 O1 . . 95.83(9)
O11 Fe2 O1 . . 94.90(9)
O5 Fe2 O10 . 2_565 87.53(9)
O11 Fe2 O10 . 2_565 91.37(9)
O1 Fe2 O10 . 2_565 172.54(9)
O5 Fe2 O7 . 2_575 94.10(9)
O11 Fe2 O7 . 2_575 169.50(9)
O1 Fe2 O7 . 2_575 87.58(9)
O10 Fe2 O7 2_565 2_575 85.53(9)
O5 Fe2 O3 . 2_665 174.72(8)
O11 Fe2 O3 . 2_665 85.61(9)
O1 Fe2 O3 . 2_665 89.11(8)
O10 Fe2 O3 2_565 2_665 87.34(8)
O7 Fe2 O3 2_575 2_665 84.23(9)
O5 Fe2 Tl1B . . 83.71(16)
O11 Fe2 Tl1B . . 134.23(14)
O1 Fe2 Tl1B . . 40.21(13)
O10 Fe2 Tl1B 2_565 . 134.14(13)
O7 Fe2 Tl1B 2_575 . 50.57(15)
O3 Fe2 Tl1B 2_665 . 98.97(16)
O5 Fe2 Tl2C . 1_554 135.2(2)
O11 Fe2 Tl2C . 1_554 115.68(19)
O1 Fe2 Tl2C . 1_554 111.3(3)
O10 Fe2 Tl2C 2_565 1_554 62.1(3)
O7 Fe2 Tl2C 2_575 1_554 54.13(19)
O3 Fe2 Tl2C 2_665 1_554 40.4(2)
Tl1B Fe2 Tl2C . 1_554 94.5(3)
O5 Fe2 Tl2B . 1_554 133.55(8)
O11 Fe2 Tl2B . 1_554 111.03(9)
O1 Fe2 Tl2B . 1_554 117.77(7)
O10 Fe2 Tl2B 2_565 1_554 55.86(7)
O7 Fe2 Tl2B 2_575 1_554 59.09(9)
O3 Fe2 Tl2B 2_665 1_554 41.56(7)
Tl1B Fe2 Tl2B . 1_554 101.28(17)
Tl2C Fe2 Tl2B 1_554 1_554 7.1(2)
O5 Fe2 Tl2A . 1_554 136.51(9)
O11 Fe2 Tl2A . 1_554 112.58(9)
O1 Fe2 Tl2A . 1_554 112.92(9)
O10 Fe2 Tl2A 2_565 1_554 60.69(9)
O7 Fe2 Tl2A 2_575 1_554 57.26(8)
O3 Fe2 Tl2A 2_665 1_554 38.83(8)
Tl1B Fe2 Tl2A . 1_554 97.41(17)
Tl2C Fe2 Tl2A 1_554 1_554 3.2(2)
Tl2B Fe2 Tl2A 1_554 1_554 4.85(8)
O5 Fe2 Tl1A . . 84.15(7)
O11 Fe2 Tl1A . . 131.70(7)
O1 Fe2 Tl1A . . 37.68(6)
O10 Fe2 Tl1A 2_565 . 136.69(6)
O7 Fe2 Tl1A 2_575 . 52.97(6)
O3 Fe2 Tl1A 2_665 . 98.74(6)
Tl1B Fe2 Tl1A . . 2.55(12)
Tl2C Fe2 Tl1A 1_554 . 95.9(2)
Tl2B Fe2 Tl1A 1_554 . 102.81(6)
Tl2A Fe2 Tl1A 1_554 . 98.84(7)
O5 Fe2 Tl1B . 2_675 84.53(14)
O11 Fe2 Tl1B . 2_675 129.48(12)
O1 Fe2 Tl1B . 2_675 35.47(11)
O10 Fe2 Tl1B 2_565 2_675 138.92(11)
O7 Fe2 Tl1B 2_575 2_675 55.08(13)
O3 Fe2 Tl1B 2_665 2_675 98.53(14)
Tl1B Fe2 Tl1B . 2_675 4.8(2)
Tl2C Fe2 Tl1B 1_554 2_675 97.2(3)
Tl2B Fe2 Tl1B 1_554 2_675 104.14(15)
Tl2A Fe2 Tl1B 1_554 2_675 100.08(15)
Tl1A Fe2 Tl1B . 2_675 2.23(10)
O4 As1 O1 . . 111.35(11)
O4 As1 O3 . . 108.09(11)
O1 As1 O3 . . 117.28(10)
O4 As1 O2 . . 105.89(12)
O1 As1 O2 . . 103.87(11)
O3 As1 O2 . . 109.74(11)
O4 As1 Tl2B . 2_666 82.50(10)
O1 As1 Tl2B . 2_666 161.67(10)
O3 As1 Tl2B . 2_666 44.89(11)
O2 As1 Tl2B . 2_666 82.71(11)
O4 As1 Tl2A . 2_666 77.17(11)
O1 As1 Tl2A . 2_666 163.46(9)
O3 As1 Tl2A . 2_666 46.32(9)
O2 As1 Tl2A . 2_666 86.55(11)
Tl2B As1 Tl2A 2_666 2_666 5.82(8)
O4 As1 Tl1B . . 109.71(17)
O1 As1 Tl1B . . 41.4(2)
O3 As1 Tl1B . . 141.82(17)
O2 As1 Tl1B . . 64.3(2)
Tl2B As1 Tl1B 2_666 . 146.8(2)
Tl2A As1 Tl1B 2_666 . 150.9(2)
O4 As1 Tl2C . 2_666 78.6(3)
O1 As1 Tl2C . 2_666 159.27(18)
O3 As1 Tl2C . 2_666 42.3(2)
O2 As1 Tl2C . 2_666 90.0(2)
Tl2B As1 Tl2C 2_666 2_666 7.5(3)
Tl2A As1 Tl2C 2_666 2_666 4.29(16)
Tl1B As1 Tl2C . 2_666 154.2(3)
O4 As1 Tl1A . . 110.64(9)
O1 As1 Tl1A . . 46.10(7)
O3 As1 Tl1A . . 141.27(7)
O2 As1 Tl1A . . 59.36(9)
Tl2B As1 Tl1A 2_666 . 141.78(6)
Tl2A As1 Tl1A 2_666 . 145.90(8)
Tl1B As1 Tl1A . . 5.0(2)
Tl2C As1 Tl1A 2_666 . 149.2(2)
O4 As1 Tl1B . 2_675 111.38(17)
O1 As1 Tl1B . 2_675 50.7(2)
O3 As1 Tl1B . 2_675 140.23(15)
O2 As1 Tl1B . 2_675 54.5(2)
Tl2B As1 Tl1B 2_666 2_675 137.0(2)
Tl2A As1 Tl1B 2_666 2_675 141.1(2)
Tl1B As1 Tl1B . 2_675 9.8(4)
Tl2C As1 Tl1B 2_666 2_675 144.4(3)
Tl1A As1 Tl1B . 2_675 4.8(2)
O4 As1 Tl2B . . 65.74(9)
O1 As1 Tl2B . . 104.61(8)
O3 As1 Tl2B . . 135.82(8)
O2 As1 Tl2B . . 42.84(9)
Tl2B As1 Tl2B 2_666 . 91.89(9)
Tl2A As1 Tl2B 2_666 . 91.78(7)
Tl1B As1 Tl2B . . 67.5(2)
Tl2C As1 Tl2B 2_666 . 96.05(17)
Tl1A As1 Tl2B . . 64.33(4)
Tl1B As1 Tl2B 2_675 . 61.4(2)
O4 As1 Tl2A . . 70.99(11)
O1 As1 Tl2A . . 103.97(9)
O3 As1 Tl2A . . 134.43(9)
O2 As1 Tl2A . . 37.60(11)
Tl2B As1 Tl2A 2_666 . 91.71(10)
Tl2A As1 Tl2A 2_666 . 92.14(8)
Tl1B As1 Tl2A . . 65.3(2)
Tl2C As1 Tl2A 2_666 . 96.43(18)
Tl1A As1 Tl2A . . 61.81(6)
Tl1B As1 Tl2A 2_675 . 58.5(2)
Tl2B As1 Tl2A . . 5.35(7)
O6 As2 O5 . . 112.19(11)
O6 As2 O7 . . 108.23(11)
O5 As2 O7 . . 109.50(11)
O6 As2 O8 . . 108.63(11)
O5 As2 O8 . . 111.53(11)
O7 As2 O8 . . 106.56(10)
O6 As2 Tl1B . 2_575 102.43(17)
O5 As2 Tl1B . 2_575 62.73(19)
O7 As2 Tl1B . 2_575 53.70(19)
O8 As2 Tl1B . 2_575 147.66(17)
O6 As2 Tl2A . 1_455 48.51(9)
O5 As2 Tl2A . 1_455 110.40(10)
O7 As2 Tl2A . 1_455 63.33(9)
O8 As2 Tl2A . 1_455 137.72(10)
Tl1B As2 Tl2A 2_575 1_455 61.81(17)
O6 As2 Tl2C . 1_455 48.7(2)
O5 As2 Tl2C . 1_455 114.46(19)
O7 As2 Tl2C . 1_455 61.6(2)
O8 As2 Tl2C . 1_455 133.80(19)
Tl1B As2 Tl2C 2_575 1_455 64.3(2)
Tl2A As2 Tl2C 1_455 1_455 4.18(17)
O6 As2 Tl1A . 1_455 101.68(8)
O5 As2 Tl1A . 1_455 61.84(8)
O7 As2 Tl1A . 1_455 55.05(7)
O8 As2 Tl1A . 1_455 148.71(8)
Tl1B As2 Tl1A 2_575 1_455 1.42(17)
Tl2A As2 Tl1A 1_455 1_455 61.71(6)
Tl2C As2 Tl1A 1_455 1_455 64.28(19)
O6 As2 Tl2C . 2_576 77.7(2)
O5 As2 Tl2C . 2_576 156.3(2)
O7 As2 Tl2C . 2_576 47.2(2)
O8 As2 Tl2C . 2_576 83.6(3)
Tl1B As2 Tl2C 2_575 2_576 94.6(3)
Tl2A As2 Tl2C 1_455 2_576 59.0(2)
Tl2C As2 Tl2C 1_455 2_576 54.9(4)
Tl1A As2 Tl2C 1_455 2_576 95.6(2)
O6 As2 Tl2B . 1_455 48.84(8)
O5 As2 Tl2B . 1_455 109.53(11)
O7 As2 Tl2B . 1_455 63.38(9)
O8 As2 Tl2B . 1_455 138.60(11)
Tl1B As2 Tl2B 2_575 1_455 61.06(16)
Tl2A As2 Tl2B 1_455 1_455 0.88(12)
Tl2C As2 Tl2B 1_455 1_455 5.0(2)
Tl1A As2 Tl2B 1_455 1_455 60.95(5)
Tl2C As2 Tl2B 2_576 1_455 59.7(2)
O6 As2 Tl1B . . 136.29(14)
O5 As2 Tl1B . . 76.3(2)
O7 As2 Tl1B . . 108.47(12)
O8 As2 Tl1B . . 37.3(2)
Tl1B As2 Tl1B 2_575 . 118.22(18)
Tl2A As2 Tl1B 1_455 . 170.49(16)
Tl2C As2 Tl1B 1_455 . 166.8(2)
Tl1A As2 Tl1B 1_455 . 118.58(16)
Tl2C As2 Tl1B 2_576 . 112.2(3)
Tl2B As2 Tl1B 1_455 . 170.96(15)
O6 As2 Tl2B . 2_576 81.06(8)
O5 As2 Tl2B . 2_576 158.98(8)
O7 As2 Tl2B . 2_576 49.63(8)
O8 As2 Tl2B . 2_576 77.26(9)
Tl1B As2 Tl2B 2_575 2_576 99.31(18)
Tl2A As2 Tl2B 1_455 2_576 65.34(6)
Tl2C As2 Tl2B 1_455 2_576 61.21(17)
Tl1A As2 Tl2B 1_455 2_576 100.41(4)
Tl2C As2 Tl2B 2_576 2_576 6.4(2)
Tl2B As2 Tl2B 1_455 2_576 66.09(10)
Tl1B As2 Tl2B . 2_576 105.92(19)
O11 As3 O10 . . 114.60(11)
O11 As3 O9 . . 114.77(11)
O10 As3 O9 . . 107.46(11)
O11 As3 O12 . . 108.03(11)
O10 As3 O12 . . 99.57(10)
O9 As3 O12 . . 111.41(11)
O11 As3 Tl2B . 2_566 151.04(8)
O10 As3 Tl2B . 2_566 56.44(11)
O9 As3 Tl2B . 2_566 54.30(11)
O12 As3 Tl2B . 2_566 100.81(9)
O11 As3 Tl2A . 2_566 149.26(9)
O10 As3 Tl2A . 2_566 55.87(9)
O9 As3 Tl2A . 2_566 54.20(9)
O12 As3 Tl2A . 2_566 102.56(9)
Tl2B As3 Tl2A 2_566 2_566 1.80(6)
O11 As3 Tl2C . 2_566 148.9(2)
O10 As3 Tl2C . 2_566 52.14(17)
O9 As3 Tl2C . 2_566 57.83(17)
O12 As3 Tl2C . 2_566 102.3(2)
Tl2B As3 Tl2C 2_566 2_566 4.5(2)
Tl2A As3 Tl2C 2_566 2_566 3.75(14)
O11 As3 Tl1B . 2_665 84.07(15)
O10 As3 Tl1B . 2_665 69.2(2)
O9 As3 Tl1B . 2_665 159.27(14)
O12 As3 Tl1B . 2_665 51.33(18)
Tl2B As3 Tl1B 2_566 2_665 113.00(17)
Tl2A As3 Tl1B 2_566 2_665 113.69(16)
Tl2C As3 Tl1B 2_566 2_665 110.6(2)
O11 As3 Tl1A . 1_545 84.12(8)
O10 As3 Tl1A . 1_545 65.45(7)
O9 As3 Tl1A . 1_545 160.59(8)
O12 As3 Tl1A . 1_545 55.16(8)
Tl2B As3 Tl1A 2_566 1_545 111.13(8)
Tl2A As3 Tl1A 2_566 1_545 111.69(6)
Tl2C As3 Tl1A 2_566 1_545 108.43(16)
Tl1B As3 Tl1A 2_665 1_545 4.35(19)
O11 As3 Tl1B . 1_545 84.20(14)
O10 As3 Tl1B . 1_545 61.76(19)
O9 As3 Tl1B . 1_545 161.02(14)
O12 As3 Tl1B . 1_545 58.96(17)
Tl2B As3 Tl1B 2_566 1_545 109.19(17)
Tl2A As3 Tl1B 2_566 1_545 109.63(16)
Tl2C As3 Tl1B 2_566 1_545 106.3(2)
Tl1B As3 Tl1B 2_665 1_545 8.6(4)
Tl1A As3 Tl1B 1_545 1_545 4.27(18)
O11 As3 Tl2C . 1_545 129.0(2)
O10 As3 Tl2C . 1_545 80.0(2)
O9 As3 Tl2C . 1_545 104.96(19)
O12 As3 Tl2C . 1_545 23.7(2)
Tl2B As3 Tl2C 2_566 1_545 78.9(2)
Tl2A As3 Tl2C 2_566 1_545 80.5(2)
Tl2C As3 Tl2C 2_566 1_545 79.8(4)
Tl1B As3 Tl2C 2_665 1_545 54.5(2)
Tl1A As3 Tl2C 1_545 1_545 56.81(16)
Tl1B As3 Tl2C 1_545 1_545 59.2(2)
O11 As3 Tl2B . 1_545 132.75(8)
O10 As3 Tl2B . 1_545 74.02(9)
O9 As3 Tl2B . 1_545 104.89(10)
O12 As3 Tl2B . 1_545 29.66(8)
Tl2B As3 Tl2B 2_566 1_545 74.28(6)
Tl2A As3 Tl2B 2_566 1_545 75.87(6)
Tl2C As3 Tl2B 2_566 1_545 74.87(19)
Tl1B As3 Tl2B 2_665 1_545 54.38(13)
Tl1A As3 Tl2B 1_545 1_545 56.21(6)
Tl1B As3 Tl2B 1_545 1_545 58.18(13)
Tl2C As3 Tl2B 1_545 1_545 6.2(2)
As1 O1 Fe2 . . 126.13(11)
As1 O1 Tl1B . . 114.3(3)
Fe2 O1 Tl1B . . 111.4(3)
As1 O1 Tl1A . . 108.97(9)
Fe2 O1 Tl1A . . 117.26(9)
Tl1B O1 Tl1A . . 5.8(2)
As1 O1 Tl1B . 2_675 104.2(2)
Fe2 O1 Tl1B . 2_675 122.4(2)
Tl1B O1 Tl1B . 2_675 11.0(4)
Tl1A O1 Tl1B . 2_675 5.16(19)
As1 O1 Tl2A . . 55.90(7)
Fe2 O1 Tl2A . . 135.14(10)
Tl1B O1 Tl2A . . 61.8(3)
Tl1A O1 Tl2A . . 57.72(6)
Tl1B O1 Tl2A 2_675 . 54.3(2)
As1 O1 Tl2B . . 55.35(7)
Fe2 O1 Tl2B . . 131.07(8)
Tl1B O1 Tl2B . . 64.2(3)
Tl1A O1 Tl2B . . 60.43(5)
Tl1B O1 Tl2B 2_675 . 57.3(2)
Tl2A O1 Tl2B . . 4.56(6)
As1 O1 Tl2C . . 56.97(16)
Fe2 O1 Tl2C . . 134.8(2)
Tl1B O1 Tl2C . . 60.8(3)
Tl1A O1 Tl2C . . 56.75(17)
Tl1B O1 Tl2C 2_675 . 53.4(3)
Tl2A O1 Tl2C . . 1.07(18)
Tl2B O1 Tl2C . . 4.9(2)
As1 O1 Tl2C . 1_554 150.86(17)
Fe2 O1 Tl2C . 1_554 47.1(2)
Tl1B O1 Tl2C . 1_554 91.3(3)
Tl1A O1 Tl2C . 1_554 95.80(16)
Tl1B O1 Tl2C 2_675 1_554 99.8(3)
Tl2A O1 Tl2C . 1_554 152.55(13)
Tl2B O1 Tl2C . 1_554 153.67(13)
Tl2C O1 Tl2C . 1_554 151.5(3)
As1 O1 Tl2A . 2_675 151.74(10)
Fe2 O1 Tl2A . 2_675 81.86(8)
Tl1B O1 Tl2A . 2_675 47.4(3)
Tl1A O1 Tl2A . 2_675 51.24(6)
Tl1B O1 Tl2A 2_675 2_675 54.8(2)
Tl2A O1 Tl2A . 2_675 108.96(6)
Tl2B O1 Tl2A . 2_675 111.56(8)
Tl2C O1 Tl2A . 2_675 107.99(18)
Tl2C O1 Tl2A 1_554 2_675 45.12(17)
As1 O1 Tl2C . 2_675 153.1(2)
Fe2 O1 Tl2C . 2_675 80.01(19)
Tl1B O1 Tl2C . 2_675 50.5(3)
Tl1A O1 Tl2C . 2_675 54.32(13)
Tl1B O1 Tl2C 2_675 2_675 57.9(3)
Tl2A O1 Tl2C . 2_675 112.04(15)
Tl2B O1 Tl2C . 2_675 114.66(15)
Tl2C O1 Tl2C . 2_675 111.07(16)
Tl2C O1 Tl2C 1_554 2_675 42.2(3)
Tl2A O1 Tl2C 2_675 2_675 3.11(12)
As1 O2 Tl2A . . 120.80(15)
As1 O2 Tl2B . . 114.06(13)
Tl2A O2 Tl2B . . 6.91(12)
As1 O2 Tl2C . . 122.7(3)
Tl2A O2 Tl2C . . 1.9(4)
Tl2B O2 Tl2C . . 8.8(3)
As1 O2 Tl1B . 2_675 99.0(3)
Tl2A O2 Tl1B . 2_675 79.2(2)
Tl2B O2 Tl1B . 2_675 81.3(2)
Tl2C O2 Tl1B . 2_675 79.2(3)
As1 O2 Tl1A . . 93.34(9)
Tl2A O2 Tl1A . . 81.85(9)
Tl2B O2 Tl1A . . 83.31(8)
Tl2C O2 Tl1A . . 81.9(2)
Tl1B O2 Tl1A 2_675 . 5.7(3)
As1 O2 Tl1B . . 88.0(3)
Tl2A O2 Tl1B . . 84.3(2)
Tl2B O2 Tl1B . . 85.2(2)
Tl2C O2 Tl1B . . 84.6(3)
Tl1B O2 Tl1B 2_675 . 11.1(5)
Tl1A O2 Tl1B . . 5.4(3)
As1 O2 Tl2B . 2_666 71.06(10)
Tl2A O2 Tl2B . 2_666 109.95(13)
Tl2B O2 Tl2B . 2_666 107.08(11)
Tl2C O2 Tl2B . 2_666 110.3(3)
Tl1B O2 Tl2B 2_675 2_666 168.9(3)
Tl1A O2 Tl2B . 2_666 163.67(10)
Tl1B O2 Tl2B . 2_666 158.5(3)
As1 O2 Tl2A . 2_666 67.86(10)
Tl2A O2 Tl2A . 2_666 107.71(11)
Tl2B O2 Tl2A . 2_666 104.32(10)
Tl2C O2 Tl2A . 2_666 108.2(3)
Tl1B O2 Tl2A 2_675 2_666 166.9(3)
Tl1A O2 Tl2A . 2_666 161.19(9)
Tl1B O2 Tl2A . 2_666 155.8(3)
Tl2B O2 Tl2A 2_666 2_666 5.22(6)
As1 O2 Tl2C . 2_666 65.1(2)
Tl2A O2 Tl2C . 2_666 111.0(2)
Tl2B O2 Tl2C . 2_666 107.5(2)
Tl2C O2 Tl2C . 2_666 111.5(2)
Tl1B O2 Tl2C 2_675 2_666 163.8(3)
Tl1A O2 Tl2C . 2_666 158.2(2)
Tl1B O2 Tl2C . 2_666 152.9(3)
Tl2B O2 Tl2C 2_666 2_666 6.2(2)
Tl2A O2 Tl2C 2_666 2_666 3.62(15)
As1 O2 H2 . . 113(3)
Tl2A O2 H2 . . 111(3)
Tl2B O2 H2 . . 114(3)
Tl2C O2 H2 . . 109(3)
Tl1B O2 H2 2_675 . 131(3)
Tl1A O2 H2 . . 135(3)
Tl1B O2 H2 . . 139(3)
Tl2B O2 H2 2_666 . 52(3)
Tl2A O2 H2 2_666 . 58(3)
Tl2C O2 H2 2_666 . 58(3)
As1 O3 Fe2 . 2_665 131.25(12)
As1 O3 Tl2C . 2_666 112.9(3)
Fe2 O3 Tl2C 2_665 2_666 110.1(3)
As1 O3 Tl2B . 2_666 109.61(14)
Fe2 O3 Tl2B 2_665 2_666 108.65(11)
Tl2C O3 Tl2B 2_666 2_666 10.1(4)
As1 O3 Tl2A . 2_666 107.96(12)
Fe2 O3 Tl2A 2_665 2_666 113.66(11)
Tl2C O3 Tl2A 2_666 2_666 5.4(2)
Tl2B O3 Tl2A 2_666 2_666 7.66(10)
As1 O3 Tl1B . 2_665 135.47(14)
Fe2 O3 Tl1B 2_665 2_665 55.10(13)
Tl2C O3 Tl1B 2_666 2_665 98.4(3)
Tl2B O3 Tl1B 2_666 2_665 106.05(16)
Tl2A O3 Tl1B 2_666 2_665 103.81(15)
As1 O3 Tl2C . 1_545 134.1(2)
Fe2 O3 Tl2C 2_665 1_545 91.18(19)
Tl2C O3 Tl2C 2_666 1_545 51.0(4)
Tl2B O3 Tl2C 2_666 1_545 60.46(16)
Tl2A O3 Tl2C 2_666 1_545 55.88(18)
Tl1B O3 Tl2C 2_665 1_545 50.50(18)
As1 O3 Tl2A . 1_545 135.71(10)
Fe2 O3 Tl2A 2_665 1_545 88.82(8)
Tl2C O3 Tl2A 2_666 1_545 53.5(3)
Tl2B O3 Tl2A 2_666 1_545 62.88(9)
Tl2A O3 Tl2A 2_666 1_545 58.48(13)
Tl1B O3 Tl2A 2_665 1_545 47.62(12)
Tl2C O3 Tl2A 1_545 1_545 2.89(14)
As1 O3 Tl1A . 1_545 132.86(9)
Fe2 O3 Tl1A 2_665 1_545 56.68(5)
Tl2C O3 Tl1A 2_666 1_545 100.0(3)
Tl2B O3 Tl1A 2_666 1_545 107.82(12)
Tl2A O3 Tl1A 2_666 1_545 105.31(10)
Tl1B O3 Tl1A 2_665 1_545 2.65(11)
Tl2C O3 Tl1A 1_545 1_545 51.31(14)
Tl2A O3 Tl1A 1_545 1_545 48.45(5)
As1 O3 Tl2B . 1_545 132.28(9)
Fe2 O3 Tl2B 2_665 1_545 91.64(8)
Tl2C O3 Tl2B 2_666 1_545 54.3(3)
Tl2B O3 Tl2B 2_666 1_545 63.88(13)
Tl2A O3 Tl2B 2_666 1_545 59.06(9)
Tl1B O3 Tl2B 2_665 1_545 48.44(13)
Tl2C O3 Tl2B 1_545 1_545 3.8(2)
Tl2A O3 Tl2B 1_545 1_545 3.54(5)
Tl1A O3 Tl2B 1_545 1_545 49.07(6)
As1 O3 Tl1B . . 26.48(12)
Fe2 O3 Tl1B 2_665 . 105.07(14)
Tl2C O3 Tl1B 2_666 . 131.6(3)
Tl2B O3 Tl1B 2_666 . 124.7(2)
Tl2A O3 Tl1B 2_666 . 126.15(18)
Tl1B O3 Tl1B 2_665 . 129.18(12)
Tl2C O3 Tl1B 1_545 . 158.3(2)
Tl2A O3 Tl1B 1_545 . 158.75(14)
Tl1A O3 Tl1B 1_545 . 127.28(17)
Tl2B O3 Tl1B 1_545 . 155.26(13)
As1 O3 Tl1B . 1_545 130.50(12)
Fe2 O3 Tl1B 2_665 1_545 58.15(12)
Tl2C O3 Tl1B 2_666 1_545 101.3(3)
Tl2B O3 Tl1B 2_666 1_545 109.41(15)
Tl2A O3 Tl1B 2_666 1_545 106.65(14)
Tl1B O3 Tl1B 2_665 1_545 5.04(19)
Tl2C O3 Tl1B 1_545 1_545 52.12(17)
Tl2A O3 Tl1B 1_545 1_545 49.29(11)
Tl1A O3 Tl1B 1_545 1_545 2.40(9)
Tl2B O3 Tl1B 1_545 1_545 49.72(12)
Tl1B O3 Tl1B . 1_545 125.5(2)
As1 O4 Fe1 . . 166.48(15)
As1 O4 Tl2B . . 89.90(10)
Fe1 O4 Tl2B . . 103.33(9)
As1 O4 Tl2A . 2_666 76.96(11)
Fe1 O4 Tl2A . 2_666 98.20(11)
Tl2B O4 Tl2A . 2_666 97.68(9)
As1 O4 Tl2C . 2_666 75.8(3)
Fe1 O4 Tl2C . 2_666 98.5(3)
Tl2B O4 Tl2C . 2_666 101.6(2)
Tl2A O4 Tl2C 2_666 2_666 4.18(17)
As1 O4 Tl2A . . 84.81(11)
Fe1 O4 Tl2A . . 108.35(11)
Tl2B O4 Tl2A . . 5.20(7)
Tl2A O4 Tl2A 2_666 . 95.45(10)
Tl2C O4 Tl2A 2_666 . 99.3(2)
As1 O4 Tl2B . 2_666 72.21(9)
Fe1 O4 Tl2B . 2_666 103.35(9)
Tl2B O4 Tl2B . 2_666 95.21(11)
Tl2A O4 Tl2B 2_666 2_666 5.28(8)
Tl2C O4 Tl2B 2_666 2_666 7.2(3)
Tl2A O4 Tl2B . 2_666 92.62(11)
As1 O4 Tl2C . . 86.4(3)
Fe1 O4 Tl2C . . 106.8(2)
Tl2B O4 Tl2C . . 3.7(3)
Tl2A O4 Tl2C 2_666 . 95.8(2)
Tl2C O4 Tl2C 2_666 . 99.6(2)
Tl2A O4 Tl2C . . 1.6(3)
Tl2B O4 Tl2C 2_666 . 93.1(2)
As1 O4 Tl1B . . 50.23(13)
Fe1 O4 Tl1B . . 139.29(14)
Tl2B O4 Tl1B . . 62.09(19)
Tl2A O4 Tl1B 2_666 . 120.48(15)
Tl2C O4 Tl1B 2_666 . 121.0(3)
Tl2A O4 Tl1B . . 59.2(2)
Tl2B O4 Tl1B 2_666 . 115.20(13)
Tl2C O4 Tl1B . . 60.4(3)
As1 O4 Tl1A . . 49.70(7)
Fe1 O4 Tl1A . . 140.71(10)
Tl2B O4 Tl1A . . 58.81(5)
Tl2A O4 Tl1A 2_666 . 117.68(9)
Tl2C O4 Tl1A 2_666 . 118.5(3)
Tl2A O4 Tl1A . . 55.77(6)
Tl2B O4 Tl1A 2_666 . 112.41(7)
Tl2C O4 Tl1A . . 56.96(19)
Tl1B O4 Tl1A . . 4.04(18)
As1 O4 Tl1B . 2_675 49.42(13)
Fe1 O4 Tl1B . 2_675 141.78(14)
Tl2B O4 Tl1B . 2_675 55.70(18)
Tl2A O4 Tl1B 2_666 2_675 114.90(14)
Tl2C O4 Tl1B 2_666 2_675 115.9(3)
Tl2A O4 Tl1B . 2_675 52.46(19)
Tl2B O4 Tl1B 2_666 2_675 109.66(13)
Tl2C O4 Tl1B . 2_675 53.7(3)
Tl1B O4 Tl1B . 2_675 7.9(3)
Tl1A O4 Tl1B . 2_675 3.91(17)
As2 O5 Fe2 . . 142.35(13)
As2 O5 Tl1B . 2_575 90.4(3)
Fe2 O5 Tl1B . 2_575 126.1(2)
As2 O5 Tl1A . 1_455 93.59(9)
Fe2 O5 Tl1A . 1_455 123.14(9)
Tl1B O5 Tl1A 2_575 1_455 3.4(2)
As2 O5 Tl1B . 1_455 96.3(2)
Fe2 O5 Tl1B . 1_455 120.6(2)
Tl1B O5 Tl1B 2_575 1_455 6.4(5)
Tl1A O5 Tl1B 1_455 1_455 3.0(2)
As2 O5 Tl1B . . 80.61(19)
Fe2 O5 Tl1B . . 68.44(17)
Tl1B O5 Tl1B 2_575 . 131.69(18)
Tl1A O5 Tl1B 1_455 . 133.51(11)
Tl1B O5 Tl1B 1_455 . 135.0(2)
As2 O5 Tl1A . . 78.54(8)
Fe2 O5 Tl1A . . 69.75(6)
Tl1B O5 Tl1A 2_575 . 133.1(2)
Tl1A O5 Tl1A 1_455 . 135.05(6)
Tl1B O5 Tl1A 1_455 . 136.64(17)
Tl1B O5 Tl1A . . 2.70(16)
As2 O5 Tl2A . 1_455 49.78(8)
Fe2 O5 Tl2A . 1_455 157.69(10)
Tl1B O5 Tl2A 2_575 1_455 54.9(2)
Tl1A O5 Tl2A 1_455 1_455 56.74(6)
Tl1B O5 Tl2A 1_455 1_455 58.40(17)
Tl1B O5 Tl2A . 1_455 129.96(19)
Tl1A O5 Tl2A . 1_455 128.08(7)
As2 O5 Tl1B . 2_675 76.70(17)
Fe2 O5 Tl1B . 2_675 70.94(16)
Tl1B O5 Tl1B 2_575 2_675 134.2(3)
Tl1A O5 Tl1B 1_455 2_675 136.33(10)
Tl1B O5 Tl1B 1_455 2_675 138.05(15)
Tl1B O5 Tl1B . 2_675 5.1(3)
Tl1A O5 Tl1B . 2_675 2.40(13)
Tl2A O5 Tl1B 1_455 2_675 126.37(17)
As2 O5 Tl2C . 1_455 46.81(17)
Fe2 O5 Tl2C . 1_455 160.19(18)
Tl1B O5 Tl2C 2_575 1_455 56.2(3)
Tl1A O5 Tl2C 1_455 1_455 58.14(17)
Tl1B O5 Tl2C 1_455 1_455 59.9(2)
Tl1B O5 Tl2C . 1_455 126.9(2)
Tl1A O5 Tl2C . 1_455 125.04(17)
Tl2A O5 Tl2C 1_455 1_455 3.08(18)
Tl1B O5 Tl2C 2_675 1_455 123.3(2)
As2 O5 Tl2B . 1_455 51.91(8)
Fe2 O5 Tl2B . 1_455 156.29(10)
Tl1B O5 Tl2B 2_575 1_455 53.55(19)
Tl1A O5 Tl2B 1_455 1_455 55.28(5)
Tl1B O5 Tl2B 1_455 1_455 56.85(17)
Tl1B O5 Tl2B . 1_455 132.05(19)
Tl1A O5 Tl2B . 1_455 130.19(7)
Tl2A O5 Tl2B 1_455 1_455 2.14(10)
Tl1B O5 Tl2B 2_675 1_455 128.49(17)
Tl2C O5 Tl2B 1_455 1_455 5.15(19)
As2 O6 Fe1 . . 126.05(12)
As2 O6 Tl2A . 1_455 106.26(12)
Fe1 O6 Tl2A . 1_455 124.82(12)
As2 O6 Tl2C . 1_455 106.3(3)
Fe1 O6 Tl2C . 1_455 126.3(3)
Tl2A O6 Tl2C 1_455 1_455 5.3(2)
As2 O6 Tl2B . 1_455 108.64(10)
Fe1 O6 Tl2B . 1_455 122.23(10)
Tl2A O6 Tl2B 1_455 1_455 2.60(10)
Tl2C O6 Tl2B 1_455 1_455 6.8(3)
As2 O6 Tl2C . 2_576 78.7(2)
Fe1 O6 Tl2C . 2_576 135.73(19)
Tl2A O6 Tl2C 1_455 2_576 64.8(2)
Tl2C O6 Tl2C 1_455 2_576 59.8(4)
Tl2B O6 Tl2C 1_455 2_576 66.6(3)
As2 O6 Tl2B . 2_576 76.31(8)
Fe1 O6 Tl2B . 2_576 133.00(9)
Tl2A O6 Tl2B 1_455 2_576 70.73(9)
Tl2C O6 Tl2B 1_455 2_576 65.8(2)
Tl2B O6 Tl2B 1_455 2_576 72.57(11)
Tl2C O6 Tl2B 2_576 2_576 6.0(3)
As2 O6 Tl2A . 2_576 79.49(9)
Fe1 O6 Tl2A . 2_576 133.98(9)
Tl2A O6 Tl2A 1_455 2_576 65.97(14)
Tl2C O6 Tl2A 1_455 2_576 61.0(2)
Tl2B O6 Tl2A 1_455 2_576 67.76(10)
Tl2C O6 Tl2A 2_576 2_576 1.8(2)
Tl2B O6 Tl2A 2_576 2_576 4.97(7)
As2 O6 Tl1B . 2_575 55.67(16)
Fe1 O6 Tl1B . 2_575 138.50(18)
Tl2A O6 Tl1B 1_455 2_575 59.44(15)
Tl2C O6 Tl1B 1_455 2_575 62.4(3)
Tl2B O6 Tl1B 1_455 2_575 60.96(14)
Tl2C O6 Tl1B 2_576 2_575 85.3(2)
Tl2B O6 Tl1B 2_576 2_575 88.46(17)
Tl2A O6 Tl1B 2_576 2_575 87.14(17)
As2 O6 Tl2B . . 75.09(8)
Fe1 O6 Tl2B . . 76.97(8)
Tl2A O6 Tl2B 1_455 . 139.02(8)
Tl2C O6 Tl2B 1_455 . 133.7(2)
Tl2B O6 Tl2B 1_455 . 140.17(16)
Tl2C O6 Tl2B 2_576 . 75.8(3)
Tl2B O6 Tl2B 2_576 . 69.97(6)
Tl2A O6 Tl2B 2_576 . 74.36(11)
Tl1B O6 Tl2B 2_575 . 129.88(17)
As2 O6 Tl1A . 1_455 57.71(7)
Fe1 O6 Tl1A . 1_455 136.87(8)
Tl2A O6 Tl1A 1_455 1_455 58.46(8)
Tl2C O6 Tl1A 1_455 1_455 61.6(2)
Tl2B O6 Tl1A 1_455 1_455 59.90(7)
Tl2C O6 Tl1A 2_576 1_455 86.74(19)
Tl2B O6 Tl1A 2_576 1_455 90.01(6)
Tl2A O6 Tl1A 2_576 1_455 88.54(7)
Tl1B O6 Tl1A 2_575 1_455 2.28(17)
Tl2B O6 Tl1A . 1_455 132.08(6)
As2 O6 Tl2A . . 73.27(9)
Fe1 O6 Tl2A . . 76.91(8)
Tl2A O6 Tl2A 1_455 . 141.05(13)
Tl2C O6 Tl2A 1_455 . 135.7(3)
Tl2B O6 Tl2A 1_455 . 142.30(9)
Tl2C O6 Tl2A 2_576 . 77.4(2)
Tl2B O6 Tl2A 2_576 . 71.48(7)
Tl2A O6 Tl2A 2_576 . 75.96(9)
Tl1B O6 Tl2A 2_575 . 128.38(17)
Tl2B O6 Tl2A . . 2.59(8)
Tl1A O6 Tl2A 1_455 . 130.56(6)
As2 O7 Fe2 . 2_575 122.44(11)
As2 O7 Tl1B . 2_575 99.60(17)
Fe2 O7 Tl1B 2_575 2_575 97.94(18)
As2 O7 Tl2C . 2_576 110.0(3)
Fe2 O7 Tl2C 2_575 2_576 94.7(3)
Tl1B O7 Tl2C 2_575 2_576 134.3(4)
As2 O7 Tl2C . 1_455 92.1(3)
Fe2 O7 Tl2C 2_575 1_455 145.3(3)
Tl1B O7 Tl2C 2_575 1_455 77.4(3)
Tl2C O7 Tl2C 2_576 1_455 67.7(4)
As2 O7 Tl1A . 1_455 100.56(9)
Fe2 O7 Tl1A 2_575 1_455 97.82(8)
Tl1B O7 Tl1A 2_575 1_455 1.10(17)
Tl2C O7 Tl1A 2_576 1_455 133.2(3)
Tl2C O7 Tl1A 1_455 1_455 76.9(2)
As2 O7 Tl2A . 1_455 90.08(10)
Fe2 O7 Tl2A 2_575 1_455 147.47(11)
Tl1B O7 Tl2A 2_575 1_455 73.5(2)
Tl2C O7 Tl2A 2_576 1_455 72.4(3)
Tl2C O7 Tl2A 1_455 1_455 4.73(18)
Tl1A O7 Tl2A 1_455 1_455 73.06(8)
As2 O7 Tl2B . 2_576 108.05(10)
Fe2 O7 Tl2B 2_575 2_576 89.65(8)
Tl1B O7 Tl2B 2_575 2_576 141.32(19)
Tl2C O7 Tl2B 2_576 2_576 7.8(3)
Tl2C O7 Tl2B 1_455 2_576 75.10(18)
Tl1A O7 Tl2B 1_455 2_576 140.26(7)
Tl2A O7 Tl2B 1_455 2_576 79.80(8)
As2 O7 Tl2A . 2_576 110.54(11)
Fe2 O7 Tl2A 2_575 2_576 92.84(10)
Tl1B O7 Tl2A 2_575 2_576 135.4(2)
Tl2C O7 Tl2A 2_576 2_576 2.0(3)
Tl2C O7 Tl2A 1_455 2_576 69.6(2)
Tl1A O7 Tl2A 1_455 2_576 134.39(10)
Tl2A O7 Tl2A 1_455 2_576 74.35(13)
Tl2B O7 Tl2A 2_576 2_576 6.18(9)
As2 O7 Tl1B . 1_455 101.35(15)
Fe2 O7 Tl1B 2_575 1_455 97.73(15)
Tl1B O7 Tl1B 2_575 1_455 2.0(3)
Tl2C O7 Tl1B 2_576 1_455 132.4(4)
Tl2C O7 Tl1B 1_455 1_455 76.5(3)
Tl1A O7 Tl1B 1_455 1_455 0.90(14)
Tl2A O7 Tl1B 1_455 1_455 72.67(17)
Tl2B O7 Tl1B 2_576 1_455 139.38(16)
Tl2A O7 Tl1B 2_576 1_455 133.53(18)
As2 O7 Tl2B . 1_455 92.59(10)
Fe2 O7 Tl2B 2_575 1_455 144.92(10)
Tl1B O7 Tl2B 2_575 1_455 72.2(2)
Tl2C O7 Tl2B 2_576 1_455 72.5(3)
Tl2C O7 Tl2B 1_455 1_455 5.3(2)
Tl1A O7 Tl2B 1_455 1_455 71.63(8)
Tl2A O7 Tl2B 1_455 1_455 2.70(7)
Tl2B O7 Tl2B 2_576 1_455 79.95(12)
Tl2A O7 Tl2B 2_576 1_455 74.37(10)
Tl1B O7 Tl2B 1_455 1_455 71.21(17)
As2 O7 Tl1B . . 52.90(12)
Fe2 O7 Tl1B 2_575 . 69.77(11)
Tl1B O7 Tl1B 2_575 . 113.2(2)
Tl2C O7 Tl1B 2_576 . 112.4(4)
Tl2C O7 Tl1B 1_455 . 143.9(3)
Tl1A O7 Tl1B 1_455 . 114.21(18)
Tl2A O7 Tl1B 1_455 . 142.66(12)
Tl2B O7 Tl1B 2_576 . 105.03(18)
Tl2A O7 Tl1B 2_576 . 111.1(2)
Tl1B O7 Tl1B 1_455 . 115.0(3)
Tl2B O7 Tl1B 1_455 . 145.27(11)
As2 O8 Tl2B . . 140.00(13)
As2 O8 Tl1B . . 122.2(3)
Tl2B O8 Tl1B . . 92.5(3)
As2 O8 Tl2A . . 145.64(14)
Tl2B O8 Tl2A . . 6.34(9)
Tl1B O8 Tl2A . . 86.2(3)
As2 O8 Tl1A . . 128.10(11)
Tl2B O8 Tl1A . . 86.74(7)
Tl1B O8 Tl1A . . 6.0(3)
Tl2A O8 Tl1A . . 80.39(10)
As2 O8 Tl1B . 2_675 133.6(3)
Tl2B O8 Tl1B . 2_675 81.3(2)
Tl1B O8 Tl1B . 2_675 11.6(5)
Tl2A O8 Tl1B . 2_675 74.9(3)
Tl1A O8 Tl1B . 2_675 5.6(3)
As2 O8 Tl2C . . 146.3(3)
Tl2B O8 Tl2C . . 6.4(3)
Tl1B O8 Tl2C . . 87.6(4)
Tl2A O8 Tl2C . . 4.0(2)
Tl1A O8 Tl2C . . 81.7(3)
Tl1B O8 Tl2C 2_675 . 76.2(4)
As2 O8 Tl2B . 2_576 78.89(10)
Tl2B O8 Tl2B . 2_576 88.66(8)
Tl1B O8 Tl2B . 2_576 137.2(2)
Tl2A O8 Tl2B . 2_576 93.12(12)
Tl1A O8 Tl2B . 2_576 135.59(8)
Tl1B O8 Tl2B 2_675 2_576 133.6(2)
Tl2C O8 Tl2B . 2_576 89.6(3)
As2 O8 Tl2C . 2_576 72.5(2)
Tl2B O8 Tl2C . 2_576 93.0(2)
Tl1B O8 Tl2C . 2_576 141.7(3)
Tl2A O8 Tl2C . 2_576 97.78(17)
Tl1A O8 Tl2C . 2_576 140.7(2)
Tl1B O8 Tl2C 2_675 2_576 139.2(3)
Tl2C O8 Tl2C . 2_576 94.4(4)
Tl2B O8 Tl2C 2_576 2_576 6.5(2)
As2 O8 Tl2A . 2_576 75.34(10)
Tl2B O8 Tl2A . 2_576 90.71(13)
Tl1B O8 Tl2A . 2_576 140.2(2)
Tl2A O8 Tl2A . 2_576 95.41(11)
Tl1A O8 Tl2A . 2_576 138.90(9)
Tl1B O8 Tl2A 2_675 2_576 137.1(2)
Tl2C O8 Tl2A . 2_576 92.0(2)
Tl2B O8 Tl2A 2_576 2_576 3.75(10)
Tl2C O8 Tl2A 2_576 2_576 2.8(2)
As2 O8 Tl2C . 1_455 32.11(14)
Tl2B O8 Tl2C . 1_455 115.00(14)
Tl1B O8 Tl2C . 1_455 152.4(3)
Tl2A O8 Tl2C . 1_455 121.35(16)
Tl1A O8 Tl2C . 1_455 158.25(14)
Tl1B O8 Tl2C 2_675 1_455 163.7(3)
Tl2C O8 Tl2C . 1_455 120.0(4)
Tl2B O8 Tl2C 2_576 1_455 50.72(11)
Tl2C O8 Tl2C 2_576 1_455 44.3(3)
Tl2A O8 Tl2C 2_576 1_455 46.97(15)
As3 O9 Fe1 . . 126.14(11)
As3 O9 Tl2B . 2_566 100.51(12)
Fe1 O9 Tl2B . 2_566 116.35(12)
As3 O9 Tl2A . 2_566 103.06(11)
Fe1 O9 Tl2A . 2_566 115.76(10)
Tl2B O9 Tl2A 2_566 2_566 3.35(9)
As3 O9 Tl2C . 2_566 99.2(2)
Fe1 O9 Tl2C . 2_566 119.46(19)
Tl2B O9 Tl2C 2_566 2_566 3.5(2)
Tl2A O9 Tl2C 2_566 2_566 4.02(19)
As3 O9 Tl2A . 1_455 148.12(11)
Fe1 O9 Tl2A . 1_455 73.23(8)
Tl2B O9 Tl2A 2_566 1_455 89.41(8)
Tl2A O9 Tl2A 2_566 1_455 86.11(9)
Tl2C O9 Tl2A 2_566 1_455 88.9(3)
As3 O9 Tl2C . 1_455 149.74(18)
Fe1 O9 Tl2C . 1_455 70.55(18)
Tl2B O9 Tl2C 2_566 1_455 90.8(2)
Tl2A O9 Tl2C 2_566 1_455 87.6(2)
Tl2C O9 Tl2C 2_566 1_455 90.4(2)
Tl2A O9 Tl2C 1_455 1_455 2.7(2)
As3 O9 Tl2B . 1_455 148.77(10)
Fe1 O9 Tl2B . 1_455 75.38(8)
Tl2B O9 Tl2B 2_566 1_455 85.66(11)
Tl2A O9 Tl2B 2_566 1_455 82.35(7)
Tl2C O9 Tl2B 2_566 1_455 85.1(2)
Tl2A O9 Tl2B 1_455 1_455 3.77(8)
Tl2C O9 Tl2B 1_455 1_455 5.8(2)
As3 O9 Tl2C . 1_545 56.57(16)
Fe1 O9 Tl2C . 1_545 95.39(15)
Tl2B O9 Tl2C 2_566 1_545 75.0(2)
Tl2A O9 Tl2C 2_566 1_545 78.28(18)
Tl2C O9 Tl2C 2_566 1_545 76.7(4)
Tl2A O9 Tl2C 1_455 1_545 154.43(14)
Tl2C O9 Tl2C 1_455 1_545 153.4(3)
Tl2B O9 Tl2C 1_455 1_545 152.26(17)
As3 O9 Tl2C . 2_666 71.33(15)
Fe1 O9 Tl2C . 2_666 60.13(14)
Tl2B O9 Tl2C 2_566 2_666 110.09(17)
Tl2A O9 Tl2C 2_566 2_666 112.86(18)
Tl2C O9 Tl2C 2_566 2_666 112.9(3)
Tl2A O9 Tl2C 1_455 2_666 133.37(12)
Tl2C O9 Tl2C 1_455 2_666 130.68(17)
Tl2B O9 Tl2C 1_455 2_666 135.38(17)
Tl2C O9 Tl2C 1_545 2_666 41.7(3)
As3 O9 Tl2B . 1_545 56.73(8)
Fe1 O9 Tl2B . 1_545 99.49(9)
Tl2B O9 Tl2B 2_566 1_545 70.07(7)
Tl2A O9 Tl2B 2_566 1_545 73.39(8)
Tl2C O9 Tl2B 2_566 1_545 71.7(2)
Tl2A O9 Tl2B 1_455 1_545 152.83(7)
Tl2C O9 Tl2B 1_455 1_545 152.35(17)
Tl2B O9 Tl2B 1_455 1_545 150.11(7)
Tl2C O9 Tl2B 1_545 1_545 5.39(19)
Tl2C O9 Tl2B 2_666 1_545 46.99(13)
As3 O10 Fe2 . 2_565 135.25(12)
As3 O10 Tl2B . 2_566 98.29(12)
Fe2 O10 Tl2B 2_565 2_566 93.44(9)
As3 O10 Tl2C . 2_566 105.5(2)
Fe2 O10 Tl2C 2_565 2_566 87.1(2)
Tl2B O10 Tl2C 2_566 2_566 7.4(3)
As3 O10 Tl2A . 2_566 101.32(11)
Fe2 O10 Tl2A 2_565 2_566 89.85(10)
Tl2B O10 Tl2A 2_566 2_566 3.64(12)
Tl2C O10 Tl2A 2_566 2_566 4.2(2)
As3 O10 Tl1B . 1_545 95.8(2)
Fe2 O10 Tl1B 2_565 1_545 101.6(2)
Tl2B O10 Tl1B 2_566 1_545 140.98(15)
Tl2C O10 Tl1B 2_566 1_545 139.3(3)
Tl2A O10 Tl1B 2_566 1_545 141.70(15)
As3 O10 Tl1A . 1_545 91.72(8)
Fe2 O10 Tl1A 2_565 1_545 106.28(8)
Tl2B O10 Tl1A 2_566 1_545 139.97(8)
Tl2C O10 Tl1A 2_566 1_545 139.3(2)
Tl2A O10 Tl1A 2_566 1_545 141.15(8)
Tl1B O10 Tl1A 1_545 1_545 4.7(2)
As3 O10 Tl1B . 2_665 87.8(2)
Fe2 O10 Tl1B 2_565 2_665 110.8(2)
Tl2B O10 Tl1B 2_566 2_665 138.59(14)
Tl2C O10 Tl1B 2_566 2_665 138.8(3)
Tl2A O10 Tl1B 2_566 2_665 140.17(14)
Tl1B O10 Tl1B 1_545 2_665 9.3(4)
Tl1A O10 Tl1B 1_545 2_665 4.6(2)
As3 O10 Tl2B . 1_545 84.04(10)
Fe2 O10 Tl2B 2_565 1_545 140.47(10)
Tl2B O10 Tl2B 2_566 1_545 82.48(8)
Tl2C O10 Tl2B 2_566 1_545 84.9(2)
Tl2A O10 Tl2B 2_566 1_545 84.87(9)
Tl1B O10 Tl2B 1_545 1_545 63.04(16)
Tl1A O10 Tl2B 1_545 1_545 60.05(6)
Tl1B O10 Tl2B 2_665 1_545 57.31(15)
As3 O10 Tl2A . 1_545 81.21(9)
Fe2 O10 Tl2A 2_565 1_545 142.78(10)
Tl2B O10 Tl2A 2_566 1_545 86.56(9)
Tl2C O10 Tl2A 2_566 1_545 89.2(2)
Tl2A O10 Tl2A 2_566 1_545 89.05(10)
Tl1B O10 Tl2A 1_545 1_545 59.95(17)
Tl1A O10 Tl2A 1_545 1_545 56.72(6)
Tl1B O10 Tl2A 2_665 1_545 53.75(16)
Tl2B O10 Tl2A 1_545 1_545 4.64(6)
As3 O10 Tl2C . 1_545 78.23(19)
Fe2 O10 Tl2C 2_565 1_545 146.03(18)
Tl2B O10 Tl2C 2_566 1_545 85.1(2)
Tl2C O10 Tl2C 2_566 1_545 88.2(4)
Tl2A O10 Tl2C 2_566 1_545 87.7(2)
Tl1B O10 Tl2C 1_545 1_545 62.5(2)
Tl1A O10 Tl2C 1_545 1_545 59.12(19)
Tl1B O10 Tl2C 2_665 1_545 55.9(2)
Tl2B O10 Tl2C 1_545 1_545 6.0(2)
Tl2A O10 Tl2C 1_545 1_545 3.57(13)
As3 O11 Fe2 . . 147.97(13)
As3 O11 Tl1B . 2_665 74.11(15)
Fe2 O11 Tl1B . 2_665 136.20(15)
As3 O11 Tl1A . 1_545 74.20(8)
Fe2 O11 Tl1A . 1_545 136.91(9)
Tl1B O11 Tl1A 2_665 1_545 4.21(18)
As3 O11 Tl1B . 1_545 74.37(14)
Fe2 O11 Tl1B . 1_545 137.28(15)
Tl1B O11 Tl1B 2_665 1_545 8.3(4)
Tl1A O11 Tl1B 1_545 1_545 4.13(17)
As3 O11 Tl2B . 1_554 159.69(11)
Fe2 O11 Tl2B . 1_554 47.38(8)
Tl1B O11 Tl2B 2_665 1_554 97.08(15)
Tl1A O11 Tl2B 1_545 1_554 95.68(7)
Tl1B O11 Tl2B 1_545 1_554 94.27(15)
As3 O11 Tl2C . 1_554 164.81(18)
Fe2 O11 Tl2C . 1_554 43.96(14)
Tl1B O11 Tl2C 2_665 1_554 98.2(2)
Tl1A O11 Tl2C 1_545 1_554 97.17(15)
Tl1B O11 Tl2C 1_545 1_554 96.12(19)
Tl2B O11 Tl2C 1_554 1_554 5.36(18)
As3 O12 Tl2C . 1_545 142.6(4)
As3 O12 Tl2A . 1_545 140.85(15)
Tl2C O12 Tl2A 1_545 1_545 5.1(2)
As3 O12 Tl2B . 1_545 134.29(12)
Tl2C O12 Tl2B 1_545 1_545 8.8(3)
Tl2A O12 Tl2B 1_545 1_545 6.95(9)
As3 O12 Tl2C . 2_666 136.8(2)
Tl2C O12 Tl2C 1_545 2_666 69.0(4)
Tl2A O12 Tl2C 1_545 2_666 73.2(2)
Tl2B O12 Tl2C 1_545 2_666 77.4(2)
As3 O12 Tl1B . 2_665 105.94(19)
Tl2C O12 Tl1B 1_545 2_665 76.4(3)
Tl2A O12 Tl1B 1_545 2_665 71.88(15)
Tl2B O12 Tl1B 1_545 2_665 74.80(17)
Tl2C O12 Tl1B 2_666 2_665 111.5(3)
As3 O12 Tl1A . 1_545 101.85(10)
Tl2C O12 Tl1A 1_545 1_545 78.1(2)
Tl2A O12 Tl1A 1_545 1_545 73.36(9)
Tl2B O12 Tl1A 1_545 1_545 75.74(10)
Tl2C O12 Tl1A 2_666 1_545 116.3(2)
Tl1B O12 Tl1A 2_665 1_545 4.8(2)
As3 O12 Tl2A . 2_666 133.49(12)
Tl2C O12 Tl2A 1_545 2_666 71.4(3)
Tl2A O12 Tl2A 1_545 2_666 75.76(13)
Tl2B O12 Tl2A 1_545 2_666 79.68(10)
Tl2C O12 Tl2A 2_666 2_666 3.4(2)
Tl1B O12 Tl2A 2_665 2_666 114.7(2)
Tl1A O12 Tl2A 1_545 2_666 119.42(8)
As3 O12 Tl1B . 1_545 98.06(16)
Tl2C O12 Tl1B 1_545 1_545 79.6(3)
Tl2A O12 Tl1B 1_545 1_545 74.82(14)
Tl2B O12 Tl1B 1_545 1_545 76.69(16)
Tl2C O12 Tl1B 2_666 1_545 120.6(3)
Tl1B O12 Tl1B 2_665 1_545 9.2(4)
Tl1A O12 Tl1B 1_545 1_545 4.42(17)
Tl2A O12 Tl1B 2_666 1_545 123.78(19)
As3 O12 Tl2B . 2_666 134.55(12)
Tl2C O12 Tl2B 1_545 2_666 73.0(3)
Tl2A O12 Tl2B 1_545 2_666 77.09(9)
Tl2B O12 Tl2B 1_545 2_666 81.46(12)
Tl2C O12 Tl2B 2_666 2_666 4.5(2)
Tl1B O12 Tl2B 2_665 2_666 111.1(2)
Tl1A O12 Tl2B 1_545 2_666 115.93(9)
Tl2A O12 Tl2B 2_666 2_666 4.80(8)
Tl1B O12 Tl2B 1_545 2_666 120.33(19)
As3 O12 Tl2B . 2_566 57.27(8)
Tl2C O12 Tl2B 1_545 2_566 87.6(4)
Tl2A O12 Tl2B 1_545 2_566 87.72(12)
Tl2B O12 Tl2B 1_545 2_566 80.79(8)
Tl2C O12 Tl2B 2_666 2_566 119.4(3)
Tl1B O12 Tl2B 2_665 2_566 115.9(2)
Tl1A O12 Tl2B 1_545 2_566 111.69(9)
Tl2A O12 Tl2B 2_666 2_566 117.69(10)
Tl1B O12 Tl2B 1_545 2_566 107.8(2)
Tl2B O12 Tl2B 2_666 2_566 122.47(11)
As3 O12 Tl2A . 2_566 57.41(8)
Tl2C O12 Tl2A 1_545 2_566 87.4(4)
Tl2A O12 Tl2A 1_545 2_566 87.47(11)
Tl2B O12 Tl2A 1_545 2_566 80.53(8)
Tl2C O12 Tl2A 2_666 2_566 119.6(3)
Tl1B O12 Tl2A 2_665 2_566 115.5(2)
Tl1A O12 Tl2A 1_545 2_566 111.30(7)
Tl2A O12 Tl2A 2_666 2_566 117.93(10)
Tl1B O12 Tl2A 1_545 2_566 107.4(2)
Tl2B O12 Tl2A 2_666 2_566 122.72(7)
Tl2B O12 Tl2A 2_566 2_566 0.42(11)
As3 O12 H12 . . 101(3)
Tl2C O12 H12 1_545 . 116(3)
Tl2A O12 H12 1_545 . 118(3)
Tl2B O12 H12 1_545 . 125(3)
Tl2C O12 H12 2_666 . 56(3)
Tl1B O12 H12 2_665 . 95(3)
Tl1A O12 H12 1_545 . 98(3)
Tl2A O12 H12 2_666 . 56(3)
Tl1B O12 H12 1_545 . 101(3)
Tl2B O12 H12 2_666 . 52(3)
Tl2B O12 H12 2_566 . 146(3)
Tl2A O12 H12 2_566 . 146(3)
loop_
_geom_bond_atom_site_label_1
_geom_bond_atom_site_label_2
_geom_bond_site_symmetry_2
_geom_bond_distance
_geom_bond_publ_flag
Tl1A Tl1B 2_675 0.327(15) ?
Tl1A O1 . 2.853(2) y
Tl1A O1 2_675 2.853(2) y
Tl1A O8 2_675 3.094(3) y
Tl1A O8 . 3.094(3) y
Tl1A O2 . 3.227(3) y
Tl1A O2 2_675 3.227(3) y
Tl1A O7 2_575 3.344(2) y
Tl1A O7 1_655 3.344(2) y
Tl1A O5 2_575 3.543(2) y
Tl1A O5 1_655 3.543(2) y
Tl1A O12 2_665 3.615(3) yes
Tl1A O12 1_565 3.615(3) y
Tl1A As1 2_675 3.7440(14) .
Tl1A As1 . 3.7440(14) ?
Tl1B Tl1B 2_675 0.65(3) ?
Tl1B O1 . 2.687(12) ?
Tl1B O8 . 3.014(10) ?
Tl1B O7 2_575 3.022(15) ?
Tl1B O1 2_675 3.045(14) ?
Tl1B O2 2_675 3.146(8) ?
Tl1B O8 2_675 3.205(11) ?
Tl1B O5 2_575 3.286(10) ?
Tl1B O2 . 3.338(8) ?
Tl1B O12 2_665 3.477(12) ?
Tl1B O7 1_655 3.666(15) ?
Tl1B As2 2_575 3.697(13) ?
Tl1B As1 . 3.701(9) ?
Tl1B O12 1_565 3.775(13) ?
Tl1B O5 1_655 3.810(11) ?
Tl2A O3 2_666 2.804(4) y
Tl2A O2 . 2.852(4) y
Tl2A O6 1_655 2.936(5) y
Tl2A O12 1_565 3.020(4) y
Tl2A O8 . 3.091(5) y
Tl2A O7 1_655 3.362(5) y
Tl2A O7 2_576 3.450(4) y
Tl2A O9 2_566 3.523(5) y
Tl2A O10 2_566 3.572(5) y
Tl2A O12 2_666 3.638(5) y
Tl2A As1 2_666 3.688(4) n
Tl2A O4 2_666 3.691(4) y
Tl2A As2 1_655 3.763(5) ?
Tl2A O4 . 3.811(5) yes
Tl2B O3 2_666 2.758(4) ?
Tl2B O8 . 2.919(4) ?
Tl2B O2 . 2.982(6) ?
Tl2B O12 1_565 3.079(4) ?
Tl2B O9 2_566 3.204(4) ?
Tl2B O10 2_566 3.266(4) ?
Tl2B O6 1_655 3.283(3) ?
Tl2B O7 2_576 3.380(6) ?
Tl2B O4 . 3.650(6) ?
Tl2B As1 2_666 3.682(3) ?
Tl2B O7 1_655 3.698(3) ?
Tl2B O4 2_666 3.833(4) ?
Tl2B O12 2_666 3.843(4) ?
Tl2B O2 2_666 3.861(4) ?
Tl2B As3 2_566 3.879(2) ?
Tl2C O3 2_666 2.711(13) ?
Tl2C O12 1_565 2.931(13) ?
Tl2C O6 1_655 2.970(18) ?
Tl2C O2 . 3.111(12) ?
Tl2C O7 2_576 3.197(12) ?
Tl2C O8 . 3.258(14) ?
Tl2C O7 1_655 3.339(17) ?
Tl2C O12 2_666 3.454(14) ?
Tl2C O10 2_566 3.478(17) ?
Tl2C O9 2_566 3.640(16) ?
Tl2C Tl2C 2_676 3.64(3) ?
Tl2C As1 2_666 3.706(13) ?
Tl2C O4 2_666 3.749(14) ?
Tl2C As2 1_655 3.794(18) ?
Fe1 O4 2_566 1.942(2) y
Fe1 O4 . 1.942(2) y
Fe1 O6 2_566 2.015(2) y
Fe1 O6 . 2.015(2) y
Fe1 O9 . 2.060(2) y
Fe1 O9 2_566 2.060(2) yes
Fe2 O5 . 1.946(2) y
Fe2 O11 . 1.970(2) y
Fe2 O1 . 1.978(2) y
Fe2 O10 2_565 2.014(2) y
Fe2 O7 2_575 2.044(2) y
Fe2 O3 2_665 2.065(2) y
As1 O4 . 1.652(2) y
As1 O1 . 1.668(2) y
As1 O3 . 1.683(2) y
As1 O2 . 1.720(2) y
As2 O6 . 1.670(2) y
As2 O5 . 1.671(2) y
As2 O7 . 1.684(2) y
As2 O8 . 1.738(2) y
As3 O11 . 1.655(2) y
As3 O10 . 1.6730(19) y
As3 O9 . 1.679(2) y
As3 O12 . 1.721(2) y
O2 H2 . 0.85(3) ?
O8 H8 . 0.982(2) ?
O12 H12 . 0.88(3) ?
loop_
_geom_hbond_atom_site_label_D
_geom_hbond_atom_site_label_H
_geom_hbond_atom_site_label_A
_geom_hbond_site_symmetry_A
_geom_hbond_distance_DH
_geom_hbond_distance_HA
_geom_hbond_distance_DA
_geom_hbond_angle_DHA
O2 H2 O9 1_655 0.85(3) 1.86(3) 2.707(3) 176(5)
O8 H8 O10 1_565 0.982(2) 1.598(2) 2.569(3) 169.44(15)
O12 H12 O3 . 0.88(3) 1.86(3) 2.729(3) 172(5)

_cod_database_fobs_code 2021117
