#------------------------------------------------------------------------------
#$Date: 2018-11-16 05:33:51 +0200 (Fri, 16 Nov 2018) $
#$Revision: 212003 $
#$URL: file:///home/coder/svn-repositories/cod/cif/2/02/13/2021353.cif $
#------------------------------------------------------------------------------
#
# This file is available in the Crystallography Open Database (COD),
# http://www.crystallography.net/. The original data for this entry
# were provided by IUCr Journals, http://journals.iucr.org/.
#
# The file may be used within the scientific community so long as
# proper attribution is given to the journal article from which the
# data were obtained.
#
data_2021353
loop_
_publ_author_name
'Rosiak, Damian'
'Okuniewski, Andrzej'
'Chojnacki, Jaros\/law'
_publ_section_title
;
 Copper(I) iodide ribbons coordinated with thiourea derivatives
;
_journal_coeditor_code           QF3017
_journal_issue                   12
_journal_name_full               'Acta Crystallographica Section C'
_journal_page_first
;
;
_journal_paper_doi               10.1107/S2053229618015620
_journal_volume                  74
_journal_year                    2018
_chemical_absolute_configuration ad
_chemical_formula_iupac          '[Cu2 I2 (C14 H10 N2 O S)]'
_chemical_formula_moiety         'C14 H10 Cu2 I2 N2 O S'
_chemical_formula_sum            'C14 H10 Cu2 I2 N2 O S'
_chemical_formula_weight         635.18
_chemical_name_systematic
Poly[\m~4~-iodido-\m~3~-iodido-[<i>N</i>-(benzo[<i>d</i>]thiazol-2-yl)benzamide-\k<i>N</i>]dicopper(I)]
_space_group_crystal_system      monoclinic
_space_group_IT_number           4
_space_group_name_Hall           'P 2yb'
_space_group_name_H-M_alt        'P 1 21 1'
_symmetry_space_group_name_Hall  'P 2yb'
_symmetry_space_group_name_H-M   'P 1 21 1'
_atom_sites_solution_hydrogens   geom
_cell_angle_alpha                90
_cell_angle_beta                 100.258(8)
_cell_angle_gamma                90
_cell_formula_units_Z            2
_cell_length_a                   12.6880(12)
_cell_length_b                   4.1152(4)
_cell_length_c                   15.8952(15)
_cell_measurement_reflns_used    1069
_cell_measurement_temperature    120
_cell_measurement_theta_max      29.38
_cell_measurement_theta_min      2.89
_cell_volume                     816.68(14)
_computing_cell_refinement
;
X-AREA (Stoe & Cie, 2009)
;
_computing_data_collection
;
X-AREA (Stoe & Cie, 2009)
;
_computing_data_reduction
;
X-RED32 (Stoe & Cie, 2009)
;
_computing_molecular_graphics
;
OLEX2 (Dolomanov <i>et al.</i>,  2009)
;
_computing_publication_material
;
OLEX2 (Dolomanov <i>et al.</i>,  2009)
;
_computing_structure_refinement
;
SHELXL2017 (Sheldrick, 2015b)
;
_computing_structure_solution
;
SHELXT (Sheldrick, 2015a)
;
_diffrn_ambient_temperature      120.0
_diffrn_detector                 'image plate (34 cm diameter)'
_diffrn_detector_area_resol_mean 6.67
_diffrn_measured_fraction_theta_full 0.998
_diffrn_measured_fraction_theta_max 0.998
_diffrn_measurement_device       '2-circle goniometer'
_diffrn_measurement_device_type  'Stoe IPDS 2T'
_diffrn_measurement_method       'rotation method'
_diffrn_radiation_monochromator  'parabolic x-ray mirror'
_diffrn_radiation_probe          x-ray
_diffrn_radiation_type           MoK\a
_diffrn_radiation_wavelength     0.71073
_diffrn_reflns_av_R_equivalents  0.0391
_diffrn_reflns_av_unetI/netI     0.0312
_diffrn_reflns_limit_h_max       15
_diffrn_reflns_limit_h_min       -15
_diffrn_reflns_limit_k_max       5
_diffrn_reflns_limit_k_min       -4
_diffrn_reflns_limit_l_max       19
_diffrn_reflns_limit_l_min       -19
_diffrn_reflns_number            7646
_diffrn_reflns_theta_full        25.242
_diffrn_reflns_theta_max         25.989
_diffrn_reflns_theta_min         2.604
_diffrn_source                   'microfocus sealed X-ray tube'
_diffrn_source_current           1.000
_diffrn_source_power             0.050
_diffrn_source_voltage           50
_exptl_absorpt_coefficient_mu    6.512
_exptl_absorpt_correction_T_max  0.6880
_exptl_absorpt_correction_T_min  0.1746
_exptl_absorpt_correction_type   integration
_exptl_absorpt_process_details
;
[X-RED32 (Stoe & Cie, 2009), by Gaussian integration, analogous
to Coppens (1970)]
;
_exptl_crystal_colour            brown
_exptl_crystal_density_diffrn    2.583
_exptl_crystal_description       needle
_exptl_crystal_F_000             592
_exptl_crystal_size_max          0.569
_exptl_crystal_size_mid          0.09
_exptl_crystal_size_min          0.06
_refine_diff_density_max         1.307
_refine_diff_density_min         -2.028
_refine_ls_abs_structure_details
;
Flack <i>x</i> determined using 1322 quotients [(I+)-(I-)]/[(I+)+(I-)]
(Parsons <i>et al.</i>, 2013)
;
_refine_ls_abs_structure_Flack   0.11(6)
_refine_ls_extinction_method     none
_refine_ls_goodness_of_fit_ref   1.058
_refine_ls_hydrogen_treatment    constr
_refine_ls_matrix_type           full
_refine_ls_number_parameters     199
_refine_ls_number_reflns         3163
_refine_ls_number_restraints     1
_refine_ls_restrained_S_all      1.058
_refine_ls_R_factor_all          0.0443
_refine_ls_R_factor_gt           0.0441
_refine_ls_shift/su_max          0.001
_refine_ls_shift/su_mean         0.000
_refine_ls_structure_factor_coef Fsqd
_refine_ls_weighting_details
'w=1/[\s^2^(Fo^2^)+(0.0771P)^2^+6.6934P] where P=(Fo^2^+2Fc^2^)/3'
_refine_ls_weighting_scheme      calc
_refine_ls_wR_factor_gt          0.1204
_refine_ls_wR_factor_ref         0.1205
_reflns_number_gt                3139
_reflns_number_total             3163
_reflns_threshold_expression     'I > 2\s(I)'
_cod_data_source_file            qf3017sup1.cif
_cod_data_source_block           II
_cod_database_code               2021353
_shelx_space_group_comment
;
The symmetry employed for this shelxl refinement is uniquely defined
by the following loop, which should always be used as a source of
symmetry information in preference to the above space-group names.
They are only intended as comments.
;
_shelx_estimated_absorpt_t_min   0.119
_shelx_estimated_absorpt_t_max   0.696
_shelx_hkl_file
;
  -3   1  19  228.22    2.54   0
  -2   0  20    2.46    1.76   0
  -1  -1  19   89.55    2.84   0
   1  -2  18  171.53    4.15   0
   4  -3   7  331.56    3.42   0
   4  -3  15   62.11    3.49   0
   4  -3  16    9.75    2.80   0
   4   2  -7 1245.69    3.82   0
   5  -3   4  382.34    3.32   0
   5   5  -3    2.21    2.11   0
   7  -3   1    6.33    1.11   0
   9   0 -10  330.30    1.83   0
  14   0 -12   44.99    1.75   0
  -3   2  19   11.02    1.20   0
  -3   3  17   68.01    0.96   0
   0  -1  21   14.18    2.26   0
   1  -2  17  281.69    4.28   0
   2  -2  19    9.23    2.58   0
   4  -3   8  384.72    3.90   0
   4  -3   9   93.16    2.68   0
   4  -3  12  176.87    3.68   0
   4  -3  13  291.29    5.05   0
   4  -3  14   51.21    3.31   0
   5  -3   5   59.30    1.88   0
   5   1  -8   15.94    0.79   0
   6  -3   3  336.17    2.89   0
   7  -1  -7  260.58    0.72   0
  12  -1 -10  405.45    1.69   0
  -3   1  18  683.15    3.32   0
  -2   0  19    0.49    1.38   0
  -2   1  21   12.95    1.66   0
  -2   4   7  103.76    1.31   0
  -1  -1   7 4783.13    5.84   0
  -1  -1  17  132.36    2.39   0
  -1   2   0 1842.09    3.11   0
   0  -1  20  258.70    4.30   0
   1  -2  15  146.83    2.86   0
   1  -2  16  155.00    2.93   0
   1  -1   1  103.49    0.67   0
   2  -2   4  992.30    3.12   0
   2   2  -5  466.74    2.11   0
   4  -3  10  211.46    3.35   0
   4  -3  11  386.41    4.62   0
   4  -2   0 2132.74    3.73   0
   5  -3   6   85.49    2.20   0
   5  -3  15   71.50    3.84   0
   5   5  -4    1.22    2.44   0
  10   2 -12   30.07    1.78   0
  11   3 -12   38.15    2.58   0
  13   1 -13    9.00    1.73   0
  -3   1  17  702.02    2.99   0
  -3   3   7  986.96    2.05   0
  -2   0  18  177.84    2.38   0
  -1  -1  16   81.91    2.01   0
  -1   0  21  137.78    3.16   0
   0  -1  19  381.63    4.51   0
   0   2  -2  127.16    1.00   0
   1  -2  12  315.83    2.87   0
   1  -2  13 1169.59    5.55   0
   1  -2  14  409.65    3.83   0
   2  -2  18  165.72    3.87   0
   2   4  -3   79.78    1.74   0
   3  -2   2  806.23    2.53   0
   3   3  -6  806.73    3.48   0
   4   3  -7  129.79    1.60   0
   5  -3   7  169.99    2.87   0
   5  -3  14  104.72    4.02   0
   5   3  -8   36.81    1.21   0
   6  -3   4  272.22    2.83   0
   7  -3   2  188.31    2.56   0
   7   0  -9 1572.34    3.19   0
  10   0 -11    1.78    0.98   0
  15  -1 -11    7.58    0.88   0
  -3   1   7  210.03    0.59   0
  -2   0  17   95.44    1.78   0
  -2   1  20   68.43    2.08   0
  -1  -1   8  479.26    1.97   0
  -1  -1  15   36.06    1.27   0
  -1   0  20   88.24    2.74   0
  -1   5   9    4.41    1.26   0
   1   4  -2  146.61    1.87   0
   2  -2   5 1407.36    3.89   0
   2  -2  16  444.79    5.01   0
   2  -2  17  244.26    3.92   0
   2   1  -5 1000.35    2.35   0
   5  -3   8   27.59    1.78   0
   5  -3   9   32.18    2.26   0
   5  -3  10  488.54    5.18   0
   5  -3  11  455.28    5.30   0
   5  -3  12  229.22    4.39   0
   6  -3   5  157.10    2.56   0
   6  -3  15   55.85    4.11   0
   6   4  -8  133.73    2.35   0
   6   5  -6   69.76    3.04   0
  -3   1  16  119.53    1.36   0
  -3   3  16   53.80    0.76   0
  -1  -1   9  484.52    2.09   0
  -1  -1  10 1488.82    3.82   0
  -1  -1  11  729.64    2.91   0
  -1   4   2  143.54    1.62   0
   0  -1  18  239.06    3.28   0
   1  -1  20   12.22    2.27   0
   2  -2  15  158.91    3.08   0
   2   4  -4  110.85    1.92   0
   3  -2  18   60.88    3.32   0
   3   2  -7  616.66    2.60   0
   4   2  -8  779.35    3.07   0
   6  -3   6   71.86    2.26   0
   7  -3   3  563.42    4.02   0
   8  -1  -8  347.61    0.92   0
   8   0 -10    0.55    0.73   0
  13   2 -14   42.44    2.58   0
  -3   1  15   97.11    1.19   0
  -3   2  17    9.30    0.79   0
  -3   3   6  784.78    1.89   0
  -2   0  16  698.03    3.33   0
  -2   1  19   13.11    1.31   0
  -1   0  19   18.82    1.58   0
  -1   5   7    9.23    1.27   0
   0   0  21    2.57    2.03   0
   1  -1  19   94.91    2.78   0
   2  -2  14   45.98    2.04   0
   3  -2   3 1405.59    3.51   0
   3  -2  17  207.39    3.95   0
   4   3  -8  198.29    2.14   0
   5   4  -8  460.49    3.95   0
   6  -3   7  164.02    3.06   0
   6  -3   8   83.34    2.47   0
   6  -3   9  108.79    2.86   0
   6  -3  10  136.60    3.54   0
   6  -3  11  126.81    3.56   0
   6  -3  12  146.16    3.77   0
   6   3 -10  251.32    2.67   0
   6   4  -9    5.57    1.60   0
   7  -3   4  631.70    4.36   0
   7  -3  14   29.54    3.41   0
   8  -3   2  273.89    2.93   0
   9   1 -12   63.41    1.38   0
  11   1 -13  329.11    2.61   0
  11   3 -13  120.29    2.76   0
  14   0 -13    4.10    1.28   0
  -3   2   5  582.35    1.10   0
  -2   0  15  125.00    1.52   0
  -2   2  20   18.04    1.57   0
  -1   1   0  928.39    1.49   0
  -1   1  21   14.01    1.84   0
  -1   2  -1 1450.21    2.78   0
   0  -1  16   97.55    1.98   0
   0   2  -3  277.76    1.47   0
   1   4  -3  285.70    2.45   0
   1   5   0   18.99    1.65   0
   2  -2  12  802.20    4.49   0
   2   2  -6  408.03    1.94   0
   2   5  -2   40.94    2.13   0
   3  -2  16   53.61    2.56   0
   3   3  -7  932.23    3.62   0
   4  -2   1  901.39    2.54   0
   4  -2  18   50.46    3.10   0
   4   1  -8   76.32    0.99   0
   4   4  -7  805.02    4.33   0
   4   5  -5   23.53    2.44   0
   7  -3   5  134.26    2.62   0
   7  -3  12   28.72    3.21   0
   7  -3  13    7.50    2.64   0
   7   3 -11   33.33    1.86   0
   7   4 -10   93.26    2.66   0
   8  -3   3  469.63    3.86   0
   8   2 -12   34.65    1.51   0
  10   3 -13  115.73    2.76   0
  11  -1 -10  219.70    1.06   0
  -3   1  14 1058.27    2.68   0
  -2   4   4  113.84    1.28   0
  -1   0  18    2.79    1.40   0
  -1   4   1  130.23    1.59   0
   0  -1  15  403.32    2.92   0
   0   0  20   33.56    1.87   0
   1  -1  18  432.01    4.16   0
   1   1  -4 1334.25    2.46   0
   2  -1  20   17.68    2.19   0
   2   3  -6  699.29    3.05   0
   2   4  -5  134.58    2.15   0
   3  -2   4 1237.97    3.55   0
   3  -2  15  210.82    3.39   0
   3   1  -7  219.39    1.33   0
   4  -2  17   83.83    3.37   0
   7  -3   6   14.91    1.91   0
   7  -3   7   56.70    2.39   0
   7  -3   8   27.99    2.22   0
   7  -3   9   30.78    2.49   0
   7  -3  10   72.17    3.08   0
   7  -3  11  120.75    3.67   0
   7   1 -11   29.18    1.09   0
   8  -3   4  173.33    2.89   0
   8  -3  13   49.11    3.70   0
   8   3 -12  172.00    2.92   0
   9   0 -11  345.50    1.74   0
  11   2 -14  142.09    2.67   0
  -3   1  13  505.65    1.85   0
  -3   2  16   20.40    0.74   0
  -3   3   5  963.56    2.16   0
  -2   0  12 4149.13    5.67   0
  -2   0  13  828.81    2.83   0
  -2   1  18  128.84    1.82   0
  -1   0  17  116.65    2.06   0
  -1   3  -1   34.82    0.76   0
   0  -1   6 1526.94    3.04   0
   0  -1  14  214.01    2.13   0
   0   4  -2   33.17    1.28   0
   0   5   1   71.50    1.84   0
   1  -1   2   39.75    0.46   0
   1  -1  17  210.17    3.02   0
   1   2  -5  154.70    1.27   0
   1   3  -5  803.09    3.27   0
   1   5  -1   15.04    1.70   0
   2  -1  19   32.11    2.27   0
   4  -2  16  132.96    3.49   0
   4   2  -9  276.38    2.03   0
   4   3  -9  129.62    1.95   0
   4   4  -8  525.74    3.97   0
   4   5  -6   92.89    2.81   0
   5   2 -10  364.96    2.37   0
   5   3 -10  165.82    2.26   0
   5   4  -9  294.96    3.45   0
   5   5  -7    2.38    2.04   0
   6   2 -11  201.86    2.01   0
   6   4 -10   13.77    1.84   0
   8  -3   5  163.27    3.26   0
   8  -3  11    6.71    2.84   0
   8  -3  12  106.12    4.10   0
   9  -3   3  240.09    3.79   0
   9   2 -13   77.19    1.85   0
   9   4 -12   20.87    2.05   0
  10   1 -13  148.55    1.86   0
  11   3 -14   32.21    2.64   0
  12   1 -14   13.18    1.55   0
  -3   1   9  109.61    0.67   0
  -3   1  12  523.55    1.71   0
  -3   4   9   58.44    0.82   0
  -3   4  10  225.39    1.24   0
  -3   4  11  258.64    1.24   0
  -2   0  11 2004.48    3.73   0
  -2   2   1  691.03    1.73   0
  -2   2  19    9.82    1.23   0
  -2   3   1  702.72    2.29   0
  -2   4   3   75.12    1.21   0
  -1   1  20   67.51    1.98   0
  -1   4   0  317.30    2.22   0
  -1   5   4    2.71    1.28   0
   0  -1   7  515.70    1.94   0
   0  -1  12    4.52    1.05   0
   0  -1  13  161.16    1.66   0
   1  -1  16   15.43    1.39   0
   1   0  21    5.35    2.19   0
   1   4  -4  198.11    2.21   0
   2   0  -4   54.15    0.41   0
   2   1  -6 2123.30    3.52   0
   3  -2  12   60.86    1.78   0
   3  -1  20   15.73    2.58   0
   3   2  -8 1279.21    3.62   0
   3   3  -8    2.70    1.15   0
   4  -2   2  495.54    2.09   0
   4  -2  15   61.47    2.41   0
   5  -2  17  102.14    3.54   0
   5   0  -8  326.02    1.33   0
   6   0  -9  442.87    1.67   0
   6   3 -11  197.09    2.59   0
   7   2 -12   49.10    1.53   0
   7   3 -12  260.19    3.17   0
   7   4 -11   79.62    2.52   0
   8  -3   6  107.26    3.03   0
   8  -3   7   28.35    2.31   0
   8  -3   8   85.58    3.08   0
   8  -3   9   16.95    2.54   0
   8  -3  10   12.39    2.41   0
   8   1 -12   65.54    1.35   0
   9  -3   4  229.08    3.97   0
   9  -3  11   52.46    3.48   0
   9  -3  12   23.39    3.28   0
   9  -1  -9  108.71    0.62   0
  10   0 -12   62.76    1.12   0
  10   2 -14  234.99    2.88   0
  10   3 -14   34.82    2.20   0
  -3   1  10   52.71    0.58   0
  -3   1  11   79.84    0.69   0
  -3   2  15   45.37    0.78   0
  -3   3  15   26.38    0.56   0
  -3   4   8   90.73    1.01   0
  -3   4  12   59.76    0.64   0
  -2   1  17  256.39    2.02   0
  -1   0  16   82.30    1.45   0
  -1   5   3   13.21    1.41   0
   0  -1   8  931.02    2.66   0
   0  -1   9  650.55    2.39   0
   0  -1  10  587.71    2.45   0
   0  -1  11  533.72    2.53   0
   0   5   0    1.38    1.42   0
   1   5  -2    6.59    1.52   0
   2  -1  18    9.07    1.70   0
   2   2  -7 1021.14    3.12   0
   2   3  -7  502.99    2.82   0
   2   4  -6   38.65    1.64   0
   2   5  -4  205.64    2.97   0
   5  -2  16   14.49    2.38   0
   7   0 -10  105.71    1.01   0
   8   2 -13  138.08    2.16   0
   8   3 -13  151.07    2.89   0
   9  -3   5  158.87    3.53   0
   9  -3   6   10.04    2.08   0
   9  -3   8   95.14    3.31   0
   9  -3   9   41.16    2.93   0
   9  -3  10    8.02    2.70   0
   9   1 -13  121.01    1.64   0
  12   0 -13  519.85    2.57   0
  12   2 -15  235.27    3.53   0
  14   1 -15   64.76    2.12   0
  -2   4   2   60.20    1.15   0
  -2   5   9   88.73    1.54   0
  -1   0  15  571.42    2.93   0
  -1   1  19   61.85    1.81   0
  -1   2  -2 1164.20    2.61   0
  -1   4  -1  821.04    3.38   0
   0   0  18   37.68    1.69   0
   0   1  21    7.30    1.84   0
   0   2  -4 1322.10    3.03   0
   1  -1   3   89.77    0.73   0
   1  -1  15   10.44    1.31   0
   1   0  20   20.18    1.94   0
   1   4  -5   80.13    1.74   0
   2  -1   0  439.34    1.05   0
   3  -1  19   13.49    2.01   0
   3   5  -6  419.65    4.58   0
   4   0  -7   16.10    0.45   0
   4   4  -9   98.92    2.36   0
   5   1 -10   86.47    1.14   0
   5   4 -10  117.16    2.56   0
   6   4 -11   51.47    2.41   0
   9  -3   7   66.94    2.53   0
   9   3 -14  132.51    2.80   0
  10  -3   4  194.10    4.22   0
  10  -3   9   55.29    3.43   0
  10  -3  10    4.90    2.89   0
  11   2 -15  120.82    2.47   0
  13   1 -15  207.01    2.77   0
  15   0 -14   69.79    1.70   0
  -3   2   4  419.78    1.01   0
  -3   4   6  132.33    1.22   0
  -2   1  16  221.62    1.73   0
  -2   2  18   19.87    1.10   0
  -2   3   0  466.21    1.95   0
  -2   3  18   42.14    1.23   0
  -2   5   7   18.62    1.22   0
  -1   2  20   27.96    1.65   0
  -1   5   2    7.52    1.39   0
   0   1  -3  706.53    1.69   0
   0   5  -1   68.31    2.02   0
   1  -1  14   40.42    1.39   0
   1   2  -6    5.00    0.71   0
   1   3  -6 1146.67    3.80   0
   1   5  -3   10.25    1.61   0
   2   4  -7   97.49    1.95   0
   2   5  -5  286.34    3.43   0
   3  -1  18   26.71    2.14   0
   3   3  -9   50.36    1.46   0
   3   4  -8   88.31    1.87   0
   4   1  -9  530.84    2.14   0
   4   2 -10  143.66    1.65   0
   4   3 -10  205.06    2.31   0
   5   2 -11  392.00    2.50   0
   5   3 -11   70.13    1.80   0
   6   1 -11  705.76    2.83   0
   6   2 -12  493.10    3.06   0
   6   3 -12  107.34    2.26   0
   7   1 -12 1122.82    3.75   0
   8   0 -11   47.70    0.82   0
   8   4 -13   19.00    2.57   0
   9   2 -14  187.73    2.57   0
  10  -3   5  188.89    4.45   0
  10  -3   6  130.41    4.31   0
  10  -3   7   43.41    3.29   0
  10  -3   8   53.79    3.24   0
  10   1 -14   48.72    1.51   0
  11  -3   8  168.54    5.35   0
  11  -3   9   41.30    3.82   0
  14   0 -14    3.90    1.23   0
  -3   2  14  263.18    1.20   0
  -2   2   0 1756.64    2.78   0
  -2   4   1  416.82    2.35   0
  -1   0  14   23.78    0.99   0
  -1   1  18   36.00    1.42   0
  -1   5   1   14.21    1.32   0
   0   0  17    3.74    1.24   0
   0   1  20  142.51    2.82   0
   0   4  -4   85.74    1.71   0
   1  -1  13   15.57    1.19   0
   1   0  19   26.85    1.97   0
   3   1  -8  115.64    1.09   0
   3   2  -9 1293.86    3.83   0
   3   5  -7  133.98    3.13   0
   4  -1  19   51.07    2.61   0
   7   2 -13   20.27    1.42   0
   7   3 -13  249.07    3.02   0
   8   3 -14  160.18    2.99   0
  10   2 -15  253.82    3.33   0
  10   3 -15   16.42    2.37   0
  11  -3   5  138.35    4.74   0
  11  -3   6   14.73    3.31   0
  11  -3   7   74.23    4.25   0
  11   0 -13  354.72    2.03   0
  12  -3   6   50.85    4.58   0
  12  -3   7   62.27    4.24   0
  12   1 -15   26.98    1.60   0
  -3   3   3  318.75    1.38   0
  -3   4   5   80.78    1.05   0
  -2   1  15  121.91    1.30   0
  -2   5   5  311.07    2.45   0
  -1   0  13    2.57    0.78   0
  -1   1  -1   94.88    0.60   0
  -1   3  -3   34.21    1.02   0
  -1   4  -2  568.53    2.97   0
   0   3  -5  383.64    2.24   0
   1  -1   4  117.35    0.78   0
   1  -1  12   81.95    1.40   0
   1   4  -6    3.86    1.36   0
   2  -1  15   58.66    1.73   0
   2   0  20   63.93    2.37   0
   2   5  -6   60.07    2.32   0
   3   0  -6  123.05    0.67   0
   3   4  -9   58.26    1.99   0
   4  -2   7   24.65    1.11   0
   4  -1  18   42.38    2.31   0
   4   4 -10   42.11    2.00   0
   5   4 -11   35.43    1.69   0
   6   4 -12   29.85    2.26   0
   7   4 -13    0.01    2.18   0
   8   1 -13  560.69    2.92   0
   8   2 -14  209.40    2.52   0
   9   0 -12  254.79    1.52   0
  10  -1 -10   66.74    0.57   0
  12   2 -16   20.03    1.93   0
  13   0 -14  243.60    2.10   0
  -2   2  17  164.97    1.68   0
  -2   3  -1   91.00    1.09   0
  -2   4   0 1142.87    3.74   0
  -2   5   4  209.30    2.18   0
  -1   0  12  385.88    1.86   0
  -1   2  -3 1146.65    2.67   0
  -1   2  19    4.37    1.13   0
  -1   5   0   17.06    1.41   0
   0   0  16    3.79    0.91   0
   0   2  -5 1374.22    3.22   0
   1  -1   5  126.99    0.93   0
   1  -1  10  316.83    1.89   0
   1  -1  11  130.63    1.31   0
   1   0  18  429.96    3.72   0
   2  -1  14    8.51    1.25   0
   2   1  -7 3107.76    4.38   0
   2   4  -8   31.57    1.64   0
   3   3 -10   91.75    1.72   0
   4   5  -9   11.42    2.32   0
   5   3 -12  213.31    2.64   0
   6   3 -13  167.21    2.77   0
   9   1 -14   13.72    1.17   0
   9   2 -15  235.14    2.91   0
   9   3 -15    6.99    1.89   0
  11   1 -15   16.31    1.42   0
  11   2 -16  103.11    2.66   0
  15  -1 -12   22.71    0.68   0
  -3   2  13  386.68    1.28   0
  -3   3  14   99.21    0.73   0
  -3   4   4   87.14    1.06   0
  -2   1  14   37.55    0.80   0
  -2   5   3   38.10    1.39   0
  -1   1  17  101.86    1.51   0
  -1   4  -3  140.40    1.86   0
   0   0  15  133.62    1.68   0
   0   1  19  276.33    3.43   0
   0   4  -5   35.84    1.52   0
   0   5  -3  114.78    2.43   0
   1  -1   6  341.99    1.49   0
   1  -1   7  573.15    2.02   0
   1  -1   8  119.20    1.14   0
   1  -1   9   69.87    1.04   0
   1   2  -7  148.29    1.35   0
   1   4  -7   75.93    1.76   0
   1   5  -5   18.31    1.79   0
   2   0  19   15.47    1.90   0
   2   5  -7   17.67    1.98   0
   3   0  20   34.66    2.32   0
   4  -1  17    3.43    1.77   0
   4   2 -11  430.45    2.58   0
   4   4 -11  260.56    3.47   0
   5   1 -11   20.87    0.92   0
   5   2 -12  259.55    2.27   0
   5   4 -12   79.71    2.47   0
   6   2 -13  126.76    1.96   0
   7   3 -14  184.37    3.17   0
  10   0 -13   59.33    1.07   0
  13   1 -16  213.64    2.82   0
  -3   2   3  992.05    1.61   0
  -3   4   3   36.27    1.00   0
  -2   1   2 2764.93    1.82   0
  -2   2  -1  957.96    2.17   0
  -2   4  -1  644.87    2.97   0
  -2   5   2   37.36    1.56   0
  -1   0  11 1440.65    3.13   0
  -1   3  -4   52.75    1.11   0
  -1   5  -1   62.06    1.86   0
   0   3  -6  691.76    3.03   0
   1   0  17  409.19    3.17   0
   1   1  20    8.71    1.62   0
   2  -1   1 1144.85    1.82   0
   3  -1  15  344.74    3.08   0
   3   2 -10  407.08    2.29   0
   4   1 -10  486.56    2.15   0
   5   0  -9  242.69    1.18   0
   6   0 -10   85.66    0.83   0
   6   1 -12  855.65    3.22   0
   6   4 -13   18.97    1.78   0
   7   0 -11    6.49    0.62   0
   7   1 -13 1368.67    4.39   0
   7   2 -14   66.27    1.78   0
   8   3 -15   77.80    2.42   0
  10   1 -15   16.08    1.23   0
  10   2 -16   30.11    1.94   0
  -2   1  13   70.63    0.83   0
  -2   2  16  110.98    1.35   0
  -2   3  -2  374.46    1.94   0
  -1   0   9  469.27    1.57   0
  -1   0  10  882.56    2.27   0
  -1   1  16   51.75    1.22   0
  -1   4  -4   79.66    1.64   0
  -1   5  -2   73.82    1.88   0
   0   0  14   65.68    1.22   0
   0   1  -4 1957.60    2.93   0
   0   1  18  182.46    2.45   0
   0   5  -4   76.44    2.10   0
   1   1  -6 6407.19    5.89   0
   1   5  -6    7.02    1.74   0
   2   0  18  154.51    2.60   0
   2   4  -9   27.97    1.63   0
   3   0  19   28.44    1.96   0
   3   1  -9  109.37    1.11   0
   3   5  -9   18.42    2.15   0
   4  -1  16   32.69    1.80   0
   4   3 -12  143.35    2.26   0
   5  -1  17   24.87    2.08   0
   5   3 -13  563.61    4.30   0
   6  -1  18   34.31    2.63   0
   6   3 -14  329.97    3.53   0
   8   0 -12   38.46    0.84   0
   8   1 -14  721.64    3.52   0
   8   2 -15  268.88    2.95   0
   9   3 -16    6.39    2.18   0
  12   1 -16    6.40    1.48   0
  -3   3   1 1493.48    3.07   0
  -3   4   2  101.42    1.26   0
  -2   4  -2   76.23    1.39   0
  -2   5   1  124.66    2.07   0
  -1   0   6   19.56    0.37   0
  -1   0   7   58.66    0.58   0
  -1   2  -4 1325.84    2.98   0
  -1   2  18   18.27    1.05   0
   1   0  16  107.07    1.78   0
   1   1  19   75.16    2.12   0
   1   4  -8  272.86    2.78   0
   2   5  -8   29.20    2.10   0
   3   3 -11   12.77    1.01   0
   4  -1  15  150.75    2.48   0
   4   4 -12  290.10    3.86   0
   5   4 -13   67.68    2.54   0
   6   4 -14   26.67    2.30   0
   7   3 -15   50.08    2.36   0
   9   2 -16  352.20    3.83   0
  11   2 -17   43.62    2.39   0
  14   0 -15   15.37    1.21   0
  -3   2   2  532.30    1.32   0
  -3   4   1  259.46    1.94   0
  -3   5   7  124.27    1.57   0
  -3   5   8   14.24    0.93   0
  -2   1  12   20.31    0.55   0
  -2   5   0   55.02    1.63   0
  -1   1  -2   44.93    0.51   0
  -1   1  15   33.16    1.00   0
  -1   5  -3   42.80    1.94   0
   0   0  13   94.48    1.23   0
   1   2  -8  159.96    1.34   0
   2  -1   2 1240.67    2.09   0
   2  -1  10  334.68    1.96   0
   2   0  -5   12.84    0.29   0
   2   0  17  767.65    4.29   0
   2   1  -8 1575.69    3.26   0
   2   1  20   12.66    1.72   0
   2   4 -10   45.20    1.90   0
   3  -1  13   23.38    1.19   0
   3   0  18    2.48    1.29   0
   3   2 -11  187.74    1.92   0
   4   0  19   12.88    1.71   0
   4   2 -12  307.96    2.37   0
   5  -1  16   14.85    1.70   0
   6  -1  17  104.76    2.84   0
   6   2 -14   37.33    1.57   0
   9   0 -13    7.97    0.80   0
   9   1 -15   17.03    1.14   0
  10  -2  13   22.19    2.61   0
  11   1 -16   16.84    1.43   0
  -3   3   0  341.19    1.60   0
  -3   5   5  248.34    2.17   0
  -3   5   6  337.24    2.44   0
  -3   5   9   16.54    0.81   0
  -2   2  -2  182.27    1.13   0
  -2   2  15  117.40    1.10   0
  -2   3  -3  182.70    1.39   0
   0   0  12    3.95    0.66   0
   0   1  17   11.96    1.01   0
   0   2  19    1.16    1.24   0
   0   4  -7  120.93    1.85   0
   1   0  15   76.05    1.41   0
   1   3  -9   54.86    1.24   0
   2  -1   9  399.80    1.98   0
   2   2 -10  151.20    1.62   0
   2   5  -9   74.67    2.63   0
   4  -1  14  197.42    2.39   0
   5   1 -12  184.29    1.63   0
   5   3 -14  277.23    3.38   0
   6   1 -13  397.55    2.39   0
   7  -1  17   84.55    2.96   0
   7   2 -15  123.20    2.09   0
  10   2 -17   49.02    2.18   0
  13   0 -15  177.42    1.95   0
  -3   5   4   26.98    1.14   0
  -2   1  11   41.67    0.63   0
  -2   3  16   28.66    0.95   0
  -2   4  -3  139.45    1.59   0
  -2   5  -1   40.54    1.54   0
  -1   2  17   32.90    1.27   0
  -1   3  18   89.58    2.09   0
  -1   5  -4   33.79    1.92   0
   1   0  -3 1029.92    1.22   0
   1   0  14  740.05    3.26   0
   1   1  18  280.45    3.02   0
   1   5  -8   11.04    1.99   0
   2   0  16  755.04    4.22   0
   2   3 -11   75.37    1.69   0
   3   0  -7 1750.45    2.39   0
   3   3 -12   66.62    1.54   0
   3   4 -12   50.06    2.18   0
   5   0  19   91.67    3.10   0
   5   4 -14   10.30    2.01   0
   7   1 -14  874.44    3.57   0
   7   3 -16    7.54    1.86   0
  12   1 -17   26.21    1.65   0
  -3   2   1  714.72    1.63   0
  -3   2  11  167.55    0.74   0
  -3   3  13  140.59    0.79   0
  -3   5   3   43.43    1.32   0
  -2   4  -4  666.61    3.75   0
  -1   1  14   36.60    0.81   0
   0   0  11    1.03    0.60   0
   0   1  -5 3240.85    3.93   0
   0   1  16   59.81    1.31   0
   0   5  -7  223.36    3.37   0
   1   1  -7 4347.67    5.02   0
   2  -1   6 1557.98    3.09   0
   2   1  19   29.97    1.75   0
   3   0  17   25.26    1.39   0
   3   1  20   11.74    1.71   0
   4   0  18   28.57    1.68   0
   5   2 -14   27.64    1.42   0
   6   0 -11  983.65    2.43   0
   7  -2   4  166.77    1.89   0
   8   1 -15  254.89    2.34   0
   9   2 -17   60.52    2.19   0
  10   0 -14    2.03    0.79   0
  12   0 -15  424.58    2.60   0
  13  -1 -12   10.67    0.39   0
  -3   5   2  365.47    2.82   0
  -2   1   1 2973.92    2.15   0
  -2   1  10   47.25    0.59   0
  -1   5  -5  193.38    3.05   0
   0   2  18   32.05    1.43   0
   1   0  13 1039.60    3.51   0
   2   0  15  355.34    2.79   0
   2   1  -9   59.33    0.92   0
   3   2 -12  662.99    3.31   0
   3   3 -13  137.83    2.43   0
   4   3 -14  169.71    2.79   0
   4   4 -14   10.68    1.93   0
   5   0 -10  810.41    2.06   0
   5   0  18  201.15    3.48   0
   7   0 -12  113.14    0.99   0
   8  -1  -9  933.63    1.23   0
  11   1 -17   30.74    1.61   0
  -4   3   4  726.16    1.71   0
  -4   4   4   49.80    0.86   0
  -3   3  -2   89.18    1.05   0
  -3   4  -2  175.12    1.82   0
  -2   4  -5  598.56    3.70   0
  -2   5  -3   16.95    1.60   0
  -1   2  -6  224.99    1.53   0
  -1   2  16  161.30    1.65   0
  -1   4  -7   45.47    1.53   0
   0   0  10   38.87    0.69   0
   1   1  17  171.08    2.13   0
   1   2  19   51.16    1.87   0
   2   1  18    2.50    1.18   0
   2   2 -11 1041.81    3.96   0
   2   3 -12    4.41    1.20   0
   2   4 -12   70.42    2.37   0
   3   0  16  214.44    2.55   0
   3   1  19   14.66    1.65   0
   4   0  17    8.99    1.44   0
   6   3 -16   73.14    2.43   0
   8   2 -17   25.04    1.77   0
  -4   3   3  478.95    1.51   0
  -3   2   0  650.44    1.70   0
  -2   5  -4   33.71    1.69   0
  -1   1  13  112.27    0.99   0
  -1   3  17   63.35    1.51   0
   0   1  15  256.90    1.94   0
   2   0  14  104.70    1.54   0
   3  -1   8  266.85    1.61   0
   4  -1  -3  910.25    1.01   0
   6   0  18  118.65    2.96   0
  12  -2   8    2.50    1.92   0
  -3   5  -1    1.25    1.16   0
  -2   2  -4  893.01    2.51   0
  -2   3  15  133.04    1.40   0
  -2   4  15    3.98    0.57   0
   0   2  17   80.95    1.60   0
   0   5  -9    6.19    1.78   0
   1   1  -8  381.81    1.65   0
   1   1  16   11.12    1.02   0
   3   0  15  168.32    2.14   0
   3   2 -13  376.90    2.89   0
   3   3 -14   92.41    2.17   0
   4   1  19   35.76    1.89   0
   4   2 -14   14.75    1.21   0
   4   4 -15   11.35    2.27   0
   5   0  17  198.69    3.14   0
   6   2 -16   94.43    1.97   0
   7   0  18    4.83    2.02   0
   9  -2   4    7.70    1.24   0
  13  -2   7   23.48    2.50   0
  13   0 -16  171.20    1.98   0
  -3   2  -1 1146.42    2.37   0
  -2   5  -5   46.18    2.04   0
  -1   1  12  350.33    1.50   0
  -1   2  -7  212.04    1.56   0
   0   0   8    6.00    0.43   0
   0   3  18   37.50    1.44   0
   1   0  11    8.13    0.69   0
   1   2  18  103.92    2.17   0
   2   0  -6  976.35    1.65   0
   2   1 -10   48.43    0.89   0
   2   1  17    7.48    1.18   0
   2   2 -12 1365.33    4.52   0
   2   3 -13   95.69    2.09   0
   2   4 -13   23.88    1.96   0
   3  -1   6 2011.74    3.60   0
   3   1  18   21.40    1.63   0
   6   0  17  138.81    3.16   0
   7   2 -17   47.25    2.03   0
  -3   4  -4  335.40    2.66   0
  -1   2  15   43.84    1.05   0
  -1   5  -8    9.52    1.76   0
   0   1  14  159.15    1.34   0
   1   2 -11  438.79    2.69   0
   3   0  14  146.05    1.88   0
   4   0  15   -0.35    1.07   0
   5   0  16   44.83    1.82   0
   5   1  19    2.66    1.72   0
   6   0 -12  677.59    2.21   0
   7   0  17   13.05    2.02   0
   9   1 -17   17.15    1.36   0
  10   0 -15   13.45    0.85   0
  11   1 -18   17.28    1.46   0
  12  -2   5    4.85    2.00   0
  14  -2   5    1.41    2.19   0
  -4   5   7   46.40    1.03   0
  -3   3  -4   19.45    0.71   0
  -3   5  -3   46.34    1.77   0
  -2   5  -6   38.72    1.92   0
   1   0  -4   19.08    0.28   0
   1   1  15   10.00    0.82   0
   2   4 -14    9.84    1.90   0
   3   2 -14  219.03    2.63   0
   3   4 -15   28.37    2.17   0
   4   1  18   34.61    1.92   0
   4   2 -15    4.23    1.28   0
   6   2 -17   13.73    1.71   0
   7   0 -13   44.52    0.80   0
   8   0  17    1.95    1.94   0
  -3   2  -2  788.16    2.14   0
  -3   4  -5  175.48    2.30   0
  -3   5  -4   39.06    1.80   0
  -2   5  -7    5.00    1.57   0
  -1   1  11  570.22    1.72   0
  -1   3  16   22.16    0.98   0
   0   0   6  895.07    1.66   0
   0   2  16  103.61    1.59   0
   1   1  -9  381.27    1.78   0
   2   1  16    5.93    1.04   0
   2   2 -13  627.86    3.60   0
   2   3 -14   53.31    1.84   0
   3   0  13    0.32    0.76   0
   3   1  17   22.82    1.43   0
   4  -1   7   27.71    0.76   0
   7   0  16    5.00    1.55   0
   7   2 -18   85.32    2.33   0
  10   1 -18   43.32    1.74   0
  12  -2   0   11.54    2.12   0
  -4   4  -2    0.26    0.84   0
  -3   5  -5    2.49    1.55   0
  -2   1  -1 1102.08    1.66   0
  -2   2  -6  298.14    1.79   0
  -1   1  -5  130.74    0.90   0
  -1   3 -10  267.61    2.75   0
   0   1  13  145.11    1.16   0
   0   3  17   31.88    1.40   0
   1   2 -12  181.68    2.02   0
   1   2  17  160.66    2.35   0
   2   1 -11   41.87    0.95   0
   2   2  18  133.04    2.39   0
   4   0  14   56.47    1.31   0
   5   1  18    1.71    1.44   0
   8   0  16   -0.54    1.73   0
   8   1 -17    6.30    1.10   0
   8   2 -19  156.14    3.87   0
  10  -1  12   91.54    2.74   0
  11  -1  12    3.83    1.83   0
  12  -1  12    8.75    2.15   0
  -3   2  -3 1260.03    2.87   0
  -1   2  14  236.46    1.66   0
   0   0   5 3628.83    2.95   0
   1   1  14   29.28    0.91   0
   1   4 -14   86.73    3.03   0
   2   3 -15  156.75    2.97   0
   2   4 -15    2.64    1.57   0
   3   2 -15   36.11    1.45   0
   3   3 -16   51.21    2.24   0
   4   1  17    2.05    1.31   0
   4   3 -17   48.30    2.53   0
   5   0  14   67.80    1.64   0
   5   3 -18   41.96    2.41   0
   6   0  15   22.89    1.50   0
   6   1  18   25.31    2.17   0
   9  -1  11    1.51    1.32   0
   9   0  16   -0.30    1.67   0
   9   1 -18    1.65    1.18   0
  -3   5  -6    0.95    1.62   0
   0   1  -8  781.64    2.30   0
   1   1 -10 1084.47    3.09   0
   1   3 -14   84.56    2.23   0
   2   1  15   47.13    1.13   0
   2   2 -14   49.92    1.56   0
   3   0  12   58.59    1.09   0
   3   1  16  138.20    2.02   0
   3   2  18   35.52    1.77   0
   4   0  13   16.61    1.03   0
   5   1  17   16.55    1.49   0
   6   2 -18   66.53    2.37   0
   7   0  15    3.55    1.38   0
  11  -1  11    7.38    1.70   0
  12  -1  11   16.19    1.90   0
  -2   2  -7   18.05    0.67   0
  -2   5  -9   66.59    2.65   0
  -1   1  -6  331.92    1.44   0
  -1   1  10 1091.99    2.15   0
   0   1  12    7.02    0.55   0
   0   2  15   48.16    1.07   0
   1   2  16   97.76    1.69   0
   2   1 -12   20.13    0.86   0
   2   2  17  140.29    2.60   0
   7   2 -19   51.27    2.49   0
   8   0  15  120.74    2.66   0
   9   0  15    2.29    1.70   0
  10   1 -19   11.68    1.63   0
  12   0 -17    6.58    0.98   0
  -1   2 -10  222.96    2.01   0
  -1   3  15   30.55    1.04   0
   1   0  -5   42.09    0.40   0
   1   1  13   10.41    0.69   0
   1   4 -15   10.55    1.64   0
   2   3 -16   45.80    2.15   0
   3   1  15  258.44    2.44   0
   3   2 -16   13.55    1.36   0
   3   3 -17   66.30    2.53   0
   4   0 -11   13.88    0.53   0
   4   1  16   29.17    1.27   0
   4   2  18   30.51    1.95   0
   5   0  13  332.18    2.65   0
   6   1  17  114.24    2.60   0
   7   0  14    9.83    1.37   0
  -5   5   3   -0.29    0.88   0
  -4   2   1  258.13    1.01   0
  -4   2   2   27.38    0.39   0
  -4   2   3  193.76    0.71   0
  -4   4  -6   22.69    1.31   0
  -2   1   6 1916.22    1.54   0
  -2   2  -8   24.82    0.95   0
  -1   2  13  484.21    2.03   0
   0   1  -9  538.90    2.12   0
   0   3  16   15.08    1.14   0
   1   0   7   65.32    0.65   0
   1   1 -11  555.32    2.52   0
   1   3 -15   29.65    1.74   0
   2   1  14    8.63    0.81   0
   2   2 -15  123.78    2.11   0
   4  -1   0 2503.27    2.79   0
   4  -1   1 1813.23    2.61   0
   5   1  16   15.02    1.41   0
   7   1  17   59.22    2.30   0
   8   0  14  133.23    2.63   0
   9   0  14   86.46    2.85   0
  11   0  14   48.28    2.60   0
  -5   5  -1    2.04    1.11   0
  -5   5   0    0.46    1.04   0
  -5   5   4    1.66    0.81   0
  -5   5   5    0.86    0.76   0
  -4   2   0 1940.40    2.98   0
  -4   2   4  139.97    0.52   0
  -4   3  -5    8.36    0.84   0
  -2   2  11  942.38    1.99   0
  -1   1  -7  540.73    1.94   0
   0   1  11  400.14    1.61   0
   0   3 -14   60.66    1.99   0
   1   2 -14  251.45    2.74   0
   2   0  -8 1839.34    2.78   0
   3   2  17  144.98    2.44   0
   7   0  13    1.05    1.08   0
  10   0  14    1.40    1.21   0
  -5   3   4    4.35    0.42   0
  -5   5  -2    1.53    1.10   0
  -4   2  -1  876.03    2.18   0
  -2   2  -9   75.92    1.32   0
  -2   4 -12    8.92    1.76   0
   0   2 -13  209.25    2.52   0
   0   2  14   86.00    1.22   0
   1   2  15   89.13    1.45   0
   1   3 -16   19.57    1.91   0
   2   1 -13   61.80    1.23   0
   2   2  16  326.04    2.99   0
   3   0  10    2.43    0.53   0
   3   1  14  126.62    1.60   0
   4   1  15  137.60    2.08   0
   5   0 -13  139.06    1.25   0
   6   1  16  171.53    2.72   0
   7   1  16  223.44    3.52   0
   8   0  13  100.06    2.39   0
   8   1 -19   -0.12    1.25   0
  -5   3  -1    2.43    0.61   0
  -4   2  -2  473.86    1.76   0
   0   1 -10  541.72    2.33   0
   0   3 -15   54.79    2.25   0
   1   0  -6   19.73    0.37   0
   1   0   6  155.18    0.81   0
   1   1 -12  324.84    2.16   0
   1   1  12   61.94    0.93   0
   2   1  13  367.47    2.15   0
   2   3  17    1.10    1.36   0
   4   0 -12  104.82    1.07   0
   4   2  17   79.28    2.05   0
   5   1  15   53.72    1.68   0
   6   0  12    0.04    0.96   0
   7   0 -15    0.89    0.63   0
   8   1  16   14.78    1.98   0
  10   0 -17   15.55    1.05   0
  10   0  13    1.15    1.39   0
  11   0  13    0.04    1.52   0
  -5   3   5  430.56    1.18   0
  -4   3  -7  218.97    2.28   0
  -3   2  -7  542.57    2.53   0
  -3   4 -11    4.00    1.58   0
  -1   3  14   94.84    1.26   0
   1   2 -15   43.58    1.49   0
   1   3  16    4.52    1.06   0
   2   3 -18   47.39    2.79   0
   3   0   9  129.84    1.14   0
   5  -1   2  587.63    1.78   0
   5   2  17   82.90    2.38   0
   6   1 -18   15.38    1.25   0
   6   1  15   94.16    2.34   0
   7   0  12  153.57    2.12   0
  -5   5  -5   16.05    1.73   0
  -4   2  -4 2173.67    4.26   0
  -3   2  -8  130.94    1.61   0
  -1   2  12  174.14    1.16   0
   0   1 -11  398.94    2.41   0
   0   1  10  522.06    1.70   0
   0   2 -14   81.80    1.96   0
   0   3  15   64.16    1.41   0
   1   3 -17   74.07    2.62   0
   2   2 -17  111.95    2.83   0
   2   2  15  107.40    1.74   0
   3   0 -11  218.42    1.34   0
   3   2 -18    4.74    1.52   0
   4   1  14  153.31    2.00   0
   6   2  17   89.36    2.72   0
   7   1  15  287.68    3.97   0
   9   0  12  114.21    2.36   0
  10   0  12   48.58    2.06   0
  11   0  12   89.72    2.68   0
  12   0  12    1.92    1.32   0
  13  -1   6    4.10    1.40   0
  -5   5  -6   24.00    2.03   0
  -5   5   7    2.72    0.55   0
  -4   2   5   42.05    0.24   0
  -3   2   8 1149.22    1.29   0
  -2   4 -14    6.28    2.02   0
  -1   3 -15   28.38    1.99   0
   0   2  13  225.92    1.63   0
   1   0  -7   62.02    0.60   0
   1   0   5 1151.02    1.84   0
   1   1 -13   97.96    1.50   0
   1   1  11  106.85    1.05   0
   1   2 -16  128.49    2.68   0
   1   2  14  296.32    2.24   0
   2   0   7    9.81    0.49   0
   2   1  12  878.86    3.06   0
   3   1  13   18.20    0.88   0
   3   3  17    8.81    1.51   0
   4   2  16  121.80    2.37   0
   5   1  14   70.22    1.67   0
   7   0  11  633.92    3.96   0
   8   1  15   67.57    2.30   0
   9   1  15    3.69    1.72   0
  13   0  11    2.06    1.90   0
  -4   2  -5 2065.32    4.44   0
  -3   2  -9   39.29    1.18   0
  -2   2  10  131.56    0.78   0
   0   2 -15   44.79    1.79   0
   1   3 -18  118.93    3.94   0
   2   3  16   17.53    1.39   0
   5  -1  -3  968.35    1.49   0
   5   2  16   21.33    1.63   0
   6   1 -19   11.86    1.26   0
   6   1  14   36.48    1.54   0
   7  -1  -9  917.28    1.08   0
   8   0  11  221.12    2.54   0
   9   0  11    3.20    1.17   0
  10   0  11    1.43    1.29   0
  11   0  11  240.87    3.86   0
  12   0  11   60.57    2.19   0
  14  -1   4    4.41    1.64   0
  -6   5  -3   18.31    1.58   0
  -6   5  -2   13.98    1.33   0
  -6   5   3    6.00    0.89   0
  -4   2  -6 1589.92    4.37   0
  -2   1   5  933.86    0.90   0
  -2   4  13   28.21    0.74   0
  -1   1 -10  299.26    1.90   0
   0   3 -17   31.00    2.06   0
   0   4  15   24.09    1.16   0
   3   2 -19   15.41    1.96   0
   3   2  15  152.77    2.33   0
   4   1  13  136.48    1.63   0
   6   2  16   43.28    2.07   0
   7   1 -20    2.84    1.32   0
   7   1  14  197.87    2.95   0
   8   0 -17    9.21    0.95   0
   8   1  14   87.96    2.45   0
   9   1  14   16.91    1.77   0
  10   1  14   12.15    1.77   0
  13   0  10    6.44    1.89   0
  -5   3   6  231.14    0.75   0
  -4   2  -7   22.70    1.00   0
  -2   3  12    5.90    0.50   0
  -1   3 -16    2.40    1.39   0
  -1   4  14  108.65    1.58   0
   0   1   9  547.03    1.64   0
   1   0  -8   51.57    0.65   0
   1   0   4 2347.90    2.35   0
   1   1 -14   33.57    1.16   0
   1   2 -17   34.46    1.89   0
   1   3  15   44.27    1.34   0
   2   0   6  170.64    0.93   0
   2   2  14   31.11    1.11   0
   3   1  12  847.81    3.21   0
   4   2  15   45.27    1.56   0
   5   1  13   32.73    1.31   0
   6  -1   1  784.23    2.18   0
   7   2  16    4.66    1.71   0
   8   0  10  985.44    4.89   0
  12   0  10  176.82    3.43   0
  14   0   9    6.13    2.08   0
  -3   1  -1   62.12    0.49   0
  -2   1  -8 1454.86    3.57   0
  -2   3 -15   16.87    1.94   0
  -1   1 -11  106.96    1.38   0
  -1   2  11  437.64    1.68   0
  -1   3  13   17.07    0.77   0
   0   0  -4 4403.76    3.11   0
   0   2 -16   96.79    2.42   0
   0   3 -18   41.20    2.82   0
   0   3  14   85.11    1.39   0
   1   1  10  286.00    1.42   0
   1   2  13  833.14    3.23   0
   2   1  11 1129.61    3.15   0
   3   3  16   52.66    1.88   0
   6   1  13  458.97    3.40   0
   9   0 -18    1.07    0.93   0
   9   0  10  103.56    1.88   0
  10   0  10    3.96    0.94   0
  13   0   9   16.01    1.88   0
  17  -1  -3    4.73    1.81   0
  -4   2  -8  342.12    2.45   0
  -3   1  -4  173.43    1.02   0
  -1   1   7 4374.98    3.31   0
  -1   2 -15   76.74    2.35   0
  -1   3 -17   32.68    2.35   0
   0   2  12  411.88    1.90   0
   2   2 -19   10.05    1.65   0
   3   2  14   86.81    1.58   0
   4   0 -14    0.95    0.61   0
   4   1  12  175.72    1.75   0
   4   3  16    7.01    1.46   0
   5   2  15   46.90    1.68   0
   6  -1   0  467.03    1.68   0
   6   1 -20    1.44    1.35   0
   6   2  15   11.22    1.45   0
   7   1  13    4.62    1.21   0
   8   1  13  120.87    2.59   0
   9   1  13   18.49    1.64   0
  10   1  13   43.87    2.23   0
  11   1  13    4.87    1.45   0
  14   0   8   19.88    2.09   0
  17  -1  -5    0.83    1.42   0
  -6   3   2  403.87    1.76   0
  -5   2  -2  342.37    1.59   0
  -5   2  -1  300.86    1.40   0
  -4   2  -9  716.01    3.92   0
  -3   1  -5 1080.67    2.54   0
  -3   1   1  598.88    1.02   0
  -3   3 -14   37.17    1.92   0
  -2   1  -9  377.38    2.09   0
  -2   3 -16   11.01    2.02   0
   1   0  -9  492.98    1.80   0
   2   3  15   22.97    1.37   0
   3   1  11 2021.36    4.62   0
   5   1  12   57.67    1.37   0
   6  -1  -1 1271.17    2.47   0
   7   2  15   16.18    1.77   0
   8   2  15   20.67    2.00   0
   9  -1   2  671.31    2.99   0
  10   0   9    1.26    1.09   0
  12   1  12    6.35    1.75   0
  13   0   8   22.46    1.89   0
  -5   2  -5  952.27    3.39   0
  -5   2   1   30.03    0.49   0
  -3   1  -6 2184.24    3.95   0
  -3   3 -15   40.99    2.41   0
  -1   1 -12   59.46    1.18   0
  -1   2 -16   80.21    2.66   0
   1   3  14    8.54    1.10   0
   2   0   5  146.25    0.77   0
   2   2 -20   16.02    2.22   0
   2   2  13  217.40    1.92   0
   3   0   6 4150.72    4.56   0
   4   2  14   21.02    1.34   0
   5   1 -20    2.27    1.44   0
   6   1  12  534.05    3.66   0
  10   0 -19    1.12    1.00   0
  11  -1   1   12.19    1.05   0
  11   1  12    0.72    1.71   0
  -7   5  -1    2.64    1.17   0
  -5   2  -6  504.25    2.84   0
  -5   4 -12    0.33    1.68   0
  -4   3 -13  182.63    3.59   0
  -3   3  10   89.19    0.61   0
  -2   2   9   74.56    0.59   0
   0   1   8  773.81    1.81   0
   0   4  14   10.40    0.98   0
   1   0   3 5946.74    3.28   0
   1   1   9   60.42    0.73   0
   2   1  10  331.83    1.68   0
   3   3  15   67.80    1.91   0
   4   1  11  284.68    2.06   0
   5   2  14  137.36    2.30   0
   7   1  12  337.57    3.00   0
   8   1  12    5.35    1.27   0
   9   0   8  431.78    3.10   0
   9   1  12   32.79    1.83   0
  10   1  12   90.04    2.44   0
  11   0   8   28.12    1.50   0
  13   0   7    1.20    1.42   0
  -5   2  -7  461.29    2.85   0
  -5   2   2  113.65    0.71   0
  -4   3 -14   23.56    2.32   0
  -3   1  -7 1087.60    3.03   0
  -3   3 -16   32.31    2.63   0
  -3   4  11  214.21    1.18   0
  -2   1 -11 1078.55    4.24   0
  -1   2 -17  133.36    3.39   0
  -1   4  13  257.53    2.10   0
   0   3  13   14.04    0.94   0
   1   2  12  236.84    1.63   0
   3   2  13  105.91    1.50   0
   4   3  15   55.08    2.01   0
   5   0   7  782.91    2.61   0
   6   2  14    7.89    1.36   0
   7  -1  -1  720.69    2.27   0
   7   2  14   18.47    1.50   0
   8   2  14  108.29    2.72   0
   9   2  14   19.58    2.01   0
  12   1  11   17.76    1.87   0
  -5   2  -8  460.98    3.07   0
  -3   1  -8  306.46    1.83   0
  -2   3  11   85.79    0.81   0
  -2   4  12   83.46    1.00   0
  -1   2  10  731.69    1.96   0
  -1   3  12   82.14    1.01   0
   0   2  11  424.38    1.73   0
   1   2 -20   22.61    2.40   0
   2   3  14   67.29    1.56   0
   3   1  10 2378.36    4.80   0
   4   0   6 2977.88    4.29   0
   5   1 -21    6.94    1.55   0
   5   1  11  215.85    1.79   0
   5   3  15   59.01    2.49   0
   6  -1  -4  434.86    1.20   0
   6   1  11  363.27    2.67   0
   6   3  15   54.63    2.56   0
   8  -1 -11  311.83    0.82   0
  11  -1  -1    3.71    0.92   0
  11   1  11    7.72    1.56   0
  13   0   6    2.97    1.39   0
  13   1  10   22.43    2.11   0
  15   0   5   49.62    2.30   0
  -5   2  -9  173.67    2.25   0
  -4   3 -15   41.44    2.59   0
  -3   1  -9  688.65    3.04   0
  -3   3 -17    8.53    2.21   0
  -2   1 -12  928.84    4.01   0
   0   2 -19    0.90    1.35   0
   2   0   4  205.15    0.85   0
   2   2  12  667.06    2.91   0
   3   0   5 3864.89    4.15   0
   4   2  13   95.82    1.65   0
   6  -1  -6  168.75    0.52   0
   6  -1  -5   29.41    0.38   0
   6   0 -18   -0.25    1.03   0
   7   1  11  745.70    4.03   0
   8   1  11   37.19    1.50   0
   9  -1  -1 1263.48    3.69   0
   9   1  11    2.13    1.18   0
  10   2  13   26.11    2.04   0
  12   1  10  139.54    3.26   0
  -5   2   3  129.94    0.67   0
  -2   2 -17  137.83    3.50   0
   0   0  -9   35.80    0.73   0
   1   3  13    8.58    0.95   0
   1   4  14   37.03    1.37   0
   3   3  14   60.64    1.71   0
   4   1 -21    3.14    1.65   0
   4   1  10  760.81    3.02   0
   5   0   6   25.59    0.73   0
   5   2  13   81.10    1.64   0
   6   2  13   28.79    1.45   0
   7  -1 -10  224.62    0.69   0
   7   2  13    9.24    1.30   0
   8   2  13   49.70    1.99   0
   9   2  13   75.39    2.67   0
  11   1  10   16.43    1.57   0
  16   0   3    1.73    1.78   0
  -6   2  -4  521.81    2.54   0
  -5   3 -14   64.63    3.05   0
  -4   3 -16    4.03    1.97   0
  -2   1 -13  348.64    2.92   0
  -1   2 -19   39.28    2.58   0
   1   1   8  131.63    0.94   0
   1   2  11  182.30    1.37   0
   3   2  12   59.29    1.19   0
   4   3  14   48.07    1.66   0
   5   1  10   80.37    1.30   0
   9  -1  -2  522.20    2.36   0
  10   0   6    8.10    1.04   0
  10   1  10   14.58    1.45   0
  13  -1 -10    8.16    0.70   0
  14   0   4  101.61    2.55   0
  -8   4  -5   15.69    1.28   0
  -6   2  -6  354.28    2.50   0
  -6   2  -5  651.58    2.91   0
  -6   2  -2   22.29    0.69   0
  -4   1  -6   74.46    0.98   0
  -4   1  -5   42.41    0.64   0
  -4   1  -3  195.99    1.05   0
  -4   1  -2   87.52    0.71   0
  -3   1 -11 2139.75    5.93   0
  -3   2 -16   35.84    2.19   0
   0   1   7  529.06    1.41   0
   0   4  13  234.52    2.21   0
   1   0   2   19.04    0.24   0
   2   4  14    8.86    1.24   0
   5   3  14  114.37    2.44   0
   6   1  10  335.69    2.31   0
   6   3  14   38.75    1.97   0
   7  -1  -4    7.79    0.44   0
   7   1  10  248.61    2.26   0
   7   3  14   23.94    2.01   0
   8   1  10    7.46    1.15   0
   9  -1  -3   97.03    1.12   0
   9   1  10   41.86    1.35   0
  10   2  12    2.37    1.57   0
  11   2  12   85.68    2.90   0
  12   0   5    9.77    1.27   0
  14   1   8   74.61    2.56   0
  16   0   2    3.59    1.56   0
  -8   4  -7    1.36    1.42   0
  -8   4  -6   14.70    1.56   0
  -6   2  -8  206.27    2.26   0
  -6   2  -7   11.91    0.84   0
  -5   3 -15   43.79    2.70   0
  -4   1  -8  317.70    2.11   0
  -4   1  -7   28.69    0.70   0
  -3   2   7  581.97    0.91   0
  -1   1 -16   11.19    1.28   0
   0   2  10  178.44    1.19   0
   0   3  12  136.27    1.41   0
   2   1 -20   42.11    2.17   0
   2   3  13   56.53    1.28   0
   3   0   4  519.66    1.47   0
   4   2  12   32.00    1.07   0
   5   0   5  846.67    2.49   0
   5   2  12  178.90    2.10   0
   8   2  12   14.69    1.48   0
   9   2  12   64.72    2.24   0
  11   1   9   63.99    2.06   0
  13   0   4  341.75    3.38   0
  13   1   8  288.49    4.34   0
  16   0   1    3.16    1.68   0
  -6   2  -9  267.13    2.66   0
  -5   2 -13   38.16    2.10   0
  -4   1  -9  697.30    3.41   0
  -3   2 -17  106.15    3.38   0
  -2   2 -19    6.36    1.94   0
   2   0   3  164.23    0.69   0
   2   2  11  213.61    1.61   0
   3   3  13    8.51    1.12   0
   6   0   5    7.01    0.60   0
   6   2  12   23.75    1.26   0
   7  -1  -5   96.19    0.77   0
   7   0 -20   -0.17    1.12   0
   7   2  12   63.66    1.80   0
  10   0   5    0.48    0.87   0
  10   1   9   38.90    1.56   0
  11   2  11   70.86    2.62   0
  12   0   4    0.49    1.14   0
  12   1   8  113.54    2.55   0
  14   1   7   98.67    3.08   0
  -6   3 -14   17.95    2.29   0
  -6   3   5  240.94    0.95   0
  -4   1 -10  688.16    3.63   0
  -4   3   8  183.97    0.57   0
  -2   2   8 1172.15    1.87   0
  -1   2   9  448.21    1.45   0
  -1   3  11  181.84    1.24   0
   1   3  12  147.43    1.67   0
   1   4  13   35.29    1.24   0
   2   1 -21    9.55    1.97   0
   4   3  13  340.02    3.08   0
   6   1   9   63.02    1.24   0
   7   1   9   81.05    1.41   0
   8   1   9   24.96    1.29   0
   8   3  13   53.29    2.57   0
   9   1   9  173.12    2.04   0
  10   2  11   82.54    2.62   0
  11   0   4    1.44    1.02   0
  13   0   3  318.45    3.00   0
  15   1   6    4.38    1.81   0
  16   0   0    1.70    1.55   0
  -6   2   1  230.76    1.16   0
  -6   3 -15   36.53    3.06   0
  -3   2 -18   31.64    2.28   0
  -2   1 -16    5.28    1.40   0
  -2   3  10  103.80    0.90   0
  -2   4  11   55.61    0.90   0
   3   2  11    3.86    0.78   0
   5   3  13   21.17    1.40   0
   6  -1  -9   91.70    0.44   0
   6   3  13  128.23    2.53   0
   7  -1 -11   23.17    0.44   0
   7   3  13   10.83    1.57   0
   9   2  11  168.28    2.72   0
  11   1   8   23.39    1.25   0
  12   2  10   69.68    2.78   0
  13   1   7  229.51    3.48   0
  14   1   6   58.61    2.36   0
  -3   3   9   55.40    0.57   0
  -1   0 -10  112.49    1.15   0
   2   3  12  189.22    1.96   0
   2   4  13   61.70    1.72   0
   4   2  11   88.61    1.39   0
   5   0   4 3697.06    4.87   0
   5   2  11  162.94    2.00   0
   6   2  11   63.20    1.63   0
   7   2  11  432.94    3.51   0
   8   2  11  120.97    2.19   0
  10   1   8  272.13    2.62   0
  11   2  10  161.30    3.38   0
  12   1   7    7.49    1.49   0
  13   2   9    1.12    1.69   0
  15   1   5   21.44    2.19   0
  16   0  -1    8.15    1.64   0
  -9   4  -4    0.34    1.12   0
  -7   2  -4  167.11    1.64   0
  -7   2  -3  100.39    1.22   0
  -7   3 -14   10.73    2.48   0
  -6   2 -13   22.01    1.92   0
  -5   1  -7  122.36    1.36   0
  -5   1  -6   23.11    0.79   0
  -5   1  -5  293.77    1.65   0
  -5   1  -4 1949.16    3.64   0
  -5   2   4  338.17    0.81   0
  -3   1 -15  254.73    3.44   0
  -3   4  10  227.87    1.30   0
   0   3  11  335.13    1.97   0
   0   4  12  543.10    3.07   0
   1   1 -21   10.12    1.81   0
   3   0   3  622.56    1.49   0
   3   4  13  181.26    2.59   0
   8   1   8  120.22    1.71   0
   9   1   8  440.48    2.93   0
   9   3  12   22.79    2.16   0
  10   2  10  194.97    3.04   0
  11   0   3   23.59    1.14   0
  11   1   7   55.64    1.69   0
  13   1   6    4.82    1.56   0
  16   0  -2    4.02    1.40   0
  -7   2  -2  362.56    1.95   0
  -6   2   2  698.12    1.78   0
  -5   1  -9  152.50    1.74   0
  -5   1  -3 1725.80    3.19   0
  -4   2 -18   24.54    2.50   0
  -4   4   9  106.64    0.74   0
  -1   0 -12 1011.65    4.07   0
   0   2   9   60.01    0.77   0
   2   2  10   69.81    1.03   0
   3   3  12  159.59    1.96   0
   4   3  12  184.17    2.37   0
   4   4  13   46.61    1.88   0
   5   1   8   11.56    0.61   0
   6   3  12  189.47    2.88   0
   7  -1  -7  264.94    0.93   0
   7   1   8   52.98    1.04   0
   7   3  12   58.74    2.05   0
   8   3  12  141.92    2.83   0
   9   2  10  191.02    2.80   0
  10  -1  -8  696.61    2.57   0
  10   0   3  695.96    3.08   0
  12   0   2   19.48    1.22   0
  12   2   9  163.16    3.31   0
  14   1   5   19.38    1.88   0
  15   0  -1   -0.26    1.36   0
  15   1   4    6.84    1.83   0
  16   1   3    4.68    2.02   0
  -7   2 -11  300.11    4.03   0
  -6   2 -14    4.62    1.33   0
  -4   1 -14  157.87    2.77   0
  -2   0  -9   72.95    1.01   0
  -2   0  -8   81.85    0.96   0
  -2   1 -18    2.39    1.53   0
  -1   0 -13 1008.77    5.05   0
   1   4  12  167.86    2.00   0
   2   0   2    3.01    0.26   0
   3   2  10   58.17    1.08   0
   4   0   3 1972.97    3.00   0
   5   3  12  295.60    2.89   0
   8   2  10  716.32    4.15   0
   9   0   3   26.04    0.97   0
  10   3  11   36.17    2.33   0
  11   2   9   47.65    2.07   0
  12   1   6  278.86    3.07   0
  13   2   8    5.61    1.82   0
  16   0  -3   30.73    1.72   0
  -8   3   1  214.53    1.64   0
  -7   2 -12   37.32    2.15   0
  -6   2 -15    8.47    1.87   0
  -5   1  -2  628.23    1.92   0
  -4   1 -15  117.50    2.75   0
  -2   0 -10    5.66    0.77   0
   1   3  11  545.89    2.71   0
   4   2  10  217.91    1.87   0
   5   0   3 2545.67    3.82   0
   5   2  10  182.40    1.89   0
   6  -1 -11  627.36    1.83   0
   6   2  10  320.29    2.55   0
   7   2  10  397.96    2.95   0
   9   3  11   71.61    2.45   0
  10   2   9  204.83    2.92   0
  11   1   6   14.83    1.33   0
  12   0   1    4.49    1.04   0
  13   1   5  184.49    2.67   0
  14   1   4    8.19    1.63   0
  15   0  -2    1.37    1.36   0
  15   1   3   15.38    1.82   0
  16   1   2   11.41    1.98   0
  -7   2 -13    5.48    1.75   0
  -7   2   0  203.38    1.26   0
  -6   2 -16   32.49    2.66   0
  -4   5   9   10.07    0.59   0
  -2   0 -11  999.88    3.79   0
  -1   0 -14  680.21    4.37   0
  -1   3  10  417.77    1.85   0
   0   0 -16    3.76    0.97   0
   1   2   9  469.51    1.92   0
   2   3  11  454.98    2.77   0
   2   4  12   17.69    1.25   0
   4   1   7   35.98    0.78   0
   6   0   3    6.41    0.53   0
   7  -1  -8 1320.61    1.56   0
   7   0   3  169.79    1.24   0
   8   3  11   15.09    1.65   0
  10   0   2  920.21    3.70   0
  -8   2  -5  597.29    3.49   0
  -8   2  -4  352.57    2.48   0
  -7   2 -14   10.09    2.08   0
  -7   3   4    5.20    0.44   0
  -6   1  -9   56.60    1.34   0
  -6   1  -8  707.76    3.46   0
  -6   1  -7  292.58    2.04   0
  -6   1  -6  231.34    1.73   0
  -6   2 -17   54.22    3.45   0
  -5   1  -1   39.41    0.60   0
  -3   1 -18   18.57    1.91   0
  -2   0 -12  844.45    4.23   0
   0   0 -17    3.01    1.19   0
   3   3  11  597.22    3.25   0
   4   4  12   59.48    1.87   0
   5   1   7  140.32    1.27   0
   5   4  12    2.39    1.49   0
   6  -1 -12  629.79    2.16   0
   6   1   7  306.82    1.87   0
   6   3  11  159.89    2.37   0
   7  -1 -13 1146.70    2.67   0
   7   3  11  146.12    2.41   0
   9   2   9  279.09    2.73   0
  10   1   6  220.56    2.18   0
  10   3  10    3.80    1.92   0
  11   0   1  853.35    3.60   0
  11   2   8   45.38    1.90   0
  13   1   4  362.86    3.46   0
  13   2   7   41.83    1.95   0
  14   2   6   91.07    3.02   0
  16   1   1  104.65    2.67   0
  17   0  -8   26.19    1.91   0
  -9   3  -1    3.27    0.86   0
  -8   2  -3   36.56    1.01   0
  -7   2 -15   11.14    2.40   0
  -6   1 -10  294.89    2.82   0
  -6   1  -5   71.05    0.96   0
  -5   5   8   23.25    0.53   0
  -4   1 -17    0.58    1.78   0
  -3   1 -19   13.06    1.93   0
  -2   0 -13  869.94    4.49   0
   4   3  11  425.13    3.05   0
   5  -1 -10   86.31    0.72   0
   5  -1  -9   44.66    0.49   0
   5   3  11  510.11    3.42   0
   7   2   9  305.02    2.64   0
   8   2   9  737.09    3.93   0
  10   2   8   37.65    1.64   0
  11   1   5   58.66    1.54   0
  12   0   0    2.48    0.90   0
  12   2   7   13.22    1.75   0
  13   0  -1  515.49    3.20   0
  14   1   3   19.37    1.38   0
  15   1   2   99.46    2.49   0
  -8   2  -2   48.17    0.97   0
  -7   2 -16    2.69    2.09   0
  -7   2   1  183.86    1.11   0
  -6   2   3 1477.87    2.14   0
  -5   1 -15   50.90    2.23   0
  -3   0  -9  159.98    1.46   0
  -2   0 -14  108.76    2.11   0
  -2   0  -3  163.85    0.77   0
   4   2   9 1001.33    3.53   0
   5  -1 -12  172.64    1.54   0
   5   2   9  231.18    1.96   0
   6   2   9  329.88    2.50   0
  10   0   1  616.01    2.91   0
  11   3   9   83.91    2.85   0
  12   1   4  425.51    3.29   0
  13   2   6   22.27    1.95   0
  16   1   0  165.93    3.04   0
  -9   3   0  135.11    1.55   0
  -6   1  -3 1663.93    3.49   0
  -4   1 -18   32.90    2.35   0
  -3   1 -20   10.86    2.29   0
  -2   0 -15  322.09    3.67   0
   5   0   2  567.04    1.78   0
   7  -1 -14  894.88    2.57   0
   8   3  10   14.08    1.48   0
   9   0   1    8.18    0.81   0
   9   2   8  217.86    2.51   0
  10   1   5  130.03    1.72   0
  10   3   9  104.26    2.69   0
  11   2   7   81.69    2.14   0
  12   0  -1    7.38    0.98   0
  13   1   3  341.89    3.22   0
  14   1   2   28.07    1.75   0
  14   2   5   -0.27    1.95   0
  15   0  -5    4.06    1.21   0
  15   1   1  245.52    3.24   0
  15   2   4   74.34    2.81   0
  17   1  -2   30.56    2.24   0
  -4   1 -19   27.68    2.70   0
  -3   0 -13    0.46    1.07   0
   0   0 -19    4.49    1.56   0
   3   4  11    7.08    1.34   0
   4  -1 -11  523.78    2.12   0
   5  -1  -8   15.69    0.21   0
   6  -1 -14   41.08    0.91   0
   6   1   6  242.49    1.60   0
   6   3  10  203.39    2.38   0
   6   4  11   88.73    2.31   0
   7   3  10   93.35    1.76   0
   8   2   8  414.67    3.05   0
  11   1   4  154.00    2.02   0
  12   2   6   29.03    1.78   0
  -8   2 -15   17.28    2.62   0
  -8   3   3   87.79    0.93   0
  -7   1 -11  481.23    4.79   0
  -7   1 -10  215.74    2.79   0
  -7   1  -9   61.26    1.66   0
  -7   1  -6   87.92    1.33   0
  -6   1 -15  107.22    3.23   0
  -6   1  -2 2049.72    3.62   0
  -3   0 -14  140.78    2.65   0
   2   3  10  544.88    2.75   0
   3   3  10  564.59    2.98   0
   4  -1 -12   74.58    1.22   0
   4   3  10  266.22    2.32   0
   5   3  10  603.57    3.55   0
   7  -1 -15  113.98    1.27   0
   7   2   8  322.47    2.57   0
  10   0   0    0.97    0.86   0
  10   2   7   27.24    1.47   0
  11   0  -1   23.22    1.01   0
  11   3   8  310.88    4.11   0
  12   1   3   75.33    1.78   0
  13   1   2   31.00    1.55   0
  13   2   5   42.49    2.09   0
  14   1   1   12.88    1.44   0
  14   2   4   48.18    2.26   0
  15   0  -6   -0.33    1.23   0
  15   1   0  195.36    2.85   0
  15   2   3   74.99    2.69   0
  17   1  -3   10.75    1.84   0
  -8   2   0   17.28    0.72   0
  -7   1 -12  230.79    3.63   0
  -7   1  -5  147.50    1.57   0
  -7   2   2  463.89    1.55   0
  -6   1 -16  161.06    4.12   0
  -5   1 -18    1.28    1.64   0
  -4   0 -11   98.98    1.68   0
  -4   0 -10  910.00    3.81   0
  -4   0  -9  860.93    3.36   0
  -4   0  -8  937.81    3.28   0
  -3   0  -4  540.65    1.68   0
   1   2   8  328.98    1.54   0
   6   2   8  266.22    2.14   0
   9   2   7  197.51    2.37   0
  10   1   4  293.06    2.41   0
  11   2   6  233.80    2.82   0
  12   0  -2   41.57    1.19   0
  14   0  -5   13.12    1.28   0
  16   1  -2    8.97    1.60   0
  -9   2 -14   18.66    2.77   0
  -9   2  -3    5.20    0.95   0
  -7   1 -14  149.34    3.81   0
  -7   1 -13    3.23    1.22   0
  -7   1  -4  197.76    1.59   0
  -6   1  -1  833.63    2.17   0
  -4   0 -13   16.25    1.30   0
  -3   3   8    2.69    0.44   0
  -2   0  -2    2.88    0.23   0
   2   0   1  150.24    0.53   0
   3  -1 -10   55.71    0.80   0
   4   2   8  414.27    2.29   0
   5   2   8  593.24    2.89   0
   7  -1  -9  945.89    1.08   0
   7   4  10  100.22    2.43   0
  11   1   3  117.53    1.81   0
  12   2   5    5.97    1.48   0
  15   1  -1    7.63    1.62   0
  17   1  -4   39.16    2.27   0
  -9   2  -2  109.26    1.36   0
  -7   1 -15  284.74    5.35   0
  -7   1  -3  212.36    1.48   0
  -6   1 -18   29.41    2.73   0
  -4   0 -14   61.42    2.11   0
  -3   5   9   17.33    0.85   0
   0   0 -21    2.41    1.64   0
   3  -1 -13  564.79    2.92   0
   5   0   1    0.28    0.44   0
   5   4  10  129.97    2.35   0
   6   0   1    2.87    0.37   0
   6   3   9  142.05    2.11   0
   8   2   7   21.63    1.01   0
  10   0  -1 1433.58    3.95   0
  11   0  -2  421.35    2.46   0
  12   0  -3    5.35    0.90   0
  12   1   2   52.80    1.34   0
  13   0  -4    8.77    0.99   0
  13   1   1   23.21    1.40   0
  13   2   4  190.56    2.77   0
  15   2   2  204.55    3.59   0
  16   1  -3   52.42    2.14   0
 -10   2 -12    2.39    1.97   0
 -10   2 -11   81.64    3.08   0
  -8   1  -7   54.39    1.41   0
  -7   1 -16  190.12    4.95   0
  -5   1   1 7611.38    4.74   0
  -4   0 -15    0.60    1.47   0
  -4   0  -5 7223.59    7.18   0
  -2   0 -19   14.14    1.92   0
   3  -1 -14 1121.39    4.09   0
   3  -1  -9  132.67    0.91   0
   5   3   9   36.33    1.42   0
   7   2   7  586.68    3.11   0
  10   1   3 1169.48    4.18   0
  11   2   5   71.92    1.87   0
  15   1  -2  167.06    2.59   0
  17   1  -5    1.51    1.96   0
  -9   2  -1  283.65    1.84   0
  -8   1 -13  105.21    3.08   0
  -8   2   1  137.80    1.09   0
  -7   1 -17   59.94    3.36   0
  -7   1  -2  114.41    1.07   0
  -7   3   5  128.07    0.66   0
  -5   0 -12   99.68    2.02   0
  -5   0 -11   15.05    1.20   0
  -5   0 -10  185.71    2.11   0
  -5   0  -8  846.53    3.44   0
  -4   0 -16   48.62    2.23   0
  -3   0 -18    2.24    1.50   0
  -3   2   6  178.89    0.56   0
   2  -1 -12   32.20    1.00   0
   2  -1 -10   67.34    1.01   0
   3  -1 -15   89.92    1.73   0
   3   3   9   81.82    1.38   0
   4   3   9  125.49    1.64   0
   6   2   7   17.52    1.05   0
   7   4   9  115.43    2.69   0
   9   0  -1 1579.34    3.71   0
   9   2   6  260.65    2.39   0
  11   1   2   25.97    1.30   0
  12   1   1  143.50    1.96   0
  12   2   4   34.91    1.75   0
  13   1   0   30.37    1.37   0
  13   2   3  293.96    3.39   0
  13   3   5   34.03    2.00   0
  14   0  -7    6.35    1.09   0
  14   1  -1   86.07    1.98   0
  15   0  -9  136.26    2.05   0
  15   2   1  108.56    2.91   0
  16   1  -4  252.38    3.24   0
  17   1  -6    0.70    1.93   0
  -8   1 -15   50.33    2.84   0
  -8   1 -14   79.07    2.76   0
  -8   1  -5  881.18    3.80   0
  -5   0 -14   67.29    2.33   0
  -5   0 -13  337.29    3.44   0
  -5   0  -7  893.00    3.20   0
  -4   0  -4 6599.46    6.27   0
  -3   0 -19   30.45    2.33   0
  -2   4   9   39.24    0.88   0
   2  -1  -9   89.21    0.92   0
   5   2   7  605.18    2.90   0
   6   4   9  449.61    3.81   0
   7   3   8   38.25    1.61   0
   8   2   6  311.90    2.51   0
  10   2   5  127.90    2.05   0
  11   0  -3  826.83    3.19   0
  11   3   6   12.61    2.03   0
  12   0  -4  109.18    1.46   0
  -8   1 -16   13.33    2.72   0
  -8   1  -4 1797.59    4.77   0
  -8   3   4  127.22    0.90   0
  -5   0 -15  123.38    2.89   0
  -5   0  -6   29.64    0.88   0
  -4   0 -18   28.63    2.29   0
   1  -1 -14   45.97    1.74   0
   1  -1 -13  126.79    1.71   0
   1  -1 -12  478.27    2.48   0
   4   2   7   23.94    0.98   0
   5   4   9   94.47    2.01   0
   6  -1 -18   15.46    1.12   0
   6   1   4  275.41    1.66   0
   8   4   8   25.94    1.95   0
  10   1   2  757.90    3.39   0
  11   2   4   38.82    1.56   0
  13   3   4  105.96    2.92   0
  15   1  -3  647.65    4.55   0
  15   2   0   57.50    2.32   0
  16   2  -1   22.77    2.15   0
  -9   1 -12   30.03    2.17   0
  -9   1 -11    1.30    1.18   0
  -9   1  -7  661.17    3.69   0
  -9   2   0  176.85    1.40   0
  -8   1  -3  389.88    2.18   0
  -7   2   3  665.61    1.61   0
  -6   0 -12   -0.12    1.38   0
  -6   0 -11   62.79    1.76   0
  -6   0 -10    8.04    1.12   0
  -6   0  -9   21.57    1.20   0
  -6   2   4  221.11    0.71   0
  -5   0 -16   48.24    2.39   0
  -4   0 -19   12.43    2.10   0
  -4   5   8   16.13    0.81   0
  -3   0  -2 4748.34    4.04   0
  -1   5   9    2.42    1.01   0
   1  -1 -10 1566.73    3.59   0
   2   2   7   22.22    0.67   0
   5   3   8   49.05    1.39   0
   7   2   6  970.59    3.82   0
  11   1   1   17.30    1.19   0
  12   1   0  309.40    2.66   0
  12   2   3  129.17    2.27   0
  13   1  -1   21.55    1.39   0
  13   2   2  206.60    2.94   0
  14   1  -2  396.98    3.06   0
  14   2   1  151.61    2.90   0
  -9   1 -14   14.19    2.23   0
  -9   1  -6   10.60    1.15   0
  -9   3   3   92.99    1.03   0
  -6   0 -14   27.11    1.91   0
  -6   0 -13    5.85    1.18   0
  -6   0  -8  161.08    1.81   0
  -5   0 -17  198.60    4.24   0
  -4   0  -3 1963.11    3.20   0
  -2   0  -1  149.82    0.59   0
   0  -1 -13  167.04    2.05   0
   0  -1 -12    5.58    0.99   0
   1  -1  -9  551.09    1.96   0
   4   3   8  421.18    2.56   0
   6  -1 -19   15.28    1.27   0
   6   2   6  451.64    2.49   0
  10   0  -3 3132.69    5.48   0
  11   0  -4 1981.19    4.66   0
  13   0  -7  266.26    2.28   0
  14   0  -9   17.15    1.25   0
  15   1  -4  565.63    4.38   0
  16   2  -2   20.58    2.21   0
  -8   2   2  612.65    1.91   0
  -6   0 -16  168.41    3.67   0
  -6   0 -15   25.40    2.00   0
  -6   0  -7  200.86    1.65   0
  -5   0 -18  199.53    4.50   0
  -4   3   7  128.07    0.69   0
   3   3   8   18.61    1.07   0
   4   1   4  154.07    1.09   0
   7   0  -1    4.08    0.54   0
   9   3   6   15.38    1.69   0
  14   1  -3  381.93    3.16   0
  14   2   0   14.15    1.88   0
  14   3   2    3.67    2.25   0
  15   0 -14   68.11    1.67   0
  15   2  -1   59.65    2.36   0
 -12   2  -8    1.17    1.56   0
 -10   1 -13   41.89    2.64   0
 -10   1 -12   91.64    3.29   0
 -10   1 -11   49.44    2.44   0
 -10   1 -10   13.59    1.77   0
 -10   1  -9   39.23    1.88   0
 -10   1  -8  246.79    3.28   0
  -9   1  -4 2291.08    5.64   0
  -8   1  -2  267.18    1.72   0
  -7   0 -12  148.56    2.84   0
  -7   0 -11  674.26    5.25   0
  -7   0 -10  909.34    5.06   0
  -6   0 -17  157.08    4.33   0
  -6   0  -6    9.45    0.78   0
  -5   0 -19   87.06    3.73   0
  -5   0  -4 3730.21    5.18   0
  -1  -1 -13   14.88    1.29   0
  -1  -1 -12   83.93    1.62   0
  -1  -1 -11  139.60    1.79   0
   5   2   6  676.06    2.82   0
  10   1   1  342.29    2.25   0
  12   0  -6    4.15    0.84   0
  12   1  -1  150.63    1.93   0
  13   0  -8    4.41    1.12   0
  13   1  -2    5.11    1.24   0
  14   0 -10    0.36    1.13   0
  15   1  -5  311.43    3.37   0
  16   1  -7   30.20    1.99   0
  16   2  -3   15.27    2.21   0
 -12   4   0    1.20    1.28   0
 -10   1  -7  402.73    3.53   0
  -7   0 -15    3.62    1.81   0
  -7   0 -13    1.84    1.16   0
  -7   0  -8    8.03    1.01   0
  -7   1   0  118.23    0.95   0
  -6   0  -5    7.28    0.74   0
  -6   1   1 1260.90    2.31   0
  -3   5   8   15.29    0.97   0
  -2   2   6  409.45    1.08   0
  -1  -1 -15    9.12    1.50   0
   4   2   6 2175.71    4.55   0
   6   1   3 1630.52    3.73   0
   7   2   5  771.42    3.33   0
   8  -1 -19    0.62    0.81   0
   9   2   4    6.90    0.94   0
  11   0  -5  111.72    1.29   0
  13   3   2   59.68    2.28   0
  15   2  -2   75.48    2.58   0
  16   1  -8   13.19    1.85   0
 -12   2  -5    5.86    1.37   0
  -9   1  -3 2619.92    5.90   0
  -7   0 -16    4.69    2.28   0
  -7   0  -7  624.27    3.17   0
  -5   1   2 5018.77    3.41   0
  -4   0  -2  235.30    1.09   0
  -2  -1 -14    8.49    1.40   0
  -2  -1 -13  445.59    3.60   0
  -2  -1 -12 1140.61    5.00   0
   3   0   0 2780.89    2.45   0
   3   2   6 1099.24    3.05   0
   4   4   8   79.81    1.86   0
   5   3   7  214.45    2.12   0
   7   4   7  159.13    2.39   0
   9   0  -3  213.21    1.37   0
   9   1   1   31.10    1.07   0
  10   0  -4  377.25    1.98   0
  13   1  -3   80.15    1.76   0
  13   2   0  287.15    3.21   0
  14   2  -1  237.42    3.13   0
  15   1  -6    3.86    1.62   0
  16   2  -4  130.14    3.10   0
 -11   1 -12    2.00    2.04   0
 -11   1 -11    6.33    2.03   0
 -10   1  -5  132.69    1.98   0
  -8   0 -13  122.30    3.16   0
  -8   0 -12   11.04    1.60   0
  -8   0 -11  210.49    3.30   0
  -8   0 -10 1020.96    6.42   0
  -7   0 -17   14.02    2.56   0
  -6   0  -4    2.04    0.67   0
  -2  -1 -16    9.11    1.81   0
  -2  -1 -11 1337.84    4.82   0
  -2   5   8   31.91    1.26   0
   3   5   8    3.85    1.46   0
   4   3   7  329.08    2.32   0
   6   4   7   13.68    1.78   0
   8   4   6   34.66    2.02   0
  10   1   0    5.47    0.95   0
  11   1  -1    2.83    0.99   0
  12   0  -7   13.85    0.92   0
  12   1  -2   65.34    1.51   0
  14   1  -5   19.35    1.46   0
  15   2  -3    7.74    1.87   0
 -13   2  -9    0.95    2.27   0
 -13   2  -8    4.99    2.13   0
 -11   1 -13    5.81    2.23   0
 -11   1  -9   60.70    2.20   0
 -11   1  -8   22.14    1.89   0
 -10   1  -4  292.95    2.34   0
  -9   1  -2  777.23    2.96   0
  -8   0 -15  146.92    3.96   0
  -8   0 -14  143.08    3.52   0
  -7   0 -18    4.84    2.62   0
  -5   5   7    2.44    0.68   0
  -3  -1 -14  154.25    2.65   0
  -3  -1 -13   22.20    1.59   0
  -3  -1 -12  945.71    4.98   0
  -3   0  -1 4996.00    3.75   0
  -2  -1 -17    8.86    2.01   0
  -1   2   6    4.69    0.38   0
  -1   5   8   11.11    1.06   0
   0   2   6  167.77    0.98   0
   2   0   0    6.08    0.20   0
   7   1   2  120.43    1.08   0
   8  -1 -20    2.63    0.87   0
  13   3   1   20.16    2.12   0
  14   2  -2  117.65    2.70   0
  15   1  -7  205.55    2.76   0
  16   2  -5  131.90    3.13   0
  -9   2   2  537.72    2.03   0
  -8   0 -17    0.61    2.75   0
  -8   0 -16    0.25    2.27   0
  -8   0  -7   20.99    1.21   0
  -8   2   3  843.59    2.01   0
  -7   0  -5  485.69    2.51   0
  -5   4   7  400.91    1.42   0
  -3  -1 -16  183.17    3.57   0
  -3  -1 -15  363.77    4.04   0
   4   1   3  234.41    1.25   0
   5   2   5 1211.85    3.61   0
   7   0  -2  225.20    1.19   0
   7   4   6   42.77    1.94   0
  10   0  -5    2.55    0.67   0
  10   4   4   40.04    2.26   0
  12   0  -8  210.97    1.86   0
  12   2   0   14.78    1.56   0
  13   1  -4   79.07    1.70   0
  13   2  -1  232.24    2.97   0
  14   0 -14    2.60    1.25   0
  15   2  -4    3.61    1.84   0
  16   1 -10   14.95    1.80   0
 -10   3   3   27.97    0.84   0
  -9   0 -14  102.20    3.64   0
  -9   0 -13   43.55    2.51   0
  -9   0 -12  107.19    3.11   0
  -9   0 -11    2.45    1.59   0
  -9   0 -10  105.85    2.52   0
  -9   3   4   49.61    0.77   0
  -8   1   0 1022.40    2.68   0
  -7   1   1  751.10    2.00   0
  -6   0  -3    6.27    0.62   0
  -5   0  -2  563.66    1.84   0
  -4  -1 -13  142.09    2.50   0
  -3  -1 -17   26.56    2.39   0
  -3  -1  -9  894.14    3.38   0
  -2  -1 -19   32.81    2.49   0
   4   5   7  115.19    2.48   0
   5   0  -1   53.01    0.50   0
   9   1   0  850.07    3.13   0
  10   1  -1   90.45    1.39   0
  11   1  -2  261.04    2.13   0
  11   4   3   57.18    2.85   0
  14   1  -6  265.41    2.77   0
  14   2  -3  175.93    2.81   0
  15   1  -8  195.82    2.67   0
  16   2  -6   69.17    2.51   0
 -12   1 -12    5.77    2.00   0
 -12   1 -10  155.74    3.98   0
 -12   1  -9  196.23    3.93   0
  -9   0 -16   -2.43    2.67   0
  -9   0 -15    2.93    2.25   0
  -9   0  -9  284.63    3.38   0
  -7   0  -4  181.81    1.53   0
  -4  -1 -16   32.75    2.25   0
  -4  -1 -15  158.67    3.28   0
  -4  -1 -12  195.68    2.43   0
  -4  -1 -11  326.22    2.83   0
  -4   5   7   52.50    1.24   0
  -3  -1 -18   25.85    2.43   0
   3   5   7   10.13    1.50   0
   4   2   5 2467.47    4.57   0
  11   0  -7   19.64    0.96   0
  13   1  -5  139.27    2.05   0
  13   2  -2  305.49    3.20   0
  15   2  -5   70.21    2.44   0
 -12   1  -7    7.19    1.85   0
 -10   1  -2  719.50    3.12   0
  -9   0  -8  454.93    3.76   0
  -8   0  -5 1853.11    4.93   0
  -5  -1 -14   75.15    2.58   0
  -5  -1 -13   38.76    1.97   0
  -4  -1 -18   42.92    2.91   0
  -4  -1 -17    1.91    2.30   0
  -4   0  -1 3844.48    3.84   0
   2   5   7   14.06    1.44   0
   3   1   3   54.98    0.59   0
   4   3   6  100.73    1.54   0
   5   5   6   62.81    2.40   0
   7   1   1    3.26    0.72   0
   9   4   4    2.50    1.85   0
  10   2   1  356.99    2.85   0
  11   2   0  314.38    2.77   0
  12   2  -1  197.80    2.52   0
  14   1  -7  203.99    2.57   0
  14   3  -2   81.49    2.93   0
 -12   1  -6  267.43    3.40   0
 -12   2  -1   88.70    1.72   0
 -10   0 -15    2.82    2.53   0
 -10   0 -14    0.96    2.40   0
 -10   0 -13   -0.24    2.13   0
 -10   0 -12   58.41    2.88   0
 -10   0 -11    0.15    1.79   0
 -10   0 -10    2.04    1.72   0
  -7   0  -3  172.41    1.39   0
  -5  -1 -16   15.00    2.37   0
  -5  -1 -15   70.89    2.60   0
  -5  -1 -12   62.73    1.98   0
  -5  -1 -11  244.95    2.61   0
  -4   4   7  770.34    2.27   0
   1  -1  -6 7056.53    4.54   0
   1   5   7  296.05    2.97   0
   3   2   5 1390.68    3.10   0
   5   1   2  626.93    2.09   0
  10   0  -6  539.03    2.14   0
  11   1  -3  471.58    2.72   0
  13   3  -1    7.76    2.08   0
  14   2  -4   41.81    1.90   0
  15   1 -10   41.45    1.86   0
  15   2  -6   60.79    2.52   0
 -14   2  -5    0.01    1.68   0
 -14   3  -2    2.45    1.64   0
 -13   1 -10   27.52    2.99   0
 -13   1  -9  333.81    5.58   0
 -12   1  -5  413.82    3.61   0
 -10   0  -9    1.82    1.45   0
 -10   0  -8    7.29    1.41   0
  -9   0  -6  101.34    1.55   0
  -8   0  -4  505.69    2.51   0
  -6   0  -2  285.66    1.40   0
  -5  -1 -18    3.23    2.71   0
  -5  -1 -17   26.04    2.64   0
  -5  -1 -10  120.17    1.89   0
  -4  -1  -8  435.51    2.44   0
  -2   5   7   19.81    1.20   0
  -1   5   7    9.88    1.22   0
   0   5   7  343.49    3.01   0
   2  -1  -6 2226.19    2.11   0
   2   1   3 1086.07    2.02   0
   2   2   5 1383.60    2.96   0
   4   5   6  128.89    2.68   0
   8   4   4   28.77    2.12   0
   9   0  -5  619.16    2.12   0
   9   1  -1 1455.28    4.05   0
  11   0  -8    2.92    0.88   0
  13   0 -13   29.42    1.28   0
  13   2  -3   76.89    2.15   0
  14   1  -8  171.41    2.38   0
  14   3  -3  101.15    3.05   0
 -13   1  -8  245.34    5.01   0
 -10   0  -7   16.77    1.45   0
  -9   0  -5  200.00    2.00   0
  -8   1   1  790.40    2.29   0
  -6  -1 -17  113.15    4.02   0
  -6  -1 -16  234.26    4.62   0
  -6  -1 -15  128.86    3.58   0
  -6  -1 -14   43.04    1.96   0
  -6  -1 -13  540.71    4.90   0
  -6  -1 -12  663.44    5.12   0
  -5  -1  -9  182.65    1.92   0
  -5   0  -1    0.68    0.50   0
  -3   4   7  271.64    1.60   0
  -2   4   7   99.88    1.22   0
   6   1   1  831.23    2.49   0
  10   2   0   20.94    1.25   0
  11   4   1   16.53    2.38   0
  12   4   0    2.22    2.49   0
  13   3  -2   91.58    2.57   0
  14   2  -5    7.51    1.72   0
  15   1 -11    8.29    1.47   0
  15   2  -7   59.35    2.51   0
 -13   1  -6    5.02    1.64   0
 -11   0 -14   56.27    3.55   0
 -11   0 -13    0.71    1.78   0
 -11   0 -12   95.71    3.40   0
 -11   0 -11  290.66    5.21   0
 -11   0 -10  204.04    3.79   0
  -8   0  -3  266.47    1.86   0
  -6  -1 -18   38.68    3.62   0
  -6  -1 -10  353.89    3.03   0
  10   0  -7 1093.33    3.00   0
  11   1  -4  687.76    3.20   0
  12   3  -1  120.88    2.65   0
  13   2  -4   99.14    2.22   0
  14   1  -9   16.50    1.48   0
  15   1 -12   36.28    1.95   0
 -11   0  -9   70.25    2.32   0
 -11   0  -8   27.43    1.99   0
 -10   0  -6    7.51    0.98   0
  -9   0  -4    4.84    1.07   0
  -7  -1 -17   73.23    3.69   0
  -7  -1 -16  288.79    5.49   0
  -7  -1 -15  397.71    6.19   0
  -7  -1 -14  222.32    4.02   0
  -7  -1 -13    5.26    1.48   0
  -7  -1 -12  422.89    4.44   0
  -7  -1 -11  812.51    5.45   0
  -7   0  -2   91.80    0.95   0
  -7   1   2   65.95    0.67   0
  -6  -1  -9   93.90    1.60   0
  -3  -1  -6 2696.01    4.39   0
   7   1   0  125.64    1.21   0
   8   4   3   43.34    2.09   0
  10   1  -3  148.49    1.68   0
  11   0  -9    2.32    0.94   0
  11   3   0   40.32    1.58   0
  12   2  -3  262.88    2.67   0
  13   0 -16  155.84    2.36   0
  14   2  -6   26.77    1.89   0
  14   3  -4  158.74    3.04   0
  15   2  -8  123.14    2.97   0
 -14   1  -8   74.46    3.29   0
 -13   3   1    4.76    1.18   0
 -12   0 -12    0.85    2.49   0
 -12   0 -11   66.96    3.15   0
 -11   0  -7  195.67    2.81   0
 -10   0  -5   -0.39    1.24   0
  -7  -1 -10  279.17    3.11   0
  -6  -1  -8  860.52    3.81   0
  -5  -1  -7  142.42    1.41   0
  -4  -1  -6   85.79    1.13   0
  -3   0   0 2713.83    2.55   0
   1   5   6  433.49    3.40   0
   4   5   5    6.15    1.77   0
   6   5   4   73.59    2.31   0
   9   0  -6 1328.88    3.02   0
   9   1  -2  578.42    2.58   0
   9   4   2  119.40    2.75   0
  12   1  -6  657.93    3.26   0
  13   1  -8   29.89    1.53   0
  13   3  -3  213.98    3.31   0
  14   1 -10   46.95    1.71   0
 -12   0 -10  197.11    4.70   0
 -12   0  -9  135.10    3.37   0
 -11   0  -6  207.01    2.82   0
  -9   0  -3   27.21    1.15   0
  -8  -1 -16   25.08    3.30   0
  -8  -1 -15   75.57    3.55   0
  -8  -1 -14  119.20    3.39   0
  -8  -1 -13  131.13    3.56   0
  -8  -1 -12    5.92    1.98   0
  -8  -1 -11   47.04    2.23   0
  -8   0  -2  153.83    1.42   0
  -8   2   4  132.87    0.85   0
  -7  -1  -9   93.40    1.65   0
  -6  -1  -7  325.48    2.35   0
  -5   3   6  223.95    0.80   0
  -2  -1  -5  163.02    1.08   0
  -1  -1  -5  148.54    0.89   0
   0  -1  -5 3259.75    3.26   0
   0   1   3  660.02    1.18   0
   0   5   6  133.10    2.18   0
   3   2   4 1231.89    3.00   0
   7   5   3  274.51    3.96   0
  11   1  -5  588.45    2.93   0
  11   3  -1  111.46    2.44   0
  12   3  -2    6.48    1.45   0
  13   2  -5   55.34    1.89   0
  14   2  -7   77.65    2.28   0
  14   3  -5  190.37    3.64   0
  15   2  -9  156.18    3.01   0
 -12   0  -8   74.14    2.61   0
 -10   0  -4   70.98    1.52   0
  -7  -1  -8   56.73    1.56   0
  -5  -1  -6   23.28    0.77   0
  -4   0   0 3383.86    3.30   0
  -3  -1  -5 1288.99    2.95   0
  -1   3   6 1127.70    2.76   0
  -1   5   6    8.06    1.36   0
   3   1   2  171.59    0.92   0
   3   5   5    4.80    1.46   0
   7   0  -4 1630.25    2.89   0
  10   3   0  165.73    2.20   0
  11   4  -1  252.02    3.91   0
  12   1  -7    8.82    1.12   0
  12   4  -2  289.43    4.32   0
  13   1  -9  103.08    2.04   0
 -14   1  -5   15.86    2.02   0
 -12   0  -7   18.08    2.09   0
 -11   0  -5  210.36    2.58   0
 -10   2   3 1008.54    2.86   0
  -9  -1 -15    4.41    2.69   0
  -9  -1 -14   21.33    2.76   0
  -9  -1 -13   26.27    2.39   0
  -9  -1 -12   40.50    2.66   0
  -8  -1  -9   25.48    1.61   0
  -7  -1  -7   71.76    1.53   0
  -7   0  -1 1346.12    3.10   0
  -6  -1  -6  250.49    1.95   0
  -5   0   0  503.89    1.54   0
  -4  -1  -5   46.85    0.92   0
  -4   3   6  179.60    0.93   0
  -3   5   6  326.58    2.90   0
  -2   5   6   61.22    1.48   0
   2   5   5   62.11    1.96   0
   6   1   0  501.92    1.96   0
  10   1  -4  134.02    1.59   0
  11   2  -3  666.69    3.75   0
  12   3  -3  142.22    2.80   0
  13   2  -6  267.41    2.96   0
  14   1 -12  117.00    2.34   0
  14   3  -6  102.59    2.83   0
 -13   0 -10    7.11    2.01   0
 -13   0  -9   16.14    2.64   0
 -12   0  -6   13.79    1.83   0
 -10   0  -3  696.38    3.35   0
  -9  -1 -10   57.60    2.20   0
  -9   0  -2   49.56    1.19   0
  -8  -1  -8  137.50    2.21   0
  -6   4   6   33.82    0.63   0
  -5  -1  -5  316.97    1.89   0
  -3   2   5  534.79    1.05   0
  -3   3   6  780.46    1.95   0
  -1   4   6    4.25    0.95   0
   1  -1  -5 3440.03    2.80   0
   2   2   4  915.86    2.42   0
   4   2   3 1229.41    3.26   0
   4   5   4   18.20    1.70   0
   7   1  -1  762.39    2.56   0
   7   5   2  103.80    2.87   0
   9   0  -7  123.44    1.08   0
   9   1  -3   82.07    1.12   0
  11   1  -6   51.86    1.33   0
  11   3  -2   30.26    1.92   0
  12   0 -14  651.53    3.20   0
  12   4  -3  211.51    4.06   0
  13   1 -10    6.96    1.50   0
  13   3  -5  126.11    3.22   0
  14   3  -7   63.56    2.82   0
 -15   1  -6    7.07    2.36   0
 -13   0  -8   26.25    2.51   0
 -11   0  -4    1.26    0.92   0
 -10  -1 -14   13.60    2.91   0
 -10  -1 -13   57.98    3.42   0
 -10  -1 -12  102.19    3.71   0
 -10  -1 -11   51.20    2.60   0
  -9  -1  -9  222.20    2.92   0
  -8  -1  -7   55.50    1.57   0
  -8   0  -1   16.51    0.83   0
  -7  -1  -6   71.80    1.48   0
  -6   0   0  495.22    1.72   0
  -6   1   3 1794.64    2.30   0
  -2   4   6   35.42    0.98   0
  -1   1   3  813.32    1.07   0
   1   5   5  307.46    3.06   0
   2   4   5  839.70    3.63   0
   4   1   1 2085.67    3.27   0
   9   3   0  195.51    2.38   0
  10   3  -1  105.55    1.82   0
  11   4  -2  207.30    3.59   0
  12   1  -8  392.34    2.72   0
  12   2  -5   29.37    1.31   0
  12   3  -4  219.78    3.15   0
  13   2  -7   42.31    1.93   0
  14   2  -9  200.98    3.34   0
 -13   0  -7    1.61    1.93   0
 -12   0  -5    8.67    1.25   0
 -10  -1 -10   18.53    2.08   0
  -9  -1  -8  482.08    3.78   0
  -9   1   2  576.06    2.15   0
  -6  -1  -5   77.52    1.13   0
  -3  -1  -4  164.82    1.16   0
  -3   4   6  112.92    1.16   0
   0   5   5   18.16    1.52   0
   2   1   2 1387.53    2.24   0
   4   0  -2    5.53    0.29   0
   5   2   2  356.96    1.97   0
   8   4   1   42.13    1.71   0
  10   1  -5   95.71    1.42   0
  11   2  -4  349.49    2.92   0
  12   0 -15  404.77    2.73   0
  13   1 -11   10.11    1.57   0
  14   2 -10  126.79    2.81   0
  14   3  -8   95.48    3.35   0
 -14   0  -9    7.49    2.62   0
 -13   0  -6    5.33    2.02   0
 -11  -1 -13    9.43    3.08   0
 -11  -1 -12    3.65    2.64   0
 -11   0  -3   24.02    1.27   0
 -10  -1  -9   35.15    2.10   0
  -9  -1  -7  619.31    3.99   0
  -9   0  -1    8.82    0.94   0
  -8  -1  -6  400.58    2.82   0
  -7   0   0  317.28    1.57   0
  -5  -1  -4 1980.27    4.14   0
  -4  -1  -4  131.29    1.06   0
  -4   4   6  337.25    1.66   0
   1   2   4 1447.54    2.79   0
   1   4   5  381.35    2.46   0
   4   5   3  149.28    2.63   0
   5   1   0 4283.97    5.09   0
   9   1  -4  152.27    1.51   0
  10   3  -2    7.75    1.51   0
  11   1  -7  580.95    2.96   0
  11   4  -3   38.35    2.59   0
  12   0 -16   84.43    1.67   0
  12   1  -9  624.76    3.34   0
  12   2  -6   17.55    1.65   0
  13   2  -8   41.76    2.03   0
 -15   1  -4    6.30    1.94   0
 -14   0  -8   24.31    2.34   0
 -14   0  -7  218.88    4.75   0
 -13   0  -5  114.28    2.75   0
 -11  -1 -11    7.83    1.96   0
 -11  -1 -10   17.30    2.29   0
 -11   1   1    1.05    0.86   0
 -10  -1  -8  317.19    3.56   0
  -7   1   3   50.91    0.66   0
  -4  -2 -17   89.32    5.24   0
  -4  -2 -16  152.80    4.88   0
  -4  -2 -15   64.62    3.94   0
  -3  -2 -14  124.31    3.35   0
  -1   5   5   18.23    1.37   0
   0  -2 -19    3.52    2.93   0
   2   5   4   46.38    1.72   0
   5   0  -3  147.12    0.78   0
   5   5   2    2.63    1.76   0
   6   1  -1 1303.20    3.04   0
   8   3   0  330.33    2.87   0
   9   0  -8  196.10    1.38   0
   9   3  -1  282.33    2.79   0
   9   4  -1   18.10    1.88   0
  12   0 -17    6.46    1.26   0
  12   3  -5  163.25    2.93   0
  12   4  -5    2.73    2.63   0
  13   1 -12   17.21    1.58   0
  13   3  -7  169.16    3.59   0
  14   2 -11   37.14    2.49   0
 -14   0  -6   57.35    2.84   0
 -12  -1 -12    7.48    3.16   0
 -12   0  -3  111.67    2.07   0
 -11  -1  -9   79.49    3.00   0
 -11   0  -2  691.12    3.44   0
 -10  -1  -7  416.10    3.67   0
  -9  -1  -6   10.47    1.03   0
  -8  -1  -5 1012.00    3.98   0
  -8   0   0   22.20    0.81   0
  -6  -1  -4  270.69    1.74   0
  -5  -2 -17  115.19    5.11   0
  -5  -2 -16   19.10    3.78   0
  -5  -2 -15   57.86    3.77   0
  -4  -2 -18   45.76    4.51   0
  -4  -2 -14   31.83    3.05   0
  -4  -2 -13  118.27    3.04   0
  -3  -2 -13  150.70    2.83   0
  -2  -2 -13  292.88    3.28   0
  -2   5   5  303.71    2.78   0
   0   4   5   35.46    1.15   0
   1   5   4   40.10    1.85   0
   4   4   3   23.38    1.39   0
  10   1  -6  367.25    2.31   0
  11   2  -5  154.43    1.94   0
  11   3  -4  186.75    2.87   0
  11   4  -4   37.59    2.40   0
  12   2  -7   48.01    1.90   0
  13   2  -9  103.50    2.49   0
 -13   0  -4  374.86    3.91   0
 -12  -1 -11   18.39    2.78   0
 -12  -1 -10  176.89    4.62   0
 -11  -1  -8   23.16    1.99   0
 -10  -1  -6  239.23    2.77   0
  -9  -1  -5  635.67    3.45   0
  -7  -1  -4  189.02    1.75   0
  -6  -2 -17  121.34    5.48   0
  -6  -2 -16   59.48    4.39   0
  -6  -2 -15   17.11    3.30   0
  -6  -2 -14   10.84    2.67   0
  -5  -2 -14  174.64    4.01   0
  -5  -2 -13  118.54    3.06   0
  -4  -2 -12   45.50    2.12   0
  -3  -2 -12   68.70    2.10   0
  -3   5   5  263.40    2.65   0
   0  -1  -4 1773.91    2.26   0
   2   4   4  886.37    3.63   0
   3   1   1   75.50    0.72   0
   3   5   3   73.33    2.07   0
   7   5   0  178.73    3.13   0
  10   2  -4  441.98    2.98   0
  10   4  -3   93.79    2.70   0
  11   1  -8 1526.63    4.68   0
  12   3  -6  147.28    2.94   0
  13   1 -13    9.07    1.63   0
  13   3  -8  217.60    3.89   0
 -15   0  -7   48.27    3.46   0
 -15   1  -2  102.03    2.82   0
 -14   0  -5   36.70    2.41   0
 -12  -1  -9  206.33    4.28   0
 -12   0  -2   20.21    1.41   0
 -12   2   3  249.14    2.02   0
 -11  -1  -7   68.36    2.25   0
  -9   0   0  714.94    2.78   0
  -8  -1  -4 1717.36    5.00   0
  -7  -2 -16    9.39    3.39   0
  -7  -2 -15   24.64    3.39   0
  -6  -2 -12   26.95    2.32   0
  -5  -2 -12  229.00    3.33   0
  -5  -1  -3 1560.43    3.58   0
  -5   5   5    0.08    1.08   0
  -4  -1  -3  222.12    1.36   0
  -4   5   5   22.11    1.29   0
  -3  -2 -11    2.87    1.55   0
  -3  -1  -3   54.35    0.75   0
  -2  -2 -11  220.34    2.23   0
  -1   3   5  786.33    2.36   0
   0  -2 -12  386.00    2.55   0
   0   5   4   78.73    2.09   0
   1   1   2   44.30    0.47   0
   2   2   3  175.33    1.23   0
   6   4   1  198.27    2.45   0
   9   1  -5  103.02    1.37   0
   9   2  -3  262.71    2.33   0
   9   3  -2   85.75    1.98   0
  11   0 -14  189.06    1.89   0
  11   2  -6  123.07    2.10   0
  12   2  -8   89.22    2.04   0
  13   2 -10  278.18    3.53   0
 -16   1  -3    4.08    2.12   0
 -15   0  -6  133.69    4.07   0
 -14   0  -4  111.68    3.17   0
 -13  -1 -10   29.11    3.31   0
 -13   0  -3  324.52    3.53   0
 -12  -1  -8  140.19    3.39   0
 -11  -1  -6   17.60    1.77   0
 -11   0  -1  870.74    3.85   0
 -11   1   2  247.55    1.78   0
 -10  -1  -5  139.93    2.22   0
  -7  -2 -13   10.45    2.62   0
  -7  -2 -12   67.47    2.77   0
  -6  -2 -11   90.26    2.67   0
  -6  -1  -3 1602.41    3.97   0
  -6   0   1    5.77    0.53   0
  -5  -2 -11  200.49    2.90   0
  -4   0   1 2102.17    2.56   0
  -3  -2 -10   57.37    1.66   0
  -1  -2 -11  167.06    1.77   0
   3  -2 -18    5.72    1.47   0
   5   5   1    2.01    2.02   0
   6   5   0  257.28    3.85   0
   7   5  -1  474.17    5.25   0
  10   1  -7  472.82    2.60   0
  11   4  -5   85.23    2.56   0
  12   1 -11  250.43    2.49   0
  12   3  -7  204.67    3.57   0
  13   3  -9  108.32    3.00   0
 -15   0  -5   47.52    2.93   0
 -14   1   0   33.04    1.74   0
 -13  -1  -9  315.34    5.84   0
 -12  -1  -7   10.30    2.08   0
 -10   0   0    0.69    1.02   0
 -10   3   5   48.02    0.60   0
  -9  -1  -4 2147.31    5.86   0
  -9   1   3   83.73    0.91   0
  -8  -2 -15   31.19    3.70   0
  -8  -2 -14  140.18    4.75   0
  -8  -2 -13   68.24    3.55   0
  -7  -2 -11  565.28    4.96   0
  -7  -1  -3  211.31    1.73   0
  -6  -2 -10  356.85    3.45   0
  -5  -2 -10  176.46    2.62   0
  -2  -1  -3  921.43    2.02   0
  -2   3   5  552.12    1.92   0
  -2   4   5  148.36    1.52   0
  -1   5   4    3.01    1.54   0
   0  -2 -11  398.22    2.26   0
   1   3   4   52.36    1.04   0
   2  -1  -5  729.44    1.03   0
   3   5   2   41.89    2.17   0
   4   1   0 2864.96    3.85   0
   7   0  -6   79.88    0.90   0
  10   4  -4   17.92    2.04   0
  11   0 -15   54.31    1.49   0
  12   1 -12    3.86    1.46   0
  13   2 -11  265.02    3.50   0
  13   3 -10   70.19    2.96   0
 -16   1  -2   10.04    2.41   0
 -14   0  -3  769.71    5.27   0
 -13  -1  -8  379.04    5.72   0
 -13   0  -2  280.80    3.11   0
 -12  -1  -6  306.48    3.94   0
 -12   0  -1    3.90    1.27   0
 -11  -1  -5   45.57    1.87   0
 -11   2   4  341.02    1.84   0
 -10  -1  -4  298.24    2.72   0
  -9  -2 -14   32.81    3.79   0
  -9  -2 -13  102.01    4.28   0
  -8  -2 -12   18.47    2.13   0
  -8  -2 -11  133.02    3.50   0
  -8  -1  -3  404.74    2.59   0
  -8   0   1   37.09    0.87   0
  -7  -2 -10  492.84    4.27   0
  -5  -2  -9  238.02    2.63   0
  -4  -2  -9 1043.10    4.39   0
  -3   0   1  141.42    0.62   0
  -1  -2 -10  267.53    1.93   0
  -1   2   4  135.79    0.88   0
   1   5   3   52.99    1.85   0
   4   4   2    1.79    1.35   0
   4   5   1   83.17    2.43   0
   5   4   1  255.48    2.61   0
   7   1  -3   50.66    0.82   0
   8   4  -2  610.16    4.50   0
   9   3  -3  103.37    2.09   0
   9   4  -3  254.88    3.42   0
  11   0 -16   24.06    1.32   0
  11   2  -7   20.49    1.54   0
  11   3  -6    7.28    1.89   0
  11   4  -6   99.07    2.79   0
  12   3  -8  206.22    3.60   0
  13   2 -12  167.14    3.23   0
 -15   0  -4   34.43    2.59   0
 -13  -1  -7  268.49    4.50   0
 -11   0   0  540.49    2.95   0
 -10   1   3  152.27    1.35   0
  -9  -2 -12   73.75    3.69   0
  -9  -2 -11  202.82    3.99   0
  -9  -1  -3 2616.48    6.35   0
  -8  -2 -10  808.67    5.57   0
  -7  -2  -9  304.48    3.34   0
  -7   2   5  460.75    0.84   0
  -6  -2  -9  377.58    3.29   0
  -3   4   5   82.57    1.18   0
  -2  -2  -9   80.05    1.39   0
  -2   5   4  194.65    2.35   0
   0  -2 -10  167.86    1.52   0
   0   4   4   88.88    1.43   0
   5   5   0    2.36    2.02   0
   6   3   0  461.53    2.93   0
   7   3  -1  822.50    3.92   0
   7   4  -1  164.08    2.59   0
   7   5  -2  166.73    3.80   0
   8   3  -2  428.99    2.89   0
   9   1  -6   16.85    0.95   0
  10   4  -5    5.51    2.26   0
  11   4  -7   38.14    2.67   0
  12   2 -10  237.41    3.02   0
  13   3 -11   22.58    2.93   0
 -15   1   0  202.18    2.93   0
 -14  -1  -8   79.85    3.81   0
 -14   0  -2  878.92    5.14   0
 -13  -1  -6    5.54    2.33   0
 -13   0  -1   22.94    1.76   0
 -12  -1  -5  414.95    4.08   0
 -11  -1  -4  159.67    2.44   0
 -10  -2 -13   23.63    3.64   0
 -10  -2 -12    5.20    3.21   0
 -10  -1  -3 1034.55    4.51   0
  -9  -2 -10  211.73    3.89   0
  -8  -2  -9  792.97    5.34   0
  -7  -1  -2  112.14    1.39   0
  -6  -2  -8  263.28    2.71   0
  -6  -1  -2 1834.73    4.08   0
  -5  -2  -8  594.36    3.50   0
  -5  -1  -2  619.73    2.21   0
  -4  -1  -2  100.37    0.98   0
  -3  -2  -8  142.25    1.67   0
  -3   5   4   28.62    1.61   0
  -1  -2  -9  418.32    2.22   0
  -1  -1  -3   88.29    0.66   0
   0   3   4  328.43    1.74   0
   0   5   3  114.01    2.26   0
   1   2   3 1186.09    2.61   0
   2  -2 -12 1307.89    3.50   0
   2   5   2    7.22    1.84   0
   9   4  -4  367.36    4.02   0
  10   2  -6  429.09    2.99   0
  11   0 -17   40.53    1.51   0
  11   2  -8    2.96    1.56   0
  11   3  -7  183.41    3.12   0
  12   3  -9  138.43    3.23   0
 -16   0  -4    3.41    2.40   0
 -15   0  -3   88.87    2.57   0
 -14  -1  -7  144.27    4.27   0
 -10  -2 -11  106.70    3.81   0
 -10   0   1 1300.18    3.91   0
  -9  -2  -9  299.22    3.88   0
  -8  -1  -2  284.30    2.12   0
  -4   4   5   39.30    0.93   0
   2   1   1 1118.87    2.05   0
   3   3   2  104.30    1.45   0
   3   5   1    2.45    1.92   0
   5   2   0   56.27    0.92   0
   7   5  -3   34.38    2.76   0
   8   4  -3  561.45    4.42   0
  11   0 -19    0.36    1.43   0
  11   0 -18   71.09    1.75   0
  11   1 -11    8.89    1.39   0
  12   1 -14   10.38    1.69   0
  12   3 -10  132.77    3.29   0
  13   2 -14   35.58    2.66   0
 -14  -1  -6   84.79    3.30   0
 -13  -1  -5  215.49    3.29   0
 -12  -1  -4  413.08    3.58   0
 -11  -2 -12  115.46    4.96   0
 -11  -2 -11   96.76    4.24   0
 -11  -1  -3  117.61    2.18   0
 -10  -2 -10  241.91    3.96   0
  -9  -1  -2  683.80    3.37   0
  -8  -2  -8  403.33    3.58   0
  -6  -2  -7   21.87    1.54   0
  -5  -2  -7  510.91    3.12   0
  -5   4   5  122.87    1.22   0
  -4  -2  -7   23.16    1.31   0
  -4   5   4   44.80    1.62   0
  -3  -1  -2  152.50    0.96   0
  -2  -2  -8   20.82    0.91   0
  -1   4   4  210.16    1.84   0
  -1   5   3   11.62    1.81   0
   1  -1  -4 1171.29    1.55   0
   1   4   3  143.11    1.70   0
   1   5   2   82.60    2.16   0
   4   0  -3    1.40    0.28   0
   4   4   1  129.19    1.85   0
   4   5   0    4.57    1.89   0
   5   5  -1   20.23    2.26   0
   6   5  -2   16.14    2.43   0
   7   4  -2  112.17    2.41   0
   9   1  -7  172.37    1.69   0
   9   2  -5  335.42    2.38   0
   9   4  -5  107.50    2.73   0
  10   2  -7  413.27    3.11   0
  10   3  -6  299.05    3.25   0
  11   2  -9   16.32    1.77   0
  11   3  -8  261.82    3.59   0
 -16   0  -3    3.08    2.56   0
 -16   1   0  172.55    3.46   0
 -15   0  -2  128.51    3.08   0
 -14   0  -1  479.78    3.87   0
 -13  -1  -4  379.24    4.23   0
 -13   0   0  270.41    2.69   0
 -11  -2 -10  219.19    4.91   0
 -11   0   1   21.41    1.26   0
 -10  -2  -9  244.05    3.72   0
 -10  -1  -2  712.59    3.63   0
  -9  -2  -8  230.20    3.10   0
  -8  -2  -7   25.31    1.93   0
  -5   5   4    0.79    1.34   0
  -4   3   5  507.38    1.62   0
  -3  -2  -7  610.91    2.84   0
  -1  -2  -8  263.89    1.76   0
  -1   3   4  118.26    1.18   0
   0  -2  -9   49.78    0.93   0
   1  -2 -10  600.64    2.26   0
   1   3   3   33.33    0.98   0
   2   2   2  172.80    1.26   0
   2   5   1   48.90    2.35   0
   3   1   0  685.93    1.84   0
   4   3   1  426.76    2.41   0
   6   3  -1  961.80    4.06   0
   9   3  -5  130.89    2.37   0
  10   4  -7   64.31    2.84   0
  12   1 -16    7.06    2.02   0
  12   2 -12   18.43    2.41   0
  12   3 -11   30.24    2.78   0
 -15  -1  -6    4.01    3.17   0
 -14  -1  -5   25.17    2.20   0
 -14   1   2  388.93    3.01   0
 -12  -2 -10   86.28    4.13   0
 -12  -1  -3   68.19    1.89   0
 -11  -2  -9   52.16    2.97   0
 -11  -1  -2   27.97    1.58   0
 -10  -2  -8   49.38    2.18   0
  -8   0   2    2.77    0.68   0
  -8   1   4  402.44    1.50   0
  -7  -1  -1    1.97    0.90   0
  -7   0   2  226.42    1.31   0
  -7   1   4    8.50    0.48   0
  -6  -2  -6  383.07    2.77   0
  -6   0   2 2992.57    3.91   0
  -6   4   5   10.67    0.76   0
  -2   0   1  345.21    0.75   0
  -2   4   4  104.84    1.45   0
  -2   5   3   34.38    1.88   0
   0   5   2  171.72    2.70   0
   2  -2 -11 1007.60    2.77   0
   2   4   2   81.00    1.56   0
   3   5   0  338.95    4.00   0
   6   5  -3   10.84    2.68   0
   7   4  -3  197.56    2.91   0
   7   5  -4    4.69    2.58   0
   8   4  -4  160.37    2.63   0
   9   2  -6  294.95    2.51   0
  10   3  -7  146.64    2.89   0
  11   3  -9  248.66    3.76   0
  12   3 -12   26.33    3.01   0
 -16   0  -2    5.57    2.41   0
 -15  -1  -5   20.40    2.92   0
 -15   0  -1  252.80    3.76   0
 -14  -1  -4    5.74    2.33   0
 -14   0   0   11.18    1.70   0
 -13  -1  -3  329.41    3.70   0
 -12  -2  -9  188.55    4.82   0
 -12   0   1    4.46    1.22   0
 -11  -2  -8   49.73    2.89   0
 -10  -2  -7   19.51    2.23   0
  -9  -1  -1   22.91    1.35   0
  -9   0   2 1699.47    3.97   0
  -9   1   4  155.35    1.21   0
  -8  -2  -6  288.74    2.99   0
  -8  -1  -1 1038.12    3.50   0
  -7  -2  -6  913.76    4.17   0
  -6   1   4  408.62    1.09   0
  -5  -2  -6  601.73    2.99   0
  -5  -1  -1   42.88    0.90   0
  -5   0   2   54.59    0.60   0
  -4  -2  -6 1750.27    4.77   0
  -2  -1  -2 1229.60    2.30   0
   0   2   3  239.30    1.21   0
   0   4   3   63.89    1.34   0
   2   3   2  383.08    2.19   0
   3   2   1 1187.79    3.06   0
   3   4   1   68.96    1.74   0
   5   4  -1   36.47    1.71   0
   5   5  -2    6.48    2.17   0
   8   1  -6  406.18    2.20   0
  10   0 -15   13.82    1.32   0
  10   4  -8   11.44    2.61   0
 -16   1   1  159.71    3.09   0
 -13   0   1  522.12    3.39   0
 -12  -2  -8    2.94    2.82   0
 -12  -1  -2   54.16    2.07   0
 -11  -2  -7   91.35    2.98   0
 -10  -1  -1  314.91    2.54   0
 -10   0   2 2162.86    4.96   0
 -10   1   4  133.21    1.29   0
 -10   2   5   23.07    0.75   0
  -9  -2  -6  242.40    3.03   0
  -4  -1  -1 1942.06    3.46   0
  -3  -2  -6  928.76    3.31   0
  -3   5   3   44.52    1.89   0
   0  -1  -3  611.76    1.32   0
   1   5   1   64.38    2.22   0
   4   2   0 1928.49    4.12   0
   5   2  -1   31.11    0.80   0
   7   5  -5   59.90    3.49   0
   8   2  -5   78.00    1.58   0
   8   4  -5   23.84    2.24   0
   9   3  -6   19.90    1.82   0
  10   3  -8  186.44    3.23   0
  11   2 -11  119.36    2.54   0
  11   3 -10   65.99    2.45   0
  12   3 -13   53.16    2.84   0
 -16   0  -1    4.40    2.40   0
 -15   0   0  129.72    2.87   0
 -14  -1  -3   23.40    2.40   0
 -13  -1  -2   31.42    2.10   0
 -12  -2  -7   16.03    2.47   0
 -11  -1  -1   13.34    1.55   0
 -11   0   2  424.88    2.59   0
 -10  -2  -6   22.37    1.59   0
  -8  -2  -5  719.31    4.10   0
  -6  -2  -5  790.64    3.69   0
  -5  -2  -5  990.84    3.83   0
  -5   3   5  439.82    1.37   0
  -3   4   4   90.84    1.35   0
  -2   3   4  680.73    2.20   0
  -1  -2  -7  209.66    1.50   0
  -1   5   2    6.32    1.63   0
   0  -2  -8  168.51    1.29   0
   0   3   3  573.31    2.28   0
   1  -2  -9  337.05    1.69   0
   1   4   2  525.89    2.92   0
   2   5   0   63.57    2.54   0
   3  -2 -12  642.12    2.05   0
   3   3   1   44.40    1.05   0
   3   5  -1  323.34    3.90   0
   4   3   0  423.77    2.63   0
   4   5  -2  214.82    3.41   0
   5   3  -1 1034.49    4.10   0
   6   5  -4  115.14    3.39   0
   7  -1 -13 1093.60    2.03   0
   7   4  -4   68.08    2.37   0
   8   3  -5  149.05    2.28   0
  10   0 -16   63.10    1.59   0
  10   1 -11  335.49    2.59   0
  10   2  -9   34.51    1.87   0
  10   4  -9   15.93    2.25   0
  11   3 -11   17.85    2.72   0
 -14   0   1  185.31    2.73   0
 -13  -2  -8    6.18    2.39   0
 -12  -1  -1  141.61    2.45   0
 -11  -2  -6  238.49    3.38   0
 -10  -2  -5  128.79    2.62   0
  -9  -2  -5   38.64    1.55   0
  -4  -2  -5 1963.14    4.87   0
  -4   5   3  335.41    3.11   0
  -1   4   3  264.67    2.05   0
   2   4   1  658.15    3.53   0
   7   5  -6   42.17    3.42   0
   8  -1 -20    2.88    0.86   0
   8  -1 -19    0.99    0.84   0
   8   1  -7   87.31    1.37   0
   9   1  -9   93.16    1.57   0
   9   3  -7  187.96    2.84   0
   9   4  -8  108.27    3.21   0
  10   0 -17   16.60    1.59   0
  10   3  -9  291.39    3.91   0
  11   2 -12   91.11    2.57   0
 -16   0   0    0.03    2.02   0
 -15  -1  -3   18.18    2.68   0
 -14  -1  -2   21.98    2.44   0
 -13  -2  -7   36.99    3.27   0
 -12  -2  -6   35.68    2.46   0
 -12   1   4  526.28    2.85   0
 -11  -2  -5   60.19    2.46   0
 -10  -1   0    6.72    1.20   0
  -9  -1   0  817.45    3.46   0
  -8  -2  -4  403.58    3.00   0
  -8  -1   0  927.98    3.29   0
  -7  -3 -14   42.84    5.42   0
  -7  -2  -4  215.56    2.24   0
  -7  -1   0   98.64    1.27   0
  -6  -3 -15   55.94    6.66   0
  -6  -3 -14   49.27    5.17   0
  -5  -3 -15   44.86    6.08   0
  -5  -3 -14  131.64    4.99   0
  -4  -3 -15   62.43    4.59   0
  -3  -3 -17    4.86    4.36   0
  -3  -3 -16   64.65    4.74   0
  -3  -1  -1   70.06    0.78   0
   1   1   1   95.38    0.65   0
   3   4   0  253.91    2.49   0
   4   4  -1   93.24    2.06   0
   5   4  -2   55.26    1.67   0
   6   1  -4  397.32    1.89   0
   6   5  -5   80.80    3.49   0
  10   0 -18    4.26    1.53   0
  10   2 -10   38.47    2.00   0
  11   1 -16   17.68    1.92   0
 -15   0   1    0.16    1.94   0
 -14  -2  -7   91.33    4.40   0
 -13  -2  -6   24.68    3.01   0
 -13  -1  -1   22.42    1.80   0
 -13   0   2  228.34    2.41   0
 -11  -1   0   57.95    1.74   0
 -10  -2  -4  154.83    2.68   0
  -9  -2  -4    7.02    1.61   0
  -8  -3 -13   94.71    5.34   0
  -7  -3 -13   13.36    4.47   0
  -7  -3 -12   66.49    3.93   0
  -6  -3 -13  146.69    4.79   0
  -6  -3 -12  186.05    4.58   0
  -6  -2  -4  577.43    3.13   0
  -5  -3 -13   26.09    3.40   0
  -5   1   4  515.00    0.95   0
  -5   5   3    0.64    1.45   0
  -4  -3 -14   47.62    3.46   0
  -4  -3 -13  293.57    4.69   0
  -3  -3 -15   93.71    3.96   0
  -3  -2  -5 1166.74    3.55   0
  -2  -3 -16   15.18    3.81   0
  -1  -1  -2   38.61    0.52   0
   1   3   2  372.13    2.03   0
   2   2   1  957.16    2.71   0
   2   5  -1  124.37    2.94   0
   3   5  -2  389.69    4.28   0
   4   5  -3  345.13    4.59   0
   5   2  -2  112.38    1.37   0
   5   5  -4    0.66    2.49   0
   7   4  -5  196.50    2.87   0
   8   2  -6  234.87    2.06   0
   8   3  -6  121.51    2.29   0
   9   2  -8  125.82    2.09   0
   9   3  -8  435.84    3.90   0
  10   0 -19    0.15    1.53   0
  10   3 -10  350.31    4.12   0
  11   1 -17   28.24    2.37   0
 -16  -1  -3    4.24    2.36   0
 -15  -1  -2  102.28    2.94   0
 -14  -2  -6  111.95    4.19   0
 -13  -2  -5   42.51    2.85   0
 -12  -1   0  299.55    3.07   0
 -11  -2  -4   49.63    2.21   0
 -10   0   3 3080.05    5.85   0
  -9  -3 -12   29.93    4.51   0
  -9   0   3  213.20    1.57   0
  -8  -3 -12  189.05    5.37   0
  -8   0   3   31.92    0.81   0
  -7  -3 -11  174.14    3.95   0
  -7   0   3 2522.63    4.03   0
  -6  -3 -11  150.67    3.60   0
  -6   5   3    7.41    1.45   0
  -5  -3 -12  294.46    4.54   0
  -5  -2  -4  646.13    2.89   0
  -5  -1   0 4124.85    5.43   0
  -4  -3 -12  153.89    3.76   0
  -3  -3 -13    3.73    2.56   0
  -3   5   2  399.19    3.73   0
  -2  -3 -15   31.54    3.05   0
  -2   4   3   67.50    1.35   0
  -1   2   3  163.87    0.97   0
  -1   3   3  138.13    1.31   0
  -1   5   1   13.54    1.67   0
   0  -2  -7  120.04    1.16   0
   2   3   1   89.03    1.36   0
   3   3   0  344.23    2.29   0
   4   3  -1  494.09    2.86   0
   5   1  -3  921.17    2.56   0
   5   3  -2  716.22    3.49   0
   6   4  -4   77.32    2.24   0
   6   5  -6   59.35    3.50   0
  10   3 -11  104.81    3.10   0
  11   2 -14  130.80    3.03   0
 -17   0   0   64.30    3.27   0
 -17   1   2   32.89    2.66   0
 -16  -1  -2   14.29    2.74   0
 -16   0   1    6.98    2.45   0
 -14   0   2  476.77    3.93   0
 -13  -1   0   33.30    1.85   0
 -12  -2  -4   36.97    2.56   0
 -11   0   3  824.32    3.45   0
 -10  -3 -11   45.66    4.09   0
  -9  -3 -11  100.79    4.58   0
  -9  -2  -3    5.62    1.62   0
  -8  -3 -11   14.46    2.66   0
  -8  -2  -3   37.87    1.60   0
  -7  -3 -10   99.58    3.12   0
  -7  -2  -3  106.32    1.82   0
  -5  -3 -11  486.12    4.80   0
  -4  -2  -4 2207.08    5.02   0
  -2  -3 -14   74.83    2.76   0
  -1  -3 -16    2.14    2.79   0
   0   5   0    0.99    1.60   0
   1  -2  -8  161.66    1.22   0
   2   1   0  507.92    1.48   0
   2   4   0 1119.97    4.67   0
   3   1  -1  528.68    1.71   0
   3   4  -1  277.21    2.75   0
   4   1  -2  400.10    1.65   0
   4   4  -2  143.44    2.33   0
   5   5  -5    1.22    2.78   0
   7   2  -5  420.10    2.44   0
   8   1  -8  347.66    2.23   0
   8   2  -7  632.06    3.42   0
   8   4  -8  212.00    3.82   0
   9   2  -9   59.02    1.92   0
   9   3  -9  589.82    4.74   0
   9   4 -10    9.99    2.64   0
 -16   1   3   53.50    2.41   0
 -15  -1  -1  283.75    4.12   0
 -15   0   2    0.52    2.04   0
 -14   1   4  214.66    2.61   0
 -13  -2  -4  187.90    3.94   0
 -12   0   3    4.46    1.23   0
 -11  -2  -3  221.12    3.14   0
 -10  -3 -10    4.95    3.63   0
 -10  -2  -3  293.42    2.90   0
 -10  -1   1   93.66    1.75   0
  -9  -3 -10   12.85    3.73   0
  -8  -3 -10   15.51    2.31   0
  -8  -1   1  685.88    2.94   0
  -7   5   3   25.70    1.62   0
  -6  -3 -10  174.91    3.30   0
  -6  -2  -3  123.88    1.70   0
  -6   0   3 1555.47    2.88   0
  -5  -3 -10  555.43    4.70   0
  -4  -3 -11  387.38    4.09   0
  -4  -1   0 2495.93    3.95   0
  -4   5   2  196.87    2.86   0
  -3  -3 -12  135.17    2.88   0
  -2  -2  -5 1098.46    3.16   0
  -1  -3 -15   68.35    2.95   0
   1   5  -1   14.64    2.31   0
   2   5  -2   36.12    2.52   0
   3  -2 -11  169.25    1.08   0
   3   5  -3   43.01    2.64   0
   4   5  -4   44.96    2.81   0
   6   4  -5   10.94    2.08   0
   6   5  -7    3.25    2.79   0
  10   1 -14   49.85    1.71   0
  10   2 -12   25.52    1.99   0
  11   2 -17   47.57    2.86   0
 -17   0   1   71.92    3.39   0
 -16  -1  -1  107.39    3.51   0
 -14  -2  -4   49.68    3.45   0
 -14  -1   0   34.82    2.23   0
 -12  -2  -3  140.27    3.06   0
 -12  -1   1  148.76    2.37   0
 -11  -1   1    4.42    1.00   0
 -10  -3  -9  120.89    4.42   0
  -9  -3  -9   83.34    3.76   0
  -8  -3  -9   29.76    2.75   0
  -7  -3  -9   45.33    2.69   0
  -7  -1   1  713.19    2.78   0
  -6  -3  -9  134.62    3.04   0
  -5  -2  -3  953.12    3.58   0
  -4  -3 -10  216.32    3.06   0
  -3  -3 -11  496.48    4.04   0
  -3   4   3   35.46    1.16   0
  -2  -1  -1 1136.54    2.26   0
  -2   5   1  117.74    2.54   0
  -1  -3 -14    6.83    2.14   0
   0  -3 -17   65.36    2.77   0
   0   3   2  129.80    1.31   0
   2  -2  -9   61.66    0.84   0
   5   4  -4  209.31    2.97   0
   5   5  -6    8.45    3.00   0
   6   1  -5   31.08    0.90   0
   8   4  -9   35.08    2.96   0
   9   3 -10   69.64    2.77   0
  10   1 -15   16.99    1.74   0
 -15  -1   0  208.33    3.56   0
 -15   1   4  560.10    4.25   0
 -14   0   3  329.39    3.20   0
 -13  -2  -3  292.03    4.25   0
 -13  -1   1   24.69    1.94   0
 -11  -3  -9   85.42    4.75   0
 -11  -2  -2  203.63    2.92   0
 -11   1   5  610.17    2.59   0
 -10  -2  -2  454.80    3.68   0
 -10   1   5   88.93    1.16   0
  -9  -3  -8  164.12    4.09   0
  -9  -2  -2  118.54    2.13   0
  -9   1   5  103.20    1.00   0
  -8  -3  -8  133.03    3.35   0
  -8  -2  -2   60.04    1.64   0
  -7  -3  -8   35.09    2.45   0
  -6  -1   1 1225.12    3.27   0
  -6   4   4   70.29    1.19   0
  -5  -3  -9   34.44    2.15   0
  -5   5   2    5.85    1.63   0
  -1  -3 -13   10.14    1.88   0
  -1   5   0   17.81    1.87   0
   0  -3 -16   20.45    2.37   0
   0   2   2  130.36    1.02   0
   0   4   1  129.29    1.87   0
   1   3   1   33.58    1.06   0
   4  -2 -13  181.34    0.97   0
   4   3  -2  735.67    3.49   0
   4   4  -3  123.95    2.52   0
   8   3  -8  211.33    2.83   0
  10   1 -16   78.30    2.56   0
 -15  -2  -4   64.72    3.55   0
 -14  -2  -3  373.60    5.34   0
 -14  -1   1   77.04    2.47   0
 -12  -2  -2  397.72    4.15   0
 -12   1   5  783.75    3.33   0
 -11  -3  -8  346.27    6.00   0
 -10  -3  -8  107.15    3.43   0
  -7  -2  -2  400.30    2.58   0
  -6  -3  -8  100.23    2.67   0
  -6  -2  -2   20.09    1.19   0
  -4  -3  -9  103.12    2.26   0
  -4  -2  -3 1094.99    3.57   0
  -4   3   4  724.19    2.12   0
  -3  -3 -10  426.23    3.52   0
  -3   0   2  570.81    1.22   0
  -3   5   1  305.64    3.49   0
  -2  -3 -11  401.48    3.38   0
   0  -3 -15  102.20    2.67   0
   0   5  -1   73.43    2.53   0
   1   4   0  295.19    2.62   0
   2   3   0  419.86    2.42   0
   2   4  -1  416.06    3.18   0
   2   5  -3   36.41    2.40   0
   3   3  -1 1437.90    4.40   0
   3   4  -2  102.55    2.08   0
   3   5  -4   25.13    2.39   0
   5   5  -7    3.20    3.11   0
   6   4  -6   37.97    1.86   0
   7   4  -8   78.89    2.92   0
   9   1 -12   60.15    1.63   0
   9   3 -11   17.42    2.28   0
  10   1 -17  109.29    2.87   0
 -17   0   2   80.42    3.36   0
 -16  -1   0  197.70    4.16   0
 -15  -2  -3   85.47    4.14   0
 -15   0   3   34.32    2.14   0
 -13  -2  -2  226.09    3.80   0
 -13   1   5  138.82    2.00   0
 -11  -3  -7  131.40    4.48   0
 -11  -1   2  229.33    2.45   0
 -11   0   4 1993.52    5.15   0
 -10  -3  -7   77.72    3.59   0
 -10  -1   2   62.28    1.66   0
 -10   0   4  374.65    2.22   0
  -9  -3  -7  115.36    3.41   0
  -9  -1   2  514.47    2.84   0
  -9   0   4   69.94    1.14   0
  -8  -3  -7   42.47    2.50   0
  -8   1   5  357.31    1.39   0
  -7  -3  -7   80.43    2.54   0
  -7   4   4   58.12    1.19   0
  -6   5   2   14.99    1.75   0
  -5  -3  -8   40.71    2.03   0
  -5  -1   1 5910.82    6.59   0
  -5   0   3  152.36    0.91   0
  -3  -1   0  667.22    1.96   0
  -2   4   2   59.51    1.40   0
  -1   1   2 8039.26    3.85   0
   0  -3 -14   92.48    2.70   0
   4   5  -6   79.79    3.62   0
   5   1  -4  587.93    2.16   0
   5   4  -5  122.95    2.74   0
   7   3  -7   46.50    1.94   0
   8   3  -9  299.11    3.42   0
   8   4 -11   52.33    3.51   0
  10   1 -18   36.86    2.62   0
  10   2 -15  246.96    4.05   0
 -16   0   3   28.95    2.56   0
 -15  -1   1    8.77    2.18   0
 -14  -2  -2  477.20    5.63   0
 -13  -1   2    7.90    1.83   0
 -13   0   4    7.49    1.33   0
 -12  -3  -7  115.81    4.98   0
 -12  -2  -1  120.14    2.74   0
 -12  -1   2   62.19    1.96   0
 -11  -2  -1  552.78    4.18   0
 -10  -3  -6  225.01    4.32   0
 -10  -2  -1  328.71    3.20   0
  -9  -3  -6   10.58    2.87   0
  -9  -2  -1  297.74    2.76   0
  -8  -3  -6  167.28    3.02   0
  -8  -2  -1  130.54    1.93   0
  -8  -1   2  364.64    2.28   0
  -8   0   4   16.60    0.77   0
  -6  -3  -7  188.80    2.98   0
  -4   5   1  109.03    2.53   0
  -3  -3  -9   49.53    1.80   0
  -2  -3 -10  445.48    3.32   0
  -2   5   0   53.08    2.17   0
  -1   4   1  121.16    1.90   0
   1  -3 -18  184.01    3.60   0
   1  -3 -17  119.87    2.78   0
   1  -2  -7  132.47    1.12   0
   3   5  -5  237.42    4.53   0
   4   4  -4   54.07    2.24   0
   5   5  -8   22.65    2.70   0
   7   4  -9   50.62    2.34   0
   9   0 -20  146.39    3.02   0
   9   0 -19  139.64    2.86   0
   9   0 -18    0.66    1.40   0
  10   1 -19    8.31    2.39   0
  10   2 -16   28.76    2.72   0
 -16  -1   1  158.18    4.01   0
 -15  -2  -2  180.75    4.93   0
 -14  -1   2  416.21    3.92   0
 -14   0   4   62.64    2.13   0
 -13  -2  -1  138.94    3.39   0
 -12  -3  -6  105.21    4.33   0
 -11  -3  -6   17.86    3.02   0
  -7  -3  -6   21.57    2.20   0
  -7  -2  -1  312.11    2.42   0
  -7  -1   2   80.54    1.26   0
  -7   5   2  105.11    2.47   0
  -5  -3  -7  175.16    2.59   0
  -1   5  -1   59.32    2.23   0
   0  -3 -13   20.19    1.63   0
   0   5  -2  169.23    3.50   0
   1  -3 -16   36.33    1.96   0
   1   5  -3    8.68    2.40   0
   2   5  -4  182.82    3.46   0
   3   4  -3   37.19    1.97   0
   4   1  -3 1050.60    2.70   0
   4   3  -3  496.29    3.01   0
   4   5  -7   49.27    3.62   0
   5   4  -6   31.29    2.36   0
   6   1  -6  158.17    1.43   0
   7   3  -8  247.41    3.05   0
 -17   0   3    7.45    2.59   0
 -15   1   5  291.44    3.22   0
 -14  -2  -1  145.75    3.77   0
 -11  -3  -5  252.42    4.60   0
 -10  -3  -5  318.03    4.47   0
  -9  -3  -5  216.55    3.66   0
  -8  -3  -5  213.72    3.23   0
  -8   4   4  142.85    1.50   0
  -7   0   4 1689.14    3.38   0
  -7   1   5   79.67    0.71   0
  -6  -3  -6   77.21    2.20   0
  -6  -2  -1  104.99    1.62   0
  -5   4   3  221.21    1.92   0
  -4  -2  -2  528.26    2.56   0
  -3  -3  -8   20.34    1.71   0
  -3   5   0  281.77    3.67   0
  -2  -3  -9  203.15    2.37   0
   0   3   1  115.09    1.33   0
   1  -3 -15   43.04    1.96   0
   3  -2 -10  391.05    1.36   0
   3   3  -2 1080.52    4.03   0
   3   5  -6  376.89    5.52   0
   7  -1 -16   58.83    1.01   0
   8   3 -11  257.95    3.84   0
   9   3 -15    7.63    2.49   0
 -15  -2  -1  109.84    4.02   0
 -15  -1   2  192.32    3.35   0
 -15   0   4   46.29    2.23   0
 -13  -3  -5   43.43    3.85   0
 -12  -2   0   13.67    2.24   0
 -11  -2   0  350.23    3.44   0
 -11  -1   3  442.15    3.14   0
 -10  -2   0   17.38    1.65   0
 -10  -1   3  150.42    1.99   0
  -9  -2   0  200.51    2.43   0
  -7  -3  -5  142.81    2.83   0
  -6  -1   2 2504.11    4.72   0
  -5  -3  -6   84.64    2.13   0
  -5   5   1   14.55    1.83   0
  -4  -1   1 2658.22    4.16   0
   0  -1  -2  512.41    1.25   0
   1   3   0  182.45    1.71   0
   2   3  -1  657.03    3.01   0
   3   1  -2  695.31    2.05   0
   4   2  -3  177.64    1.62   0
   4   4  -5   40.01    1.84   0
   4   5  -8   15.82    3.09   0
   5   4  -7  389.22    4.44   0
   9   3 -16    5.10    2.99   0
 -16  -1   2   15.08    2.71   0
 -16   0   4   79.72    2.75   0
 -16   1   5  256.29    3.69   0
 -14  -2   0   17.65    2.81   0
 -13  -2   0  299.44    3.65   0
 -13  -1   3   91.56    2.42   0
 -12  -1   3  104.65    1.86   0
 -11  -3  -4  365.61    4.93   0
 -10  -3  -4  329.39    4.37   0
  -9  -3  -4  411.78    4.36   0
  -9  -1   3   90.07    1.65   0
  -8  -2   0   17.59    1.06   0
  -6  -3  -5  160.41    2.64   0
  -5  -2  -1  307.80    2.18   0
  -5   3   4    4.95    0.65   0
  -2   4   1  409.68    2.75   0
  -1  -1  -1   97.20    0.72   0
  -1   2   2 1442.44    2.78   0
  -1   5  -2   72.64    2.62   0
   0   5  -3  116.29    3.18   0
   1  -3 -14  139.55    2.11   0
   1  -1  -3  757.87    1.28   0
   1   5  -4    2.01    2.06   0
   2  -2  -8  921.91    2.19   0
   3   4  -4   88.92    2.45   0
   3   5  -7  121.08    4.22   0
   5   1  -5 1202.01    3.25   0
   7  -1 -17  143.33    1.44   0
   9   1 -16   14.71    1.88   0
   9   2 -15  234.91    3.78   0
 -17  -1   2   38.97    3.29   0
 -15  -2   0   60.97    3.67   0
 -14  -1   3  399.23    3.82   0
 -13   0   5  144.11    2.10   0
 -12   0   5    7.28    1.27   0
 -11   0   5  111.87    1.60   0
 -10   0   5    1.76    0.98   0
  -8  -3  -4  261.36    3.14   0
  -8  -1   3  107.88    1.51   0
  -7  -3  -4  735.67    4.76   0
  -7  -2   0  244.87    2.20   0
  -6   5   1  105.91    2.61   0
  -5  -3  -5   61.38    1.89   0
  -4  -3  -6   82.55    2.01   0
  -4   5   0    4.51    1.87   0
  -3  -3  -7  257.37    2.52   0
  -2  -3  -8  450.96    3.00   0
  -2  -2  -3  156.23    1.43   0
  -1  -2  -4 1157.04    3.03   0
  -1   4   0  297.30    2.63   0
   0   4  -1  122.17    2.05   0
   1   4  -2  124.22    2.31   0
   2   4  -3   67.68    2.06   0
   3   2  -2  526.57    2.27   0
   4   4  -6  333.65    3.84   0
   6   4 -10   12.34    2.52   0
   7   4 -13   -0.67    3.10   0
   9   1 -19   40.27    2.95   0
   9   1 -18    2.88    2.06   0
   9   1 -17   16.85    2.13   0
   9   2 -16  349.08    4.64   0
 -17   0   4   51.64    3.07   0
 -17   1   5    0.94    2.34   0
 -16  -2   0   12.08    3.77   0
 -15  -1   3  675.94    5.50   0
 -14   0   5   13.61    1.68   0
 -13  -2   1  226.92    3.79   0
 -13   1   6    1.16    1.24   0
 -12  -3  -3   72.47    3.56   0
 -12  -2   1  182.15    3.18   0
 -11  -3  -3  360.22    4.71   0
 -11  -2   1  265.88    3.13   0
 -11   1   6   49.02    1.14   0
 -10  -3  -3  156.71    3.48   0
 -10  -2   1  275.41    2.98   0
 -10   4   4   12.36    1.01   0
  -9  -3  -3  475.70    4.40   0
  -9  -2   1 1116.77    4.76   0
  -9   0   5  600.27    2.55   0
  -6  -2   0   32.82    1.25   0
  -6   0   4 1487.65    2.91   0
  -5  -1   2 4783.09    6.10   0
  -4   4   2  140.62    1.73   0
  -3  -2  -2  724.31    2.77   0
  -3   5  -1    1.33    1.98   0
  -2  -1   0  480.70    1.58   0
  -1  -3  -9  261.46    2.37   0
   1  -3 -13   20.83    1.56   0
   3   3  -3  307.98    2.52   0
   3   5  -8   13.82    3.05   0
   6   2  -7 2029.41    5.46   0
   6   3  -8   65.63    1.72   0
   7  -1 -20    1.90    1.29   0
   7   3 -11   27.03    2.32   0
   9   2 -18   21.53    3.09   0
 -16  -1   3   63.49    3.34   0
 -15   0   5    6.69    1.89   0
 -14  -2   1  238.93    4.06   0
 -13  -3  -3   51.71    3.02   0
 -12  -1   4  578.00    3.76   0
 -10   1   6  367.19    1.82   0
  -8  -3  -3  723.10    4.90   0
  -8  -2   1  169.12    2.15   0
  -7  -1   3   52.53    1.14   0
  -7   5   1  326.94    4.04   0
  -6  -3  -4  287.63    2.69   0
  -5   5   0    0.88    1.81   0
  -4  -2  -1  821.46    3.14   0
  -3  -3  -6  349.80    2.82   0
   1  -2  -6    4.63    0.64   0
   2   3  -2  379.00    2.62   0
   2   5  -7   17.80    3.37   0
   3   5  -9   17.76    3.69   0
   8   3 -16   11.74    3.13   0
 -17  -1   3    6.31    3.29   0
 -16  -2   1   20.26    3.35   0
 -16   0   5  455.20    4.57   0
 -15  -2   1   66.09    2.99   0
 -15   1   6    1.29    1.70   0
 -14  -1   4  235.70    3.24   0
 -13  -3  -2   56.42    3.46   0
 -13  -1   4   54.44    2.06   0
 -12  -3  -2   72.98    3.16   0
 -11  -3  -2  206.69    3.91   0
 -11  -1   4  697.44    3.81   0
 -10  -3  -2  211.70    3.57   0
 -10  -1   4  125.11    1.95   0
  -8   0   5   10.91    0.89   0
  -7  -4 -10   83.03    4.73   0
  -7  -3  -3  695.18    4.58   0
  -6  -4 -11   67.07    4.86   0
  -5  -4 -12    3.14    3.30   0
  -5  -3  -4  372.04    3.18   0
  -4  -3  -5   11.55    1.50   0
  -4   5  -1   56.64    2.56   0
  -3  -1   1  569.03    1.90   0
  -3   4   1  255.48    2.36   0
  -2  -3  -7  571.59    3.27   0
   0   3   0    0.41    0.99   0
   1   3  -1  472.68    2.58   0
   2   4  -4   96.24    2.06   0
   4   2  -4  127.98    1.35   0
   6   2  -8  966.88    4.18   0
   6   3  -9  195.61    2.63   0
   6   4 -13   18.99    3.40   0
   8   1 -14  720.57    4.21   0
 -17   0   5   60.29    3.27   0
 -16   1   6   62.47    2.21   0
 -15  -1   4  586.70    5.36   0
 -14  -3  -2    3.31    3.83   0
 -14  -2   2  129.62    3.46   0
 -13  -2   2  298.34    4.09   0
 -12  -2   2  348.57    3.71   0
 -10  -2   2 1498.96    6.00   0
  -9  -4  -8   32.76    4.14   0
  -9  -3  -2  164.28    2.64   0
  -9  -1   4  154.01    1.87   0
  -9   1   6   17.10    0.69   0
  -8  -4  -9   84.73    4.49   0
  -8  -3  -2  380.46    3.68   0
  -7  -4  -9  115.61    4.38   0
  -7  -2   1  190.86    2.05   0
  -7   4   3  178.23    1.89   0
  -6  -4 -10  236.99    5.27   0
  -6  -3  -3  345.24    3.25   0
  -6   3   4  195.72    1.26   0
  -6   5   0  200.25    3.75   0
  -5  -4 -11   70.33    3.72   0
  -5  -2   0   69.45    1.40   0
  -5   4   2   52.70    1.54   0
  -4  -4 -13   53.37    4.16   0
  -3   5  -2   32.36    2.38   0
  -2   5  -3   16.67    2.39   0
  -1  -3  -8   81.96    1.63   0
  -1   5  -4   33.09    2.91   0
   0   5  -5   18.73    2.53   0
   2  -3 -15  267.99    2.37   0
   2   5  -8   29.06    2.77   0
   3   3  -4  197.45    2.28   0
   3   4  -6  113.04    2.65   0
   5   1  -6 1617.67    3.90   0
   6  -1 -13  426.86    1.65   0
   8   1 -15  260.18    3.18   0
 -16  -1   4  303.68    4.55   0
 -15  -2   2   74.82    3.68   0
 -13  -3  -1   17.88    3.17   0
 -12  -3  -1  102.59    3.56   0
 -11  -3  -1   86.38    3.08   0
  -9  -2   2  487.78    3.41   0
  -9   3   5  106.54    0.85   0
  -8  -4  -8   21.99    4.05   0
  -6  -4  -9  385.01    5.58   0
  -6  -1   3 1757.88    4.06   0
  -5  -4 -10  103.90    4.07   0
  -4  -4 -12   53.60    3.69   0
  -3  -3  -5  292.69    2.59   0
  -2  -2  -2  156.30    1.43   0
   2   4  -5  137.28    2.84   0
   2   5  -9   76.66    4.33   0
   3   2  -3  993.38    3.17   0
   8   1 -16   60.75    2.20   0
   8   2 -17   24.70    2.52   0
   8   2 -16   55.56    2.92   0
 -17  -1   4   45.53    3.66   0
 -16  -2   2   22.76    3.60   0
 -15   0   6    2.36    2.11   0
 -14   0   6   84.90    2.06   0
 -11   0   6   38.79    1.32   0
 -10  -3  -1  127.54    2.56   0
  -9  -4  -7  132.15    4.53   0
  -9  -3  -1    6.54    2.13   0
  -8  -4  -7    2.11    3.45   0
  -8  -2   2  644.90    3.62   0
  -8  -1   4  392.95    2.41   0
  -7  -4  -8  236.03    4.71   0
  -7  -3  -2  300.45    2.89   0
  -7   5   0  126.62    3.44   0
  -6  -2   1  250.09    2.11   0
  -6   1   5   26.50    0.40   0
  -5  -3  -3  318.49    3.04   0
  -5   5  -1    1.02    2.03   0
  -4  -4 -11   35.60    3.25   0
  -4  -3  -4  114.74    1.77   0
  -4  -1   2  424.44    1.85   0
  -4   4   1   94.13    1.92   0
  -3  -4 -13  182.55    4.69   0
  -3  -2  -1 1078.27    3.37   0
  -3   2   3  936.35    1.94   0
  -3   3   2 1081.96    3.15   0
  -2  -3  -6  358.19    2.67   0
  -1  -2  -3 1115.37    3.00   0
  -1   5  -5  214.37    4.24   0
   0   5  -6  134.00    3.91   0
   1   4  -4  178.39    2.79   0
   1   5  -8   10.04    3.14   0
   2  -3 -14   87.81    1.61   0
   2   3  -3  488.66    2.98   0
   3   1  -3   65.67    0.79   0
   3   4  -7  234.92    3.63   0
   4   2  -5   42.82    1.16   0
   5  -1 -10   73.24    0.62   0
   6   2  -9  362.94    2.93   0
   7   3 -16    9.02    2.91   0
   8   1 -20    4.75    2.92   0
   8   1 -18   15.37    2.41   0
   8   2 -19  191.98    4.87   0
   8   2 -18  109.98    3.26   0
 -16   0   6  125.01    3.17   0
 -15  -1   5  318.45    4.09   0
 -14  -2   3  178.00    3.90   0
 -13  -2   3   70.47    2.93   0
 -13  -1   5  145.61    2.62   0
 -12  -3   0   71.84    3.06   0
 -12  -2   3  282.94    3.57   0
 -12  -1   5  751.68    4.28   0
 -11  -2   3  723.59    4.69   0
 -11  -1   5  615.66    3.65   0
 -10  -4  -6   65.69    4.47   0
 -10   0   6  547.25    2.60   0
  -9  -4  -6  180.21    5.00   0
  -8  -3  -1  384.99    3.79   0
  -7  -4  -7  149.99    4.17   0
  -6  -4  -8  141.59    4.14   0
  -6  -3  -2  310.78    3.08   0
  -5  -4  -9   75.37    3.52   0
  -5   0   4  358.09    1.38   0
  -4  -4 -10   74.40    2.97   0
  -4   5  -2   85.02    2.94   0
  -3  -4 -12   48.28    3.32   0
  -3   4   0  246.84    2.61   0
  -3   5  -3   47.02    2.87   0
  -2   5  -4   37.69    3.00   0
  -1  -3  -7  784.81    3.45   0
   0   4  -3   59.76    2.23   0
   1   3  -2  409.37    2.67   0
   2  -2  -7  924.59    2.20   0
   2   2  -2   46.48    0.84   0
   2   4  -6   39.06    2.20   0
   3  -2  -9 1178.03    2.07   0
   6   1  -9   75.03    1.43   0
   7   2 -13   19.25    2.05   0
   7   3 -17   57.34    3.87   0
   8   1 -19    0.47    2.31   0
 -17   0   6  281.23    4.67   0
 -16  -2   3   14.29    3.20   0
 -15  -2   3   10.24    2.81   0
 -13  -3   0   56.34    2.86   0
 -11  -3   0   41.58    2.16   0
 -10  -4  -5   70.30    4.45   0
 -10  -3   0  158.28    3.07   0
 -10  -2   3 1222.05    5.45   0
 -10  -1   5  108.66    1.91   0
  -8  -4  -6   36.79    3.46   0
  -7  -3  -1    9.85    2.02   0
  -7  -2   2  453.98    2.96   0
  -6  -4  -7   14.24    2.84   0
  -6   5  -1   84.68    3.14   0
  -5  -4  -8   55.68    3.03   0
  -3  -4 -11    6.28    2.87   0
  -2  -4 -14   11.93    3.11   0
  -1   3   0  177.44    1.67   0
  -1   4  -2  501.96    3.59   0
   0   3  -1  114.28    1.60   0
   0   5  -7  241.73    5.00   0
   1   2  -1 1366.18    3.35   0
   1   5  -9    3.38    3.53   0
   3   4  -8   80.45    2.81   0
   4   1  -5 1578.99    3.65   0
   4   4 -11  259.07    4.79   0
   5   4 -14   10.24    2.72   0
   6  -1 -14   39.86    0.94   0
 -12   1   7    9.13    0.98   0
  -9  -4  -5   77.06    3.84   0
  -9  -3   0  212.08    3.11   0
  -9  -2   3  296.39    2.94   0
  -9  -1   5  100.78    1.65   0
  -9   0   6 1406.92    3.77   0
  -8  -4  -5   35.51    3.21   0
  -8   1   6  369.26    1.32   0
  -7  -4  -6   37.26    3.23   0
  -5  -3  -2  229.95    2.66   0
  -5  -2   1   28.05    0.94   0
  -5  -1   3  975.15    2.87   0
  -5   5  -2    3.34    2.22   0
  -4  -4  -9   41.60    2.84   0
  -4  -3  -3  111.84    2.06   0
  -4   5  -3  122.99    3.60   0
  -3  -3  -4   18.51    1.42   0
  -2  -4 -13   79.45    3.54   0
  -2  -3  -5  358.57    2.65   0
  -2   5  -5   46.01    3.37   0
  -1   5  -6  315.34    4.89   0
   0   2   0 3863.66    5.19   0
   0   5  -8  109.05    4.58   0
   1  -3 -10  390.62    2.51   0
   2  -3 -13  140.80    1.64   0
   2   1  -2 2467.87    3.65   0
   2   3  -4  667.21    3.64   0
   2   4  -7   91.20    2.64   0
   3   2  -4  391.66    2.24   0
   4   4 -12  296.15    5.47   0
   5   2  -8  687.34    3.54   0
   5   3 -10  158.17    3.06   0
   6   3 -14  316.91    5.13   0
   7   2 -15  120.18    2.85   0
 -15  -2   4    6.41    2.71   0
 -14  -3   1   73.47    4.28   0
 -14  -2   4   39.65    2.96   0
 -13  -3   1    9.79    3.11   0
 -13  -2   4  109.71    3.10   0
 -12  -3   1  116.40    3.36   0
 -12  -2   4   63.53    2.46   0
 -11  -4  -4   46.61    3.77   0
 -11  -3   1  103.25    3.18   0
 -10  -4  -4   37.05    4.19   0
  -9  -4  -4    3.13    3.33   0
  -8  -3   0  328.49    3.60   0
  -8  -2   3  826.29    4.08   0
  -7   5  -1    3.42    2.29   0
  -6  -4  -6  369.63    4.76   0
  -6  -3  -1  768.57    4.39   0
  -6  -2   2  691.19    3.31   0
  -5  -4  -7  252.35    4.18   0
  -5   3   3  206.29    1.49   0
  -5   4   1   30.43    1.40   0
  -3  -4 -10   26.62    2.67   0
  -3   5  -4   44.44    2.83   0
  -2  -4 -12   16.75    2.69   0
  -2   0   2  115.00    0.53   0
  -1  -3  -6 1244.92    4.25   0
  -1   5  -7  210.56    5.06   0
   1  -2  -5  145.42    1.07   0
   4   4 -13   74.63    3.92   0
   6   2 -11  198.33    2.45   0
   6   3 -16   78.63    3.74   0
   6   3 -15  172.79    4.35   0
   7   1 -14  928.16    4.55   0
   7   2 -18   79.47    3.49   0
   7   2 -17   44.99    2.98   0
   7   2 -16   93.29    2.95   0
 -16  -2   4  130.20    4.50   0
 -15  -1   6    1.07    2.64   0
 -14   0   7    4.72    1.69   0
 -13  -1   6    1.83    1.94   0
 -12   0   7   13.22    1.60   0
 -11  -4  -3   60.70    4.80   0
 -11  -2   4  371.20    3.57   0
 -11   1   7  521.90    2.17   0
 -10  -3   1  120.77    2.48   0
  -8  -4  -4   25.67    3.50   0
  -8  -1   5  459.39    2.62   0
  -7  -4  -5  159.48    3.65   0
  -7  -3   0  925.37    4.91   0
  -7   3   4    5.02    0.73   0
  -7   4   2   95.39    1.79   0
  -6  -1   4  428.39    2.24   0
  -6   5  -2   17.79    2.27   0
  -4  -4  -8   79.68    2.95   0
  -4   4   0   36.22    1.60   0
  -3  -4  -9  139.48    3.01   0
  -3  -2   0  603.19    2.63   0
  -3   4  -1   64.42    1.92   0
  -2  -4 -11   17.23    2.63   0
  -2  -2  -1  974.59    3.11   0
  -2  -1   1 2962.77    3.98   0
  -2   4  -2   71.90    1.90   0
  -2   5  -6   49.50    3.47   0
  -1  -1   0  943.56    2.05   0
  -1   4  -3  138.09    2.53   0
   0   5  -9    6.28    2.89   0
   1   3  -3  121.68    1.93   0
   1   4  -6    4.46    2.14   0
   2   4  -8   30.42    2.67   0
   4   4 -14   11.46    3.57   0
   6  -1 -15   82.77    1.24   0
   6   3 -17   30.30    3.22   0
   7   1 -15  131.41    2.37   0
   7   2 -19   58.46    3.20   0
 -17  -1   6    1.32    3.05   0
 -16  -1   6   68.04    3.19   0
 -16   0   7   21.65    2.41   0
 -14  -3   2   84.47    4.43   0
 -13  -3   2   98.10    3.96   0
 -12  -3   2   11.94    2.97   0
 -11  -1   6   56.74    1.88   0
 -10  -4  -3   71.85    3.39   0
 -10  -2   4  451.85    3.34   0
  -9  -4  -3   32.19    3.68   0
  -9  -3   1  286.62    3.15   0
  -8   0   6  136.14    1.31   0
  -6  -4  -5  728.72    5.80   0
  -5  -4  -6  619.79    5.29   0
  -5   5  -3   15.91    2.71   0
  -4  -4  -7   26.91    2.63   0
  -4  -3  -2  402.64    3.15   0
  -4  -2   1  227.85    1.94   0
  -4   3   2  717.55    2.69   0
  -3  -3  -3  143.61    2.08   0
  -3  -1   2  769.85    2.30   0
  -3   5  -5    3.50    2.88   0
  -1  -4 -14   59.44    2.80   0
  -1  -2  -2 1121.04    3.10   0
  -1   5  -8   11.29    3.42   0
   0  -3  -7 1012.22    3.75   0
   1  -3  -9   79.22    1.52   0
   2  -3 -12    8.01    1.10   0
   2   2  -3  147.45    1.34   0
   2   3  -5  519.71    3.44   0
   3   1  -4   13.50    0.71   0
   3   4 -11  215.58    4.63   0
   4   3  -9  128.79    2.65   0
   5   2  -9  546.47    3.41   0
   6   1 -11  670.15    3.42   0
   7   1 -20    1.44    2.59   0
   7   1 -19   54.05    2.91   0
   7   1 -18  154.51    3.61   0
   7   1 -17  147.58    3.06   0
   7   1 -16   60.52    2.26   0
 -17   0   7  121.85    3.57   0
 -15  -2   5   72.82    3.30   0
 -11  -4  -2  123.09    4.92   0
 -11  -3   2   34.91    2.73   0
 -10  -4  -2   50.24    3.69   0
 -10  -3   2    5.77    2.14   0
 -10  -1   6  412.04    3.01   0
 -10   3   5   59.97    0.82   0
  -9  -2   4  947.21    4.61   0
  -8  -4  -3   37.99    3.35   0
  -8  -3   1  302.42    3.38   0
  -7  -4  -4  191.03    3.44   0
  -6  -3   0  457.73    3.64   0
  -6   4   1   41.05    1.74   0
  -5  -3  -1    2.55    1.22   0
  -5  -2   2  131.45    1.73   0
  -3  -4  -8  191.61    3.32   0
  -3   0   3  888.47    1.66   0
  -3   3   1 1495.93    4.02   0
  -2  -4 -10   48.67    2.55   0
  -2  -3  -4  228.10    2.21   0
  -2   5  -7    6.88    3.33   0
  -1  -4 -13   34.39    2.51   0
  -1   3  -1   33.80    1.28   0
  -1   5  -9   27.33    3.98   0
   0  -1  -1  114.98    0.72   0
   0   4  -5   36.05    1.77   0
   3   2  -5  533.44    2.71   0
   3   4 -12   50.54    3.27   0
   5   3 -14  265.98    4.90   0
   5   3 -13  554.87    5.61   0
   6  -1 -16  127.26    1.59   0
   6   2 -14   36.32    2.24   0
 -16  -2   5  147.06    4.73   0
 -12  -2   5   29.57    2.25   0
 -11  -2   5  172.39    2.97   0
 -11   4   3   24.07    1.54   0
  -9  -4  -2  122.60    4.11   0
  -9  -3   2   99.53    2.62   0
  -8   4   2  542.41    3.46   0
  -7  -3   1  931.72    4.96   0
  -7  -1   5   93.32    1.45   0
  -6  -4  -4  511.85    5.05   0
  -6   5  -3   25.07    2.93   0
  -5  -4  -5  302.07    4.04   0
  -5   4   0  102.41    2.28   0
  -5   5  -4    6.65    2.71   0
  -4  -4  -6   38.46    2.74   0
  -4   5  -5    6.27    3.07   0
  -2   3   0  417.52    2.37   0
  -2   5  -8   21.83    3.52   0
  -1  -4 -12  173.83    3.24   0
  -1  -3  -5  737.18    3.38   0
  -1   4  -4   81.80    2.41   0
   0  -2  -3  240.64    1.47   0
   1   3  -4  122.25    2.04   0
   3   4 -14   20.38    3.60   0
   3   4 -13   65.74    3.30   0
   4  -1  -8   66.78    0.50   0
   5   2 -10  349.41    3.03   0
   5   3 -16   29.09    3.22   0
   5   3 -15   44.32    3.34   0
   6  -1 -20    2.64    1.61   0
   6  -1 -17  180.41    2.02   0
   6   1 -12  850.37    4.04   0
   6   2 -15   34.57    2.39   0
 -14  -3   3  134.38    3.99   0
 -13  -3   3  233.76    4.57   0
 -12  -3   3  162.04    3.91   0
 -11  -4  -1   15.03    3.57   0
 -11  -3   3  184.47    3.61   0
 -10  -4  -1   35.53    3.43   0
 -10  -2   5   39.18    2.11   0
  -9  -1   6   19.00    1.39   0
  -8  -4  -2  113.36    3.79   0
  -7  -4  -3  108.09    2.94   0
  -6  -2   3 1569.28    4.92   0
  -4  -3  -1  454.31    3.28   0
  -4   4  -1  125.26    2.20   0
  -3  -4  -7   53.37    2.56   0
  -3   4  -2  186.46    2.57   0
  -2  -4  -9   78.65    2.47   0
  -2   4  -3  147.48    2.46   0
  -1  -4 -11  154.28    3.29   0
   0  -4 -15   48.78    2.88   0
   0   1   0    0.21    0.36   0
   0   4  -6   60.27    2.36   0
   1   4  -8  265.20    3.89   0
   2  -3 -11  100.58    1.41   0
   2   4 -11   52.76    3.32   0
   3  -3 -16   71.25    1.25   0
   3   4 -15   29.95    3.81   0
   4   3 -11   37.97    2.28   0
   5   3 -18   46.43    3.63   0
   5   3 -17  125.83    4.40   0
   6   0 -13  260.34    2.18   0
   6   1 -13  425.06    3.32   0
   6   2 -19  122.53    4.36   0
   6   2 -18   68.28    3.68   0
   6   2 -17   14.57    2.78   0
 -14  -2   6   29.29    2.68   0
 -14   0   8   32.63    2.03   0
 -12  -4   0    1.03    3.77   0
 -10  -3   3   43.25    2.62   0
  -9  -4  -1  239.22    4.62   0
  -8  -3   2  484.07    4.00   0
  -7   4   1  141.66    2.50   0
  -6  -4  -3  146.51    3.42   0
  -6   3   3  239.04    1.59   0
  -5  -4  -4  143.06    3.31   0
  -5  -3   0  500.90    3.64   0
  -5   5  -5   14.57    3.16   0
  -4  -4  -5  210.62    3.40   0
  -4   0   4   53.75    0.67   0
  -4   5  -6   77.58    4.27   0
  -3  -3  -2   96.95    1.61   0
  -2  -3  -3  216.83    2.26   0
  -2   5  -9   93.28    4.74   0
  -1   4  -5  379.93    4.09   0
   0  -4 -14   21.21    2.39   0
   0  -3  -6  731.37    3.15   0
   0   2  -1 2652.31    4.63   0
   1  -3  -8  121.33    1.66   0
   1   4  -9  194.85    4.12   0
   2  -2  -6  398.77    1.48   0
   2   2  -4  189.64    1.72   0
   2   4 -12   80.21    3.91   0
   3   2  -6  169.52    1.84   0
   6   1 -14   42.10    1.94   0
 -17   0   8   27.66    2.99   0
 -16   0   8  166.64    3.45   0
 -15   1   8  192.67    2.35   0
 -14  -3   4  171.96    5.09   0
 -14   1   8  153.16    1.87   0
 -13  -3   4  526.38    6.28   0
 -13   0   8    4.69    1.52   0
 -12  -2   6   19.59    2.46   0
 -11  -4   0  113.42    4.84   0
 -11  -1   7  690.16    4.01   0
  -9   0   7  148.24    1.56   0
  -9   4   2  114.92    2.18   0
  -8  -4  -1   48.42    3.23   0
  -8  -1   6  493.18    2.79   0
  -8   3   4  119.08    1.17   0
  -7  -4  -2   52.79    3.05   0
  -7  -2   4 1897.97    5.72   0
  -6  -3   1 1184.56    5.12   0
  -4  -2   2   29.75    1.19   0
  -3  -4  -6   39.79    2.56   0
  -3  -2   1  739.64    2.99   0
  -3   5  -8    1.49    3.42   0
  -2  -4  -8   76.65    2.40   0
  -2  -2   0 1827.01    4.29   0
  -2   4  -4  722.39    5.22   0
  -1  -4 -10   78.24    2.64   0
   0  -4 -13  285.86    3.70   0
   0   4  -7  118.97    2.94   0
   1   3  -5  782.15    4.16   0
   1   4 -10   48.27    3.17   0
   2   1  -3 3430.01    4.52   0
   2   4 -14    7.67    3.32   0
   2   4 -13   32.98    3.47   0
   4   1  -7   35.53    1.07   0
   4   3 -14  183.29    4.08   0
   4   3 -13  185.96    3.79   0
   5   1 -10   85.61    1.57   0
   5   2 -12  256.02    3.09   0
   6   0 -14   19.00    1.29   0
   6   1 -21   43.19    3.18   0
   6   1 -15   81.24    2.12   0
 -12  -4   1  206.78    5.37   0
 -12  -3   4  239.63    4.25   0
 -12   0   8  216.51    2.22   0
 -11  -3   4  216.19    3.74   0
 -11  -2   6  122.33    2.77   0
 -10  -4   0   13.03    2.62   0
 -10  -1   7  566.55    3.47   0
  -9  -3   3  108.84    2.36   0
  -9   1   7  173.98    1.10   0
  -7  -3   2  592.53    4.10   0
  -7   1   6   27.50    0.47   0
  -6  -1   5   32.91    1.11   0
  -6   4   0   24.62    1.64   0
  -6   5  -5   14.63    3.68   0
  -5  -4  -3   79.67    2.83   0
  -5  -2   3  145.33    1.81   0
  -5   3   2  765.67    2.81   0
  -5   4  -1  216.24    2.92   0
  -5   5  -6   45.26    4.15   0
  -4   2   3  177.18    0.97   0
  -3   4  -3  475.71    3.89   0
  -1  -3  -4   47.44    1.46   0
  -1  -2  -1 1435.03    3.61   0
  -1   1   1 1184.50    1.75   0
  -1   2   0 1576.23    3.40   0
  -1   3  -2  369.11    2.36   0
  -1   4  -6   57.08    2.58   0
   0   4  -8  101.40    3.33   0
   1  -2  -4  136.10    1.08   0
   1   4 -11   40.51    3.18   0
   2  -3 -10  123.43    1.59   0
   2   4 -15    1.93    3.49   0
   3  -2  -8 1353.79    2.14   0
   3   1  -5  345.24    1.80   0
   3   3 -10   89.18    2.60   0
   4   2  -9  281.20    2.52   0
   4   3 -18   55.98    4.33   0
   4   3 -17   54.81    4.21   0
   4   3 -16  125.81    4.33   0
   4   3 -15  118.03    4.00   0
   5   2 -13   57.51    2.33   0
   6   0 -21   34.74    2.95   0
   6   0 -20   31.49    2.78   0
   6   0 -15   63.28    1.71   0
   6   1 -20    1.79    2.49   0
   6   1 -19   13.39    2.40   0
   6   1 -18   16.48    2.20   0
   6   1 -17  144.12    3.22   0
   6   1 -16  133.18    2.57   0
 -16  -1   8   18.95    3.11   0
 -11  -4   1  307.13    5.85   0
 -11   3   5   51.47    0.91   0
 -10  -3   4  231.21    3.65   0
 -10   4   2   45.43    1.94   0
  -9  -4   0  100.18    3.15   0
  -8  -3   3  119.50    2.63   0
  -8   4   1  171.95    2.72   0
  -7  -4  -1   92.19    3.40   0
  -6  -4  -2   73.61    2.42   0
  -5  -3   1 1228.88    5.32   0
  -4  -4  -4  165.95    3.20   0
  -4  -3   0  506.61    3.47   0
  -3  -3  -1   46.73    1.89   0
  -3   3   0  347.37    2.23   0
  -2  -4  -7   25.39    2.24   0
  -2   2   1  631.18    2.04   0
  -2   3  -1   92.28    1.47   0
  -1  -4  -9  102.85    2.55   0
   0  -4 -12  649.58    4.85   0
   0   3  -4  332.19    2.79   0
   1   2  -3  162.76    1.56   0
   1   4 -12  132.77    4.66   0
   3   3 -11   15.89    2.18   0
   4   2 -10  142.35    2.37   0
   5   1 -11   20.88    1.26   0
   5   2 -20   98.78    4.65   0
   5   2 -19   94.20    4.05   0
   5   2 -15  202.21    3.72   0
   5   2 -14   26.96    1.88   0
   6   0 -19    5.31    1.90   0
   6   0 -18    0.57    2.06   0
   6   0 -17   72.70    2.05   0
   6   0 -16   32.76    1.64   0
 -16  -2   7    3.20    3.74   0
 -14  -3   5  248.83    5.40   0
 -13  -3   5  132.12    4.49   0
 -10  -4   1   98.77    3.92   0
  -8  -4   0   17.09    3.26   0
  -7   2   5  508.68    1.02   0
  -6  -3   2  526.59    3.87   0
  -6  -2   4  236.20    2.13   0
  -5   0   5 2352.02    3.51   0
  -3  -4  -5  292.19    3.46   0
  -2  -3  -2  400.96    2.85   0
  -2   4  -5  704.59    5.32   0
  -1   4  -7   47.23    2.62   0
   0  -4 -11  414.74    3.92   0
   0  -3  -5  429.63    2.52   0
   0   4  -9   62.49    2.80   0
   1  -3  -7  449.50    2.59   0
   1   4 -14  121.17    5.05   0
   2   2  -5  449.72    2.55   0
   3   3 -12   66.15    2.89   0
   4   1  -8   71.56    1.26   0
   5   2 -18   37.34    3.05   0
   5   2 -17   62.31    2.98   0
   5   2 -16   74.35    2.43   0
 -12  -4   2  377.84    6.08   0
 -12  -3   5  196.13    3.62   0
 -11  -4   2  233.09    5.27   0
 -11   4   2  122.77    2.77   0
  -9  -4   1   23.85    3.37   0
  -9  -3   4   61.60    2.50   0
  -9  -1   7  222.32    2.24   0
  -8   0   7   12.99    0.95   0
  -7  -4   0   82.67    3.21   0
  -7  -3   3   97.32    2.50   0
  -7  -2   5  626.89    3.71   0
  -7  -1   6   35.66    1.28   0
  -7   4   0   52.95    1.88   0
  -6  -4  -1  230.19    3.87   0
  -5  -4  -2  239.52    3.70   0
  -4  -4  -3   24.86    2.49   0
  -4   4  -3   20.89    2.09   0
  -3  -1   3   59.76    0.99   0
  -3   4  -4  386.47    3.98   0
  -2  -4  -6  282.89    3.41   0
  -2  -1   2 2734.27    4.08   0
  -1  -4  -8   74.08    2.32   0
  -1   3  -3   33.63    1.55   0
   0  -2  -2  135.32    1.26   0
   0   4 -10   34.11    3.06   0
   1   4 -15   15.46    3.17   0
   3   3 -14  102.79    3.63   0
   3   3 -13  162.47    3.58   0
   4   2 -11  443.81    3.62   0
   5   0 -11  269.34    1.78   0
   5   1 -12  183.41    2.17   0
 -15   0   9  147.79    2.79   0
 -14   0   9   16.69    2.00   0
 -11   1   8 1526.91    3.43   0
 -10  -4   2   63.39    4.20   0
 -10  -3   5   93.98    2.92   0
 -10   0   8  222.94    1.93   0
  -8  -4   1  242.07    4.41   0
  -8  -3   4  173.79    2.93   0
  -7   3   3   66.11    1.15   0
  -6   4  -1  179.08    2.68   0
  -5   4  -2  183.42    2.85   0
  -4  -1   4 1069.03    3.12   0
  -3  -4  -4  498.73    4.33   0
  -3  -2   2  592.97    2.81   0
  -2   4  -6  220.34    3.62   0
  -1  -3  -3   30.13    1.34   0
  -1   4  -8   61.07    2.51   0
   0  -4 -10   43.42    2.44   0
   0   3  -5  376.13    3.11   0
   0   4 -12  403.99    6.86   0
   0   4 -11  276.16    4.79   0
   1   1  -2 8236.93    6.41   0
   3   3 -18   85.31    4.38   0
   3   3 -17   87.84    4.24   0
   3   3 -16   58.65    3.60   0
   3   3 -15   32.11    2.88   0
   4   2 -12  307.48    3.44   0
   5   1 -13   58.28    1.84   0
 -14  -3   6  131.79    4.17   0
 -14  -2   8   64.72    3.28   0
 -13   0   9   87.53    2.03   0
 -12  -4   3  252.18    6.03   0
 -12   4   2  188.28    3.48   0
  -9  -4   2  174.71    4.38   0
  -9   3   4   55.55    1.06   0
  -8  -1   7  107.74    1.72   0
  -5  -4  -1  289.00    3.83   0
  -5  -3   2  899.84    4.64   0
  -5  -2   4  370.55    2.63   0
  -4  -3   1  575.30    3.72   0
  -3  -3   0  416.64    3.12   0
  -3   4  -5  225.76    3.67   0
  -2  -4  -5  908.52    5.20   0
  -2  -2   1  755.48    2.95   0
  -2   3  -2  354.59    2.59   0
  -2   4  -7   22.06    2.61   0
  -1  -4  -7   56.51    2.27   0
  -1  -1   1 1184.23    2.48   0
  -1   4  -9   63.40    3.35   0
   0   4 -15   25.93    4.09   0
   0   4 -14    9.49    3.78   0
   0   4 -13  184.25    5.19   0
   1   2  -4  130.55    1.60   0
   2   3 -11   77.44    2.73   0
   3   1  -6  390.68    1.93   0
   4   0  -8  134.20    1.25   0
   4   2 -20   91.32    4.50   0
   4   2 -13  187.50    3.09   0
   5  -1 -21    7.14    2.12   0
   5  -1 -13   53.22    1.02   0
   5   0 -12   62.13    1.37   0
   5   1 -20    1.96    2.62   0
   5   1 -19   34.44    2.65   0
   5   1 -14  199.10    2.60   0
 -13  -2   8   59.66    3.08   0
 -12  -3   6  200.28    3.77   0
 -11  -4   3   52.56    3.22   0
 -11  -3   6    9.11    2.79   0
 -10   4   1   68.62    2.43   0
  -8   4   0   11.20    1.88   0
  -7  -4   1  213.89    4.14   0
  -6  -5  -5   24.58    4.52   0
  -6  -4   0   38.89    2.24   0
  -6  -3   3  256.47    2.71   0
  -6  -2   5   46.36    1.61   0
  -6   3   2  433.92    2.24   0
  -5  -5  -6   79.78    4.54   0
  -4  -4  -2    1.05    2.29   0
  -4   4  -4  133.10    2.93   0
  -3  -4  -3  584.62    4.42   0
  -3   3  -1   47.29    1.36   0
  -2  -3  -1  119.75    1.98   0
  -1   3  -4   52.32    1.76   0
  -1   4 -10   56.48    3.51   0
   0  -4  -9   77.28    2.54   0
   0  -3  -4  358.07    2.42   0
   0   3  -6  657.77    4.16   0
   1  -3  -6 1285.16    4.04   0
   2   3 -12    3.76    2.28   0
   4   2 -19   81.28    3.74   0
   4   2 -18   83.54    3.53   0
   4   2 -17   22.77    2.72   0
   4   2 -16   50.25    2.74   0
   4   2 -15    4.55    2.27   0
   5  -1 -20    6.39    2.08   0
   5   0 -21  123.17    4.32   0
   5   1 -18   46.38    2.50   0
   5   1 -17   62.73    2.47   0
   5   1 -16   34.80    1.98   0
   5   1 -15   90.54    2.05   0
 -16   1   9    9.07    1.79   0
 -15   1   9  151.33    2.09   0
 -12  -4   4   58.34    4.73   0
 -12  -2   8   96.22    2.99   0
 -12   0   9  497.89    2.93   0
 -10  -4   3  111.39    3.64   0
  -8  -4   2  788.82    6.40   0
  -7  -5  -3  333.56    6.56   0
  -7  -3   4    6.54    1.47   0
  -7   4  -1   59.41    2.11   0
  -6  -5  -4   87.41    4.44   0
  -6   4  -2   57.39    2.28   0
  -5   3   1 1019.41    3.41   0
  -5   4  -3   69.41    2.32   0
  -4  -5  -7  128.07    4.98   0
  -4   3   0  410.78    2.43   0
  -3   4  -6   39.12    2.72   0
  -2   4  -8   54.84    3.14   0
  -1  -4  -6   86.15    2.54   0
  -1  -3  -2  450.49    2.85   0
  -1  -2   0 1777.71    4.06   0
  -1   4 -12   99.31    4.58   0
  -1   4 -11   94.27    3.60   0
   1  -4 -13  438.53    3.55   0
   1  -2  -3  172.84    1.31   0
   2  -2  -5  440.46    1.60   0
   2   3 -18   61.67    4.68   0
   2   3 -17   32.81    3.83   0
   2   3 -16   47.26    3.63   0
   2   3 -15  209.05    4.84   0
   2   3 -14   65.39    3.24   0
   2   3 -13  111.35    2.83   0
   3   2 -10  437.56    3.45   0
   5  -1 -19   23.61    2.08   0
   5   0 -20  348.79    5.22   0
   5   0 -13  195.95    1.89   0
 -14   1   9   17.10    1.28   0
 -13  -3   7  204.70    5.16   0
 -11  -4   4   48.68    4.20   0
 -11   4   1  152.79    3.41   0
  -9  -4   3  332.40    5.00   0
  -9  -1   8  196.55    2.32   0
  -9   4   0   64.56    2.53   0
  -8  -3   5  196.43    3.12   0
  -6  -4   1   52.73    2.98   0
  -5  -5  -5   35.55    4.33   0
  -5  -4   0  137.73    3.14   0
  -4  -4  -1  174.98    3.42   0
  -4  -3   2  954.05    4.69   0
  -4   4  -5  164.08    3.46   0
  -3   4  -7   37.93    2.94   0
  -2  -4  -4  964.05    5.34   0
  -2   3  -3  187.23    2.21   0
  -2   4  -9   49.52    3.55   0
  -1   4 -14   26.43    3.99   0
  -1   4 -13   25.48    3.27   0
   0  -4  -8  131.53    2.75   0
   0   3  -7  983.26    5.24   0
   1  -4 -12  214.83    2.82   0
   1   3 -10  330.55    4.00   0
   3   1  -7  218.13    1.74   0
   3   2 -11  203.86    2.89   0
   4  -1  -9  502.15    1.44   0
   5  -1 -18   48.19    1.85   0
   5  -1 -17   77.39    1.81   0
   5  -1 -16   33.18    1.35   0
   5  -1 -15  116.64    1.61   0
   5   0 -19  165.55    3.29   0
   5   0 -18    5.26    2.05   0
   5   0 -14   77.94    1.60   0
 -11   0   9    3.01    1.15   0
 -10  -4   4   18.62    3.68   0
 -10   1   8  900.42    2.41   0
  -8  -4   3  752.79    6.48   0
  -8   1   7   94.31    0.76   0
  -8   3   3   84.46    1.29   0
  -8   4  -1   27.41    2.24   0
  -7  -5  -2  142.97    5.48   0
  -7  -4   2  136.00    3.22   0
  -6  -5  -3   48.46    4.53   0
  -6  -3   4  247.22    3.00   0
  -5  -3   3  282.18    2.71   0
  -5   4  -4  112.43    3.21   0
  -4  -5  -6  144.67    5.00   0
  -3  -5  -8    2.51    3.70   0
  -3  -4  -2  276.92    3.62   0
  -3  -3   1 1846.73    6.05   0
  -2   2   0 1683.78    3.56   0
  -2   4 -11   16.36    3.59   0
  -2   4 -10   36.24    2.88   0
  -1   3  -5  685.56    4.01   0
   0  -2  -1 3299.40    5.27   0
   0   2  -3  264.89    1.75   0
   1  -4 -11   51.27    2.05   0
   1   2  -5  154.80    1.73   0
   1   3 -11  150.60    3.31   0
   3   2 -20   35.29    3.91   0
   3   2 -12  729.84    4.82   0
   4   0  -9    9.70    0.89   0
   4   1 -21    4.46    2.98   0
   4   1 -11  498.49    3.09   0
   5   0 -17   79.44    2.14   0
   5   0 -16  297.45    2.97   0
   5   0 -15  182.21    2.22   0
 -16  -1  10   16.35    3.07   0
 -15   0  10  147.76    2.53   0
 -13  -2   9  125.33    3.46   0
 -12  -4   5    2.65    3.33   0
 -12   4   1  101.00    3.15   0
 -11  -4   5  119.17    4.36   0
 -10   3   4  180.07    1.68   0
 -10   4   0    4.71    2.24   0
  -9  -4   4  524.05    5.98   0
  -7   4  -2   36.76    2.31   0
  -6   2   4  223.98    1.01   0
  -6   4  -3   99.30    2.79   0
  -5  -5  -4   15.67    3.69   0
  -5  -2   5  704.96    3.61   0
  -4  -2   4  175.00    1.96   0
  -4   4  -6   30.77    2.59   0
  -3  -5  -7    9.15    3.69   0
  -3  -2   3 1411.69    4.34   0
  -3   3  -2   97.51    1.73   0
  -3   4  -8  153.78    3.76   0
  -2  -4  -3  214.31    2.99   0
  -2  -3   0  571.43    3.38   0
  -2   4 -14    5.93    4.48   0
  -2   4 -13   43.53    4.55   0
  -2   4 -12    8.00    3.46   0
  -1  -4  -5  469.03    3.88   0
   0  -3  -3  674.97    3.23   0
   0  -1   0    0.58    0.32   0
   0   1  -1  118.91    0.77   0
   0   3  -8  433.73    3.89   0
   1  -3  -5  949.44    3.58   0
   1   3 -18  161.51    6.06   0
   1   3 -17   97.52    4.57   0
   1   3 -13   18.04    2.64   0
   1   3 -12   73.96    2.88   0
   3   2 -19   22.02    3.05   0
   3   2 -18    6.18    2.74   0
   3   2 -17   10.36    2.47   0
   3   2 -14  266.79    3.86   0
   3   2 -13  438.26    4.20   0
   4   1 -20  104.23    3.92   0
   4   1 -19  270.28    4.70   0
   4   1 -12   67.00    1.79   0
 -14   0  10    0.85    1.66   0
 -13  -1  10   11.00    2.18   0
 -10  -3   7  198.58    3.93   0
 -10  -1   9  158.70    2.26   0
  -8  -3   6  173.06    3.26   0
  -7  -5  -1    8.03    4.28   0
  -7  -4   3  259.07    4.45   0
  -6  -5  -2   45.35    4.33   0
  -6  -4   2   62.10    3.04   0
  -5  -5  -3   30.96    3.82   0
  -5  -4   1   39.92    2.70   0
  -5   4  -5  246.60    3.98   0
  -4  -5  -5   11.05    3.51   0
  -4  -4   0   47.09    2.70   0
  -4   3  -1  400.60    2.70   0
  -4   4  -7   22.82    2.96   0
  -3   2   1  732.04    2.25   0
  -3   4 -10   15.13    3.70   0
  -3   4  -9  118.86    3.85   0
  -2  -5  -9  189.62    4.97   0
  -2  -2   2   65.71    1.13   0
  -2   3  -4  237.42    2.60   0
  -1  -3  -1   41.36    1.51   0
  -1   3  -6 1220.17    5.46   0
   0  -4  -7  171.38    2.68   0
   0   3  -9  351.15    3.94   0
   1  -4 -10   68.93    2.12   0
   1   1  -3  825.22    2.34   0
   1   3 -16   27.04    2.84   0
   1   3 -15   41.45    2.68   0
   1   3 -14   98.10    3.24   0
   3  -1  -6  417.59    0.70   0
   3   1  -8  110.82    1.51   0
   3   2 -16   18.64    1.94   0
   3   2 -15   42.62    2.03   0
   4   1 -18  335.74    4.86   0
   4   1 -17   87.90    3.13   0
   4   1 -14  961.97    5.34   0
   4   1 -13  593.41    3.83   0
 -13   0  10  412.27    3.07   0
 -12  -3   8  260.93    4.86   0
 -11   4   0   75.96    3.15   0
 -10  -4   5   10.49    2.62   0
 -10   0   9  175.39    1.68   0
  -9   4  -1  153.32    3.21   0
  -8  -4   4  199.09    4.38   0
  -8   0   8   27.02    1.03   0
  -8   4  -2   71.67    2.89   0
  -7   4  -3   53.08    2.76   0
  -6   3   1  985.49    3.55   0
  -6   4  -4  379.05    4.93   0
  -5  -3   4   13.33    1.94   0
  -5   3   0  419.59    2.55   0
  -5   4  -6  491.65    5.62   0
  -4  -5  -4   26.46    3.87   0
  -4  -3   3  631.11    4.02   0
  -4  -1   5 2070.23    4.38   0
  -4   2   2   27.69    0.76   0
  -4   4  -8   53.04    3.85   0
  -3  -5  -6    2.76    3.51   0
  -3  -4  -1   78.40    2.79   0
  -3   4 -13  125.36    5.66   0
  -3   4 -12   48.66    4.49   0
  -1  -4  -4  109.30    2.67   0
  -1  -2   1 1938.14    4.51   0
  -1   2  -2 1164.86    3.40   0
   0   2  -4 1364.40    4.07   0
   0   3 -10  140.24    3.22   0
   1   2  -6    4.08    0.85   0
   3  -3 -11   22.93    0.89   0
   4   0 -21   32.22    3.32   0
   4   1 -16  169.30    2.98   0
 -12  -1  10  419.89    3.66   0
 -11  -4   6  141.69    5.12   0
  -9  -4   5  160.74    4.28   0
  -7  -5   0  242.13    6.15   0
  -6  -5  -1  181.27    5.26   0
  -6  -3   5  311.47    3.05   0
  -6   4  -5  533.20    6.23   0
  -5  -5  -2    4.63    3.66   0
  -5  -4   2   77.54    2.98   0
  -4   0   5   58.92    0.65   0
  -4   4  -9   30.06    3.92   0
  -3  -3   2 1395.28    5.24   0
  -3   3  -3  142.99    2.08   0
  -2  -5  -8   41.24    3.67   0
  -2  -4  -2  111.35    2.74   0
  -2  -1   3 4241.60    5.36   0
  -2   3  -5  369.80    3.41   0
  -1   3  -7  874.22    5.08   0
   0  -4  -6   91.24    2.34   0
   0   3 -18   58.23    4.94   0
   0   3 -17   47.55    4.01   0
   0   3 -12  116.63    3.22   0
   0   3 -11  265.55    4.09   0
   1  -4  -9  286.63    3.14   0
   2  -3  -7  579.27    2.58   0
   2   2 -20   32.68    3.20   0
   2   2 -19   16.74    3.23   0
   3  -2  -7  627.04    1.47   0
   3   1 -21   25.18    3.18   0
   4   0 -20   82.38    3.24   0
 -16  -1  11    9.72    3.04   0
 -15  -1  11    9.50    2.63   0
 -12   0  10  674.23    3.41   0
 -12   4   0    1.33    2.46   0
 -10  -4   6   23.68    3.90   0
 -10   4  -1   15.87    2.43   0
  -9   4  -2   68.95    3.37   0
  -8   4  -3   23.39    2.76   0
  -7  -4   4   95.43    3.60   0
  -7  -3   6  150.02    2.61   0
  -7   4  -4  138.00    3.81   0
  -6  -4   3   70.21    2.58   0
  -6  -1   7   19.12    0.90   0
  -5   0   6 1078.44    2.50   0
  -5   4  -7  175.33    4.33   0
  -4  -5  -3  206.79    4.99   0
  -4  -4   1  122.31    3.02   0
  -4   4 -12   34.97    4.49   0
  -4   4 -11   35.34    4.46   0
  -4   4 -10   55.68    4.06   0
  -3  -5  -5    3.36    3.53   0
  -3  -4   0  326.44    3.81   0
  -2  -5  -7   17.49    3.38   0
  -2  -3   1  795.64    3.90   0
  -1   3  -8   94.10    2.68   0
   0  -3  -2  175.13    1.96   0
   0   3 -16   19.27    3.22   0
   0   3 -15   78.22    3.88   0
   0   3 -14   85.19    3.78   0
   0   3 -13   10.15    2.53   0
   1  -3  -4  139.85    1.79   0
   1  -2  -2 1837.44    3.71   0
   2   1  -6 2321.29    4.81   0
   2   2 -18   22.43    2.94   0
   2   2 -17  184.71    4.24   0
   2   2 -12 1441.23    6.52   0
   2   2 -11 1233.87    5.51   0
   3   1 -20   11.21    2.63   0
   4  -1 -10  527.86    1.71   0
   4   0 -19  350.01    4.61   0
 -16   0  11  211.31    3.52   0
 -11   3   4  174.67    1.87   0
  -8  -5   2  145.27    5.96   0
  -8  -4   5   25.32    2.69   0
  -8  -3   7  120.48    2.63   0
  -7  -5   1  655.99    8.50   0
  -6  -5   0  363.16    6.35   0
  -6   4  -6  295.55    5.26   0
  -5  -5  -1    1.87    3.82   0
  -5  -2   6 1167.09    4.64   0
  -5   4  -9   58.20    4.12   0
  -5   4  -8   45.19    3.69   0
  -4  -2   5   51.32    1.50   0
  -4   3  -2  385.08    2.84   0
  -4   4 -13   38.52    4.17   0
  -3  -5  -4   85.44    3.65   0
  -2   2  -1 1004.56    3.02   0
  -2   3  -6  420.89    3.76   0
  -1  -4  -3  187.11    2.80   0
  -1  -3   0  222.66    2.38   0
  -1   3  -9  275.50    3.70   0
   0  -4  -5   53.29    2.30   0
   1  -4  -8  397.76    3.49   0
   2  -2  -4  220.60    1.32   0
   2   2 -16  134.00    3.44   0
   2   2 -15  136.24    3.18   0
   2   2 -14   55.01    2.64   0
   2   2 -13  700.26    5.15   0
   3   1 -19  204.46    4.53   0
   4   0 -18  172.63    3.12   0
   4   0 -12  148.46    1.68   0
 -15  -2  11  106.17    5.03   0
 -15   0  11   15.62    2.08   0
 -15   1  10   42.00    1.46   0
 -13  -1  11   16.08    2.09   0
 -11  -4   7   58.28    3.66   0
 -11   0  10   52.48    1.68   0
 -10   4  -2   26.61    3.26   0
  -9  -4   6   71.13    2.99   0
  -9   0   9  203.78    1.65   0
  -9   4  -3   15.39    3.17   0
  -8   3   2  417.68    2.73   0
  -8   4  -4   21.52    2.74   0
  -7   4  -5  125.15    4.04   0
  -6  -4   4  102.53    3.55   0
  -6  -3   6   61.38    2.46   0
  -6   0   7 4648.24    5.57   0
  -5  -4   3  310.37    4.30   0
  -5   3  -1    0.92    1.20   0
  -5   4 -12    0.56    4.23   0
  -5   4 -11   49.51    5.24   0
  -4  -5  -2  149.55    4.86   0
  -4  -4   2  199.68    3.45   0
  -4  -3   4 1123.02    5.25   0
  -3  -3   3  440.16    3.52   0
  -3   3  -4   22.30    1.40   0
  -2  -5  -6  110.70    3.98   0
  -2  -4  -1  921.80    5.46   0
  -2  -2   3  193.10    1.90   0
  -1  -5  -9   53.30    3.56   0
  -1  -1   2 9999.99    7.50   0
  -1   1   0  943.49    1.86   0
  -1   2  -3 1247.66    3.75   0
  -1   3 -17   47.99    4.62   0
  -1   3 -16    6.87    3.20   0
  -1   3 -11  471.45    5.12   0
  -1   3 -10  339.07    4.37   0
   0  -2   0 5179.71    6.81   0
   0   2  -5 1394.49    4.35   0
   1   2 -20   34.44    4.02   0
   2  -4 -15    8.46    1.52   0
   3  -3 -10  128.76    1.20   0
   3   0  -7 2060.11    3.55   0
   3   1 -18  570.41    6.25   0
   3   1 -11   88.03    1.81   0
   4  -2 -17   22.55    1.35   0
   4   0 -17    3.35    1.56   0
   4   0 -16   30.57    1.87   0
   4   0 -13   24.36    1.30   0
 -14  -2  11   45.86    3.59   0
 -14   0  11   74.17    2.29   0
 -10  -4   7   93.91    4.54   0
 -10  -1  10   90.98    1.97   0
  -8  -4   6  411.58    5.41   0
  -7  -5   2  220.03    6.19   0
  -7  -4   5  310.79    4.74   0
  -7   3   1  805.82    3.46   0
  -7   4  -6   31.30    3.99   0
  -6  -5   1  197.36    5.42   0
  -6   3   0  457.47    2.75   0
  -6   4  -8  115.86    4.80   0
  -5  -5   0    5.44    3.67   0
  -4   3  -3  112.41    2.08   0
  -3  -5  -3  101.52    4.20   0
  -3  -4   1  364.49    4.14   0
  -2  -5  -5   78.98    3.74   0
  -2  -3   2  509.49    3.62   0
  -2   3  -7  647.75    4.66   0
  -1  -5  -8   23.74    3.29   0
  -1   3 -15   44.65    3.89   0
  -1   3 -14    8.61    3.04   0
  -1   3 -13    6.26    2.75   0
  -1   3 -12  125.15    3.48   0
   1  -4  -7  109.27    2.43   0
   1   1  -4 1391.55    3.29   0
   1   2 -19    8.26    3.07   0
   1   2 -18   26.03    3.16   0
   2  -3  -6  854.92    3.14   0
   2   1 -21   14.42    3.35   0
   3   1 -17  670.78    5.48   0
   3   1 -16  125.23    2.84   0
   3   1 -15   78.59    2.40   0
   3   1 -14 1022.91    5.58   0
   3   1 -13  489.03    3.84   0
   4  -2 -16   63.97    1.32   0
   4   0 -15   21.27    1.39   0
 -12   3   4  160.25    2.16   0
 -11  -4   8    9.50    4.61   0
 -11   4  -2   74.23    3.85   0
 -10   3   3   30.12    1.48   0
 -10   4  -3   33.23    3.73   0
  -9  -4   7   93.05    4.11   0
  -9   4  -4    1.16    3.07   0
  -8   4  -5   15.04    3.51   0
  -7   0   8 1779.89    3.82   0
  -7   4  -7   92.58    5.05   0
  -6   4 -10  155.30    6.14   0
  -6   4  -9  264.54    6.40   0
  -4  -5  -1  116.50    4.46   0
  -3   2   0  664.14    2.38   0
  -3   3  -5  343.64    3.37   0
  -2  -4   0 1545.07    6.94   0
  -2   3  -8  507.94    4.63   0
  -1  -5  -7  462.59    5.91   0
  -1  -4  -2  732.50    4.68   0
  -1  -2   2 1784.60    4.53   0
   0  -4  -4  125.40    2.55   0
   0  -3  -1  157.41    1.97   0
   0   1  -2  616.54    1.91   0
   1  -3  -3  191.25    1.94   0
   1   2 -17   39.37    3.37   0
   3   0 -21    6.78    2.54   0
 -15  -1  12   37.93    2.81   0
  -7  -5   3   60.97    5.12   0
  -7  -4   6  503.69    5.71   0
  -7   4  -8  171.63    6.13   0
  -6  -5   2   35.07    4.52   0
  -6  -4   5   19.42    3.12   0
  -5  -5   1   28.32    3.64   0
  -5  -4   4  333.48    4.52   0
  -5   3  -2  237.89    2.58   0
  -4  -4   3  154.12    3.61   0
  -4  -3   5  737.25    4.53   0
  -3  -5  -2   68.78    4.09   0
  -3  -1   5  453.66    2.15   0
  -3   3  -6  346.95    3.72   0
  -2  -5  -4   61.76    3.64   0
  -2   3 -17    3.43    3.05   0
  -2   3 -16   16.91    3.81   0
  -2   3 -10  439.10    5.05   0
  -2   3  -9  208.99    3.49   0
  -1  -3   1  650.91    3.68   0
   0   2 -20    1.50    3.80   0
   1   2 -16  171.39    3.77   0
   1   2 -15   58.21    2.84   0
   1   2 -14  276.83    4.06   0
   1   2 -13  550.65    4.92   0
   1   2 -12  216.07    3.10   0
   2   1 -20   69.82    3.38   0
   3   0 -20   12.22    2.40   0
 -14  -1  12  139.90    3.20   0
 -11  -1  11   13.71    1.87   0
 -11   4  -3   21.52    3.88   0
 -10  -4   8   20.73    3.21   0
 -10   4  -4   12.39    3.69   0
  -9   4  -5   44.59    3.96   0
  -8  -4   7  733.81    7.06   0
  -8   4  -7   -0.23    4.42   0
  -7   4 -10   57.61    5.36   0
  -6  -1   8   37.09    1.33   0
  -6   3  -1  774.44    3.90   0
  -4  -5   0    4.66    3.72   0
  -4  -2   6  410.65    2.75   0
  -4   3  -4  108.20    2.34   0
  -3  -4   2  147.16    3.35   0
  -3  -3   4  271.85    3.05   0
  -3   3  -7  313.70    3.69   0
  -2   3 -15   22.00    2.81   0
  -2   3 -14   58.70    3.75   0
  -2   3 -13   44.84    3.34   0
  -2   3 -12  147.10    3.96   0
  -2   3 -11  358.26    5.02   0
  -1  -5  -6  592.31    6.29   0
  -1  -4  -1 1010.26    5.52   0
   0   2 -19    1.05    3.52   0
   1  -4  -6    3.53    1.67   0
   2   1 -19   14.84    2.75   0
   2   1  -8 1699.67    4.50   0
   3   0 -19    1.79    2.09   0
  -8   0 -14  226.25    2.81   0
  -8   0 -13  213.35    2.41   0
  -8   1 -12    6.08    1.26   0
  -8   1 -11   49.62    1.66   0
  -8   2 -14  199.06    3.50   0
  -8   2 -13   96.01    2.68   0
  -7  -1 -12  534.07    3.14   0
  -7   0  -9   41.14    1.19   0
  -7   1  -8   58.68    1.40   0
  -7   2  -9  332.22    2.73   0
  -7   3 -13   14.77    1.83   0
  -7   3 -12   68.02    2.61   0
  -6   3  -9  129.30    2.01   0
  -5   4 -11   76.25    2.66   0
  -4  -1  -5   48.46    0.65   0
  -4   3  -5    8.79    1.10   0
  -4   4  -8   72.87    1.94   0
   0   5  -7  384.43    3.54   0
   2  -4 -13   39.13    1.23   0
   3  -2  -2  590.59    1.89   0
   4  -3  -5  668.61    2.66   0
   7   5  -4    9.95    0.76   0
  11  -3  -5   74.56    2.33   0
  11  -2  -2  302.90    2.59   0
  13  -3  -6    2.87    2.56   0
  13  -2  -3   70.43    2.39   0
  13   2   0  290.37    2.29   0
  16  -2  -5  149.20    4.03   0
  -8   0 -12   13.35    1.42   0
  -8   2 -12   20.35    1.87   0
  -7   2  -8  314.20    2.56   0
  -6  -2 -17  228.60    3.01   0
  -6  -2 -16   92.32    2.07   0
  -6  -2 -15   21.63    1.54   0
  -6   2  -6  400.14    2.45   0
  -6   3  -8  101.81    2.11   0
  -5   3  -6   91.08    1.64   0
  -5   4 -10  112.86    2.72   0
  -4   2  -3 1173.70    3.14   0
  -3   2  -2  811.29    2.34   0
  -3   4  -6   46.99    1.64   0
  -2   4  -5  858.41    3.65   0
   1   5  -6    6.73    1.40   0
   3  -4 -12   88.88    1.64   0
   3  -1   0  729.56    1.79   0
   4  -4 -11  413.92    3.06   0
   6  -4 -10   13.02    1.60   0
   7  -4 -10   93.23    2.50   0
   8  -4 -10   20.31    2.13   0
   9  -4 -10   11.31    2.27   0
   9  -3  -5  128.66    2.24   0
  10  -4 -10   84.64    2.92   0
  10  -3  -5   89.62    2.13   0
  10   2   1  351.94    1.76   0
  11   1   1   16.58    1.06   0
  12  -3  -6  178.68    3.34   0
  14  -3  -7   53.32    2.72   0
  14  -2  -4   40.74    2.31   0
  16   2  -2   23.72    2.02   0
  -8   0 -11  340.97    2.49   0
  -8   1 -10    8.70    1.45   0
  -8   2 -11  129.15    2.17   0
  -7  -1 -11  944.63    3.60   0
  -7   0  -8    8.16    0.95   0
  -7   1  -7   87.77    1.52   0
  -7   3 -10  100.40    2.40   0
  -6  -1  -8  837.09    2.62   0
  -6   0  -6   10.65    0.75   0
  -6   1  -5   71.71    1.11   0
  -5   2  -4  684.13    2.66   0
  -5   4  -9   89.94    2.40   0
  -4  -2  -8  401.62    1.32   0
  -4   4  -7   35.57    1.62   0
   1  -3  -7  436.73    1.60   0
   4  -2  -2   29.63    0.77   0
   5  -3  -5  612.60    2.69   0
   6  -3  -5  307.92    2.17   0
   7  -3  -5  150.20    1.90   0
   8  -3  -5  185.66    2.23   0
  11  -3  -6   10.54    1.93   0
  12  -2  -3  287.18    2.75   0
  12   0   0    2.01    1.40   0
  13  -3  -7  189.40    3.73   0
  16  -2  -6   66.74    3.52   0
  16   1  -2   11.31    2.26   0
  -9   1 -14   40.37    2.20   0
  -9   1 -13   35.81    2.14   0
  -9   2 -14   43.19    2.68   0
  -8   1  -9   31.02    1.54   0
  -8   2 -10  764.62    4.09   0
  -7   2  -7  546.35    3.04   0
  -7   3  -9   52.97    2.02   0
  -6   3  -7  211.84    2.42   0
  -6   4 -11   73.80    3.19   0
  -5  -2 -10  180.56    1.30   0
  -5  -1  -6   23.30    0.67   0
  -4   0  -3 1890.85    3.04   0
  -4   3  -4  110.57    1.51   0
  -3   0  -2 4557.04    3.94   0
  -3   3  -3  135.57    1.22   0
  -2   3  -2  393.68    1.83   0
  -2   5  -8   31.38    2.25   0
  -1   1   0  924.69    1.43   0
   0  -3  -8  507.87    1.42   0
   2  -4 -14   15.97    1.19   0
   3   0   1 4185.30    3.53   0
   4  -4 -12  474.02    3.42   0
   4  -1   0 2819.51    3.84   0
   6  -4 -11   65.40    2.21   0
   7  -4 -11   96.11    2.70   0
   8  -4 -11   56.55    2.52   0
   8   0   1   17.58    0.87   0
   9  -4 -11   29.69    2.47   0
  10  -3  -6  306.93    3.04   0
  10   1   1  357.86    2.05   0
  11  -2  -3  777.94    4.15   0
  11  -1  -1    5.32    1.31   0
  14  -3  -8   95.34    3.45   0
  14   1  -1   97.06    2.05   0
  17  -1  -5    2.26    2.94   0
  17   1  -3   14.23    2.32   0
  -9   0 -16   -0.19    2.41   0
  -9   0 -15    1.34    2.16   0
  -9   0 -14  211.24    2.96   0
  -9   1 -12   68.85    2.17   0
  -9   2 -13  162.59    3.27   0
  -8  -1 -14  204.94    2.81   0
  -8   0 -10 1443.49    4.37   0
  -8   2  -9  810.76    4.19   0
  -8   3 -12  172.01    3.25   0
  -7   0  -7  657.25    2.64   0
  -6  -2 -13   46.56    1.27   0
  -6   2  -5  726.82    2.88   0
  -6   4 -10  254.61    3.78   0
  -5   0  -4 3823.87    4.89   0
  -5   3  -5   61.86    1.34   0
  -5   4  -8   56.98    1.70   0
  -4   4  -6   40.97    1.55   0
  -3   4  -5  270.41    2.39   0
   1   5  -5   18.40    1.46   0
   3  -4 -13  103.95    1.88   0
   5   4  -1   37.38    0.46   0
   7   0   1 1484.06    3.34   0
   9  -3  -6   21.41    1.68   0
   9   3   0  197.33    1.14   0
  10  -2  -3 1244.11    4.66   0
  12  -3  -7  207.46    3.07   0
  13  -3  -8  236.66    4.05   0
  14  -2  -5   11.76    2.15   0
  15  -2  -6   64.25    2.95   0
  -9   0 -13   73.95    2.14   0
  -9   1 -11    0.40    1.57   0
  -9   2 -12   91.31    2.24   0
  -9   2 -11  239.27    3.00   0
  -8  -1 -13  203.53    2.45   0
  -8   0  -9 3175.63    6.38   0
  -8   1  -8  136.30    1.80   0
  -8   2  -8  415.81    2.96   0
  -8   3 -11   15.36    1.63   0
  -7   1  -6   78.33    1.14   0
  -7   2  -6  853.99    3.48   0
  -7   3  -8   30.51    1.69   0
  -6   3  -6   79.08    1.77   0
  -6   4  -9  425.20    4.10   0
  -5   4  -7  238.74    2.72   0
  -4   1  -2   86.41    0.86   0
  -2   5  -7   14.88    1.90   0
  -1   2   0 1840.36    2.68   0
   2  -2  -3  196.52    1.04   0
   3   5  -4   30.63    1.20   0
   4  -3  -6  229.22    1.64   0
   4   0   1 3508.44    3.74   0
   5   0   1    0.79    0.53   0
   6  -4 -12   38.78    2.31   0
   6   0   1    2.03    0.61   0
   8  -4 -12   32.86    2.44   0
   8  -3  -6  166.70    2.08   0
   8   2   1  144.22    1.02   0
   9  -4 -12   27.05    2.65   0
   9  -2  -3  291.74    2.32   0
  11  -3  -7  177.12    3.01   0
  11   2   0  324.86    1.98   0
  12   4  -3  201.41    1.85   0
  13   2  -1  238.05    2.16   0
  16  -1  -5  298.94    4.12   0
  16   2  -3   16.60    1.95   0
  -9   0 -12  211.28    2.51   0
  -8  -1 -12    7.18    1.33   0
  -8   3 -10   13.89    1.59   0
  -7  -1  -9   92.01    1.32   0
  -7   3  -7   81.01    1.81   0
  -6  -2 -12   26.88    1.03   0
  -6  -1  -7  320.10    1.63   0
  -6   1  -4  268.53    1.70   0
  -5   2  -3 1050.52    3.13   0
  -5   3  -4  363.32    2.27   0
  -4  -3 -16   12.54    1.06   0
  -4   2  -2  513.01    2.05   0
  -4   3  -3  118.85    1.42   0
  -3   1  -1   65.48    0.66   0
  -3   5  -8    6.11    2.18   0
   0  -2  -4 1432.25    1.75   0
   0   5  -5   18.94    1.50   0
   3  -4 -14   29.81    1.67   0
   4  -4 -13  130.60    2.45   0
   5  -3  -6  337.84    2.09   0
   6  -3  -6   61.84    1.29   0
   7  -4 -12   69.72    2.40   0
   7  -3  -6  146.00    1.84   0
  10  -3  -7  180.38    2.61   0
  10   0   0    1.83    1.08   0
  11  -2  -4  369.29    2.99   0
  11   1   0   69.23    1.31   0
  12  -3  -8  221.41    3.44   0
  12   0  -1    7.59    1.36   0
  13  -3  -9  111.02    3.20   0
  13  -2  -5   55.13    1.82   0
  14  -2  -6   27.63    2.45   0
 -10   1 -14   19.60    2.37   0
 -10   1 -13   90.60    2.49   0
  -9   0 -11    4.49    1.43   0
  -9   1  -9  219.55    2.35   0
  -9   2 -10  218.02    2.55   0
  -8   0  -8  256.55    2.04   0
  -8   1  -7   57.12    1.39   0
  -8   2  -7   18.98    1.34   0
  -8   3  -9   26.29    1.84   0
  -7   0  -6 3002.40    5.26   0
  -7   1  -5  137.69    1.46   0
  -7   4 -10  107.35    3.07   0
  -6   2  -4  554.76    2.43   0
  -6   3  -5  171.15    1.97   0
  -6   4  -8  140.68    2.59   0
  -5   4  -6  604.72    3.68   0
  -4   4  -5  206.27    2.37   0
  -3   2  -1 1185.05    2.66   0
   0   4  -2   34.27    0.95   0
   2  -3  -7  560.68    1.98   0
   3  -2  -3 1338.00    2.75   0
   6  -4 -13   28.89    2.29   0
   7  -4 -13    2.95    2.28   0
   7  -2  -3  696.31    2.79   0
   8  -4 -13   17.22    2.53   0
   8  -2  -3  804.03    3.16   0
   8   1   1 1134.26    2.83   0
   9  -3  -7  220.66    2.58   0
  11  -3  -8  295.91    3.51   0
  11   3  -1  110.10    1.24   0
  12  -2  -5   29.21    1.67   0
  15  -2  -7   49.45    2.34   0
 -10   1 -12  188.50    2.93   0
 -10   2 -13   43.74    2.68   0
 -10   2 -12    5.73    2.11   0
  -9   0 -10  168.61    2.03   0
  -9   2  -9  321.33    3.04   0
  -9   3 -11   97.15    2.83   0
  -8  -1 -11   53.54    1.38   0
  -8   3  -8  129.36    2.43   0
  -7  -2 -16   11.65    1.62   0
  -7  -2 -15   36.43    1.68   0
  -7   2  -5  716.05    3.11   0
  -7   3  -6   18.19    1.54   0
  -7   4  -9  111.37    3.02   0
  -6  -2 -11   94.77    1.16   0
  -6   4  -7   13.78    1.67   0
  -5  -2  -9  231.06    1.26   0
  -4  -3 -15   74.94    1.21   0
  -3   5  -7    9.45    1.89   0
   1   5  -4    0.76    1.26   0
   3  -4 -15   48.32    2.00   0
   4  -4 -14   19.26    1.85   0
   4  -2  -3  203.39    1.28   0
   7   2   1  306.99    1.16   0
   8  -3  -7  112.13    1.88   0
   9   0   0  724.58    2.73   0
  10   2   0   21.63    0.93   0
  12  -3  -9  166.45    3.32   0
  13  -3 -10   79.71    3.29   0
  13  -2  -6  290.45    3.33   0
  15   2  -3    7.06    1.57   0
  16  -1  -6   72.17    3.01   0
 -10   0 -15    5.38    2.28   0
 -10   0 -14    2.69    2.19   0
 -10   1 -11   80.92    2.16   0
 -10   2 -11  147.84    2.98   0
  -9   1  -8  541.61    3.21   0
  -9   2  -8  222.49    2.51   0
  -9   3 -10    7.02    2.15   0
  -8   1  -6  382.83    2.44   0
  -8   2  -6  278.16    2.35   0
  -7  -2 -14   35.48    1.49   0
  -7  -1  -8   56.94    0.96   0
  -5  -1  -5  308.24    1.29   0
  -4  -1  -4  132.58    0.76   0
   1   2   1 1458.88    1.54   0
   2  -1  -1 3108.29    3.00   0
   6  -4 -14   33.70    2.55   0
   7  -3  -7   56.47    1.50   0
   7  -1  -1  704.54    2.44   0
   9  -2  -4  961.39    3.78   0
  10  -3  -8  202.28    2.68   0
  10   1   0    4.69    0.86   0
  11  -2  -5  171.99    2.31   0
  12  -1  -3  100.08    1.62   0
  12   2  -1  201.10    1.80   0
  14  -2  -7   80.81    2.55   0
  15  -2  -8  107.99    3.11   0
  16   2  -4  130.50    2.65   0
  17   1  -5    2.49    2.53   0
 -10   0 -13    1.27    1.95   0
 -10   1 -10   22.24    1.71   0
 -10   2 -10  261.88    3.25   0
  -9  -1 -14   40.61    1.85   0
  -9   0  -9  381.06    2.59   0
  -9   3  -9   81.30    2.44   0
  -8  -1 -10    9.93    1.04   0
  -8   0  -7   23.25    1.14   0
  -8   3  -7   36.24    1.84   0
  -7   4  -8  215.45    3.30   0
  -6   0  -4    3.37    0.66   0
  -6   2  -3  124.38    1.39   0
  -6   3  -4  313.17    2.30   0
  -6   4  -6  336.58    3.07   0
  -5   0  -3 2499.45    3.72   0
  -5   2  -2  354.43    1.85   0
  -5   3  -3  318.76    2.12   0
  -5   4  -5  294.86    2.69   0
  -4   3  -2  399.98    2.10   0
  -4   4  -4  155.07    2.01   0
  -4   5  -7  112.90    2.64   0
  -3   4  -3  510.82    2.68   0
  -3   5  -6    4.47    1.51   0
  -2   1   0  520.13    1.29   0
  -2   2   0 1746.53    2.80   0
   4  -4 -15   16.84    2.01   0
   4  -3  -7  131.51    1.32   0
   5  -3  -7  224.75    1.78   0
   6  -3  -7   21.78    1.12   0
   6   1   1  811.48    1.96   0
   6   2   1  105.75    0.63   0
   9  -3  -8  554.39    3.76   0
  11  -3  -9  278.80    3.36   0
  12  -3 -10  149.25    3.23   0
  12  -2  -6   18.52    1.82   0
  12   3  -2    4.81    1.12   0
  13  -3 -11   20.82    2.95   0
  14  -1  -5   25.53    2.05   0
  16  -1  -7   28.76    2.50   0
 -11   1 -13   13.24    2.14   0
 -10   0 -12  118.62    2.38   0
 -10   2  -9  256.42    2.96   0
 -10   3 -11   41.10    2.75   0
  -9  -1 -13   36.06    1.72   0
  -9   1  -7  711.64    3.41   0
  -9   3  -8  145.73    2.55   0
  -8   4  -9   85.08    2.90   0
  -7  -2 -13   14.26    1.23   0
  -7   0  -5  493.88    2.21   0
  -7   1  -4  172.91    1.37   0
  -7   2  -4  202.56    1.65   0
  -7   3  -5  128.87    1.67   0
  -7   4  -7  140.34    2.59   0
  -6  -1  -6  245.59    1.31   0
  -4   0  -2  229.22    1.06   0
  -4   2  -1  894.16    2.50   0
   1   4  -1  137.50    1.12   0
   4  -1  -1 2737.51    3.65   0
   4   5  -3  355.94    1.98   0
   5  -1  -1 6292.54    6.00   0
   5   5  -3    1.02    0.67   0
   7   0   0  316.91    1.59   0
   8  -3  -8  262.13    2.54   0
   8  -2  -4  150.23    1.55   0
   9   1   0  870.78    2.76   0
  10  -3  -9  343.31    3.38   0
  10  -2  -5   28.48    1.61   0
  10   3  -1  108.48    1.12   0
  11   4  -3   38.70    0.98   0
  13  -2  -7   40.62    2.23   0
  13   1  -2    6.76    1.26   0
  13   2  -2  308.63    2.29   0
  14  -2  -8   63.70    2.79   0
  15  -2  -9  157.32    3.74   0
  15  -1  -6    1.80    1.67   0
 -11   1 -12    6.12    2.01   0
 -11   2 -12  136.72    3.73   0
 -10   0 -11   -0.37    1.62   0
 -10   1  -9   48.34    1.69   0
 -10   3 -10    2.25    2.18   0
  -9  -1 -12   64.75    1.56   0
  -9   0  -8  629.11    3.10   0
  -8  -1  -9   24.50    1.15   0
  -8   1  -5 1063.55    3.56   0
  -8   2  -5  685.88    3.08   0
  -8   3  -6  157.39    2.33   0
  -6  -2 -10  337.88    1.72   0
  -5   4  -4  126.30    1.89   0
  -4  -3 -14   52.26    0.81   0
  -4  -2  -7   23.39    0.43   0
  -3  -1  -3   57.30    0.40   0
  -1   5  -4   45.09    1.67   0
   2  -3  -8  215.68    1.42   0
   7  -3  -8  289.00    2.34   0
   7  -2  -4 1882.94    4.51   0
   7   3   0  837.90    1.57   0
  11  -3 -10   65.76    2.47   0
  11   1  -1    1.78    1.05   0
  11   2  -1  272.49    1.82   0
  12  -3 -11   14.11    2.65   0
  13   0  -3   27.49    1.28   0
  16   2  -5  130.28    2.60   0
 -11   0 -14  130.37    3.57   0
 -11   1 -11   15.01    1.80   0
 -11   2 -11   98.08    3.12   0
 -10   0 -10    4.00    1.36   0
 -10   1  -8  364.57    2.86   0
 -10   2  -8   48.39    1.91   0
 -10   3  -9  107.06    2.66   0
  -9  -1 -11    2.93    1.23   0
  -9   1  -6   10.62    1.26   0
  -9   2  -6  253.63    2.43   0
  -9   3  -7  103.58    2.32   0
  -8   0  -6 1310.83    3.77   0
  -8   4  -8   26.53    1.89   0
  -7  -2 -12   70.12    1.31   0
  -7   3  -4  715.66    3.53   0
  -7   4  -6   40.86    1.94   0
  -6   3  -3  381.63    2.38   0
  -6   4  -5  682.79    3.97   0
  -5   3  -2  223.72    1.78   0
  -4   5  -6  121.01    2.61   0
  -3   5  -5    5.04    1.43   0
   0  -3  -9  412.77    1.39   0
   5   2   1  296.56    0.82   0
   6  -3  -8   85.46    1.45   0
   6   0   0  514.21    1.79   0
   9  -3  -9  698.12    4.13   0
   9  -2  -5  398.19    2.60   0
  10  -3 -10  394.28    3.70   0
  12  -2  -7   50.86    2.07   0
  13  -2  -8   60.59    2.33   0
  14  -2  -9  222.06    3.61   0
  14  -1  -6  279.51    3.24   0
  14   3  -4  157.39    2.36   0
  15  -2 -10  133.54    3.79   0
  15  -1  -7  203.59    3.31   0
  16  -1  -8   20.17    2.45   0
 -11   0 -13    1.46    2.05   0
 -11   1 -10   22.09    1.80   0
 -11   2 -10  282.10    3.62   0
  -9   0  -7  157.29    1.70   0
  -8   2  -4  406.84    2.49   0
  -8   3  -5  209.03    2.40   0
  -8   4  -7    2.22    2.01   0
  -7   1  -3  199.49    1.53   0
  -7   2  -3  106.85    1.40   0
  -6   2  -2   22.87    0.90   0
  -5  -2  -8  597.57    1.68   0
  -3   2   0  661.09    1.91   0
  -2   5  -4   47.33    1.61   0
   0   2   1 2977.13    2.62   0
   4  -3  -8  210.08    1.63   0
   4   1   1 2127.04    2.27   0
   5  -3  -8   41.09    1.10   0
   8  -3  -9  335.73    2.89   0
   8  -2  -5   73.93    1.37   0
   8   1   0  992.86    2.63   0
  10  -2  -6  476.48    3.12   0
  11  -3 -11   17.40    2.30   0
  11   3  -2   33.89    1.04   0
  12  -3 -12   29.06    2.53   0
  12   1  -2   66.91    1.43   0
  12   2  -2  330.23    2.22   0
  12   4  -4   39.12    1.41   0
 -11   0 -12  235.46    3.11   0
 -10   0  -9    1.82    1.30   0
 -10   1  -7  465.82    2.99   0
 -10   2  -7   25.28    1.32   0
 -10   3  -8   98.61    2.54   0
  -9  -1 -10   59.95    1.48   0
  -9   2  -5   28.12    1.34   0
  -9   3  -6   16.04    1.66   0
  -9   4  -8   25.72    2.38   0
  -8  -2 -15   45.17    1.75   0
  -8  -1  -8  138.87    1.38   0
  -8   1  -4 1816.76    4.48   0
  -7   0  -4  179.84    1.39   0
  -7   4  -5  133.95    2.26   0
  -6   4  -4  451.75    3.11   0
  -5   5  -6   64.89    2.47   0
  -4   3  -1  421.57    2.07   0
  -4   5  -5    6.31    1.69   0
  -3   0  -1 4136.14    3.40   0
  -2   3   0  431.77    1.69   0
  -1  -3 -10  415.45    1.20   0
  -1   4  -1  842.76    2.82   0
   3  -2  -4  422.05    1.54   0
   5   0   0  503.40    1.58   0
   7  -3  -9  218.97    2.24   0
   8   2   0   16.79    0.64   0
   9  -3 -10   81.59    2.22   0
   9   3  -1  278.46    1.39   0
  10  -3 -11  109.68    2.55   0
  10   1  -1   91.10    1.29   0
  11  -2  -7   21.07    1.74   0
  12  -3 -13   65.82    3.04   0
  12  -1  -5  762.15    3.82   0
  13   0  -4    7.51    1.51   0
  13   1  -3   89.76    1.80   0
  13   2  -3   74.72    1.61   0
  14  -2 -10  130.06    3.40   0
  15  -1  -8  218.20    3.32   0
  15   0  -6    2.36    1.79   0
  16  -1  -9   13.01    2.65   0
  16   0  -7   22.26    2.60   0
 -12   1 -12   17.12    2.16   0
 -11   0 -11  602.40    4.21   0
 -11   1  -9  102.83    2.10   0
 -11   2  -8   51.30    2.01   0
 -10  -1 -13   99.60    2.16   0
 -10   2  -6   17.53    1.40   0
 -10   3  -7   72.26    2.33   0
  -9   1  -5  628.64    3.03   0
  -8  -2 -14  185.26    2.48   0
  -8   0  -5 1834.49    4.27   0
  -8   3  -4  251.94    2.46   0
  -8   4  -6   33.34    2.07   0
  -7  -2 -11  513.28    2.47   0
  -7   3  -3  701.12    3.34   0
  -6  -1  -5   78.02    0.87   0
  -6   3  -2  256.03    1.97   0
  -5   1  -1   39.53    0.80   0
  -5   4  -3   73.33    1.53   0
  -3   1   0  691.54    1.66   0
  -2  -3 -11  410.16    1.03   0
  -1   5  -3   53.14    1.50   0
   1  -3  -9   78.39    0.90   0
   3   1   1   76.84    0.39   0
   6  -3  -9  214.86    2.03   0
   7  -2  -5  592.38    2.67   0
   8  -3 -10  217.69    2.60   0
   8   0  -1   36.17    0.73   0
   9  -2  -6  302.27    2.35   0
  10   0  -2 2149.45    4.77   0
  10   2  -1  279.10    1.67   0
  11  -3 -12   33.63    2.26   0
  13  -2  -9   91.23    2.21   0
  13  -1  -6    0.13    1.50   0
  14  -1  -7  226.81    2.87   0
  14   2  -4   40.74    1.59   0
  16   2  -6   77.45    2.57   0
 -12   1 -11   30.00    2.07   0
 -12   2 -10  108.40    2.89   0
 -11   0 -10  296.53    2.92   0
 -11   1  -8   31.30    1.63   0
 -11   3  -9   75.37    2.43   0
 -10  -1 -12  189.55    2.52   0
 -10   0  -8    8.06    1.18   0
 -10   1  -6  248.23    2.32   0
  -9   0  -6  110.23    1.54   0
  -9   3  -5  203.18    2.59   0
  -9   4  -7  126.60    3.11   0
  -8   2  -3   37.06    1.19   0
  -7  -1  -6   78.34    0.91   0
  -7   2  -2  372.98    2.11   0
  -5  -1  -4 1888.42    2.78   0
  -5   5  -5   31.92    1.86   0
  -4   4  -2   -0.42    1.03   0
  -1  -2  -5  494.47    0.80   0
  -1   2   1 1439.80    2.10   0
   5  -3  -9  114.69    1.49   0
   7   1   0  121.87    1.00   0
   9  -3 -11   20.06    2.05   0
  10  -3 -12   53.74    2.31   0
  10  -2  -7  467.20    3.14   0
  10   4  -3   92.39    1.14   0
  11  -3 -13  104.52    3.20   0
  12   3  -3  143.94    1.67   0
  14  -2 -11   26.92    2.70   0
  16  -1 -10   17.79    2.57   0
  16   0  -8  168.69    3.22   0
 -12   1 -10  303.78    3.31   0
 -10  -1 -11   70.49    1.86   0
 -10   3  -6  217.56    2.87   0
  -9  -1  -9  228.19    1.92   0
  -9   2  -4    8.93    0.90   0
  -8  -2 -13   86.62    1.63   0
  -8  -1  -7   61.40    1.06   0
  -8   1  -3  408.38    2.24   0
  -8   4  -5   24.65    1.84   0
  -7   4  -4  183.65    2.45   0
  -6   2  -1  104.37    1.22   0
  -6   4  -3  132.01    1.96   0
  -5   3  -1    3.98    0.87   0
  -4   5  -4   16.54    1.57   0
   2  -3  -9  169.70    1.25   0
   3   0   0 2270.67    2.39   0
   4  -3  -9  146.84    1.50   0
   4   2   1  889.87    1.03   0
   7  -3 -10   59.58    1.68   0
   7   0  -1    4.43    0.62   0
   8  -2  -6  237.57    2.02   0
   9   0  -2 1723.31    4.10   0
   9   1  -1 1386.26    3.39   0
  11  -2  -8    2.61    1.44   0
  11   2  -2  292.64    1.92   0
  12  -2  -9  263.18    3.15   0
  12  -1  -6  648.87    3.61   0
  12   1  -3  111.91    1.69   0
  13  -2 -10  246.86    3.10   0
  13  -1  -7   71.84    1.96   0
  13   0  -5  145.05    2.15   0
  13   3  -4  450.47    2.87   0
  14  -1  -8  187.38    2.87   0
  15  -1  -9  148.47    2.73   0
  15   0  -7   51.59    2.31   0
  16   1  -7   30.92    2.37   0
 -12   0 -12    1.52    2.07   0
 -12   1  -9  287.11    3.04   0
 -12   2  -9  224.53    3.17   0
 -11   0  -9  112.23    2.03   0
 -11   1  -7   77.30    1.78   0
 -11   3  -7  112.04    2.56   0
 -10   0  -7   22.73    1.27   0
 -10   2  -5  110.96    1.65   0
  -9   1  -4 2424.30    5.52   0
  -9   3  -4  380.93    2.99   0
  -9   4  -6  144.36    2.94   0
  -8   3  -3  645.92    3.45   0
  -7  -2 -10  443.86    2.05   0
  -7   3  -2  260.14    2.15   0
  -5   4  -2  206.73    2.04   0
  -4   1   0 3005.75    3.86   0
  -3   4  -1   68.57    1.22   0
   6  -3 -10  236.72    2.14   0
   6   3   0  445.47    1.00   0
   8  -3 -11  314.18    3.14   0
   9  -3 -12  261.61    3.25   0
   9  -2  -7  339.11    2.47   0
  10  -3 -13  110.41    2.91   0
  10   3  -2    8.31    0.77   0
  11  -3 -14   33.72    2.61   0
  13  -2 -11  251.59    3.57   0
  13   1  -4   79.40    1.68   0
  14  -2 -12   31.95    2.64   0
  15   1  -6    1.31    1.36   0
  15   2  -6   62.51    2.23   0
 -12   0 -11  145.98    2.61   0
 -12   2  -8    1.88    2.03   0
 -11   2  -6  239.88    2.72   0
 -10  -1 -10   23.13    1.34   0
 -10   1  -5  143.85    1.65   0
 -10   3  -5  314.53    3.12   0
  -9  -1  -8  458.35    2.45   0
  -9   0  -5  183.07    1.71   0
  -9   2  -3    7.88    1.11   0
  -8  -2 -12   20.78    1.12   0
  -8   2  -2   55.45    1.18   0
  -8   4  -4   28.51    1.58   0
  -7   0  -3  175.15    1.28   0
  -7   4  -3   75.49    1.68   0
  -6   1  -1  844.98    2.58   0
  -6   3  -1  735.99    3.01   0
  -6   5  -5   20.62    1.97   0
  -5   2   0   57.67    0.90   0
  -5   5  -4    9.24    1.69   0
  -4   3   0  428.46    2.01   0
  -3   5  -3   69.01    1.77   0
  -2   2   1  652.69    1.62   0
   0  -3 -10  145.45    1.02   0
   0   3   1  119.10    0.76   0
   1   5  -2    6.73    0.88   0
   2   0   0    4.96    0.21   0
   5  -3 -10  171.53    1.97   0
   7  -3 -11   19.11    1.52   0
   7  -2  -6  283.14    2.02   0
   7   2   0  213.50    1.02   0
   9   2  -1 1121.50    2.76   0
  10  -2  -8  281.98    2.66   0
  10   0  -3 3225.93    5.92   0
  10   1  -2   69.83    1.20   0
  11  -2  -9   18.30    1.73   0
  11   4  -4   39.02    1.19   0
  12  -2 -10  245.65    3.26   0
  13   2  -4   98.17    1.69   0
  14  -2 -13   72.05    3.50   0
  14  -1  -9   11.26    1.82   0
  15  -1 -10   36.02    1.93   0
  16   0  -9  600.71    5.23   0
 -12   1  -8  184.05    2.65   0
 -12   2  -7   14.17    1.81   0
 -11  -1 -13   13.72    1.78   0
 -11   0  -8   44.96    1.58   0
 -11   1  -6   17.19    1.53   0
 -11   3  -6   10.54    2.05   0
 -10   2  -4  162.63    2.09   0
 -10   4  -6   59.78    2.55   0
  -9   4  -5   55.88    2.18   0
  -7   2  -1  303.89    1.86   0
  -6   0  -2  265.58    1.36   0
  -6   4  -2   63.65    1.58   0
  -4  -1  -3  218.46    0.81   0
  -4   5  -3  146.81    2.31   0
  -1   3   1  514.76    1.61   0
   0   4   0  250.75    1.40   0
   1   4   0  315.25    1.35   0
   2   3   1   91.15    0.44   0
   3  -1  -2  742.34    1.68   0
   4  -3 -10  228.39    1.93   0
   6   0  -1    5.24    0.58   0
   6   1   0  473.38    1.51   0
   8  -3 -12  175.45    2.66   0
   8   3  -1  266.84    1.23   0
   9  -3 -13  327.86    3.76   0
  10  -3 -14   38.38    2.39   0
  11   3  -3  156.57    1.60   0
  12  -1  -7   15.16    1.51   0
  12   4  -5    3.14    1.27   0
  13  -2 -12  171.95    3.44   0
  13  -1  -8   38.44    1.80   0
  14   0  -7    5.20    1.84   0
  15  -1 -11    8.78    2.18   0
  15   0  -8  341.54    3.38   0
  15   1  -7  210.70    2.76   0
 -13   1 -10   45.77    2.36   0
 -12   0 -10  342.52    3.55   0
 -12   1  -7   10.36    1.58   0
 -12   3  -7  113.03    2.91   0
 -10  -1  -9   43.71    1.38   0
 -10   1  -4  322.58    2.49   0
 -10   3  -4  316.51    2.98   0
  -9  -2 -14   39.45    1.72   0
  -9   1  -3 2920.36    5.96   0
  -9   3  -3  483.33    3.20   0
  -8  -2 -11  126.91    1.49   0
  -8  -1  -6  371.53    1.82   0
  -8   1  -2  285.28    1.93   0
  -8   3  -2  371.26    2.69   0
  -7  -1  -5  164.45    1.13   0
  -6  -2  -8  255.30    1.28   0
  -6   5  -4   75.54    2.33   0
  -5   3   0  414.75    2.12   0
  -3   2   1  729.27    1.89   0
  -2   5  -2    8.18    1.26   0
   0  -2  -5 1393.28    1.82   0
   1  -3 -10  398.44    1.73   0
   3  -2  -5  601.45    1.83   0
   6  -3 -11  209.83    2.21   0
   6  -2  -6 1164.50    3.37   0
   6  -1  -3 1817.71    3.58   0
   8  -2  -7  625.29    2.84   0
   8   1  -1  798.51    2.37   0
   9  -3 -14  160.47    3.24   0
   9  -2  -8  139.64    1.90   0
  10  -3 -15   25.55    2.83   0
  10   2  -2 1581.83    3.76   0
  11  -2 -10  130.78    2.25   0
  11   1  -3  493.64    2.56   0
  12  -2 -11  220.11    3.21   0
  12   0  -5    8.84    1.01   0
  12   1  -4  561.59    3.00   0
  12   3  -4  210.19    1.99   0
  13   0  -6  121.74    1.80   0
  13   3  -5  132.71    2.01   0
  14   3  -6  101.97    2.12   0
  16   0 -10  268.52    4.05   0
 -13   1  -9  520.63    4.23   0
 -13   2  -8    8.67    2.29   0
 -12   0  -9  230.84    2.82   0
 -11  -1 -11   11.93    1.57   0
 -11   0  -7  225.80    2.27   0
 -11   1  -5   64.04    1.76   0
 -11   3  -5  217.52    3.02   0
 -10   2  -3  247.24    2.23   0
 -10   4  -5   52.92    2.53   0
  -9  -1  -7  677.08    2.69   0
  -9   2  -2  104.11    1.49   0
  -9   4  -4    1.46    1.76   0
  -8   4  -3   37.70    1.70   0
  -7  -2  -9  295.18    1.61   0
  -7   1  -1    4.33    0.78   0
  -7   3  -1    5.88    1.15   0
  -7   4  -2   43.90    1.45   0
  -6  -1  -4  263.56    1.22   0
  -5  -2  -7  519.95    1.36   0
  -5   5  -3   23.58    1.69   0
  -2   3   1  695.14    1.99   0
  -2   4   0 1178.06    3.18   0
   2  -1  -2 2642.94    2.65   0
   5  -3 -11   83.49    1.70   0
   7  -3 -12  238.14    2.65   0
   8  -3 -13  162.69    2.70   0
   9   0  -3  210.49    1.66   0
  10  -2  -9   31.72    1.26   0
  13  -2 -13  105.21    3.05   0
  13  -1  -9  102.02    2.24   0
  14  -1 -10   45.25    1.77   0
  15  -1 -12   32.25    2.66   0
  15   2  -7   61.66    2.31   0
  16   1  -9   11.26    2.38   0
 -13   0 -11    5.16    2.05   0
 -13   1  -8  484.29    3.96   0
 -12   1  -6  336.58    3.07   0
 -12   3  -6   83.73    2.71   0
 -10   0  -5    0.06    1.02   0
 -10   3  -3  135.08    2.22   0
  -9  -2 -13  128.20    2.01   0
  -9   0  -4    4.55    0.68   0
  -8   0  -3  270.06    1.68   0
  -8   2  -1  137.29    1.51   0
  -6   3   0  418.03    2.28   0
  -4   2   1  245.84    1.28   0
  -3   3   1 1428.20    3.03   0
  -3   5  -2   44.78    1.47   0
  -2   1   1 3203.26    3.02   0
   4  -3 -11   44.43    1.39   0
   6  -3 -12  106.52    1.88   0
   7  -2  -7  945.97    3.43   0
   8  -3 -14  167.07    3.00   0
   9  -3 -15   12.16    2.48   0
  11  -2 -11  126.34    2.43   0
  11   2  -3  700.50    2.86   0
  12  -2 -12   19.48    2.14   0
  12  -1  -8  394.98    3.09   0
  12   2  -4   60.40    1.41   0
  13  -2 -14   34.37    2.92   0
  14  -1 -11   86.49    2.49   0
 -13   0 -10   13.96    2.08   0
 -13   2  -7   50.33    2.05   0
 -12   0  -8  100.81    2.10   0
 -11   0  -6  247.75    2.24   0
 -11   3  -4  344.10    3.36   0
 -10  -1  -8  370.01    2.37   0
 -10   1  -3 1203.55    4.21   0
 -10   4  -4   27.13    2.17   0
  -9   1  -2  797.85    3.20   0
  -9   3  -2  122.18    1.71   0
  -9   4  -3   20.59    1.70   0
  -8  -2 -10  768.01    2.98   0
  -8   3  -1  320.91    2.44   0
  -7   0  -2   87.79    0.99   0
  -6   4  -1  192.31    2.12   0
  -4   5  -2  116.46    1.94   0
  -1  -3 -11  580.93    1.74   0
   6   2   0   35.78    0.53   0
   7  -3 -13  272.45    3.02   0
   7   0  -2  228.51    1.36   0
   8  -2  -8  294.63    2.21   0
   9  -3 -16    4.67    2.66   0
   9  -2  -9   58.72    1.58   0
   9   3  -2   89.06    0.98   0
   9   4  -3  261.42    1.52   0
  10  -2 -10   42.17    1.70   0
  11   0  -5  111.88    1.64   0
  12  -2 -13  124.85    2.93   0
  12   0  -6    4.08    1.35   0
  13   0  -7  265.42    2.41   0
  15  -1 -13   25.68    2.55   0
  15   0 -10  150.84    3.06   0
  16   1 -10   15.68    2.45   0
 -13   1  -7  342.43    3.49   0
 -12  -1 -12   18.36    1.92   0
 -12   1  -5  477.86    3.32   0
 -12   3  -5  127.20    2.74   0
 -11   1  -4  162.61    1.90   0
 -11   2  -3  229.38    2.37   0
 -10   2  -2  466.94    2.83   0
  -9  -2 -12   88.48    1.65   0
  -8  -1  -5  999.90    2.77   0
  -8   1  -1 1104.17    3.38   0
  -8   4  -2   88.57    1.94   0
  -5  -1  -3 1630.66    2.44   0
  -5   5  -2    1.05    1.43   0
  -4   3   1  498.43    2.08   0
  -4   4   0   38.54    1.12   0
   5  -3 -12  219.68    2.19   0
   5   1   0 4306.44    3.84   0
   6  -3 -13  170.43    2.46   0
   6  -2  -7 2260.66    4.72   0
   7  -3 -14  186.63    2.86   0
   7   1  -1  750.70    2.09   0
   8  -3 -15   94.14    2.78   0
  10   1  -3  155.18    1.50   0
  11  -2 -12   78.34    2.23   0
  11   1  -4  691.86    3.02   0
  12  -1  -9  630.24    3.71   0
  12   1  -5  762.39    3.45   0
  13  -1 -10    8.78    1.36   0
  13   1  -6    1.57    1.42   0
  14  -1 -12  121.75    2.92   0
  14   3  -7   65.32    1.97   0
  15   2  -8  128.74    2.68   0
 -13   0  -9   32.93    2.06   0
 -12   0  -7   20.72    1.40   0
 -11  -1  -9  122.32    1.82   0
 -11   3  -3  354.52    3.28   0
 -10  -1  -7  434.51    2.54   0
 -10   0  -4   72.46    1.34   0
 -10   3  -2  210.74    2.47   0
  -9  -1  -6   11.89    0.82   0
  -9   0  -3   26.97    0.99   0
  -9   2  -1  290.66    2.07   0
  -7  -1  -4  184.45    1.19   0
  -7   3   0  801.53    3.22   0
  -7   4  -1   71.06    1.66   0
  -7   5  -3  273.01    3.63   0
  -5   4   0  117.64    1.52   0
  -2   0   0    5.05    0.22   0
  -2   5  -1   50.42    1.34   0
   0  -3 -11  331.19    1.53   0
   0   5  -1   71.50    1.18   0
   1  -3 -11  183.43    1.38   0
   4  -3 -12  178.59    2.02   0
   7  -2  -8  976.25    3.53   0
   8  -3 -16   12.81    2.42   0
   8   0  -3   33.35    0.86   0
  10  -2 -11  112.48    2.16   0
  11  -1  -8 1557.58    5.18   0
  11   3  -4  184.67    1.82   0
  11   4  -5   88.11    1.66   0
  12  -2 -14  464.25    4.84   0
  12   3  -5  159.48    1.83   0
  13   3  -6    3.02    1.35   0
  15   0 -11   14.78    2.32   0
  15   1  -9  158.42    2.69   0
 -14   1  -8  126.76    2.85   0
 -13   0  -8   43.61    1.93   0
 -13   1  -6    8.24    1.77   0
 -13   2  -5   48.83    2.21   0
 -13   3  -5   33.11    2.28   0
 -12  -1 -11   33.07    1.79   0
 -12   3  -4  111.22    2.32   0
 -11   0  -5  222.15    2.07   0
 -11   4  -4   35.44    2.25   0
 -10   4  -3   40.06    1.80   0
  -9  -2 -11  203.39    2.06   0
  -9   3  -1    4.05    1.02   0
  -9   4  -2  104.27    2.14   0
  -8   0  -2  150.50    1.29   0
  -7   1   0  121.15    1.24   0
  -6   0  -1    2.11    0.38   0
  -6   2   1  227.88    1.48   0
  -6   5  -2   27.11    1.78   0
  -4  -2  -6 1882.57    1.70   0
  -4   1   1 2759.82    3.62   0
  -3   5  -1    3.34    1.24   0
   1   5  -1   13.97    0.79   0
   4  -1  -3  903.77    2.05   0
   5  -3 -13  621.61    3.49   0
   6  -3 -14  365.87    3.28   0
   6  -1  -4  416.13    1.78   0
   7  -3 -15   60.37    2.28   0
   7   3  -1  797.54    1.80   0
   8  -2  -9   37.49    1.28   0
   9  -2 -10  107.47    1.64   0
   9   0  -4   70.97    1.17   0
  10   2  -3 1119.25    3.23   0
  11  -2 -13  191.47    3.05   0
  11   0  -6   38.99    1.30   0
  12  -2 -15  241.24    4.01   0
  13  -1 -11   13.86    1.43   0
  13   2  -6  270.06    2.60   0
  14  -1 -13   68.95    2.81   0
  14   0 -10   -0.04    1.77   0
  15   2  -9  159.80    2.90   0
 -14   1  -7  199.47    3.19   0
 -14   2  -6  129.46    3.12   0
 -12  -1 -10  307.26    3.01   0
 -12   0  -6   16.48    1.41   0
 -12   2  -3  130.51    2.18   0
 -11  -1  -8   33.76    1.23   0
 -11   2  -2  199.20    2.26   0
 -10  -2 -13   41.90    1.65   0
  -9   1  -1   28.11    1.17   0
  -8  -2  -9  709.07    2.57   0
  -8   3   0  303.70    2.27   0
  -8   4  -1   40.37    1.62   0
  -7  -2  -8  321.39    1.52   0
  -6   3   1 1004.37    3.30   0
  -6   4   0   25.54    1.28   0
  -4   5  -1   78.13    1.71   0
  -3   0   0 2336.56    2.39   0
  -2  -3 -12  183.21    1.06   0
   5  -2  -7  778.04    2.63   0
   6   0  -2 2802.98    3.86   0
   7  -3 -16   12.74    2.23   0
   8   1  -2  377.73    1.69   0
  10  -2 -12   24.25    1.81   0
  11   2  -4  352.22    2.18   0
  12  -2 -16   23.13    2.90   0
  12  -1 -10  299.58    2.62   0
  13  -1 -12   16.45    2.04   0
  13   1  -7   78.21    1.86   0
  14  -1 -14    6.62    2.61   0
  14   3  -8   99.39    2.30   0
  15   0 -12   78.43    2.89   0
 -13   1  -5  263.76    3.01   0
 -13   3  -4  105.40    2.87   0
 -12   3  -3   58.88    2.15   0
 -11   3  -2  163.88    2.25   0
 -11   4  -3   46.90    2.44   0
 -10   3  -1  121.80    2.06   0
 -10   4  -2   41.93    1.97   0
  -9  -1  -5  638.75    2.44   0
  -9   2   0  181.29    1.73   0
  -7   2   1  184.74    1.53   0
  -7   4   0   59.44    1.59   0
  -7   5  -2   93.17    2.52   0
  -6  -2  -7   21.60    0.52   0
  -6  -1  -3 1558.43    2.69   0
  -5   1   1 7029.95    6.25   0
  -5   5  -1    1.58    1.47   0
  -3   4   1  292.11    1.85   0
  -2   4   1  427.97    1.89   0
  -1   4   1  126.95    1.09   0
   2  -2  -6  413.39    1.47   0
   3   2   1 1149.73    0.87   0
   4  -3 -13  202.08    2.18   0
   5  -3 -14  320.97    2.88   0
   5   3   0  420.82    0.87   0
   6  -3 -15  211.48    2.97   0
   6  -2  -8 1055.95    3.39   0
   7  -3 -17   63.17    2.85   0
   7  -2  -9  397.14    2.44   0
   7   2  -1  190.66    1.11   0
   8  -2 -10   61.15    1.52   0
   9  -2 -11  215.19    2.44   0
   9   1  -3   90.31    1.18   0
  10   1  -4  130.42    1.41   0
  11  -2 -14  147.99    2.88   0
  11  -1  -9 1172.55    4.39   0
  11   1  -5  592.83    2.84   0
  13   0  -9   87.20    2.05   0
  14  -1 -15   51.96    2.95   0
  14   0 -11   64.18    2.19   0
  14   1  -9   16.65    1.66   0
  14   2  -8   61.50    2.15   0
  15   0 -13  103.84    3.01   0
 -14   0  -9   21.57    2.01   0
 -14   1  -6  105.97    2.83   0
 -14   2  -5    1.99    2.12   0
 -12  -1  -9  315.85    2.97   0
 -12   0  -5    9.62    1.31   0
 -12   1  -3   85.60    1.93   0
 -11  -1  -7   63.63    1.54   0
 -11   1  -2   28.55    1.45   0
 -10  -2 -12    4.62    1.32   0
 -10  -1  -6  253.00    1.85   0
 -10   0  -3  674.06    2.73   0
  -9  -2 -10  195.95    1.80   0
  -9   0  -2   51.59    1.09   0
  -9   3   0  167.15    2.06   0
  -9   4  -1  162.15    2.39   0
  -8  -1  -4 1721.42    3.45   0
  -7   0  -1 1330.99    2.87   0
  -7   3   1  799.77    3.16   0
  -6   5  -1  123.26    2.33   0
  -4   0   0 3250.85    3.29   0
  -3   2   2  548.06    1.65   0
  -2   2   2   46.49    0.56   0
  -1  -3 -12  166.08    1.27   0
  -1   2   2 1642.80    2.20   0
   0   4   1  133.30    0.98   0
   1  -3 -12   85.33    1.19   0
   3  -3 -13  195.52    2.14   0
   3  -1  -3   59.34    0.58   0
   5  -1  -4  605.16    1.92   0
   6  -3 -16  104.95    2.57   0
   6   1  -1 1282.45    2.42   0
   7   0  -3 2548.33    4.12   0
  10  -2 -13   73.20    2.22   0
  11  -2 -15  126.60    3.06   0
  12  -1 -11  250.46    2.82   0
  12   0  -8  211.91    2.29   0
  13  -1 -13    5.93    2.08   0
  13   2  -7   39.84    1.73   0
  13   3  -7  167.92    2.29   0
  15   2 -10  127.04    2.96   0
 -14   0  -8   46.96    2.21   0
 -13   0  -6    3.22    1.55   0
 -13   1  -4  444.65    3.74   0
 -13   3  -3   44.92    2.31   0
 -12   2  -2  367.76    3.06   0
 -12   3  -2   68.36    2.20   0
 -11   2  -1  536.16    3.16   0
 -11   3  -1   75.57    2.03   0
 -11   4  -2   95.57    2.68   0
 -10   1  -1  358.54    2.35   0
  -8   2   1  143.00    1.54   0
  -8   4   0   10.60    1.45   0
  -5   4   1   35.11    1.12   0
  -4   2   2   27.99    0.64   0
  -4   3   2  693.82    2.27   0
  -3   3   2 1063.20    2.51   0
  -2   3   2  379.80    1.41   0
   0  -3 -12  143.70    1.24   0
   4  -3 -14  215.20    2.42   0
   4   1   0 2835.50    2.62   0
   5  -3 -15   53.54    1.99   0
   6  -3 -17   40.42    2.48   0
   8   0  -4   17.24    0.79   0
   8   3  -2  400.37    1.56   0
   9  -2 -12   95.55    1.97   0
  10  -2 -14  235.66    3.07   0
  10   0  -6  539.28    2.66   0
  11  -2 -16  117.10    3.22   0
  11  -1 -10  213.99    2.39   0
  11   0  -7   19.81    1.17   0
  12  -1 -12    0.49    1.65   0
  12   3  -6  136.37    1.81   0
  13  -1 -14   36.97    2.33   0
  14   0 -12   31.07    2.29   0
  15   0 -14   84.28    3.31   0
 -14   1  -5   30.30    2.11   0
 -14   2  -4   48.18    2.22   0
 -13  -1 -10   59.68    2.04   0
 -12  -1  -8  187.42    2.23   0
 -10  -2 -11  105.65    1.83   0
 -10   2   0   15.17    1.13   0
 -10   3   0  147.86    2.12   0
 -10   4  -1   19.27    1.65   0
  -9   1   0  849.25    3.19   0
  -8   3   1  208.18    1.79   0
  -7   5  -1    7.71    1.74   0
  -6   4   1   42.11    1.28   0
  -5   0   0  501.14    1.52   0
  -5   2   2  113.37    1.03   0
  -5   3   2  741.77    2.56   0
  -3  -1  -2  159.76    0.51   0
  -3   5   0  347.94    2.50   0
   1   4   1  806.53    1.72   0
   3  -3 -14  147.47    2.18   0
   4  -3 -15  167.17    2.51   0
   5  -3 -16   44.66    2.20   0
   5  -2  -8  692.52    2.58   0
   5   0  -2   55.60    0.66   0
   5   2   0   57.47    0.50   0
   6  -2  -9  375.55    2.29   0
   6  -1  -5   30.10    0.78   0
   7  -2 -10  225.02    2.01   0
   8  -2 -11   54.38    1.43   0
   8   4  -3  571.31    2.04   0
   9   3  -3  102.97    1.10   0
  10  -1  -9  137.15    1.84   0
  10   3  -4  189.23    1.61   0
  11  -2 -17   84.08    3.31   0
  11   2  -5  154.90    1.64   0
  11   3  -5   59.65    1.32   0
  12   0  -9  481.31    3.13   0
  12   1  -7   10.25    1.42   0
  14   1 -10   46.99    2.03   0
  15   1 -12   35.67    2.36   0
 -15   1  -6    6.34    2.10   0
 -14   0  -7  401.12    3.75   0
 -13   0  -5  119.87    1.92   0
 -13   2  -2  208.02    2.70   0
 -13   3  -2   60.30    2.23   0
 -12   0  -4    0.22    1.27   0
 -12   2  -1  100.29    1.92   0
 -12   3  -1   81.49    2.09   0
 -11  -1  -6   20.39    1.04   0
 -11   0  -3   25.14    1.12   0
 -11   1  -1   15.07    1.33   0
 -10  -1  -5  135.71    1.40   0
 -10   0  -2  924.85    3.27   0
  -9  -2  -9  279.89    1.93   0
  -9   2   1 1119.97    3.71   0
  -9   3   1  271.11    2.32   0
  -9   4   0   69.13    1.96   0
  -8  -2  -8  380.53    1.75   0
  -7  -1  -3  200.76    1.16   0
  -7   4   1  165.87    2.03   0
  -6   2   2  691.49    2.41   0
  -6   3   2  465.36    2.27   0
  -5   5   0    0.44    1.28   0
  -4   5   0    4.39    1.12   0
  -1   5   0   14.94    0.91   0
   0   3   2  139.33    0.71   0
   1  -3 -13   20.53    1.08   0
   3   0  -1  141.78    0.64   0
   5  -3 -17  186.10    3.27   0
   7  -1  -6   34.26    0.90   0
   7   1  -2   67.76    0.80   0
   9  -2 -13   92.84    2.01   0
   9   2  -3  269.86    1.58   0
   9   4  -4  395.32    2.07   0
  10  -2 -15  265.56    3.25   0
  10   2  -4  421.48    2.15   0
  10   4  -5    4.73    1.02   0
  11  -1 -11   11.39    1.55   0
  12  -1 -13   37.82    2.09   0
  13  -1 -15  191.39    3.14   0
  13   0 -11  713.25    4.40   0
  13   1  -9  111.27    2.03   0
  13   2  -8   44.97    1.80   0
  13   3  -8  229.51    2.59   0
  14   0 -13    4.91    2.21   0
  15   1 -13   31.86    2.49   0
 -15   2  -4   79.39    2.78   0
 -14   1  -4   10.09    1.81   0
 -14   2  -3  333.77    3.76   0
 -13  -1  -9  507.66    3.91   0
 -12  -1  -7   12.95    1.26   0
 -11   2   0  315.08    2.53   0
 -11   3   0   40.27    1.82   0
 -11   4  -1   12.75    1.76   0
 -10   4   0    6.78    1.50   0
  -9  -1  -4 2220.45    4.19   0
  -8   1   1  796.43    2.72   0
  -7  -2  -7  545.99    1.81   0
  -7   2   2  449.78    2.17   0
  -7   3   2  470.70    2.41   0
  -6   5   0  252.31    2.65   0
  -5  -2  -6  628.62    1.25   0
  -4  -1  -2  102.09    0.54   0
   0  -3 -13   21.25    0.97   0
   0  -2  -6  154.48    0.74   0
   0   5   0   -0.28    0.69   0
   3  -3 -15   34.14    1.82   0
   4  -3 -16  185.95    2.75   0
   4  -1  -4  897.56    2.11   0
   5  -3 -18   83.78    3.17   0
   7   5  -4    6.81    0.69   0
   8  -2 -12   33.49    1.57   0
   8   1  -3  102.84    1.06   0
   9  -2 -14  177.88    2.61   0
   9   1  -4  157.46    1.40   0
  10  -2 -16   41.26    2.26   0
  10  -1 -10   77.94    1.69   0
  10   1  -5   97.28    1.40   0
  11   0  -8    1.50    0.85   0
  13  -1 -16  258.78    4.02   0
  14   0 -14    2.81    2.35   0
  14   1 -11   90.19    2.48   0
 -15   1  -5   27.80    2.38   0
 -14   0  -6   92.01    2.22   0
 -12   0  -3  106.28    1.68   0
 -11  -2 -12  123.57    2.36   0
 -10  -2 -10  224.96    2.11   0
 -10   2   1  260.41    2.16   0
 -10   3   1  102.24    1.80   0
  -9   0  -1    9.17    0.83   0
  -8  -1  -3  397.32    1.75   0
  -8   4   1  171.76    2.20   0
  -7   5   0  175.08    2.63   0
  -5  -1  -2  654.30    1.52   0
  -2  -3 -13   58.58    0.93   0
   4  -3 -17   88.99    2.66   0
   4  -2  -8  668.36    2.33   0
   5  -2  -9  549.80    2.42   0
   6  -2 -10  211.28    1.84   0
   6   0  -3 1541.01    2.90   0
   7  -2 -11   86.92    1.54   0
   9  -2 -15  221.98    3.04   0
   9   0  -6 1334.78    3.67   0
  10  -2 -17   67.81    2.69   0
  11  -1 -12  339.53    3.05   0
  12  -1 -14   11.01    1.54   0
  12   0 -10  663.96    3.72   0
  12   1  -8  393.81    2.87   0
  12   2  -7   49.12    1.57   0
  12   3  -7  211.34    2.36   0
  13   0 -12  196.76    2.87   0
  14   0 -15   19.24    2.44   0
 -15   0  -7   74.74    2.61   0
 -15   2  -3   65.78    2.83   0
 -14   1  -3   22.04    1.95   0
 -14   2  -2  443.20    4.14   0
 -14   3  -2    4.42    1.98   0
 -13  -1  -8  522.95    3.68   0
 -13   0  -4  487.74    3.16   0
 -13   1  -2   35.56    1.44   0
 -13   2  -1  138.70    2.33   0
 -13   3  -1   19.64    1.89   0
 -12   2   0   13.84    1.39   0
 -12   3   0   62.33    2.03   0
 -11  -1  -5   49.50    1.33   0
 -11   0  -2  720.83    3.07   0
 -11   4   0   97.05    2.37   0
  -9   1   1 1434.35    3.91   0
  -9   4   1   17.14    1.60   0
  -8   2   2  595.10    2.50   0
  -6   4   2   56.43    1.38   0
  -4   1   2  459.66    1.49   0
  -4   4   2  142.67    1.43   0
  -3   4   2  104.22    1.14   0
  -2   4   2   62.22    0.92   0
   1  -3 -14  126.34    1.74   0
   3  -3 -16   76.32    2.06   0
   4  -3 -18  106.01    3.04   0
   5  -1  -5 1256.43    2.78   0
   5   4  -1   33.35    0.40   0
   8  -2 -13  114.44    1.78   0
   8   0  -5   10.36    0.79   0
  10  -1 -11  368.86    2.74   0
  11  -1 -13  290.83    2.97   0
  11   0  -9    2.45    1.26   0
  11   1  -7  587.43    2.92   0
  11   2  -6  126.14    1.58   0
  12  -1 -15   27.45    2.21   0
  13   0 -13   28.82    1.97   0
  13   1 -10    6.87    1.54   0
  13   2  -9  102.48    2.26   0
  14   2 -11   39.33    2.37   0
 -15   1  -4   12.31    1.94   0
 -14   0  -5   56.02    1.82   0
 -12  -1  -6  338.89    2.46   0
 -11  -2 -11   91.08    1.90   0
 -11   1   0   65.96    1.26   0
 -11   2   1  279.75    2.45   0
 -11   3   1   94.38    2.06   0
 -10  -1  -4  307.52    1.86   0
 -10   0  -1  624.57    2.71   0
 -10   4   1   71.05    1.93   0
  -9  -2  -8  209.49    1.58   0
  -9   2   2  537.44    2.69   0
  -8   0   0   22.66    0.79   0
  -7   4   2  111.18    1.75   0
  -6  -1  -2 1831.95    2.83   0
  -6   1   2 2781.61    4.23   0
  -1  -2  -6  225.07    0.71   0
   0  -3 -14  116.41    1.50   0
   3  -3 -18  151.04    3.56   0
   3  -3 -17  131.96    2.77   0
   6   3  -1  997.42    1.82   0
   7  -2 -12   48.79    1.42   0
   8  -2 -14  228.35    2.64   0
   9  -2 -17   73.20    2.54   0
   9  -2 -16  426.92    3.70   0
  10   2  -5   29.38    1.01   0
  12  -1 -16   11.62    2.21   0
  12   0 -11  237.58    2.55   0
  14   1 -13   74.13    2.74   0
 -15   0  -6  206.37    3.14   0
 -15   2  -2  207.31    3.42   0
 -14   1  -2   28.29    1.99   0
 -14   2  -1  153.76    2.72   0
 -14   3  -1   51.47    2.65   0
 -13  -1  -7  316.67    2.95   0
 -13   0  -3  391.19    2.91   0
 -13   1  -1   22.97    1.62   0
 -13   2   0  257.19    2.83   0
 -13   3   0   44.18    2.18   0
 -12   0  -2   21.08    1.21   0
 -12   4   0    1.44    2.04   0
 -10  -2  -9  252.75    1.99   0
 -10   1   1   92.16    1.41   0
 -10   3   2    6.92    1.14   0
  -9  -1  -3 2613.80    4.51   0
  -8  -2  -7   23.67    0.73   0
  -8   4   2  575.96    3.43   0
  -7   1   2   68.98    0.99   0
  -6  -2  -6  401.44    1.24   0
  -6   5   1  131.21    2.11   0
  -5   2   3  127.90    1.10   0
  -5   3   3  211.99    1.47   0
  -5   5   1   19.11    1.30   0
  -4   2   3  184.62    1.13   0
  -4   3   3  509.68    1.90   0
  -4   5   1  121.42    1.66   0
  -3  -3 -14   80.13    1.15   0
  -3   3   3  319.69    1.44   0
  -2   1   2 2691.76    2.63   0
  -1  -3 -14    8.37    0.96   0
  -1   4   2  131.68    1.00   0
   1  -3 -15   44.56    1.58   0
   1   5   0   16.01    0.63   0
   4  -2  -9  233.43    1.56   0
   4   0  -2    5.53    0.35   0
   5  -2 -10  317.23    2.00   0
   6  -2 -11  190.61    1.80   0
   7  -2 -13   19.46    1.36   0
   7   2  -2  448.92    1.64   0
   8  -2 -15  294.34    3.11   0
   9  -2 -18   36.48    2.59   0
   9  -1 -10  191.46    1.93   0
   9   2  -4  873.53    2.73   0
   9   3  -4   61.29    1.08   0
  10  -1 -12  235.37    2.50   0
  10   4  -6   18.10    1.20   0
  11  -1 -14  140.26    2.52   0
  12  -1 -17   35.38    2.52   0
  12   2  -8   90.43    1.80   0
  12   3  -8  199.39    2.37   0
  13   1 -11   12.87    1.72   0
  13   2 -10  277.95    2.89   0
  14   2 -12   28.93    2.28   0
 -15   1  -3   22.44    1.68   0
 -14  -1  -8  110.02    2.38   0
 -14   0  -4  178.07    2.44   0
 -12  -1  -5  451.61    2.84   0
 -12   1   0  334.80    2.65   0
 -12   2   1  184.35    2.23   0
 -12   3   1  104.79    2.18   0
 -11  -2 -10  223.60    2.51   0
 -11   0  -1  887.04    3.37   0
 -11   4   1  247.48    3.15   0
 -10   2   2 1546.69    4.73   0
  -9   4   2  120.50    2.08   0
  -8   1   2  377.77    1.95   0
  -7  -1  -2  106.28    0.88   0
  -7   2   3  650.98    2.58   0
  -7   3   3   66.83    1.22   0
  -7   5   1  480.57    3.72   0
  -6   2   3 1454.08    3.40   0
  -2  -3 -14   86.51    1.26   0
  -2   5   1  128.66    1.53   0
   0  -3 -15   91.51    1.72   0
   1   3   2  382.60    0.84   0
   3  -1  -4   11.03    0.44   0
   6   1  -2 2624.71    3.52   0
   7   3  -2  479.82    1.59   0
   8  -2 -16   81.22    2.46   0
   8   1  -4  396.14    1.82   0
   8   2  -3  839.27    2.40   0
   9   1  -5  106.25    1.24   0
  11  -1 -15   21.93    2.11   0
  11   1  -8 1539.66    4.66   0
  12   0 -12   -0.01    1.18   0
  13   0 -15  250.32    3.73   0
  14   1 -14   15.20    1.87   0
 -15   0  -5   78.08    2.24   0
 -15   2  -1  112.00    2.70   0
 -14   2   0   13.47    1.71   0
 -14   3   0   71.45    2.58   0
 -13  -1  -6    5.69    1.29   0
 -11  -1  -4  163.62    1.60   0
 -11   1   1    1.93    1.14   0
 -11   2   2  284.91    2.41   0
 -11   3   2   30.11    1.64   0
  -8   2   3  872.15    3.12   0
  -8   3   3   86.45    1.43   0
  -2   3   3  473.47    1.50   0
  -1  -3 -15   62.31    1.52   0
   2   4   1  659.49    1.03   0
   5   0  -3  151.85    0.95   0
   6  -2 -12  515.95    2.87   0
   7  -2 -14   73.63    1.88   0
   7   1  -3   49.17    0.66   0
   8  -2 -17   33.83    2.33   0
   8   0  -6  140.54    1.33   0
   9  -1 -11  130.77    1.91   0
   9   4  -5  123.15    1.47   0
  10  -1 -13  145.44    2.24   0
  11  -1 -16   26.75    2.34   0
  11   2  -7   19.24    1.17   0
  11   3  -7  176.29    1.93   0
  12   1 -10  355.26    2.88   0
  13   1 -12   13.10    1.42   0
  13   2 -11  286.38    3.09   0
  14   1 -15   66.25    2.80   0
  14   2 -13   90.21    2.72   0
 -15   1  -2  124.45    2.71   0
 -14  -1  -7  210.67    2.67   0
 -14   0  -3  879.85    4.38   0
 -14   1  -1   14.60    1.39   0
 -13   0  -2  323.27    2.65   0
 -13   1   0   34.48    1.69   0
 -13   2   1  220.21    2.63   0
 -13   3   1    5.11    1.78   0
 -12   4   1  137.54    2.96   0
 -10  -2  -8   49.87    1.19   0
 -10  -1  -3 1040.11    3.16   0
 -10   0   0    2.07    1.00   0
 -10   4   2   47.19    1.84   0
  -9  -2  -7  190.32    1.39   0
  -9   1   2  595.82    2.56   0
  -9   2   3  270.49    2.09   0
  -9   3   3   99.62    1.59   0
  -8  -1  -2  283.26    1.45   0
  -7  -2  -6  884.42    2.09   0
  -6   0   1    5.42    0.55   0
  -6   4   3   38.81    1.20   0
  -5   0   1   54.40    0.56   0
  -5   4   3  217.74    1.70   0
  -4  -3 -15   87.15    1.39   0
  -4   0   1 1995.09    2.53   0
  -2  -3 -15   33.73    1.29   0
  -2   2   3  148.17    0.81   0
  -1   5   1   15.39    0.79   0
   0  -3 -16   24.92    1.70   0
   3   1   0  726.10    1.10   0
   5  -2 -11  374.03    2.32   0
   5  -1  -6 1610.70    3.24   0
   6   0  -4 1513.61    3.00   0
   6   4  -2   55.70    0.67   0
   7  -2 -15  156.89    2.41   0
   7   0  -5  857.92    2.47   0
   8  -2 -19  342.88    4.41   0
   8  -2 -18  148.33    3.18   0
   8  -1 -10 1181.64    3.93   0
  10  -1 -14   58.01    2.10   0
  11  -1 -18   24.12    2.44   0
  11  -1 -17   40.28    2.29   0
  11   0 -11   14.48    1.10   0
  12   2  -9  270.14    2.53   0
  12   3  -9  144.55    2.24   0
  13   0 -17   20.44    2.29   0
  13   1 -13    6.74    2.10   0
  13   3 -11   22.23    2.03   0
 -15   0  -4   52.61    1.97   0
 -13  -1  -5  236.43    2.43   0
 -12  -1  -4  410.77    2.55   0
 -12   1   1  165.54    2.04   0
 -12   2   2  340.34    2.82   0
 -12   3   2    4.45    1.54   0
 -11  -2  -9   54.33    1.46   0
 -11   4   2  194.95    2.97   0
 -10   1   2   74.65    1.35   0
 -10   3   3   34.31    1.39   0
  -8   4   3  555.54    3.37   0
  -7   0   1    3.79    0.55   0
  -7   4   3  193.12    2.06   0
  -4   4   3  119.70    1.27   0
  -3  -3 -15   98.74    1.58   0
  -2  -2  -6  281.96    0.61   0
  -1  -3 -16    4.63    1.55   0
   0  -3 -18   85.73    2.98   0
   0  -3 -17   74.74    2.45   0
   0   4   2   32.34    0.59   0
   3  -2  -9 1204.51    2.98   0
   4  -2 -10  140.27    1.33   0
   6  -2 -13  132.94    1.80   0
   7  -2 -16  141.67    2.57   0
   9  -1 -12   51.86    1.57   0
  10  -1 -15   15.87    1.98   0
  10   3  -6  298.42    2.06   0
  11   0 -12  271.02    2.59   0
  11   1  -9 1292.77    4.60   0
  13   1 -14   42.08    2.21   0
  13   2 -12  179.81    2.89   0
 -16   1  -2   20.11    2.35   0
 -15   1  -1  333.44    3.65   0
 -14  -1  -6   94.91    2.05   0
 -14   0  -2  921.33    4.33   0
 -14   2   1  209.60    2.90   0
 -14   3   1   48.86    1.97   0
 -13   3   2   82.26    2.20   0
 -12  -2 -10   86.40    1.96   0
 -12   4   2  265.33    3.47   0
 -11  -1  -3  117.45    1.39   0
 -11   0   0  549.48    2.67   0
 -11   3   3  146.41    2.16   0
 -10   2   3 1034.03    3.74   0
  -9  -1  -2  693.43    2.38   0
  -9   4   3  252.89    2.68   0
  -7   5   2  154.05    2.40   0
  -5   5   2    7.56    1.18   0
  -4  -3 -16   12.49    1.58   0
  -4   5   2  227.26    2.12   0
  -3   0   1  149.37    0.65   0
  -2  -3 -16   23.17    1.59   0
  -1  -3 -17   64.17    2.49   0
  -1   3   3  141.46    0.81   0
   1   2   2 1197.35    1.05   0
   5  -2 -12  254.46    2.11   0
   6  -2 -14   45.42    1.62   0
   7  -2 -18  129.21    2.89   0
   7  -2 -17   68.13    2.43   0
   7  -1  -9 1193.00    3.61   0
   9  -1 -13  125.85    2.11   0
   9   1  -6   18.96    0.94   0
   9   2  -5  336.88    1.90   0
  10  -1 -16   97.88    2.47   0
  10   0 -10   85.52    1.38   0
  11   2  -8    2.50    1.20   0
  11   3  -8  263.29    2.36   0
  12   0 -16   99.55    2.60   0
  12   2 -10  255.42    2.67   0
 -16   0  -4    3.47    1.79   0
 -15   0  -3  126.54    2.39   0
 -13   0  -1   25.02    1.47   0
 -13   1   1   25.46    1.59   0
 -13   2   2  298.61    2.98   0
 -11  -2  -8   47.85    1.29   0
 -10   4   3   86.94    2.17   0
  -9   0   1 1568.24    3.75   0
  -8  -2  -6  289.66    1.43   0
  -8   1   3   95.02    1.14   0
  -8   3   4  128.31    1.54   0
  -6   3   4  200.35    1.58   0
  -3  -3 -16   77.14    1.90   0
  -2  -3 -17    2.69    2.08   0
   0  -2  -7  120.86    0.74   0
   4  -2 -11  380.61    2.12   0
   6  -2 -15   42.49    1.81   0
   7  -2 -19  107.91    3.02   0
   8  -1 -11  370.27    2.30   0
   8   2  -4  144.96    1.28   0
   9   3  -5  130.65    1.34   0
  10  -1 -17  166.59    3.08   0
  10   1  -8  882.08    3.44   0
  11   1 -10  219.01    2.37   0
  11   4  -9   37.10    1.69   0
  12   0 -17   11.32    2.26   0
  12   1 -12    2.55    1.23   0
  13   1 -16  228.18    3.72   0
  13   1 -15  204.58    2.99   0
  13   2 -13  118.78    2.79   0
 -16   1  -1  151.44    3.16   0
 -14  -1  -5   23.31    1.52   0
 -14   3   2   73.73    2.61   0
 -13  -1  -4  415.45    2.78   0
 -12  -2  -9  221.42    2.48   0
 -12  -1  -3   68.84    1.47   0
 -12   0   0    3.06    1.12   0
 -12   2   3  260.72    2.56   0
 -12   3   3  114.10    2.26   0
 -11   4   3   35.53    1.98   0
 -10  -2  -7   26.62    0.90   0
 -10  -1  -2  742.37    2.65   0
 -10   0   1 1314.31    3.73   0
  -9   3   4   55.13    1.44   0
  -7   2   4 1735.95    4.04   0
  -6  -1  -1  800.57    1.87   0
  -5   2   4  318.88    1.55   0
  -4   3   4  807.14    2.29   0
  -3  -3 -17    9.41    2.12   0
  -2   4   3   74.12    0.87   0
   0   5   1   67.23    0.85   0
   2  -1  -4  930.41    1.70   0
   3  -2 -10  361.60    1.84   0
   5  -2 -13   71.63    1.49   0
   5  -1  -7  509.08    1.96   0
   6  -2 -16  112.33    2.36   0
   7  -1 -10  246.88    1.91   0
   7   0  -6   87.30    1.09   0
   7   1  -4    7.15    0.60   0
   7   5  -5   53.08    1.19   0
   8  -1 -12   56.76    1.52   0
   8   3  -4  139.54    1.30   0
   9  -1 -14   20.16    1.31   0
  10  -1 -19   32.53    2.68   0
  10  -1 -18   83.45    2.34   0
  10   2  -7  455.57    2.50   0
  11   0 -14  221.70    2.76   0
  11   2  -9   17.46    1.27   0
  12   0 -18   68.54    2.70   0
  12   1 -13   39.79    2.05   0
  12   2 -11  239.37    2.80   0
 -16   0  -3    3.47    1.94   0
 -15  -1  -6    6.01    1.63   0
 -15   0  -2  193.15    2.68   0
 -14   0  -1  604.96    3.60   0
 -14   1   1   94.81    2.08   0
 -14   2   2  119.72    2.09   0
 -13   3   3  187.65    2.89   0
 -12   4   3  185.26    3.02   0
 -10   1   3  158.66    1.61   0
 -10   2   4  441.15    2.73   0
 -10   3   4  177.48    2.03   0
  -9  -2  -6  234.98    1.50   0
  -9   2   4  781.62    3.06   0
  -8   4   4  150.37    1.95   0
  -7  -1  -1    2.59    0.48   0
  -7   4   4   64.58    1.46   0
  -6   4   4   71.92    1.43   0
  -5  -1  -1   39.91    0.49   0
  -4   2   4  140.14    1.01   0
  -2   5   2   42.19    1.05   0
   3  -1  -5  363.15    1.30   0
   3   0  -2  580.83    1.25   0
   4  -2 -12  363.31    2.28   0
   4  -1  -6  974.60    2.36   0
   4   1  -1 2494.91    2.59   0
   5  -2 -14   32.67    1.39   0
   5   2  -1   30.74    0.49   0
   6  -2 -18  100.67    2.44   0
   6  -2 -17   33.94    1.96   0
   6   0  -5   38.05    0.77   0
   6   1  -3 1678.83    2.91   0
   6   2  -2  694.04    1.82   0
   7   2  -3  651.54    1.99   0
   9  -1 -15   20.76    1.68   0
  10   0 -12   64.22    1.65   0
  10   3  -7  148.61    1.68   0
  11   0 -15   64.61    2.18   0
 -16   1   0  218.18    3.39   0
 -15   2   2   66.68    2.40   0
 -13   0   0  298.57    2.53   0
 -13   1   2    6.00    1.45   0
 -13   2   3   66.70    1.91   0
 -11  -2  -7   98.06    1.45   0
 -11  -1  -2   29.01    1.02   0
 -11   0   1   21.86    1.10   0
 -11   1   3  489.94    2.73   0
 -11   2   4  341.02    2.60   0
 -11   3   4  161.12    2.20   0
 -10   4   4   14.24    1.78   0
  -9   4   4  399.88    3.15   0
  -8  -1  -1 1073.66    2.63   0
  -7   5   3   35.26    1.61   0
  -6   5   3   11.24    1.45   0
  -5   4   4  205.20    1.66   0
  -3   3   4  194.20    1.12   0
   4   0  -3    1.10    0.35   0
   5  -2 -15  241.07    2.44   0
   5   0  -4  369.84    1.41   0
   5   1  -2 4979.94    4.34   0
   6  -2 -19  198.53    3.15   0
   6   5  -4   90.43    1.25   0
   7   3  -3   67.24    0.90   0
   8  -1 -13  603.59    3.44   0
   8   4  -5   23.70    0.98   0
   9  -1 -17   23.21    2.13   0
   9  -1 -16   15.92    1.44   0
   9   2  -6  292.97    1.85   0
  10   1  -9  142.91    1.73   0
  11   0 -16   35.01    2.04   0
  12   1 -15   27.31    2.06   0
  12   3 -12   34.67    2.23   0
 -16   0  -2    2.74    1.88   0
 -15  -1  -5   29.71    1.80   0
 -15   0  -1  311.37    3.00   0
 -15   1   1    8.38    1.74   0
 -14  -1  -4   10.93    1.34   0
 -14   2   3  171.71    2.64   0
 -14   3   3   86.43    2.56   0
 -13  -1  -3  345.26    2.57   0
 -12  -2  -8    1.47    1.18   0
 -12   0   1    4.14    1.13   0
 -12   3   4  193.45    2.63   0
 -11   4   4   35.10    1.85   0
 -10  -2  -6   23.11    0.88   0
  -9  -1  -1   22.29    0.78   0
  -8   0   2    2.31    0.67   0
  -7  -2  -5  687.42    1.78   0
  -7   0   2  231.65    1.31   0
  -6  -2  -5  791.05    1.55   0
  -5   5   3    1.20    1.06   0
  -4  -1  -1 2093.07    2.17   0
  -4   4   4   50.95    1.10   0
  -3   1   3   70.83    0.61   0
  -2   0   1  350.75    0.77   0
   3  -2 -11  193.90    1.53   0
   4  -2 -13  192.12    1.85   0
   4   3   0  427.70    0.90   0
   5  -2 -16   85.39    2.03   0
   6   3  -2  464.74    1.51   0
   7  -1 -11   24.33    0.95   0
   8  -1 -14  879.91    4.24   0
   8   1  -6  413.96    1.98   0
   9  -1 -19   60.62    2.58   0
   9  -1 -18    0.53    1.95   0
   9   3  -6   20.23    1.01   0
  10   2  -8  280.49    2.14   0
  11   0 -18  101.89    2.94   0
  11   1 -12  368.91    3.08   0
  11   2 -10  139.90    1.98   0
  11   3 -10   76.50    1.94   0
  12   1 -16    9.01    2.13   0
  12   2 -13  159.00    2.75   0
 -16   2   2   23.73    2.18   0
 -14   0   0   11.09    1.37   0
 -14   1   2  425.03    3.17   0
 -13  -2  -9    2.58    1.34   0
 -13   3   4  425.93    3.83   0
 -12  -1  -2   53.66    1.25   0
 -12   1   3  102.94    1.53   0
 -12   2   4   56.68    1.42   0
 -12   4   4   40.42    2.05   0
 -10  -1  -1  294.10    1.79   0
 -10   0   2 2137.50    4.60   0
  -9   0   2 1621.07    3.63   0
  -9   3   5  119.80    1.68   0
  -8  -2  -5  744.84    2.16   0
  -8   3   5  148.08    1.66   0
  -7   3   5  122.26    1.40   0
  -6   3   5  226.92    1.58   0
  -5   0   2   57.32    0.62   0
  -4   5   3  359.52    2.52   0
  -3   2   4  430.90    1.46   0
  -1   4   3  260.66    1.18   0
   2  -2 -10  124.44    1.18   0
   5  -2 -20  164.13    2.96   0
   5  -2 -19  142.70    2.67   0
   5  -2 -18   41.09    2.15   0
   5  -2 -17  116.44    2.26   0
   5   5  -3    1.09    0.61   0
   7  -1 -12 1097.50    3.92   0
   7   0  -7  892.97    2.68   0
   8  -1 -15  352.55    3.01   0
   8   2  -5   72.74    1.05   0
   9   1  -8  166.92    1.65   0
  10   0 -14    5.39    1.53   0
  10   1 -10   74.40    1.63   0
  10   3  -8  181.70    2.00   0
  11   1 -13  319.02    3.11   0
  12   1 -17   33.52    2.54   0
  12   2 -14  497.60    4.32   0
  12   3 -13   66.32    2.62   0
 -16   0  -1    3.13    1.64   0
 -16   1   1  184.73    3.13   0
 -15  -1  -4    8.68    1.61   0
 -15   1   2  189.60    2.75   0
 -15   2   3    7.53    2.04   0
 -14  -1  -3   23.09    1.41   0
 -14   3   4  126.73    2.69   0
 -13   0   1  573.85    3.25   0
 -13   1   3   89.68    1.93   0
 -13   2   4   99.61    2.26   0
 -12  -2  -7   16.19    1.23   0
 -11  -1  -1   12.84    0.87   0
 -11   0   2  425.20    2.34   0
 -11   3   5   55.53    1.71   0
 -10   1   4  136.95    1.53   0
 -10   3   5   57.19    1.27   0
  -7   1   4    5.86    0.53   0
  -5   3   5  448.37    1.91   0
  -3   4   4   91.85    1.08   0
  -1  -2  -7  202.88    0.80   0
  -1   5   2    6.13    0.66   0
   0   3   3  576.02    1.20   0
   1   4   2  535.73    1.07   0
   3  -2 -12  718.64    2.85   0
   4  -2 -14   17.27    1.21   0
   4   5  -2  192.21    1.00   0
   6  -1 -10   79.31    1.27   0
   7   1  -5   78.46    0.97   0
   7   4  -4   70.63    0.98   0
   8  -1 -16   76.69    2.11   0
  10   2  -9   33.39    1.28   0
  11   1 -14  147.76    2.39   0
  11   3 -11   18.57    1.79   0
 -15   0   0  146.61    2.28   0
 -14   1   3  386.68    3.18   0
 -14   2   4   39.44    1.99   0
 -13  -2  -8    6.71    1.38   0
 -13  -1  -2   35.26    1.34   0
 -12   3   5  146.36    2.45   0
 -11  -2  -6  244.48    1.94   0
 -11   1   4  694.69    3.22   0
 -10   2   5   24.05    1.10   0
 -10   4   5    2.96    1.60   0
  -9  -2  -5   38.40    0.86   0
  -9   4   5  119.83    2.04   0
  -8   4   5   21.64    1.35   0
  -7   4   5  208.75    1.96   0
  -7   5   4    9.28    1.55   0
  -6   2   5   40.52    0.94   0
   4  -2 -16   60.05    1.64   0
   4  -2 -15   10.00    1.30   0
   4  -1  -7   28.57    0.57   0
   6   0  -6 3543.84    4.83   0
   8  -1 -20    6.28    2.18   0
   8  -1 -19    1.07    2.16   0
   8  -1 -18   23.88    2.11   0
   8  -1 -17   11.32    1.37   0
   8   3  -5  156.65    1.36   0
   9   2  -7  365.43    2.18   0
  10   0 -17   31.14    2.16   0
  11   2 -12   91.34    2.13   0
  12   2 -16   23.84    2.54   0
 -16   2   3   12.01    2.15   0
 -15  -1  -3   19.56    1.72   0
 -14   0   1  184.87    2.07   0
 -13   3   5  118.36    2.52   0
 -12  -1  -1  152.71    1.64   0
 -12   0   2   39.72    1.24   0
 -12   1   4  571.59    3.25   0
 -12   2   5   27.69    1.59   0
 -12   4   5    2.31    1.93   0
  -8  -1   0  953.31    2.46   0
  -6   4   5   11.68    0.95   0
  -6   5   4  109.98    2.06   0
  -5   1   4  531.01    1.68   0
  -5   2   5  611.40    2.12   0
  -4   0   2    4.53    0.37   0
  -4   3   5  467.56    1.80   0
   2  -2 -11 1090.34    3.08   0
   3  -2 -13  531.06    2.70   0
   3  -1  -6  379.00    1.43   0
   4  -2 -20  183.26    3.12   0
   4  -2 -19  120.94    2.58   0
   4  -2 -18  142.15    2.37   0
   6   1  -4  400.68    1.57   0
   6   4  -3   39.97    0.75   0
   7   2  -4 1680.02    3.29   0
   7   5  -6   41.54    1.40   0
   9   0 -13    7.68    1.34   0
   9   1  -9   99.63    1.32   0
   9   3  -7  206.58    1.84   0
  10   0 -19    1.08    2.23   0
  10   1 -12  255.97    2.54   0
  10   4 -10   74.43    2.05   0
  11   1 -16   18.51    2.16   0
  11   3 -12   38.19    2.00   0
 -16   0   0    1.35    1.73   0
 -15   0   1   -0.11    1.54   0
 -15   1   3  718.05    4.67   0
 -15   2   4    2.05    1.85   0
 -14  -1  -2   26.37    1.47   0
 -14   3   5  177.46    3.11   0
 -13  -2  -7   52.71    1.73   0
 -13   0   2  242.94    2.31   0
 -13   1   4   72.66    1.84   0
 -13   2   5   58.93    1.96   0
 -12  -2  -6   36.25    1.32   0
 -10  -2  -5  126.43    1.21   0
 -10  -1   0    6.11    0.76   0
  -9  -1   0  807.37    2.52   0
  -9   0   3  213.60    1.56   0
  -8   0   3   30.27    0.77   0
  -8   3   6  120.06    1.46   0
  -7  -1   0  100.79    0.84   0
  -5   4   5  127.51    1.39   0
  -5   5   4    1.20    1.10   0
  -2   1   3 3502.10    3.04   0
  -2   2   4  194.47    0.91   0
   2  -1  -5  775.24    1.69   0
   3  -2 -14  318.74    2.30   0
   7   3  -4    6.21    0.71   0
   8   2  -6  240.83    1.62   0
   9   0 -14  122.12    2.04   0
  10   2 -10   41.70    1.50   0
  11   1 -18   30.55    2.50   0
  11   1 -17   45.03    2.27   0
  11   2 -13  193.53    2.35   0
  11   3 -13  120.38    2.46   0
 -16   2   4   80.31    3.26   0
 -14   0   2  531.03    3.36   0
 -14   1   4  221.13    2.64   0
 -14   2   5    7.78    1.82   0
 -13  -1  -1   21.19    1.19   0
 -11  -2  -5   68.82    1.31   0
 -11  -1   0   60.80    1.14   0
 -11   0   3  829.95    3.22   0
 -11   3   6    6.22    1.50   0
 -10   0   3 3217.88    5.63   0
  -9   1   5  106.24    1.28   0
  -7   0   3 2550.22    3.99   0
  -7   3   6  121.64    1.42   0
  -6  -1   0  468.98    1.44   0
  -4   1   4  948.76    2.10   0
  -4   2   5   39.77    0.70   0
  -2   4   4   95.45    0.91   0
   1  -2 -10  701.84    2.22   0
   1  -1  -4 1180.37    1.68   0
   2  -2 -12 1401.03    3.75   0
   3  -2 -15   55.33    1.49   0
   4   0  -4   44.78    0.56   0
   6  -1 -12  718.14    3.03   0
   7  -1 -20    3.78    2.12   0
   7  -1 -19   77.43    2.25   0
   7  -1 -18  241.02    2.99   0
   7  -1 -17  198.90    2.65   0
   7  -1 -16   63.08    1.53   0
   7   1  -6   27.23    0.77   0
   9   0 -16  485.21    3.53   0
   9   0 -15  905.92    4.41   0
   9   1 -10  203.50    1.92   0
  10   1 -13  134.73    1.88   0
  10   2 -11  127.49    1.95   0
  11   2 -15  124.52    2.69   0
 -17   0   0   95.59    2.73   0
 -16  -1  -3   11.00    1.83   0
 -16   1   3   53.26    1.97   0
 -15  -1  -2  118.49    2.12   0
 -15   2   5   67.74    2.36   0
 -14  -1  -1   13.33    1.32   0
 -13   3   6    2.99    1.80   0
 -12  -1   0  298.51    2.08   0
 -12   0   3    5.45    1.06   0
 -12   2   6   15.96    1.43   0
 -11   1   5  617.99    3.09   0
 -11   4   6   98.14    2.31   0
 -10   2   6  375.76    2.41   0
 -10   4   6   14.20    1.61   0
  -9   4   6   52.11    1.71   0
  -8   1   5  355.89    1.80   0
  -8   4   6  271.79    2.36   0
  -7   1   5   79.86    1.05   0
  -7   2   6  243.43    1.72   0
  -6   0   3 1661.71    2.96   0
  -6   3   6   49.02    0.97   0
  -4   4   5   37.14    0.88   0
  -4   5   4   43.21    1.26   0
  -3  -1  -1   72.02    0.37   0
  -3   3   5  934.19    2.31   0
  -2   5   3   35.24    0.90   0
   0   2   3  252.36    0.71   0
   3  -2 -20   61.81    2.32   0
   3  -2 -19   36.62    1.96   0
   3  -2 -17   13.27    1.47   0
   3  -2 -16   30.05    1.46   0
   5   1  -3  975.99    2.06   0
   6  -1 -13  540.68    2.93   0
   6   5  -5   73.78    1.38   0
   7   4  -5  213.32    1.65   0
   9   0 -20  241.10    3.90   0
   9   0 -19  249.28    3.54   0
   9   0 -18    3.13    1.97   0
   9   0 -17  265.16    3.08   0
   9   4  -9   44.03    1.59   0
  10   1 -15   17.82    1.62   0
  10   1 -14   50.43    1.47   0
 -15   0   2    0.90    1.58   0
 -15   1   4  574.00    4.26   0
 -14  -2  -7  104.34    2.27   0
 -13  -2  -6   28.73    1.36   0
 -13   0   3   27.62    1.45   0
 -13   2   6  277.93    2.99   0
 -12  -2  -5    5.96    1.18   0
  -9  -2  -4    6.53    0.70   0
  -8  -2  -4  390.63    1.53   0
  -7  -2  -4  213.43    1.02   0
  -7   4   6  334.04    2.44   0
  -7   5   5   58.33    1.71   0
  -5  -1   0 4115.39    3.63   0
  -1   3   4  109.47    0.71   0
   0   4   3   61.89    0.55   0
   1  -2 -11  530.09    2.18   0
   2  -2 -13  798.95    3.14   0
   5  -1 -11   21.49    1.00   0
   6  -1 -14   50.54    1.53   0
   7   2  -5  583.89    2.16   0
   8   0 -13   33.79    1.42   0
   9   1 -11  131.84    1.59   0
  10   1 -17  151.24    2.72   0
  10   1 -16   97.88    2.35   0
  10   3 -11  128.50    2.12   0
 -17   0   1   80.62    2.61   0
 -16  -1  -2   18.07    1.83   0
 -16   1   4  286.56    3.64   0
 -16   2   5  109.86    3.10   0
 -15  -1  -1  313.64    2.94   0
 -14   0   3  321.92    2.84   0
 -14   1   5   20.76    1.62   0
 -14   2   6   25.15    2.02   0
 -13  -1   0   30.21    1.34   0
 -10  -2  -4  160.81    1.30   0
  -9  -1   1 1306.97    3.14   0
  -6   1   5   26.45    0.59   0
  -6   2   6 1146.25    3.12   0
  -6   4   6   42.48    1.11   0
  -6   5   5   82.52    1.80   0
  -5   0   3  151.24    0.91   0
  -5   3   6  266.78    1.58   0
   0   1   2  550.01    0.75   0
   2  -2 -20   40.80    2.12   0
   2  -2 -15  187.01    2.05   0
   2  -2 -14   64.33    1.40   0
   3  -1  -7  216.93    1.20   0
   4   1  -2  399.80    1.16   0
   5   2  -2  111.33    0.74   0
   6  -1 -21   83.30    2.86   0
   6  -1 -20    5.04    1.83   0
   6  -1 -16  157.69    2.18   0
   6  -1 -15   94.16    1.76   0
   6   0  -8 3542.72    5.32   0
   6   3  -3  246.33    1.24   0
   8   0 -14  965.22    4.10   0
   8   1  -9 1165.48    3.67   0
   8   2  -7  673.69    2.70   0
   9   4 -10    9.24    1.50   0
  10   1 -19   28.63    2.25   0
  10   1 -18   78.76    2.40   0
  10   2 -13   64.31    2.01   0
  10   3 -12   67.73    2.16   0
 -16   0   2    6.67    1.27   0
 -15   2   6   53.31    2.46   0
 -14  -2  -6  121.84    2.25   0
 -14  -1   0   33.66    1.54   0
 -13  -2  -5   47.75    1.53   0
 -11  -2  -4   49.06    1.13   0
 -11  -1   1    4.22    0.89   0
 -11   0   4 2044.78    4.89   0
 -10  -1   1   93.45    1.18   0
 -10   0   4  386.89    2.18   0
  -8  -1   1  712.76    2.17   0
  -8   3   7   93.24    1.42   0
  -3   1   4   14.63    0.42   0
  -3   2   5  586.73    1.69   0
  -3   4   5   79.68    0.97   0
  -3   5   4   31.00    1.03   0
  -2  -2  -7   25.47    0.38   0
   0   5   2  173.63    0.97   0
   1  -2 -12  224.74    1.77   0
   2  -2 -19   33.36    1.78   0
   2  -2 -18   28.96    1.71   0
   2  -2 -17  255.56    2.48   0
   2  -2 -16  190.52    2.03   0
   4   4  -1   92.61    0.64   0
   5  -1 -12  213.28    1.90   0
   6  -1 -19   25.61    1.71   0
   6  -1 -18   28.49    1.68   0
   6  -1 -17  195.74    2.15   0
   7   1  -7  272.11    1.68   0
   8   0 -16  173.09    2.38   0
   8   0 -15  518.95    3.33   0
   8   3  -7   94.57    1.46   0
   9   1 -13  136.53    2.03   0
   9   2 -10  139.27    1.84   0
  10   3 -13  116.56    2.51   0
 -17   0   2   79.38    2.66   0
 -17   1   4   48.33    2.52   0
 -16  -1  -1  133.91    2.56   0
 -16   2   6   79.22    2.71   0
 -15   0   3   31.77    1.66   0
 -15   1   5  286.20    3.01   0
 -13   0   4    9.11    1.23   0
 -13   2   7   42.68    1.86   0
 -12  -2  -4   39.44    1.33   0
 -12  -1   1  154.83    1.66   0
 -12   0   4  109.72    1.58   0
 -12   1   6  671.28    3.48   0
 -12   2   7   49.66    1.79   0
 -11   1   6   49.68    1.35   0
 -10   2   7  374.84    2.41   0
 -10   4   7   62.74    1.92   0
  -9   2   7  374.61    2.40   0
  -9   4   7   64.15    1.69   0
  -8   0   4   15.86    0.57   0
  -7  -1   1  703.28    1.96   0
  -7   3   7   43.82    1.14   0
  -6  -2  -4  567.85    1.26   0
  -5   2   6  967.24    2.67   0
  -5   4   6   31.49    0.96   0
  -5   5   5    1.88    1.09   0
  -4   3   6  194.44    1.35   0
   3   1  -1  537.19    1.07   0
   8   0 -20  342.99    3.69   0
   8   0 -19  368.65    3.86   0
   8   0 -18  550.93    4.26   0
   8   0 -17   12.20    1.32   0
   8   1 -10 1365.82    4.13   0
   8   2  -8  282.56    1.96   0
   9   1 -14   15.96    1.54   0
   9   4 -11   24.31    1.72   0
  10   2 -16   40.45    2.34   0
 -16   0   3   38.45    1.99   0
 -16   1   5  261.08    3.55   0
 -15  -1   0  219.30    2.63   0
 -14  -2  -5    1.61    1.43   0
 -14   0   4   66.46    1.80   0
 -14   1   6  261.69    2.80   0
 -14   2   7   80.87    2.41   0
 -13  -1   1   22.34    1.23   0
 -13   1   6    1.71    1.30   0
  -8   1   6  363.72    1.84   0
  -8   4   7  492.78    3.05   0
  -2   3   5  535.63    1.64   0
  -1   2   4  129.80    0.69   0
  -1   4   4  198.34    1.00   0
   1  -2 -20   54.37    2.18   0
   1  -2 -19   10.33    1.83   0
   1  -2 -13  638.72    2.75   0
   3  -1  -8  116.81    1.02   0
   4   0  -5   87.88    0.76   0
   4   2  -1  241.71    0.88   0
   5  -1 -20    9.53    1.78   0
   5  -1 -14  203.47    2.02   0
   6   2  -4  216.05    1.24   0
   6   5  -6   54.85    1.52   0
   7   2  -6  246.75    1.60   0
   9   1 -19   66.96    2.39   0
   9   1 -18    3.41    1.79   0
   9   1 -17   24.62    1.82   0
   9   2 -11  199.37    1.97   0
  10   2 -17   52.47    2.06   0
  10   3 -15   16.35    2.16   0
 -17   1   5    1.70    2.39   0
 -16  -1   0  227.28    2.94   0
 -15   0   4   50.92    1.86   0
 -15   2   7   60.03    2.51   0
 -14  -1   1   76.25    1.86   0
 -13  -2  -4  216.75    2.14   0
 -11  -2  -3  243.19    1.84   0
 -10  -2  -3  297.80    1.75   0
  -9  -2  -3    7.17    0.69   0
  -7   2   7  924.64    3.15   0
  -7   4   7  144.24    1.77   0
  -6  -1   1 1232.29    2.34   0
  -6   3   7   16.99    0.85   0
  -4  -1   0 2828.83    2.61   0
  -4   0   3    2.51    0.37   0
  -1   5   3    9.68    0.66   0
   1  -2 -18   33.80    1.68   0
   1  -2 -17   54.04    1.73   0
   1  -2 -16  218.65    2.22   0
   1  -2 -15   65.21    1.43   0
   1  -2 -14  343.81    2.22   0
   5  -1 -19   49.14    1.99   0
   5  -1 -18   57.10    1.91   0
   5  -1 -17   84.10    1.86   0
   5  -1 -15  116.37    1.75   0
   5   0  -7 1128.62    2.74   0
   6   1  -6  163.82    1.21   0
   7   0 -21   19.85    2.24   0
   7   0 -14   28.47    1.32   0
   7   1  -8 1263.87    3.40   0
   8   1 -11  398.75    2.34   0
   8   3  -8  241.43    2.01   0
   8   4  -9   35.87    1.53   0
   9   2 -12   99.38    1.85   0
   9   3 -11   19.64    1.61   0
   9   4 -12   19.38    1.60   0
 -17   0   3    8.35    1.89   0
 -16   1   6   60.02    2.43   0
 -15  -1   1    9.93    1.58   0
 -14   3   8   91.20    2.70   0
 -12  -2  -3  146.46    1.78   0
 -12  -1   2   64.87    1.33   0
 -11  -1   2  245.87    1.86   0
 -11   0   5  109.74    1.53   0
 -11   2   8    2.19    1.25   0
 -11   4   8    6.16    1.59   0
 -10  -1   2   64.88    1.10   0
 -10   0   5    1.68    0.96   0
  -9  -1   2  525.73    2.14   0
  -9   3   8  462.15    2.92   0
  -8  -2  -3   32.56    0.67   0
  -6   4   7  115.60    1.56   0
  -6   5   6   71.29    1.70   0
  -4   1   5 1712.34    2.86   0
  -4   2   6  311.82    1.45   0
  -4   4   6  343.94    1.80   0
  -4   5   5   21.69    1.14   0
  -1   1   3  814.58    1.29   0
   0  -2 -20    8.29    1.84   0
   3   4   0  248.12    0.76   0
   7   0 -20   -1.16    2.08   0
   7   0 -19  189.32    2.97   0
   7   0 -18  127.71    2.36   0
   7   0 -17  220.52    2.52   0
   7   0 -16    9.30    1.55   0
   7   0 -15    0.03    1.35   0
   7   3  -6  125.49    1.28   0
   8   1 -12   66.00    1.50   0
   8   2  -9   38.78    1.18   0
   9   2 -13   77.00    1.85   0
   9   3 -12  265.80    2.91   0
 -16   0   4   79.43    2.32   0
 -14  -2  -4   55.35    1.61   0
 -14   0   5   13.42    1.38   0
 -14   2   8   61.26    2.33   0
 -13  -1   2   10.55    1.23   0
 -13   0   5  140.70    1.93   0
 -13   1   7   73.28    1.82   0
 -12   1   7   10.75    1.30   0
 -10   1   7  498.67    2.67   0
 -10   2   8  272.77    2.36   0
 -10   4   8   11.89    1.65   0
  -9   0   5  607.86    2.42   0
  -9   1   7  172.36    1.58   0
  -9   2   8  126.07    1.67   0
  -9   4   8  110.33    1.97   0
  -8  -1   2  358.49    1.62   0
  -8   3   8  225.49    2.00   0
  -6   1   6  169.52    1.24   0
  -6   2   7 1711.48    3.73   0
  -5   3   7  197.63    1.42   0
  -3   3   6  758.73    2.14   0
  -2   4   5  135.57    0.99   0
   0  -2 -19    5.61    1.67   0
   0  -2 -12  424.82    2.10   0
   1  -1  -5 3464.19    3.20   0
   2   1   0  515.79    0.73   0
   4  -1 -21   12.58    2.13   0
   4  -1 -12   78.46    1.34   0
   5   4  -3  228.58    1.35   0
   7   1  -9 1280.42    3.68   0
   7   2  -7  904.26    2.95   0
   7   4  -7  165.23    1.93   0
   8   1 -13  591.02    3.25   0
   8   2 -10   74.42    1.40   0
   8   4 -10   15.42    1.42   0
   9   2 -16  452.76    3.85   0
   9   2 -14  190.31    2.29   0
   9   3 -13  350.04    3.44   0
 -17   0   4   62.05    2.48   0
 -16  -1   1  180.99    2.78   0
 -15  -2  -4   77.29    2.22   0
 -15   0   5    4.43    1.71   0
 -15   1   7  211.79    3.04   0
 -14  -1   2  446.62    3.09   0
 -14   1   7  183.23    2.28   0
 -13  -2  -3  299.48    2.47   0
  -8   2   8  289.08    2.05   0
  -8   4   8  203.85    2.20   0
  -7  -2  -3  110.53    0.78   0
  -7   3   8  259.72    1.86   0
  -2   5   4  195.76    1.37   0
   0  -2 -18   56.01    1.75   0
   0  -2 -17  136.38    2.05   0
   0  -2 -13  299.97    1.90   0
   2  -1  -7 2784.31    3.70   0
   3   0  -4 1706.94    2.45   0
   3   2   0  634.09    1.06   0
   4  -1 -20  149.99    2.64   0
   4  -1 -19  379.98    3.49   0
   4  -1 -18  362.98    2.95   0
   4  -1 -14 1003.49    3.70   0
   4  -1 -13  588.80    2.76   0
   5   2  -3  127.70    0.88   0
   6   1  -7   18.07    0.78   0
   6   2  -5   44.16    0.78   0
   6   5  -7    4.73    1.25   0
   7   1 -10  273.72    2.01   0
   8   1 -20    7.19    2.08   0
   8   1 -19    2.56    2.00   0
   8   1 -18   24.48    1.90   0
   8   1 -16   86.81    2.03   0
   8   1 -15  333.75    2.82   0
   9   2 -18   26.17    1.94   0
   9   2 -17   73.30    2.04   0
   9   3 -15    9.48    1.98   0
   9   3 -14  151.07    2.55   0
 -16   0   5  455.88    4.02   0
 -16   1   7   31.17    2.30   0
 -15  -1   2  182.82    2.62   0
 -14  -2  -3  381.12    3.11   0
 -13   3   9  105.79    2.54   0
 -11  -2  -2  220.96    1.74   0
 -11   3   9  245.16    2.66   0
 -10  -2  -2  487.68    2.15   0
 -10   3   9  272.41    2.45   0
  -7  -1   2   81.65    0.83   0
  -7   0   5  928.25    2.54   0
  -5   2   7  752.23    2.42   0
  -5   4   7  394.90    2.13   0
  -5   5   6   10.12    1.12   0
  -2   1   4  896.50    1.63   0
   0  -2 -16  200.46    1.97   0
   0  -2 -15   62.63    1.35   0
   0  -2 -14  128.13    1.51   0
   4  -1 -17  127.35    2.03   0
   4  -1 -16  201.70    2.26   0
   4  -1 -15  973.16    3.88   0
   4   0  -6  163.83    0.99   0
   4   1  -3 1022.15    1.98   0
   4   3  -1  502.90    1.28   0
   5   1  -5 1234.78    2.64   0
   5   5  -5    0.41    1.01   0
   6   0 -21   84.17    2.57   0
   6   0 -20   41.81    2.38   0
   8   2 -11   53.88    1.44   0
   8   3 -10  232.01    2.33   0
   8   4 -11   54.09    1.79   0
 -17   0   5   63.04    2.33   0
 -16  -1   2   16.63    1.84   0
 -14   0   6   80.38    1.82   0
 -14   2   9  203.13    3.05   0
 -13  -2  -2  233.86    2.34   0
 -13  -1   3   92.76    1.63   0
 -13   0   6  127.81    1.97   0
 -13   1   8   33.13    1.62   0
 -13   2   9  100.32    2.42   0
 -12  -2  -2  411.33    2.43   0
 -12   0   6    3.60    1.19   0
 -12   1   8  375.45    2.81   0
 -12   2   9  259.97    2.89   0
 -11  -1   3  450.40    2.38   0
 -11   0   6   37.64    1.26   0
 -11   1   8 1510.50    4.75   0
 -11   2   9   15.83    1.48   0
 -10  -1   3  159.84    1.46   0
  -9  -2  -2  111.38    1.08   0
  -9   3   9  615.38    3.25   0
  -7   1   7  264.33    1.62   0
  -7   2   8 1035.22    3.37   0
  -7   4   8   81.24    1.55   0
  -6   3   8   70.71    1.13   0
  -4   3   7  124.76    1.14   0
  -3   4   6  121.79    1.09   0
  -2   0   2  116.45    0.53   0
  -1  -2 -19   92.40    2.10   0
   3  -1 -21   45.42    2.30   0
   5   0  -9  265.98    1.62   0
   6   0 -19    9.15    1.74   0
   6   0 -18   -1.18    1.73   0
   6   0 -17   92.03    1.99   0
   6   0 -16   33.17    1.60   0
   7   2  -8 1063.63    3.43   0
   7   4  -8  100.11    1.63   0
   8   2 -12   32.99    1.48   0
   8   3 -11  308.32    2.66   0
   8   4 -13   16.62    1.88   0
   8   4 -12   21.53    1.71   0
 -15  -2  -3   86.64    2.16   0
 -15   0   6    0.52    1.70   0
 -15   1   8  210.11    3.14   0
 -15   2   9  158.95    3.33   0
 -14  -2  -2  507.01    3.46   0
 -14  -1   3  390.24    2.98   0
 -14   1   8  150.16    2.17   0
 -10   1   8  889.28    3.51   0
 -10   4   9   17.26    1.55   0
  -9  -1   3   93.67    1.12   0
  -9   0   6 1400.20    3.65   0
  -9   4   9   35.08    1.77   0
  -8  -2  -2   60.05    0.81   0
  -8   3   9  276.16    2.18   0
  -5  -2  -4  643.49    0.96   0
  -3   5   5  245.82    1.75   0
  -1  -2 -18  208.21    2.36   0
   2  -1  -8 1376.93    2.84   0
   3  -1 -20   15.33    1.85   0
   3  -1 -19  282.21    3.04   0
   3  -1 -11   89.57    1.17   0
   6   1  -8   27.56    0.90   0
   7   1 -20    3.36    2.16   0
   7   1 -12 1213.94    4.04   0
   8   2 -18  138.90    2.89   0
   8   2 -15  298.00    2.98   0
   8   2 -14  236.45    2.63   0
   8   3 -12  169.34    2.38   0
 -17  -1   2   40.35    2.22   0
 -16   0   6  110.87    2.71   0
 -16   1   8   14.53    2.26   0
 -15  -1   3  701.82    4.28   0
 -13   3  10   68.05    2.33   0
 -12   3  10  134.69    2.32   0
  -9   1   8  173.60    1.67   0
  -9   2   9   60.57    1.40   0
  -8  -1   3  113.15    1.07   0
  -6  -1   2 2586.30    3.50   0
  -6   0   5   39.72    0.76   0
  -6   2   8 1064.79    3.15   0
  -6   5   7    5.84    1.25   0
  -3   0   3  916.13    1.66   0
  -1  -2 -17  336.29    2.59   0
  -1  -2 -16  175.59    2.06   0
  -1   3   5  773.83    1.68   0
   0   3   4  293.69    0.83   0
   3  -1 -18  864.30    4.37   0
   3  -1 -17  682.11    3.50   0
   3  -1 -13  483.69    2.45   0
   3  -1 -12  491.89    2.33   0
   4   0  -7   16.14    0.65   0
   5   0 -21  240.84    3.76   0
   6   2  -6 1209.50    3.08   0
   7   1 -19   88.72    2.37   0
   7   1 -18  247.06    2.96   0
   7   1 -16   82.19    1.80   0
   7   1 -15  145.66    2.04   0
   7   1 -13 1478.12    4.46   0
   7   2  -9  449.18    2.40   0
   7   4  -9   49.01    1.55   0
   8   2 -17   32.22    1.66   0
   8   3 -13  152.73    2.45   0
 -17   0   6  286.87    3.93   0
 -16  -1   3   60.44    2.04   0
 -15  -2  -2  217.10    2.82   0
 -14   0   7    5.89    1.45   0
 -13  -2  -1  151.62    2.01   0
 -13  -1   4   56.78    1.47   0
 -13   0   7  286.95    2.54   0
 -12  -2  -1  126.31    1.58   0
 -12  -1   4  555.78    2.91   0
 -12   0   7   15.78    1.31   0
 -11  -2  -1  560.76    2.48   0
 -11  -1   4  680.56    2.96   0
 -11   3  10   55.46    1.82   0
 -10  -2  -1  357.07    1.93   0
 -10   3  10  339.14    2.83   0
  -8   1   8  363.72    2.07   0
  -8   2   9   38.91    1.23   0
  -7   3   9  193.55    1.77   0
  -6  -2  -3  123.13    0.67   0
  -6   1   7   13.74    0.56   0
  -5   3   8   35.64    0.87   0
  -4   5   6   80.37    1.41   0
  -2  -2 -19   16.05    1.62   0
  -1  -2 -14  432.94    2.28   0
   1  -1  -6 5979.27    4.68   0
   1   3   3   34.40    0.23   0
   2  -1 -21   31.06    2.02   0
   2   0  -3    4.95    0.29   0
   3  -1 -16  171.38    1.99   0
   3  -1 -15  119.86    1.78   0
   3   0  -5  139.58    0.85   0
   4   2  -2   26.81    0.49   0
   5   0 -20  485.23    3.83   0
   5   0 -19  226.15    2.92   0
   5   1  -6 1758.17    3.34   0
   5   2  -4  332.70    1.45   0
   5   5  -6    9.93    1.17   0
   6   1  -9   78.62    1.14   0
   7   2 -10  231.28    1.95   0
   7   3  -9  215.43    1.95   0
   7   4 -10   91.04    1.78   0
   8   3 -15   96.99    2.27   0
 -15  -1   4  595.62    3.99   0
 -15   0   7   51.39    2.03   0
 -15   2  10  132.64    3.37   0
 -14  -2  -1  150.35    2.11   0
 -14  -1   4  245.38    2.39   0
 -14   1   9   17.43    1.66   0
 -14   2  10  123.88    2.48   0
 -12   1   9  656.06    3.60   0
 -12   2  10  217.73    2.48   0
 -11   0   7   19.86    0.89   0
 -11   1   9 1299.29    4.59   0
 -11   2  10  140.73    2.16   0
 -10  -1   4  122.89    1.38   0
 -10   0   7 1101.15    3.57   0
  -9  -2  -1  306.08    1.58   0
  -9   3  10   74.92    1.63   0
  -4   0   4   49.00    0.58   0
  -4   1   6 1087.91    2.41   0
  -2  -2 -18  258.08    2.71   0
  -2   3   6  686.75    1.88   0
   2  -1 -20  118.84    2.46   0
   3   5  -2  379.54    1.96   0
   4   0  -8  133.70    1.14   0
   5   0 -18    7.50    1.56   0
   5   0 -16  313.48    2.60   0
   5   0 -14   79.32    1.44   0
   6   1 -21   90.93    3.11   0
   6   1 -10   95.86    1.31   0
   6   3  -6   57.29    1.01   0
   6   4  -7  126.39    1.71   0
   7   2 -11   91.83    1.56   0
   7   4 -11   77.26    1.88   0
 -17   0   7  108.87    2.97   0
 -16  -1   4  295.66    3.36   0
 -16   0   7   20.05    1.67   0
 -15  -2  -1  111.29    2.37   0
 -10   1   9  147.13    1.78   0
 -10   4  10   64.43    1.91   0
  -9  -1   4  158.43    1.38   0
  -9   0   7  136.35    1.40   0
  -7  -2  -2  380.12    1.32   0
  -7  -1   3   51.80    0.78   0
  -7   0   6   77.70    0.89   0
  -7   1   8 1324.65    3.47   0
  -7   2   9  449.17    2.38   0
  -5   2   8  708.52    2.43   0
  -5   4   8  451.17    2.47   0
  -5   5   7    3.97    1.03   0
  -3  -2 -19   57.50    1.97   0
  -3   3   7  954.38    2.45   0
  -2  -2 -17  310.79    2.52   0
  -2  -2 -10   72.93    0.88   0
   1  -1 -21   32.36    2.35   0
   1   5   1   58.87    0.54   0
   2  -1 -19   17.36    1.72   0
   2  -1 -18  144.44    2.19   0
   3   1  -2  689.39    1.36   0
   4   0 -21   68.09    2.59   0
   4   1  -4  968.50    2.09   0
   5   0 -15  169.79    1.78   0
   5   5  -7    2.99    1.28   0
   6   1 -20    1.98    1.89   0
   7   2 -12   50.68    1.49   0
   7   3 -10   53.89    1.45   0
   7   4 -13    2.19    1.72   0
   7   4 -12   55.66    2.01   0
 -17  -1   4   48.82    2.39   0
 -14  -1   5   24.07    1.35   0
 -14   0   8   32.76    1.69   0
 -13  -2   0  293.30    2.36   0
 -13  -1   5  141.87    1.92   0
 -13   0   8    6.60    1.29   0
 -12  -2   0   15.87    1.04   0
 -12   3  11   32.40    1.94   0
 -11  -2   0  320.41    2.06   0
  -9   2  10  141.51    1.87   0
  -9   4  10    9.17    1.46   0
  -8   3  10  222.67    2.21   0
  -6   3   9  203.78    1.69   0
  -5   0   5 2341.70    3.49   0
  -5   1   7  574.98    2.00   0
  -3  -1   0  727.61    1.14   0
  -2  -2 -16  599.31    3.11   0
   1  -1  -7 4494.17    4.54   0
   2  -1 -17  310.82    2.57   0
   2  -1 -11   45.13    0.98   0
   4   0 -20  166.33    2.95   0
   5   1  -7  591.58    2.14   0
   5   3  -4    4.90    0.69   0
   6   3  -7   18.14    0.98   0
   6   4  -8  129.11    1.73   0
   7   2 -15  166.45    2.51   0
   7   2 -13   21.08    1.14   0
   7   3 -12  261.47    2.42   0
   7   3 -11   34.02    1.48   0
 -16   1  10   17.36    2.15   0
 -15  -1   5  325.14    3.22   0
 -15   0   8  343.68    3.43   0
 -15   1  10   40.84    2.19   0
 -14  -2   0   13.76    1.39   0
 -14   1  10   48.39    1.96   0
 -14   2  11   37.04    2.29   0
 -12   0   8  208.94    2.11   0
 -12   1  10  343.87    2.83   0
 -12   2  11  223.97    2.92   0
 -11  -1   5  599.51    2.83   0
 -11   0   8    1.70    1.12   0
 -10  -2   0   16.81    0.94   0
 -10   3  11  110.24    1.98   0
  -8  -2  -1  125.73    1.02   0
  -8  -1   4  383.51    1.80   0
  -8   0   7   14.65    0.85   0
  -8   4  10   15.51    1.38   0
  -6   4   9    7.02    1.12   0
  -5  -1   2 4913.58    4.41   0
  -4   3   8  191.15    1.40   0
  -3  -2 -18   99.86    2.03   0
  -1   4   5   77.07    0.67   0
   1  -1 -20   90.18    2.32   0
   2  -1 -16  235.57    2.15   0
   2  -1 -15  162.67    1.75   0
   2  -1 -14   43.03    1.19   0
   2  -1 -13   80.08    1.30   0
   2   4   1  648.04    1.06   0
   3   0  -6  121.88    0.91   0
   4   0 -19  544.96    4.06   0
   4   0 -18  228.92    2.63   0
   4   0 -10  177.73    1.38   0
   5   2  -5  626.97    2.04   0
   5   5  -8   28.50    1.74   0
   6   1 -16  138.35    1.82   0
   6   2  -8 1017.11    3.08   0
 -17  -1   5    2.58    1.82   0
 -16  -1   5  291.62    3.39   0
 -11   1  10  226.11    2.30   0
 -11   2  11  121.18    2.20   0
 -10  -1   5  103.20    1.38   0
 -10   0   8  219.50    1.86   0
  -8   1   9 1175.38    3.64   0
  -8   2  10   68.84    1.35   0
  -7   3  10   50.61    1.29   0
  -6  -1   3 1741.24    2.98   0
  -6   0   6 3524.46    4.64   0
  -6   1   8   28.63    0.84   0
  -6   2   9  375.55    2.08   0
  -3  -2 -17  275.92    2.53   0
  -3   2   7  578.90    1.87   0
  -3   4   7  251.36    1.47   0
   0  -1 -21   17.97    2.16   0
   0   4   4   89.73    0.50   0
   1  -1 -19  105.07    2.28   0
   4   0 -17    2.15    1.44   0
   4   5  -5   22.61    1.29   0
   6   2 -19  204.74    3.27   0
   6   2  -9  419.27    2.31   0
 -14  -2   1  227.27    2.48   0
 -14  -1   6  264.57    2.55   0
 -14   0   9   15.97    1.61   0
 -13  -2   1  226.13    2.11   0
 -13  -1   6    0.48    1.22   0
 -12  -2   1  185.47    1.81   0
 -12   3  12   27.14    1.85   0
 -10   1  10   73.43    1.58   0
 -10   2  11  125.04    1.97   0
  -9  -2   0  193.22    1.32   0
  -9  -1   5   95.16    1.18   0
  -9   3  11   16.87    1.48   0
  -5   3   9  109.73    1.23   0
  -4  -2 -18   77.20    2.02   0
  -4   4   8  515.18    2.34   0
  -3  -2 -16   83.10    1.67   0
  -3   5   6  391.96    2.02   0
  -2   5   5  276.18    1.51   0
   1  -1 -18   57.31    1.82   0
   1  -1  -8  418.65    1.55   0
   2   2   1  971.90    0.90   0
   4   0 -16   38.02    1.21   0
   4   0 -14    0.32    1.05   0
   4   0 -13   27.64    1.14   0
   4   1  -5 1851.19    3.12   0
   4   4  -3  128.75    1.10   0
   5   1  -9   45.15    0.94   0
   6   2 -10  238.95    1.91   0
 -16   0   9  569.16    4.98   0
 -15  -2   1   69.87    1.98   0
 -15  -1   6   -0.37    1.56   0
 -15   1  11    9.18    2.01   0
 -14   1  11   83.54    2.39   0
 -14   2  12   29.46    2.48   0
 -13   0   9   78.79    1.56   0
 -13   2  12  172.98    3.12   0
 -12  -1   6  645.36    3.23   0
 -12   0   9  497.02    3.14   0
 -11  -2   1  272.27    1.93   0
 -11  -1   6   50.58    1.29   0
 -11   3  12   33.00    1.82   0
  -9   0   8  194.58    1.51   0
  -9   1  10  195.35    1.90   0
  -9   2  11  224.11    2.25   0
  -9   4  11   24.53    1.59   0
  -7  -1   4    8.52    0.59   0
  -7   0   7  914.00    2.62   0
  -7   1   9 1238.81    3.52   0
  -7   2  10  235.22    1.87   0
  -7   4  10   80.69    1.62   0
  -2   1   5  865.37    1.73   0
  -1   5   4    1.31    0.41   0
   0  -1 -20  320.29    3.37   0
   3   0 -19    2.66    1.67   0
   3   0  -7 2009.79    3.40   0
   3   4  -1  279.68    1.18   0
   3   5  -3   48.19    1.11   0
   5   1 -18   55.45    1.91   0
   5   2  -6 1018.06    2.75   0
   5   4  -6   33.22    1.03   0
   6   2 -15   36.43    1.65   0
   6   2 -12  531.53    2.94   0
   6   3  -9  238.78    1.90   0
 -16  -2   1   20.91    2.01   0
 -12   1  11  239.18    2.64   0
 -12   2  12   15.26    1.47   0
 -11   0   9    1.91    1.21   0
 -11   1  11    9.90    1.38   0
 -10  -2   1  268.15    1.74   0
 -10   3  12   65.03    1.98   0
  -8   3  11  244.91    2.39   0
  -7  -2  -1  300.62    1.25   0
  -6  -2  -2   22.04    0.43   0
  -6   3  10  232.96    1.82   0
  -5   2   9  544.11    2.23   0
  -5   4   9  277.60    2.07   0
  -4   0   5  114.56    0.83   0
  -3   0   4 1715.26    2.43   0
   0  -1 -19  564.20    3.78   0
   1  -1 -15   35.34    1.17   0
   2   0 -21   26.14    2.10   0
   2   5  -1  120.74    1.17   0
   3   0 -18    5.63    1.60   0
   4   1 -20  150.33    2.80   0
   4   5  -6   91.22    1.76   0
   5   1 -16   44.30    1.49   0
   5   1 -15  105.21    1.77   0
   5   1 -14  210.72    2.00   0
   6   2 -14   38.26    1.28   0
   6   2 -13  134.11    1.66   0
   6   3 -17   46.83    2.29   0
   6   3 -10  250.68    2.07   0
 -15  -2   2   84.35    2.02   0
 -15  -1   7  194.86    2.66   0
 -15   0  10  132.68    2.59   0
 -14  -2   2  133.64    2.10   0
 -14  -1   7  222.22    2.50   0
 -14   0  10    0.92    1.52   0
 -13  -2   2  284.44    2.33   0
 -13  -1   7   71.33    1.62   0
 -12  -2   2  317.11    2.31   0
 -10  -1   6  395.04    2.22   0
 -10   0   9  163.69    1.75   0
  -8  -2   0   18.07    0.60   0
  -8  -1   5  420.25    1.83   0
  -8   0   8   26.48    0.77   0
  -8   1  10 1333.06    3.96   0
  -8   2  11   51.50    1.37   0
  -8   4  11   51.41    1.58   0
  -5   0   6 1071.83    2.54   0
  -5   1   8   16.13    0.72   0
  -5   5   8   28.06    1.22   0
  -3  -2  -9   50.76    0.65   0
  -1  -1 -20   15.29    2.01   0
   0  -1 -18  326.34    2.83   0
   1  -1 -13  128.42    1.41   0
   1  -1 -11  613.35    2.25   0
   2   0 -20    5.67    1.61   0
   3   0 -17   12.73    1.44   0
   3   0  -8 2280.09    3.80   0
   3   1  -3   70.24    0.58   0
   3   2  -1  751.12    1.40   0
   4   1 -19  334.93    3.42   0
   4   1  -6 1117.58    2.58   0
   5   2  -7  801.09    2.65   0
 -16  -2   2   22.25    1.95   0
 -16  -1   7   31.72    1.97   0
 -16   0  10  263.70    3.64   0
 -14   1  12  118.62    2.66   0
 -14   2  13   87.91    3.08   0
 -13   0  10  394.52    3.20   0
 -13   1  12   20.69    1.73   0
 -13   2  13  105.04    2.70   0
 -12  -1   7   12.94    1.40   0
 -12   3  13   52.60    2.32   0
 -11  -2   2  301.36    2.05   0
 -10   1  11  341.48    2.33   0
 -10   2  12   25.96    1.21   0
  -9  -2   1 1116.05    2.92   0
  -9  -1   6   22.75    0.97   0
  -9   3  12  249.27    2.65   0
  -7   3  11   27.57    1.21   0
  -6   0   7 4444.45    5.58   0
  -6   2  10  213.37    1.71   0
  -6   4  10   12.66    1.04   0
  -3  -2 -11    5.62    0.70   0
  -3  -2 -10   56.30    0.80   0
  -2   0   3    4.41    0.21   0
  -2   3   7  498.93    1.65   0
   0  -1 -17    9.39    1.51   0
   1   0  -2 2033.43    1.71   0
   3   0 -16   44.47    1.42   0
   3   0 -15   38.98    1.37   0
   3   0  -9 2455.09    4.19   0
   3   1 -21   44.64    2.44   0
   4   1 -18  444.70    3.49   0
 -15  -2   3    8.85    1.60   0
 -14  -2   3  175.10    2.27   0
 -12   2  13  142.60    2.81   0
 -11  -1   7  626.59    3.04   0
 -11   0  10   53.99    1.49   0
 -11   3  13  108.41    2.51   0
 -10  -2   2 1576.29    3.91   0
  -9   0   9  173.10    1.49   0
  -9   1  11  153.48    1.81   0
  -9   2  12   94.99    1.80   0
  -9   4  12   19.05    1.65   0
  -7   0   8 1694.94    3.80   0
  -7   2  11   89.12    1.37   0
  -6  -1   4  416.72    1.62   0
  -5  -1   3  959.73    2.11   0
  -4  -1   2  414.01    1.24   0
  -1  -1 -19  181.80    2.55   0
  -1   3   6 1145.78    2.01   0
   0  -1  -6 1460.76    2.25   0
   2   0 -19    2.08    1.20   0
   3   0 -14  552.38    2.76   0
   3   0 -13 2145.34    4.84   0
   3   0 -12 1154.30    3.37   0
   3   0 -10  928.64    2.75   0
   3   5  -4   26.67    1.16   0
   4   1  -7   35.91    0.74   0
   4   2 -20  166.05    3.42   0
   4   5  -8   17.52    1.52   0
   5   2  -8  792.41    2.75   0
   5   3  -7  215.60    1.59   0
   5   4  -9  294.01    2.45   0
 -16  -2   3   15.67    1.86   0
 -16  -1   8   14.68    2.00   0
 -16   0  11  203.64    3.71   0
 -15  -1   8  232.55    2.88   0
 -14  -1   8  176.58    2.51   0
 -14   0  11   69.52    2.02   0
 -13  -1   8   38.78    1.55   0
 -11   1  12  345.46    2.90   0
 -11   2  13  202.83    2.82   0
 -10  -1   7  493.00    2.55   0
 -10   3  13  102.80    2.26   0
  -8   3  12  164.58    2.12   0
  -7  -1   5   83.46    0.87   0
  -7   1  10  267.36    1.88   0
  -7   4  11   68.87    1.61   0
  -2  -1 -20   25.06    1.87   0
   1   0 -20  132.08    2.45   0
   2   0  -5   13.47    0.34   0
   2   1  -1 3215.02    2.32   0
   3   1 -20   16.22    1.93   0
   5   2 -10  366.64    2.24   0
   5   2  -9  546.13    2.36   0
   5   3  -8   35.82    1.04   0
   5   4 -14   12.65    1.75   0
   5   4 -13   76.32    2.12   0
   5   4 -11   39.36    1.57   0
   5   4 -10  119.03    1.84   0
 -15   1  13   25.75    2.21   0
 -14   1  13   68.49    2.42   0
 -13   0  11  681.30    4.11   0
 -12  -1   8  404.56    2.83   0
 -11  -2   3  671.26    2.95   0
 -10   0  10   88.03    1.31   0
 -10   1  12  242.76    2.36   0
 -10   2  13   63.96    1.97   0
  -8  -2   1  163.10    1.17   0
  -8  -1   6  450.95    2.07   0
  -8   0   9   42.04    1.03   0
  -8   1  11  419.05    2.45   0
  -8   2  12   33.58    1.40   0
  -8   4  12   26.26    1.56   0
  -7  -2   0  228.30    1.20   0
  -6   3  11  197.50    1.78   0
  -4  -2  -6 1729.66    1.61   0
  -4   4   9  101.83    1.29   0
  -3   2   8 1110.98    2.61   0
  -3   4   8   85.67    1.03   0
  -1  -1 -18  515.63    3.38   0
   0  -1  -7  516.34    1.52   0
   3   1  -4   15.80    0.46   0
   4   1 -15  852.70    3.59   0
   4   1  -9  520.93    2.15   0
   4   2 -19  132.19    2.54   0
   4   4  -5   41.64    0.99   0
   5   2 -11  376.20    2.20   0
   5   3  -9  118.62    1.55   0
 -16  -2   4  130.69    2.61   0
 -15  -2   4    5.55    1.56   0
 -15  -1   9  150.78    2.50   0
 -14  -2   4   31.55    1.54   0
 -13  -2   4  100.27    1.73   0
 -13   2  14   34.50    1.96   0
 -12   0  11  212.25    2.21   0
 -12   1  13   36.19    1.89   0
 -12   2  14  460.99    4.17   0
 -11  -1   8 1563.67    4.76   0
 -11   3  14   30.16    1.86   0
  -9  -2   2  484.82    2.06   0
  -9  -1   7  195.28    1.71   0
  -9   0  10  252.02    1.91   0
  -9   3  13  339.48    3.09   0
  -7   3  12  234.35    2.30   0
  -5   0   7 1353.12    3.00   0
  -5   1   9   44.82    0.89   0
  -5   4  10  113.63    1.45   0
  -4   0   6  182.00    1.07   0
  -1  -1 -17  285.28    2.49   0
   0  -1 -14  215.12    1.75   0
   0  -1 -13  161.62    1.46   0
   2   0  -6 1087.08    2.21   0
   3   5  -5  256.34    2.52   0
 -16  -1   9   14.05    1.92   0
 -15   0  12   77.76    2.58   0
 -14  -1   9   14.51    1.55   0
 -14   0  12   37.83    2.09   0
 -13  -1   9  109.42    1.98   0
 -12  -2   4   66.54    1.47   0
 -11   0  11   14.31    1.01   0
 -11   1  13  286.39    2.81   0
 -11   2  14  133.50    2.47   0
  -9   1  12   60.90    1.57   0
  -6  -2  -1  105.22    0.71   0
  -6   0   8 3362.42    4.95   0
  -6   1  10   96.37    1.27   0
  -6   4  11   54.96    1.33   0
  -4  -2 -12   44.25    0.93   0
  -4   5   8   14.79    0.96   0
  -3  -1 -20   23.07    1.96   0
  -3  -1   1  597.69    1.18   0
  -3   0   5  140.97    0.84   0
  -3   5   7  138.09    1.26   0
  -2   1   6 1957.91    2.77   0
  -1  -1 -16   17.84    1.27   0
  -1   2   6    5.98    0.43   0
   0  -1 -11  529.88    2.10   0
   0  -1  -8  855.34    2.07   0
   0   0 -20   47.88    2.00   0
   1   0 -18    5.69    1.52   0
   2   5  -2   40.86    1.06   0
   3   2 -20   65.54    2.56   0
   3   5  -6  406.78    3.11   0
 -16  -2   5  136.73    2.74   0
 -15  -2   5   72.29    2.15   0
 -14  -2   5   10.61    1.41   0
 -14   1  14   16.86    2.27   0
 -13   0  12  195.64    2.63   0
 -12  -1   9  664.18    3.52   0
 -11  -2   4  322.82    2.22   0
 -10  -1   8  843.73    3.17   0
 -10   0  11    1.73    1.17   0
 -10   3  14   33.59    1.97   0
  -8   3  13  149.80    2.09   0
  -7   0   9 1150.89    3.17   0
  -7   1  11   28.79    1.12   0
  -7   2  12   50.51    1.38   0
  -7   4  12   56.84    1.65   0
  -5  -1   4  616.09    1.83   0
  -4  -2 -11   97.23    0.98   0
  -4   3  10  222.67    1.64   0
  -2  -1 -18   11.13    1.44   0
  -1   0 -21   10.84    1.92   0
  -1   0   2 2170.82    1.80   0
  -1   4   6    2.21    0.45   0
   0   3   5  392.45    0.93   0
   1   1 -21   29.72    2.57   0
   2   0 -14  190.65    1.67   0
   2   0 -13  813.77    3.11   0
   2   0  -7 2535.52    3.62   0
   3   1  -5  377.08    1.41   0
   4   2  -6  331.88    1.60   0
   4   4 -15   16.04    1.71   0
   4   4  -7  768.91    3.17   0
 -16  -1  10   18.73    2.24   0
 -15  -1  10   38.01    2.11   0
 -14  -1  10   45.06    1.84   0
 -13  -2   5   58.70    1.61   0
 -13   1  14   33.97    1.74   0
 -12  -2   5   25.41    1.36   0
 -12   0  12   -0.71    1.41   0
 -11  -1   9 1336.23    4.63   0
 -10   2  14  236.81    2.76   0
  -9  -2   3  273.46    1.70   0
  -8  -2   2  653.60    2.19   0
  -8  -1   7   85.10    1.07   0
  -8   0  10    0.81    0.63   0
  -8   1  12   64.74    1.53   0
  -8   2  13  145.43    2.01   0
  -5   3  11   73.49    1.25   0
  -4  -2 -10  218.58    1.23   0
  -3  -1 -19   24.95    1.75   0
  -2  -1 -17   12.69    1.46   0
   0   0 -19    7.66    1.64   0
   1   0 -17  148.31    1.79   0
   2   0  -9  691.51    2.22   0
   2   0  -8 2163.40    3.56   0
   3   1 -15  109.42    1.80   0
   3   2 -18    6.66    1.94   0
   3   5  -8   16.26    1.53   0
   3   5  -7  139.29    2.27   0
   4   2 -14   15.09    1.36   0
   4   2  -7 1172.26    3.05   0
   4   4 -13  103.58    2.23   0
   4   4 -11  333.35    2.75   0
   4   4 -10   52.04    1.61   0
   4   4  -9  105.55    1.70   0
   4   4  -8  536.37    2.83   0
 -16  -2   6   74.31    2.37   0
 -15  -2   6   59.21    2.16   0
 -15   0  13  101.82    2.77   0
 -14   0  13    5.22    1.94   0
 -13  -1  10   11.58    1.56   0
 -12   2  15  223.38    3.36   0
 -11   0  12  271.91    2.52   0
 -10  -2   4  416.87    2.24   0
  -9  -1   8  163.61    1.46   0
  -9   0  11  344.08    2.34   0
  -9   3  14  150.59    2.49   0
  -8   4  13   16.60    1.56   0
  -7  -2   1  190.57    1.13   0
  -6   3  12  100.08    1.51   0
  -4  -1   3 1072.83    2.09   0
  -4   2  10  146.56    1.29   0
  -2   3   8  205.08    1.21   0
  -2   5   6   59.97    0.76   0
  -1  -1 -14   44.97    1.14   0
  -1   0 -20   29.90    2.07   0
   1   0  -3 1077.00    1.51   0
   2   0 -10  707.89    2.31   0
   2   1 -18  149.19    2.17   0
   2   5  -3   35.89    1.13   0
   3   1  -6  417.42    1.59   0
   3   4  -3   36.91    0.73   0
   4   2  -9  284.36    1.91   0
   4   2  -8  747.53    2.66   0
   4   3  -7  130.00    1.42   0
 -14  -2   6   27.20    1.52   0
 -14   1  15   57.51    2.86   0
 -13  -2   6  266.85    2.68   0
 -13   0  13   31.60    1.92   0
 -12  -1  10  349.61    2.85   0
 -11  -2   5  153.54    1.71   0
 -11   1  14  148.86    2.40   0
 -10  -1   9  144.15    1.77   0
  -9   1  13  136.42    1.96   0
  -7   3  13  270.33    2.46   0
  -6   0   9  442.37    2.07   0
  -6   1  11  682.21    2.82   0
  -5  -2 -13  114.54    1.27   0
  -5   0   8  314.93    1.62   0
  -4  -1 -19   67.58    2.24   0
  -4   1   9  503.35    1.99   0
  -4   4  10   51.91    1.13   0
  -3   2   9 1264.98    2.90   0
  -2   0   4   53.70    0.46   0
  -1   1   5 3861.76    3.34   0
   0   1 -21   15.64    2.60   0
   1   1 -19  101.11    2.40   0
   3   1  -7  225.03    1.30   0
   4   3 -10  228.12    1.99   0
 -15  -2   7   66.01    2.37   0
 -15  -1  11    7.86    1.86   0
 -15   0  14   83.81    2.78   0
 -14  -1  11   87.37    2.43   0
 -13   1  15  197.81    3.28   0
 -12  -2   6   17.55    1.38   0
 -12   0  13  509.91    3.69   0
 -11  -1  10  216.96    2.33   0
 -10   3  15   17.13    1.77   0
  -9  -2   4  863.86    2.91   0
  -8  -2   3  797.65    2.59   0
  -8  -1   8  345.12    2.08   0
  -8   0  11   41.35    1.17   0
  -8   3  14  175.84    2.34   0
  -7   0  10   87.79    1.12   0
  -7   1  12 1205.23    3.94   0
  -6  -2   0   34.77    0.59   0
  -6  -1   6  185.59    1.29   0
  -6   4  12   34.12    1.51   0
  -5  -2 -12  247.68    1.51   0
  -3   1   8  112.56    0.97   0
  -2   2   8 1173.97    2.53   0
  -1   0 -19   43.07    1.88   0
   0   0 -17    5.42    1.40   0
   1   0 -14   26.14    1.15   0
   1   1   1   88.06    0.14   0
   2   1  -2 2931.01    2.65   0
   2   5  -4  183.75    2.16   0
   3   1  -8  115.39    1.10   0
   3   4 -15   46.91    2.08   0
   3   4 -14   27.31    1.81   0
 -14  -2   7   84.10    2.11   0
 -14   0  14    2.41    2.10   0
 -13  -1  11   16.20    1.78   0
 -12   1  15   24.14    1.95   0
 -11   0  13  363.14    2.99   0
 -10  -2   5   37.07    1.14   0
  -9  -1   9  114.67    1.59   0
  -9   0  12  246.56    2.14   0
  -8   1  13  599.67    3.23   0
  -8   2  14  236.11    2.40   0
  -7  -2   2  444.54    1.80   0
  -7   4  13    1.29    1.27   0
  -5  -1   5 1357.19    2.85   0
  -4  -1 -18   78.93    2.06   0
  -2  -1 -15   75.13    1.38   0
  -2   0 -20  121.29    2.77   0
  -1  -1 -12   83.41    1.11   0
  -1   3   7  404.81    1.33   0
   0   1 -20  303.27    3.61   0
   1   0 -13    1.86    0.98   0
   3   4 -13   88.78    2.24   0
   3   4  -5   85.41    1.26   0
 -15  -1  12   30.47    2.38   0
 -13  -3  -5   39.08    1.67   0
 -13  -3  -4   86.44    2.40   0
 -13  -2   7   35.58    1.61   0
 -13   0  14  247.35    3.19   0
 -12  -1  11  265.82    2.70   0
 -11  -2   6  127.40    1.65   0
 -11   1  15   16.96    1.87   0
 -11   2  16  114.35    2.66   0
 -10  -1  10   80.32    1.65   0
  -9   3  15    8.04    1.76   0
  -6   3  13  181.98    2.06   0
  -5  -2 -11  194.87    1.29   0
  -5  -2  -2  367.32    0.89   0
  -5  -1 -19    8.26    1.72   0
  -5   3  12  213.55    1.82   0
  -4   3  11   38.60    1.01   0
  -4   5   9   12.44    0.90   0
  -2   1   7 2978.29    3.72   0
  -2   4   8   37.92    0.72   0
   0   0 -16    3.89    1.31   0
   0   1 -19  540.11    4.31   0
   0   2   5 1359.44    1.74   0
   1   0  -4   21.99    0.37   0
   1   2 -19   10.85    2.15   0
   2   5  -5  288.39    2.53   0
   3   4 -11  268.14    2.63   0
   3   4  -6  129.18    1.52   0
 -15  -2   8  110.61    2.73   0
 -14  -1  12  119.79    2.58   0
 -13   1  16  225.64    3.59   0
 -12  -2   7   50.18    1.56   0
 -12   0  14  681.50    4.36   0
 -11  -1  11   13.38    1.50   0
 -10   0  13   55.50    1.61   0
  -9  -2   5  362.63    2.09   0
  -7  -1   8 1336.93    3.60   0
  -7   0  11    6.28    0.95   0
  -7   3  14  203.79    2.27   0
  -6  -2 -13   48.72    1.12   0
  -6   0  10   91.03    1.24   0
  -6   1  12  881.14    3.24   0
  -5   0   9  253.92    1.59   0
  -5   2  12  278.34    1.98   0
  -4  -1   4  982.71    2.16   0
  -3  -1 -16  268.74    2.28   0
  -3   0 -20   74.37    2.55   0
  -1   1 -20   16.89    2.12   0
   0   0 -15  187.94    1.91   0
   0   5   2  169.59    1.11   0
   1   1 -17  125.41    1.89   0
   2   3 -17   42.07    1.99   0
   2   5  -9   84.29    2.19   0
   2   5  -8   35.49    1.64   0
   2   5  -7   19.28    1.46   0
   2   5  -6   60.52    1.67   0
   3   4 -10  227.96    2.38   0
   3   4  -9   61.82    1.51   0
   3   4  -7  248.22    2.02   0
 -14  -3  -1   63.75    2.51   0
 -14   0  15   18.70    2.20   0
 -13   0  15  243.47    3.31   0
 -12  -3  -5  131.46    1.40   0
 -12  -3  -4  121.60    1.72   0
 -12   1  16    8.12    1.97   0
 -11  -2   7   22.54    1.23   0
 -11   0  14  215.07    2.63   0
 -10  -2   6  470.35    2.57   0
 -10   2  16   39.96    2.10   0
  -9  -1  10  203.82    1.98   0
  -8  -2 -15   48.58    1.54   0
  -8  -2   4  158.59    1.35   0
  -8  -1   9 1180.05    3.54   0
  -8   0  12   42.39    1.31   0
  -8   3  15   96.01    2.14   0
  -7  -2 -14   38.48    1.30   0
  -7   2  14   76.73    1.67   0
  -6  -2   1  252.31    1.25   0
  -6  -1   7   18.68    0.80   0
  -5  -2 -10  181.39    1.17   0
  -5  -1 -18    2.24    1.52   0
  -4  -1 -17    0.84    1.25   0
  -4   0   8  129.80    1.10   0
  -4   1  10  486.57    2.10   0
  -3   2  10  465.07    1.96   0
  -3   5   8   16.86    0.76   0
  -2  -1 -13  490.93    2.23   0
  -1  -1  -8  129.99    0.89   0
  -1   0 -17  602.02    3.51   0
  -1   2   7  147.30    0.84   0
   1   2 -18   35.60    2.01   0
   1   4   2  573.26    1.20   0
   3   2  -5  627.01    1.93   0
 -15  -2   9  157.71    3.07   0
 -15  -1  13   27.62    2.22   0
 -14  -1  13   73.51    2.58   0
 -13  -3  -1    8.12    1.81   0
 -12  -2   8   85.60    1.89   0
 -12  -1  12    2.66    1.23   0
 -10  -1  11  401.18    2.81   0
  -9   3  16    6.85    1.90   0
  -8   1  14  742.01    3.49   0
  -8   2  15  297.36    2.78   0
  -7  -2   3  691.85    2.25   0
  -6  -2 -12   29.20    0.93   0
  -6   4  13   22.46    1.33   0
  -5  -1   6 1765.12    3.40   0
  -5   4  12   90.15    1.50   0
  -3   0 -19   58.97    2.06   0
  -3   1   9  107.06    1.01   0
  -2   0   5   12.92    0.44   0
  -2   3   9  173.58    1.17   0
  -1   0 -16  144.44    1.93   0
  -1   1 -19  158.55    2.98   0
   2   4 -13   43.07    1.78   0
   3   2  -6  180.94    1.23   0
   3   3 -11   18.81    0.98   0
   3   3  -5  985.51    2.71   0
 -14  -3   0   56.09    2.37   0
 -14  -2   9  223.40    2.96   0
 -13  -2   9  108.46    2.16   0
 -13  -1  13    6.14    1.92   0
 -12   0  15  514.65    3.73   0
 -11  -1  12  361.25    2.96   0
 -11   2  17   63.46    2.45   0
 -10  -2   7  445.75    2.60   0
 -10   0  14    3.78    1.34   0
  -9  -2   6  293.13    2.01   0
  -9   1  15   19.87    1.61   0
  -6  -1 -18   66.67    2.34   0
  -5  -2  -9  237.52    1.17   0
  -5  -1 -17   41.94    1.76   0
  -4  -1 -16   49.03    1.50   0
  -2   1 -20   15.09    2.49   0
   1   5  -2    7.10    0.87   0
   2   4  -2   59.65    0.87   0
   3   3  -9   56.39    1.25   0
   3   3  -7  960.21    3.07   0
 -15  -2  10  129.97    2.89   0
 -14  -3   1   56.78    2.19   0
 -13  -3   0   41.78    1.86   0
 -13   0  16  264.13    3.66   0
 -12  -3  -1   95.88    1.91   0
 -12  -1  13   37.15    1.98   0
 -12   1  17   34.58    2.37   0
 -11  -2   8    3.60    1.28   0
 -11   0  15   62.11    1.98   0
 -10   1  16   98.90    2.36   0
 -10   2  17   52.12    2.20   0
  -9  -1  11  135.77    1.81   0
  -8  -2   5   71.11    1.11   0
  -8  -1  10 1295.17    3.98   0
  -8   0  13   30.12    1.36   0
  -7  -2 -13   15.71    1.03   0
  -7   0  12  155.92    1.61   0
  -7   3  15   51.91    1.58   0
  -6  -1   8   28.56    0.86   0
  -6   0  11 1134.71    3.46   0
  -6   3  14  381.21    2.72   0
  -5  -2  -1  344.06    0.99   0
  -5   0  10  963.65    2.97   0
  -5   1  12  184.52    1.66   0
  -5   2  13   61.64    1.22   0
  -5   3  13  628.72    2.94   0
  -4   3  12  156.46    1.61   0
  -3  -1 -14  200.89    1.73   0
  -3   0   7 1788.89    3.06   0
  -2   0 -17 1164.28    4.63   0
  -2   2   9   84.29    0.86   0
  -1   0 -15  105.02    1.62   0
  -1   1   6 6204.04    4.68   0
   2   1  -9   71.57    0.99   0
   2   1  -4  928.30    1.87   0
 -14  -3   2   73.53    2.32   0
 -14  -2  10  138.50    2.77   0
 -14  -1  14   14.06    2.06   0
 -13  -3   1    6.74    1.76   0
 -12  -3   0   62.15    1.83   0
 -12  -2   9  262.06    2.60   0
 -10  -1  12  274.97    2.54   0
  -9   0  14  125.97    1.96   0
  -8   3  16   15.27    1.70   0
  -7   1  14  866.74    3.57   0
  -7   2  15  162.10    2.07   0
  -6  -2 -11   95.72    1.05   0
  -6  -2   2  708.29    2.00   0
  -4  -1 -15  218.61    1.99   0
  -4  -1   5 1963.97    3.23   0
  -4   1  11  514.61    2.26   0
  -4   2  12  364.28    2.01   0
  -2   1   8 1564.18    2.88   0
  -1   2 -19  118.02    3.08   0
   0   1   4 1944.71    1.94   0
   1   2 -15   70.00    1.75   0
   1   5  -9    3.51    1.39   0
   1   5  -3   12.99    1.07   0
   2   1  -8 1450.56    3.08   0
   2   1  -7 3146.71    4.29   0
   2   1  -6 2166.90    3.32   0
   2   1  -5  941.42    2.05   0
   2   4  -3   74.82    1.03   0
 -13  -3   2   85.09    2.14   0
 -13  -2  10  277.87    3.07   0
 -13  -1  14   40.10    2.11   0
 -11  -2   9   21.21    1.39   0
 -11  -1  13  305.55    2.96   0
 -10  -2   8  283.69    2.23   0
 -10   0  15   17.22    1.55   0
  -9  -2   7  348.15    2.28   0
  -9   1  16   17.47    1.81   0
  -8  -2   6  222.48    1.68   0
  -8   2  16   61.50    1.61   0
  -6  -1 -17  229.69    2.60   0
  -6   4  14   33.54    1.60   0
  -5  -2  -8  572.77    1.47   0
  -5  -1 -16   27.05    1.35   0
  -5  -1   7  569.55    2.09   0
  -4   0   9   10.20    0.55   0
  -3   2  11  187.35    1.36   0
  -3   3  11   16.97    0.75   0
  -2  -1 -10  368.03    1.61   0
  -2   0 -16 1200.18    4.49   0
  -1   4   7   78.43    0.58   0
   0   1 -15  392.94    2.63   0
   1   5  -7    9.66    1.29   0
   1   5  -5   17.40    1.28   0
   1   5  -4    1.74    0.98   0
   2   3 -12    7.62    0.98   0
   2   4  -9   37.37    1.36   0
   2   4  -8   40.91    1.24   0
   2   4  -7   99.90    1.49   0
   2   4  -4  111.69    1.26   0
 -14  -3   3  100.76    2.53   0
 -14  -2  11   36.59    2.24   0
 -14  -1  15   51.98    2.80   0
 -13   0  17   16.52    2.29   0
 -12  -3   1  106.66    1.91   0
 -12  -2  10  245.85    2.69   0
 -12  -1  14   13.13    1.86   0
 -11  -3  -1   77.72    1.39   0
 -11   0  16   33.13    1.99   0
 -10   1  17  156.28    2.83   0
  -9  -1  12   59.71    1.58   0
  -8   0  14  956.89    3.97   0
  -7   0  13   56.39    1.35   0
  -6   0  12  853.35    3.17   0
  -4   0 -18   57.27    2.14   0
  -3   0 -17   50.02    1.62   0
  -3   1  10   51.88    0.92   0
  -2   2 -19    8.88    2.20   0
  -1   2 -18  227.45    3.24   0
  -1   3   8  110.88    0.80   0
   0   3   6  673.43    1.18   0
   2   4  -6   38.91    1.08   0
   2   4  -5  145.63    1.44   0
 -14  -3   4  137.81    2.89   0
 -13  -3   3  183.93    2.61   0
 -13  -2  11  287.88    3.29   0
 -13  -1  15  207.13    3.41   0
 -12  -3   2    6.78    1.43   0
 -12   0  17   11.23    2.06   0
 -11  -3   0   38.79    1.38   0
 -11  -1  14  137.17    2.28   0
 -11   1  18   28.72    2.39   0
 -10  -2   9   33.99    1.38   0
 -10  -1  13  136.03    1.84   0
  -9  -2   8  141.60    1.61   0
  -9   0  15  891.17    4.30   0
  -8   1  16   83.88    1.92   0
  -7  -2   5  559.00    2.23   0
  -7  -1 -17  140.99    2.39   0
  -7   2  16  112.10    1.99   0
  -7   3  16    8.32    1.47   0
  -6  -2 -10  341.63    1.53   0
  -6  -2   3 1533.97    3.06   0
  -6  -1   9   79.83    0.99   0
  -6   1  14   50.17    1.42   0
  -6   3  15  196.53    2.25   0
  -5  -2   0   75.84    0.60   0
  -5   0  11  279.63    1.81   0
  -5   1  13   57.61    1.27   0
  -5   2  14   29.02    1.24   0
  -5   3  14  327.40    2.29   0
  -4  -1 -14  252.14    1.88   0
  -4   4  12  378.03    2.35   0
  -3  -1 -12  994.88    2.89   0
  -3   0   8 2256.46    3.72   0
  -3   1 -19   26.06    1.82   0
  -2   0 -15  575.65    2.96   0
  -2   0   6  955.36    2.02   0
  -2   3  10   99.30    0.99   0
  -2   4   9   34.40    0.72   0
  -1   2   8  165.56    0.96   0
   0   3 -16   25.66    2.06   0
   2   2  -9   83.02    1.25   0
   2   3 -10  106.33    1.49   0
 -14  -2  12   33.52    2.25   0
 -13  -3   4  417.96    3.57   0
 -12  -2  11  223.43    2.74   0
 -12  -1  15   29.08    1.90   0
 -11  -3   1  111.24    1.73   0
 -11  -2  10  128.72    1.99   0
 -10   0  16   73.33    2.02   0
  -8  -2   7  685.51    2.85   0
  -6  -1 -16  381.00    3.08   0
  -5  -1 -15  106.14    1.57   0
  -5  -1   8   12.02    0.74   0
  -4  -1   6  987.53    2.38   0
  -4   0  10  180.77    1.40   0
  -4   1  12   64.81    1.22   0
  -4   2  13  193.06    1.66   0
  -4   3  13  197.08    1.70   0
  -3   0 -16  343.33    2.67   0
  -2   1 -17   14.16    1.80   0
  -2   2 -18  265.13    3.57   0
  -2   2  10  155.41    1.11   0
  -1   5   4    2.40    0.43   0
   0   0  -9   35.00    0.73   0
   0   2   6  165.73    0.73   0
   1   3   3   32.56    0.22   0
   1   4   1  810.11    1.80   0
   2   2  -8 1195.22    3.20   0
   2   2  -2   49.11    0.57   0
   2   3  -9  161.18    1.48   0
   2   3  -8  207.56    1.74   0
 -14  -3   5  194.04    3.04   0
 -13  -2  12  171.96    2.83   0
 -12  -3   3  134.23    2.08   0
 -11   0  17   47.44    2.11   0
 -10  -1  14   60.81    1.83   0
 -10   1  18   83.74    2.69   0
  -9  -1  13  134.24    1.90   0
  -9   2  18   26.58    2.18   0
  -8  -1  12   60.38    1.21   0
  -8   0  15  493.95    3.17   0
  -7  -2   6  263.83    1.71   0
  -7   0  14   32.82    1.38   0
  -6  -2   4  223.58    1.43   0
  -6   0  13  256.67    1.96   0
  -5   0 -18  463.34    3.93   0
  -4  -1 -13  164.31    1.48   0
  -4   1 -19   87.30    2.55   0
  -3  -1   4   10.11    0.38   0
  -3   1 -18   44.17    2.06   0
  -2  -1  -8 1455.45    2.57   0
  -2   1   9   72.33    0.84   0
  -1   0   4   21.55    0.38   0
  -1   1 -15   14.66    1.39   0
  -1   1   7 4259.50    4.17   0
   0   5  -9   10.54    1.54   0
   0   5   0    0.13    0.68   0
   2   2  -7 1071.08    2.84   0
   2   3  -7  524.01    2.36   0
 -14  -3   6  109.88    2.63   0
 -14  -2  13   85.39    2.57   0
 -13  -3   5  112.30    2.21   0
 -13  -1  16  237.81    3.67   0
 -12  -3   4  193.10    2.50   0
 -12  -2  12   19.52    1.60   0
 -12   0  18   57.24    2.73   0
 -11  -3   2   27.68    1.45   0
 -11  -2  11  136.22    2.10   0
 -11  -1  15   19.33    1.82   0
 -10  -2  10   38.61    1.43   0
  -9  -2   9   65.26    1.47   0
  -9   0  16  492.18    3.56   0
  -8  -2 -12   21.33    0.98   0
  -8  -2   8  295.00    2.07   0
  -7  -1 -16  519.75    3.41   0
  -7   1  16   79.46    1.80   0
  -6  -2  -9  375.86    1.46   0
  -6  -1  10   70.58    1.02   0
  -6   1  15   92.46    1.70   0
  -5  -2   1   29.44    0.48   0
  -5  -1 -14  119.83    1.62   0
  -5   0  12   62.82    1.20   0
  -3  -1 -11 2491.46    4.18   0
  -3   1  11   86.26    1.11   0
  -3   2  12  753.43    2.64   0
  -3   3  12   77.74    1.08   0
  -3   5   9   19.32    0.64   0
  -2   1 -16   11.68    1.40   0
  -1   3 -16    4.55    1.96   0
   0   0  -8    6.56    0.52   0
   0   5  -8  138.92    2.34   0
   0   5  -7  306.43    2.97   0
   1   3 -11  190.20    1.98   0
   1   4  -9  220.23    2.25   0
   2   2  -6  404.25    1.61   0
   2   2  -5  461.82    1.65   0
   2   3  -6  699.53    2.47   0
   2   3  -5  534.61    2.03   0
   2   3  -4  686.13    2.09   0
 -13  -2  13  103.96    2.47   0
 -12  -1  16    6.97    2.01   0
 -11  -3   3  157.98    2.07   0
 -11   0  18  102.15    2.60   0
 -10  -3  -1  123.03    1.18   0
 -10  -3   0  165.84    1.43   0
 -10   0  17   31.93    1.52   0
  -9  -1  14   19.82    1.42   0
  -9   1  18    1.09    1.91   0
  -8  -1  13  581.60    3.22   0
  -8   1  17    9.14    1.24   0
  -8   2  18  137.53    2.50   0
  -7   2  17   67.35    2.10   0
  -7   3  17   71.07    1.98   0
  -6  -1 -15  217.25    2.12   0
  -6   0 -18  249.64    3.32   0
  -6   2  16  121.74    2.07   0
  -6   3  16  103.66    1.90   0
  -5  -1   9   50.46    0.97   0
  -5   0 -17  435.33    3.49   0
  -5   2  15  246.21    2.17   0
  -5   3  15   47.57    1.54   0
  -4  -1   7   41.34    0.75   0
  -4   0 -16   83.99    1.70   0
  -3   0 -15  259.85    2.23   0
  -3   0   9 2472.48    4.11   0
  -3   2 -18  102.35    2.96   0
  -2  -1  -7 2903.50    3.33   0
  -2   0   7 2557.15    3.59   0
  -2   3 -17    4.16    1.74   0
   0   0  -7   99.17    0.82   0
   0   4 -12  560.28    3.80   0
   0   5  -6  160.42    2.14   0
   0   5  -5   17.29    1.31   0
   1   1  -8  412.98    1.74   0
   1   4  -8  299.73    2.26   0
   1   4   0  306.40    1.37   0
 -14  -3   7   58.28    2.28   0
 -13  -3   6    0.65    1.69   0
 -12  -3   5  154.50    2.17   0
 -11  -3   4  189.08    2.28   0
 -11  -2  12   87.47    2.06   0
 -11  -1  16   24.75    1.85   0
 -10  -3   1  113.24    1.41   0
 -10  -2  11  122.05    2.01   0
 -10  -1  15   16.10    1.61   0
 -10   1  19   30.99    2.44   0
  -9  -2  10  125.98    1.83   0
  -8  -1 -16   32.35    1.78   0
  -8   0  16  165.10    2.29   0
  -7  -2   7  940.34    3.15   0
  -7  -1  12 1075.64    3.62   0
  -7   0  15   -0.31    1.26   0
  -6  -2   5   41.23    0.89   0
  -5  -2   2  132.21    0.86   0
  -4  -1 -12  226.09    1.53   0
  -4   0  11   19.32    0.82   0
  -4   1  13  574.80    2.63   0
  -4   2  14   13.99    0.99   0
  -4   3  14  225.46    2.02   0
  -4   4  13   99.29    1.57   0
  -3  -1 -10 2587.12    3.98   0
  -3  -1   5  406.41    1.49   0
  -2   0 -13  926.20    3.11   0
  -1   2   9  440.81    1.59   0
   0   1   5 3333.58    2.89   0
   0   3 -13   17.83    1.21   0
   0   4 -11  323.66    2.91   0
   0   5  -4   75.54    1.50   0
   1   3 -10  411.05    2.54   0
   1   4  -7   82.05    1.39   0
   1   4  -6    2.01    0.91   0
 -14  -3   8   94.78    2.70   0
 -13  -2  14   34.43    2.19   0
 -12  -2  13  140.57    2.49   0
 -12  -1  17   33.88    2.21   0
 -10  -3   2    8.66    1.08   0
 -10   0  18    6.20    1.95   0
  -9   0  17  235.97    2.51   0
  -8  -2   9   39.30    1.25   0
  -7  -2 -10  486.40    1.86   0
  -7  -1 -15  655.88    3.61   0
  -7   0 -18   13.65    1.97   0
  -7   1  17  179.38    2.36   0
  -6  -1  11  635.43    2.63   0
  -6   0 -17  282.59    3.22   0
  -6   0  14   18.27    0.91   0
  -5  -1 -13   44.22    1.09   0
  -5   0  13  197.54    1.73   0
  -5   1 -18    3.49    1.87   0
  -3   1 -16  252.44    2.64   0
  -2   2  11 1104.82    2.82   0
  -2   3  11   90.68    0.99   0
  -1   1   8  409.82    1.50   0
  -1   3 -14    9.85    1.73   0
  -1   3   9   57.76    0.71   0
  -1   4 -13   37.48    1.59   0
  -1   5  -9   30.33    1.84   0
   0   0  -6  911.80    1.88   0
   0   4 -10   37.90    1.55   0
   1   1  -7 4170.92    4.77   0
   1   3  -9   67.07    1.32   0
   1   4  -5   80.75    1.22   0
   1   4  -4  214.54    1.65   0
   1   4  -2  132.99    1.17   0
   1   4  -1  129.23    1.07   0
 -11  -3   5   67.34    1.70   0
 -11  -2  13  196.66    2.56   0
 -11   0  19   11.91    2.36   0
 -10  -3   3   42.02    1.33   0
 -10  -2  12   29.80    1.58   0
 -10  -1  16   91.92    2.23   0
  -9  -2  11  205.45    2.25   0
  -9  -1  15   24.33    1.64   0
  -9   1  19   63.53    2.46   0
  -8  -1  14  848.67    3.88   0
  -8   1  18   22.31    1.81   0
  -7  -2   8  997.26    3.40   0
  -7  -1  13 1477.50    4.62   0
  -7   2  18  126.89    2.32   0
  -6  -2  -8  262.34    1.14   0
  -6  -2   6 1186.97    3.20   0
  -6   1  16  139.73    1.74   0
  -6   2  17   21.92    1.47   0
  -5  -2   3  141.71    0.99   0
  -5  -1  10   83.82    1.20   0
  -5   0 -16   98.44    1.97   0
  -5   1  15  105.85    1.67   0
  -4  -1   8   72.99    0.96   0
  -4   1 -17    2.78    1.33   0
  -3   0  10  873.41    2.64   0
  -3   1  12  502.61    2.22   0
  -3   2  13  490.15    2.29   0
  -2   4  10   45.84    0.74   0
  -1   0   5   44.73    0.52   0
  -1   2 -14  440.62    2.85   0
  -1   4 -12  163.72    2.48   0
  -1   5  -8   12.75    1.53   0
   0   0  -5 3767.60    3.44   0
   1   2  -9  449.43    2.06   0
   1   3  -8  116.54    1.40   0
   1   4  -3  273.18    1.66   0
 -13  -3   8  219.81    2.97   0
 -12  -3   7  195.99    2.75   0
 -12  -2  14  462.73    4.21   0
 -11  -1  17   42.32    2.30   0
 -10  -3   4  224.98    2.18   0
 -10  -2 -12    3.14    1.11   0
  -9   0  18    2.19    1.69   0
  -8  -2  10   68.82    1.46   0
  -8  -1 -15  127.09    2.16   0
  -8   0  17   14.87    1.77   0
  -8   2  19  305.44    3.61   0
  -7   0 -17   36.30    1.90   0
  -7   0  16    9.39    1.44   0
  -6   0  15   69.29    1.47   0
  -6   1 -18   87.09    2.72   0
  -6   3  17   43.79    1.65   0
  -5   2  16   88.53    1.78   0
  -5   3  16   39.55    1.52   0
  -4  -1 -11  317.53    1.62   0
  -4   0  12  149.29    1.49   0
  -4   1  14 1039.20    3.60   0
  -3  -1   6  425.72    1.62   0
  -2   0   8 1850.84    3.19   0
  -1   0  -9 1152.78    2.68   0
  -1   5  -7  251.70    2.77   0
  -1   5   3    9.36    0.62   0
   0   0  -4 4301.12    3.20   0
   0   2   7  128.83    0.73   0
   0   3 -11  360.53    2.69   0
   0   4  -9   66.85    1.50   0
   1   1  -5 4058.77    4.12   0
   1   2  -8  186.55    1.45   0
 -13  -3   9  106.84    2.62   0
 -12  -3   8  186.32    2.66   0
 -11  -2  14  142.16    2.49   0
 -10  -2  13   68.95    2.00   0
 -10   0  19    0.13    2.12   0
  -9  -2  12   91.07    1.74   0
  -9  -1  16   24.10    1.63   0
  -8  -1  15  324.91    2.71   0
  -7  -2   9  401.66    2.39   0
  -7  -1 -14  327.29    2.56   0
  -7   1  18  231.95    2.68   0
  -6  -2   7 2273.72    4.63   0
  -6   0 -16  309.73    2.98   0
  -5  -2  -5  982.15    1.20   0
  -5  -2   4  330.23    1.49   0
  -5  -1 -12   80.47    1.24   0
  -5   0  14   80.26    1.46   0
  -5   1 -17   36.12    2.11   0
  -4  -1   9  469.66    2.04   0
  -4   2 -17  152.13    2.84   0
  -4   2  15    7.76    1.06   0
  -4   3  15  154.55    1.83   0
  -3   0 -13    0.81    0.91   0
  -2   0 -11  984.69    2.91   0
  -1   4 -11  130.51    2.13   0
  -1   4   8  291.60    0.93   0
  -1   5  -6  384.20    3.21   0
   0   3   7 1008.62    1.48   0
   0   4  -8  108.93    1.64   0
   1   1  -4 1294.38    2.14   0
   1   1   0  899.61    0.88   0
   1   2  -7  165.63    1.25   0
   1   3  -7  397.60    2.09   0
 -12  -2  15  238.06    3.47   0
 -11  -3   7  163.82    2.14   0
 -11  -1  18   26.19    2.20   0
 -10  -1  17  151.31    2.67   0
  -9  -3  -1    8.30    0.58   0
  -9  -3   0  218.23    1.26   0
  -9  -3   1  286.40    1.58   0
  -9  -3   2   98.21    1.16   0
  -9  -1 -15    6.27    1.66   0
  -8  -2  11   53.36    1.44   0
  -8   0 -17    0.50    2.02   0
  -8   1  19    1.64    1.46   0
  -7  -2  -9  300.47    1.40   0
  -7  -1  14 1052.83    4.14   0
  -6  -1 -13  755.12    3.04   0
  -6   1  17  205.10    2.37   0
  -5  -1  11   22.42    0.80   0
  -5   0 -15  202.88    2.16   0
  -5   1  16   43.97    1.50   0
  -4   0 -14   82.88    1.29   0
  -4   4  14   16.27    1.20   0
  -3   0  11  266.71    1.69   0
  -3   1  13  505.56    2.40   0
  -2  -1   3 3983.64    3.42   0
  -2   2  12 1458.14    3.40   0
  -2   4 -12   17.24    1.55   0
  -2   5  -9   92.76    2.63   0
  -1   2  10  803.58    2.20   0
  -1   4 -10   59.57    1.51   0
  -1   5  -5  246.37    2.64   0
   0   0  -3  633.08    1.07   0
   0   1  -9  583.67    2.08   0
   0   1   6 1476.11    2.17   0
   0   3 -10  155.90    1.81   0
   0   4  -7  122.22    1.60   0
   0   4   4   89.89    0.53   0
   1   1  -3  803.94    1.53   0
   1   3  -6 1150.18    3.10   0
 -13  -3  10   80.20    2.46   0
 -12  -3   9  147.28    2.54   0
 -11  -3   8  255.94    2.70   0
 -10  -3   6  291.02    2.39   0
 -10  -2  14  225.20    2.77   0
  -9  -3   3  107.80    1.36   0
  -9   0  19  267.15    3.44   0
  -8   0  18  538.31    4.04   0
  -7  -2  10  223.25    1.94   0
  -7   0 -16    5.33    1.55   0
  -7   0  17  237.32    2.59   0
  -7   2  19   81.74    2.29   0
  -6  -2   8 1039.83    3.37   0
  -6  -1  13  524.99    2.76   0
  -6   1 -17  238.08    3.41   0
  -6   2  18  108.45    2.23   0
  -5  -2   5  630.82    2.13   0
  -5   2 -17  183.36    3.12   0
  -5   2  17   87.04    1.79   0
  -4  -1 -10  868.46    2.38   0
  -4   1  15  892.70    3.49   0
  -3  -1   7  225.32    1.23   0
  -3   2  14  312.48    1.99   0
  -3   4 -13  179.79    2.96   0
  -2   0   9  707.02    2.22   0
  -2   3  12    7.77    0.63   0
  -2   5  -8   26.61    1.71   0
  -1   0  -8  939.55    2.27   0
  -1   0   6   21.39    0.43   0
  -1   1   9  372.79    1.50   0
  -1   3  10  365.54    1.42   0
  -1   5  -4   38.83    1.30   0
  -1   5   2    5.24    0.62   0
   0   0  -2  230.55    0.53   0
   0   3  -9  382.47    2.34   0
   0   4  -6   62.78    1.25   0
   1   1  -1 1224.34    1.36   0
   1   3   2  373.52    0.81   0
 -13  -3  11   20.89    2.28   0
 -12  -3  10  133.61    2.56   0
 -12  -2  16   24.30    2.41   0
 -11  -2  15  124.28    2.59   0
 -10  -1  18   81.45    2.48   0
  -9  -3   4   61.05    1.22   0
  -9  -2  13   77.31    1.82   0
  -9  -1  17   27.10    1.92   0
  -8  -2  12   35.07    1.48   0
  -8  -1 -14  198.66    2.19   0
  -8  -1  16   70.61    1.86   0
  -7  -1  15  131.44    1.96   0
  -7   1  19   81.88    2.08   0
  -6   0 -15   39.88    1.64   0
  -5  -1  12  204.46    1.79   0
  -5   0  15  185.29    2.01   0
  -5   3  17  172.07    2.18   0
  -4  -1  10  505.33    2.25   0
  -4   2  16   59.64    1.55   0
  -2   4 -11   18.26    1.53   0
  -1   4  -9   71.72    1.60   0
  -1   5  -3   42.38    1.25   0
  -1   5  -2   71.21    1.38   0
   0   1  -8  801.70    2.27   0
   1   2  -5  158.60    1.05   0
   1   3  -4  114.92    0.98   0
 -11  -3   9  264.80    2.76   0
  -9  -3   5  136.10    1.66   0
  -8   0  19  368.54    3.63   0
  -7  -2  11   85.41    1.56   0
  -6  -2   9  381.37    2.31   0
  -6  -1 -12  753.55    2.81   0
  -6   1  18   30.33    1.58   0
  -5  -2   6 1028.50    2.85   0
  -5  -1 -11  256.37    1.55   0
  -5   0 -14  110.72    1.64   0
  -5   1  17   81.16    1.71   0
  -4   2 -15   75.77    2.25   0
  -4   3  16  178.42    2.05   0
  -3  -1   8  112.22    1.10   0
  -3   0  12 1091.07    3.29   0
  -3   4 -12   49.46    1.97   0
  -3   4  13   90.87    1.30   0
  -2  -1  -4  154.45    0.53   0
  -2  -1   4  946.25    1.84   0
  -2   4  11   57.28    0.90   0
  -2   5  -7    9.89    1.32   0
  -1   0  -7   65.68    0.68   0
   0   2   8  210.61    0.98   0
   0   3  -8  453.07    2.34   0
   0   4  -5   35.19    0.99   0
   1   3  -3  121.85    0.91   0
 -12  -3  11   28.46    2.14   0
 -11  -3  10   68.53    2.08   0
 -11  -2  16  103.13    2.76   0
 -10  -3   8  187.06    2.20   0
 -10  -2  15  257.90    2.81   0
  -9  -3   6   22.58    1.29   0
  -9  -2  14  177.09    2.47   0
  -9  -1 -14   39.78    1.57   0
  -9  -1  18    2.32    1.90   0
  -9   0  20  231.82    3.53   0
  -8  -2  13  144.98    2.01   0
  -8  -1  17    9.71    1.67   0
  -7   0 -15    3.06    1.42   0
  -7   0  18  117.82    1.97   0
  -6   0  17   91.96    1.93   0
  -6   2  19  204.47    2.86   0
  -5  -2   7  848.14    2.83   0
  -4  -1  11  498.78    2.35   0
  -4   0  14    1.17    0.75   0
  -4   1  16  174.73    1.98   0
  -3   0 -11    1.90    0.80   0
  -3   2  15   54.26    1.26   0
  -2   0  10  662.69    2.21   0
  -2   2  13  740.23    2.62   0
  -2   3 -12  204.43    2.22   0
  -2   4 -10   40.29    1.60   0
  -2   5  -6   54.37    1.66   0
  -1   0   7   58.10    0.62   0
  -1   2  11  525.24    1.92   0
  -1   3 -10  418.20    2.67   0
  -1   4  -8   67.22    1.44   0
   0   1  -7  522.79    1.80   0
   0   1   7  497.59    1.43   0
   0   2  -8  227.42    1.59   0
   0   4  -4   84.91    1.19   0
   1   2  -4  134.62    0.91   0
   1   3  -2  402.32    1.39   0
   1   3  -1  483.28    1.44   0
   1   3   0  177.17    0.80   0
   1   3   1   34.25    0.38   0
 -12  -3  12   28.41    2.13   0
 -10  -3   9  287.80    2.77   0
 -10  -1 -14   23.62    1.67   0
 -10  -1  19   29.63    1.86   0
  -9  -3   7  202.75    2.14   0
  -9   0 -16    0.94    1.83   0
  -8  -2  -9  789.97    2.33   0
  -8  -1 -13  186.60    2.03   0
  -7  -2  -8  311.13    1.32   0
  -7  -2  12   49.79    1.52   0
  -7   1  20    1.78    1.94   0
  -6  -2  10  240.09    1.98   0
  -6  -1  15   92.87    1.63   0
  -6   0 -14   39.75    1.41   0
  -6   1  19   21.87    1.56   0
  -5  -1  13   50.35    1.03   0
  -5   2  18   44.58    1.66   0
  -4  -2   0 2226.35    2.21   0
  -4  -2   1  256.98    0.94   0
  -4  -1  -9  834.71    2.19   0
  -4   0 -12   13.54    0.94   0
  -3  -1  -7 1166.09    2.14   0
  -3  -1   9   99.92    1.12   0
  -3   3 -13    9.54    1.32   0
  -3   4 -11    7.23    1.40   0
  -3   5  -8    4.61    1.65   0
  -2   3  13  126.63    1.31   0
  -2   5  -5   57.01    1.58   0
  -1   4  -7   46.56    1.31   0
   0   3  -7  976.28    3.08   0
   0   4  -3   60.52    1.00   0
   0   4   3   65.64    0.59   0
   1   2  -3  166.77    0.91   0
 -11  -3  11   17.03    1.92   0
 -11  -2  17   82.24    2.74   0
 -10  -3  10  382.60    3.09   0
 -10  -2  16   45.72    1.83   0
  -9  -3   8  500.15    3.24   0
  -9  -2  15  247.85    2.86   0
  -8  -3   1  301.34    1.42   0
  -8  -3   2  425.44    1.81   0
  -8  -3   3  106.75    1.14   0
  -8  -3   4  153.40    1.53   0
  -8  -2  14  219.56    2.54   0
  -8   0  20  379.46    4.11   0
  -7  -1 -12  476.83    2.59   0
  -7   0  19  175.89    2.80   0
  -6   1 -15  223.72    2.79   0
  -5  -2   8  745.76    2.82   0
  -5   0 -13  463.69    2.60   0
  -5   2 -15   72.05    1.91   0
  -5   3  18   69.46    1.92   0
  -4  -2   3  199.72    1.04   0
  -4   0  15   23.45    1.26   0
  -4   2  17   28.78    1.37   0
  -4   4 -12   54.30    2.32   0
  -3   0  13 2025.11    4.59   0
  -3   1  15   95.49    1.56   0
  -3   3  15   34.48    1.12   0
  -3   5  -7    8.30    1.37   0
  -2   0  11 1826.16    3.96   0
  -2   1  13   80.18    1.21   0
  -2   4  -9   61.83    1.52   0
  -2   5  -4   39.98    1.44   0
  -1   0   8   54.39    0.75   0
  -1   1  -9   57.75    0.77   0
  -1   3  -9  305.12    2.16   0
  -1   3  11  167.94    1.08   0
   0   1  -6 1451.53    2.69   0
   0   2  -7  127.03    1.16   0
   0   4  -2   30.50    0.81   0
   0   4  -1  126.48    1.13   0
 -12  -3  13   71.55    2.77   0
 -11  -3  12   39.30    2.19   0
  -9  -1 -13   34.78    1.57   0
  -9  -1  19   52.51    1.92   0
  -8  -3   0  329.08    1.26   0
  -8  -1  18   22.18    1.41   0
  -7  -2  13   19.67    1.55   0
  -7  -1  17  192.96    2.55   0
  -6  -2  11  198.38    1.95   0
  -6  -1 -11  491.80    2.16   0
  -6   0  18    0.87    1.19   0
  -5  -1  14  192.56    1.95   0
  -5   0  17   89.08    1.76   0
  -5   1 -14  109.25    1.99   0
  -4  -2   4  155.93    1.01   0
  -4   1  17  106.73    1.76   0
  -4   3 -13  476.11    3.98   0
  -4   3  17   86.46    1.87   0
  -3  -1  10   44.70    0.96   0
  -3   0 -10    1.19    0.73   0
  -3   3 -12  190.78    2.60   0
  -3   4 -10   15.89    1.35   0
  -2  -1   6 1972.30    3.11   0
  -2   2  14   60.20    1.14   0
  -1   4  -6   55.03    1.20   0
   0   0   2  243.94    0.56   0
   0   3  -6  648.45    2.36   0
   0   3   8  427.62    1.04   0
   0   4   0  236.88    1.33   0
   0   4   1  124.69    0.97   0
   0   4   2   32.75    0.60   0
   1   2  -2 1537.87    2.31   0
 -10  -3  11  125.86    2.40   0
 -10  -2  17   54.44    2.03   0
  -9  -3   9  667.19    3.70   0
  -9  -2  16  431.14    3.87   0
  -9   0 -15    4.09    1.79   0
  -8  -2  15  297.86    3.09   0
  -7   0 -14   14.73    1.33   0
  -6  -1  16  157.83    2.05   0
  -5  -2   9  630.65    2.72   0
  -5   2  19  149.36    2.53   0
  -5   4 -12    1.80    1.86   0
  -4  -2   5   47.27    0.76   0
  -4   4 -11   37.84    2.03   0
  -3   0  14  515.84    2.60   0
  -3   2  16   26.19    1.20   0
  -3   4  14   28.19    1.10   0
  -3   5  -6    3.10    1.38   0
  -2  -1   7 2992.42    4.21   0
  -2   0  -8   83.55    0.84   0
  -2   3 -10  543.50    3.19   0
  -2   4  -8   64.46    1.46   0
  -2   5  -3   18.74    1.18   0
  -1   1  -8  135.87    1.13   0
  -1   2  -9  471.71    2.24   0
  -1   2  12  217.64    1.41   0
  -1   3  -8   90.66    1.38   0
   0   0   3  614.05    1.06   0
   0   1   8  795.45    1.90   0
   0   2   9   55.09    0.64   0
   1   2   4 1340.92    0.81   0
 -11  -3  13  108.88    2.78   0
 -10  -3  12   59.74    2.33   0
 -10  -1 -13  102.97    1.91   0
  -9  -3  10   79.95    2.01   0
  -8  -1 -12    7.62    0.97   0
  -8  -1  19    2.02    1.95   0
  -7  -2  14   72.30    1.84   0
  -7  -1  18  231.97    2.82   0
  -7   0  20    1.05    1.79   0
  -6  -2  12  528.08    2.91   0
  -6   0 -13    6.40    0.85   0
  -6   0  19    8.56    1.83   0
  -6   1 -14   62.71    1.94   0
  -6   3 -14   60.25    2.73   0
  -5  -2  -4  621.30    0.82   0
  -5  -2  10  345.21    2.27   0
  -5  -1  15  111.32    1.77   0
  -5   1  19   45.08    1.86   0
  -5   3 -13   23.29    1.98   0
  -4  -2   6  331.95    1.64   0
  -4  -1  13  569.19    2.75   0
  -4   0 -11  113.59    1.27   0
  -4   0  16   38.81    1.40   0
  -4   2  18  116.52    1.96   0
  -3  -1  11   83.97    1.18   0
  -3   1  16  138.79    1.82   0
  -3   3 -11  676.88    3.92   0
  -3   4  -9  129.23    1.98   0
  -3   5  -5    2.87    1.25   0
  -2  -1  -3  883.83    0.94   0
  -2   0  12 4213.69    6.31   0
  -2   1  14   41.75    1.10   0
  -2   3  14   76.76    1.24   0
  -2   5  -2    8.13    0.99   0
  -1   4  -5  371.41    2.15   0
  -1   4   9  207.29    0.74   0
   0   1  -5 3266.34    3.70   0
   0   2  -6  170.72    1.22   0
 -11  -3  14   35.19    2.20   0
  -9  -3  11   22.13    1.79   0
  -9  -2  17   70.46    2.36   0
  -8  -3  -1  412.04    1.09   0
  -8  -3   8  259.11    2.28   0
  -8  -2  16   77.11    2.29   0
  -7  -1 -11  863.25    2.98   0
  -6  -2  13  129.97    1.86   0
  -5  -1  -9  179.39    1.18   0
  -5   0  18    7.86    1.66   0
  -4  -2   7 1087.07    3.03   0
  -4   1  18  422.44    3.09   0
  -4   3 -12  220.51    2.51   0
  -4   4 -10   63.46    1.93   0
  -4   5  -7   98.52    2.42   0
  -2  -1   8 1436.48    3.13   0
  -2   2  15  157.17    1.67   0
  -2   3  -9  232.57    2.14   0
  -2   4  -7   23.08    1.23   0
  -2   5  -1   39.72    1.12   0
  -1   0  -5 1143.41    1.93   0
  -1   2  -8  319.74    1.85   0
  -1   3  -7  796.98    2.98   0
  -1   4  -4   77.76    1.17   0
   0   0   4 4347.48    3.23   0
   0   3  -4  291.63    1.44   0
   1   2   0 1775.12    1.92   0
 -12  -3  -5  142.93    0.98   0
 -10  -3  13  114.05    2.74   0
  -9  -1 -12   63.52    1.42   0
  -9   1 -15    5.32    2.08   0
  -8  -3   9  326.74    2.62   0
  -8  -2  -8  398.93    1.59   0
  -7  -3   4    4.22    0.78   0
  -7  -2  -7  529.62    1.55   0
  -7  -2  15  154.02    2.44   0
  -7  -1  19   73.30    2.29   0
  -7   0 -13    1.95    1.19   0
  -7   0  21   21.19    2.41   0
  -6  -1 -10  346.51    1.73   0
  -6   1  21   88.14    2.64   0
  -6   3 -13  158.39    2.95   0
  -5  -2  11  394.95    2.46   0
  -5  -1  16   32.73    1.46   0
  -5   2 -13  122.08    2.17   0
  -5   2  20  166.99    2.82   0
  -5   4 -11   59.22    1.88   0
  -4  -2   8  730.12    2.67   0
  -4  -1  14 1028.49    3.79   0
  -4   0  17    3.65    1.36   0
  -4   3  18   81.66    1.83   0
  -4   5  -6  100.30    2.15   0
  -3  -1  12  483.44    2.42   0
  -3   0  15   33.81    1.24   0
  -3   2  17   11.92    1.18   0
  -3   3 -10  556.99    3.41   0
  -3   4  -8  156.56    1.90   0
  -3   5  -4   45.21    1.49   0
  -2   0  13  789.40    3.00   0
  -2   5   0   51.73    1.18   0
  -1   0  10  917.77    2.65   0
  -1   1  -7  587.71    1.96   0
  -1   2  13  607.97    2.40   0
  -1   3  12   90.31    0.94   0
   0   0   5 3662.18    3.35   0
   0   1   9  576.36    1.76   0
   0   2  -5 1380.14    2.88   0
   0   2  10  180.88    1.09   0
   1   2   1 1422.96    1.43   0
 -10  -3  14   37.90    2.34   0
  -9  -3  12  262.01    2.93   0
  -9  -2  18   32.53    2.31   0
  -8  -3  10  249.06    2.62   0
  -8  -2  17   36.27    2.15   0
  -7  -3   2  554.82    1.82   0
  -7  -3   3   85.06    0.95   0
  -7  -3   5  143.12    1.35   0
  -6  -2  14   38.86    1.60   0
  -6  -1  18   28.20    1.79   0
  -6   0  20   42.47    1.76   0
  -6   1 -13  752.57    3.76   0
  -5  -2  12  264.77    2.18   0
  -5   0 -11   13.14    0.96   0
  -5   0  19  215.57    2.69   0
  -5   1  20    7.58    1.81   0
  -5   3 -12  373.54    3.60   0
  -4   0 -10  910.80    2.81   0
  -4   2  19  120.65    2.32   0
  -4   3 -11  479.28    3.54   0
  -4   4  -9   38.11    1.55   0
  -3   1  17  760.46    3.64   0
  -2  -1   9   60.31    0.80   0
  -2   1  15  134.48    1.60   0
  -2   4  -6  230.08    1.94   0
  -1   3  -6 1185.32    3.29   0
   0   3  -3  553.69    1.77   0
   0   3   9  376.00    1.11   0
   1   2   2 1133.36    0.96   0
 -11   0 -14  143.78    3.18   0
 -10  -1 -12  205.89    2.33   0
  -9  -3  13  336.84    3.54   0
  -8  -3  11  302.37    2.88   0
  -8  -1 -11   52.13    1.21   0
  -7  -3   7   54.91    1.22   0
  -7  -3   8  280.19    2.15   0
  -7  -2  16  123.06    2.33   0
  -7   3 -13   15.13    2.26   0
  -6   4 -11   80.31    2.49   0
  -5  -1  17   84.87    1.96   0
  -5   4 -10  106.24    2.28   0
  -4  -2   9  267.65    1.74   0
  -4  -1  15  962.92    3.89   0
  -4   5  -5    4.81    1.40   0
  -3  -1  13  525.64    2.66   0
  -3   0  16   45.56    1.45   0
  -3   4  15   47.04    1.29   0
  -3   5  -3   58.85    1.56   0
  -2  -1  10   55.73    0.99   0
  -2   0  14  216.98    1.82   0
  -2   2  16  158.80    1.72   0
  -2   3  -8  510.52    2.50   0
  -2   3  15  273.92    1.95   0
  -1   0  11 1580.64    3.69   0
  -1   2  -7  235.53    1.47   0
  -1   4  -2  513.87    2.21   0
   0   0   6 1017.44    1.99   0
   1   2   5  466.40    0.72   0
 -11  -1 -12    6.14    1.38   0
 -10  -3  15   19.97    2.31   0
  -9  -3  14  160.80    2.71   0
  -9   0 -13   78.82    2.13   0
  -8  -3  12  169.68    2.55   0
  -8  -2  18  155.84    3.13   0
  -8   2 -14  205.27    3.08   0
  -7  -3   1  899.27    2.03   0
  -7  -3   9  219.84    2.14   0
  -7  -1 -10  288.28    1.82   0
  -7  -1  20    5.83    1.93   0
  -7   0 -12  221.37    1.96   0
  -6  -2  15   45.19    1.77   0
  -6   0  21   82.51    2.68   0
  -6   3 -12  231.64    3.18   0
  -5  -2  13   72.44    1.63   0
  -5   1  21   13.25    1.85   0
  -5   2 -12  210.19    2.13   0
  -5   3 -11  529.48    3.72   0
  -5   5  -6   45.35    1.90   0
  -4  -2  10  147.43    1.62   0
  -4   0  18  221.67    2.28   0
  -4   3 -10  258.59    2.56   0
  -3   1  18  747.51    3.86   0
  -3   2  18    7.35    1.27   0
  -3   3  -9   77.99    1.64   0
  -3   4  -7   43.61    1.29   0
  -3   5  -2   38.88    1.29   0
  -2   1  -8 1610.88    3.42   0
  -2   1  16  237.41    2.05   0
  -2   4  -5  713.14    3.02   0
  -1   2  14  326.50    2.01   0
  -1   3  13   18.99    0.85   0
   0   0   7   93.19    0.79   0
   0   2  -4 1377.75    2.69   0
   0   2  11  474.89    1.76   0
   0   3  -2  131.03    0.94   0
 -12  -1 -12   17.75    1.71   0
  -9  -2  -8  230.70    1.42   0
  -9  -1 -11    2.67    1.08   0
  -9   2 -14   44.40    2.48   0
  -8   3 -13   86.81    2.54   0
  -7  -3  10   57.62    1.64   0
  -7  -2  17   65.23    1.85   0
  -6   0 -11   82.73    1.31   0
  -6   4 -10  199.79    3.23   0
  -5  -1  -8    9.99    0.54   0
  -5  -1  18   59.20    2.03   0
  -5   0  20  518.40    4.11   0
  -5   4  -9   77.86    1.96   0
  -4  -2  11  433.21    2.56   0
  -4  -1  16  175.40    2.06   0
  -4   1  20  151.64    2.46   0
  -4   2  20  159.07    2.60   0
  -4   4  -8   66.83    1.62   0
  -4   5  -4   15.86    1.35   0
  -3  -2   4  410.68    1.46   0
  -3  -2   5  591.86    1.87   0
  -3  -1  14 1110.64    3.99   0
  -3   0  -8   82.84    0.86   0
  -3   0  17   11.09    1.38   0
  -3   5  -1    3.52    1.09   0
  -2  -1  11   48.80    1.03   0
  -2   2  -8   25.37    0.97   0
  -2   3  -7  635.22    2.78   0
  -1  -1   3  871.77    1.60   0
  -1   0  -4 2214.61    2.34   0
  -1   0  12  421.13    2.19   0
  -1   1  -6  337.16    1.37   0
  -1   1  14   48.44    1.16   0
  -1   2  -6  270.44    1.54   0
  -1   3  -5  681.99    2.38   0
 -13  -3  -5   42.06    0.88   0
 -10   0 -13    0.67    1.74   0
  -9  -3  15   10.11    2.14   0
  -8  -3  13  158.50    2.52   0
  -8  -2  19  350.50    4.11   0
  -8   0 -12   12.82    1.27   0
  -8   2 -13   87.28    2.40   0
  -7  -3  11   26.67    1.64   0
  -7  -2  18  125.12    2.65   0
  -6  -2  16  119.12    2.14   0
  -6  -1  20    5.49    1.87   0
  -6   2 -12   30.52    1.59   0
  -5  -2  14   33.68    1.27   0
  -5   5  -5   23.70    1.75   0
  -4   0  19  576.60    3.89   0
  -3  -2   3 1251.56    2.29   0
  -3  -2   6  159.84    1.18   0
  -3  -2   7  580.34    2.18   0
  -3   3  -8   16.15    1.10   0
  -3   3  18  136.27    2.15   0
  -3   4  -6   40.17    1.32   0
  -2   0  -6  173.22    0.93   0
  -2   0  15  107.75    1.35   0
  -2   2  17  250.52    2.28   0
  -2   4  -4  769.57    2.98   0
  -1  -1   6 6202.46    5.39   0
   0   0   8    6.11    0.42   0
   0   1  -3  704.14    1.46   0
   0   3  -1  115.99    0.83   0
   0   3  10  139.19    0.82   0
   1   2   6  229.20    0.65   0
 -11   0 -13    1.03    1.76   0
  -9  -3  16    5.16    2.31   0
  -9   1 -13   36.80    1.88   0
  -8  -3  14  179.03    2.81   0
  -8  -2  -7   24.90    0.66   0
  -8  -1 -10    9.17    0.99   0
  -7  -3   0  944.25    1.73   0
  -7  -3  12  258.19    2.70   0
  -7   4 -10   81.73    2.43   0
  -6  -3   4  225.24    1.43   0
  -6  -3   7   18.69    0.93   0
  -6  -3   8   82.96    1.36   0
  -6  -2  17   24.27    1.78   0
  -6   3 -11  181.48    2.67   0
  -6   4  -9  352.33    3.57   0
  -5  -2  15  254.93    2.59   0
  -5  -1  19   45.12    2.08   0
  -5   0  21  246.67    3.57   0
  -5   2 -11  202.59    2.04   0
  -5   3 -10  600.66    3.77   0
  -5   4  -8   55.21    1.67   0
  -4  -2  12  364.75    2.31   0
  -4  -1  17  111.11    1.98   0
  -4   3  -9  108.06    1.93   0
  -4   4  -7   28.60    1.33   0
  -4   5  -3  123.71    2.03   0
  -3  -2   2  575.65    1.43   0
  -3  -2   8 1298.68    3.40   0
  -3  -1  15  104.50    1.75   0
  -3   1  19  296.53    3.05   0
  -3   2  19   32.83    1.62   0
  -3   5   0  297.77    2.33   0
  -2  -1  12   29.80    0.84   0
  -2   1  17  302.84    2.43   0
  -1   1  15   37.04    1.27   0
  -1   2  15   70.07    1.23   0
  -1   4  10   49.99    0.44   0
   0   0   9   36.38    0.72   0
   0   2  -3  279.80    1.20   0
   0   2  12  463.08    1.83   0
   1   1   4  103.06    0.44   0
   1   1   5  132.96    0.59   0
 -12  -4   5    4.14    1.59   0
 -10   1 -13   96.54    2.40   0
  -9   0 -12  221.30    2.42   0
  -9   2 -13  141.70    3.03   0
  -9   3 -12   33.69    2.39   0
  -8  -3  15  104.62    2.59   0
  -7  -3  13  303.34    2.94   0
  -7  -2  -6  881.64    1.88   0
  -7  -2  19  101.85    2.90   0
  -7   2 -12   86.72    2.13   0
  -7   3 -11  160.28    2.76   0
  -6  -3   3  233.40    1.34   0
  -6  -3   9  229.90    2.00   0
  -6  -1  21   90.46    2.72   0
  -5   5  -4    8.22    1.46   0
  -4   0  20  148.32    2.76   0
  -4   1  21    9.50    2.00   0
  -4   5  -2  100.53    1.82   0
  -3   0  18    5.61    1.14   0
  -3   4  -5  220.45    1.98   0
  -3   5   1  298.16    2.37   0
  -2  -1  13   78.70    1.39   0
  -2   0  16  670.40    3.29   0
  -2   1  -7 3030.14    4.43   0
  -2   2  -7   21.42    0.89   0
  -2   3  -6  396.26    2.05   0
  -2   4  -3  136.31    1.42   0
  -1  -1   9  427.11    1.86   0
  -1   1  -5  143.54    0.92   0
   0   1  12    7.46    0.74   0
   1   1   3   98.75    0.32   0
   1   1   6  325.79    0.99   0
   1   2   7  207.29    0.74   0
 -11  -4   7   43.74    2.03   0
 -11  -4   8    7.14    2.08   0
 -11  -3  -4  352.81    1.18   0
 -11   1 -13   14.67    2.22   0
 -10   0 -12  123.43    2.20   0
 -10   2 -13   43.00    2.25   0
  -7  -1  -9   89.79    1.05   0
  -7   4  -9   93.34    2.62   0
  -6  -3  10  256.34    2.19   0
  -6  -3  11  222.32    2.28   0
  -6  -2  18  106.96    2.70   0
  -6   0 -10    8.97    0.90   0
  -6   2 -11   79.51    1.80   0
  -6   3 -10  204.50    2.61   0
  -6   5  -5   16.92    1.89   0
  -5  -2  16   87.71    2.09   0
  -4  -2  14   15.75    1.40   0
  -4  -1  18  415.99    3.30   0
  -4   4  -6   29.95    1.32   0
  -3  -1  16  165.03    2.00   0
  -3   0  -7  982.34    2.30   0
  -3   1  -8  320.51    1.70   0
  -3   1  20   16.90    1.78   0
  -3   2  20   61.37    1.97   0
  -3   3  -7  305.37    2.10   0
  -2   1  18  155.07    2.19   0
  -2   2  18   27.24    1.39   0
  -2   4  14   12.62    0.77   0
  -1   2  -5  502.80    1.83   0
   0   0  10   37.94    0.68   0
   0   3   0    0.67    0.39   0
   1   1   7  548.52    1.41   0
 -11  -4   5   94.34    1.96   0
 -11  -4   6  114.61    2.15   0
 -11   0 -12  248.81    3.01   0
  -8  -3  16   16.74    2.08   0
  -8   3 -11   16.05    2.07   0
  -7  -3  14  201.07    2.71   0
  -6  -3   2  504.87    1.69   0
  -6  -3  12  118.15    2.05   0
  -6   4  -8  121.17    2.21   0
  -5  -2  17  105.07    2.21   0
  -5   0  -9  734.68    2.53   0
  -5   2 -10  195.08    1.87   0
  -5   3  -9   42.62    1.59   0
  -5   4  -7  206.97    2.37   0
  -5   5  -3   18.00    1.49   0
  -4   0  21   65.66    2.30   0
  -4   3  -8  394.40    2.66   0
  -4   5  -1   70.55    1.72   0
  -3  -2   1  743.86    1.42   0
  -3  -2  11  217.96    1.88   0
  -3  -1  17  757.71    3.87   0
  -3   0  19    1.65    1.55   0
  -3   4  -4  370.10    2.32   0
  -3   5   2  387.58    2.57   0
  -2  -1  14   47.84    1.09   0
  -2   0  17  108.55    1.81   0
  -2   3  -5  352.28    1.92   0
  -2   3  17   36.14    1.24   0
  -2   4  -2   75.59    1.13   0
  -1  -1   1 1229.61    1.35   0
  -1   1  16   76.38    1.43   0
  -1   2  16  222.46    1.83   0
  -1   4   2  116.17    0.93   0
   0   0  11    0.81    0.75   0
   0   1  13  168.76    1.44   0
   0   2  13  291.46    1.60   0
   0   3  11  315.69    1.25   0
   1   1   8  131.36    0.84   0
   1   2   8  268.80    0.93   0
 -12   0 -12   -0.15    1.99   0
 -10  -1 -10   23.94    1.22   0
  -9  -2  -7  193.70    1.23   0
  -9   1 -12   68.78    1.96   0
  -9   2 -12   94.71    2.25   0
  -9   3 -11   91.77    2.71   0
  -8   4  -9   74.26    2.43   0
  -7  -3  15   68.52    2.27   0
  -7   1 -11 1028.51    4.18   0
  -7   3 -10  101.11    2.22   0
  -6  -3  13  191.92    2.45   0
  -6  -2  19  204.39    3.20   0
  -6   5  -4   60.42    2.12   0
  -5  -1  21   11.72    2.37   0
  -4  -2  15   10.38    1.37   0
  -4  -1  19  344.15    3.10   0
  -3   5   3   44.54    1.19   0
  -2  -1  15  146.89    1.90   0
  -2   0  -5  143.55    0.80   0
  -2   1  19   15.12    1.85   0
  -2   2  -6  326.16    1.74   0
  -1  -1  11  624.16    2.37   0
  -1   0  15  693.74    3.08   0
  -1   3  15   54.20    1.20   0
   0   1  -2  580.56    1.18   0
 -11  -4   4   47.37    1.36   0
 -11  -1 -10   23.39    1.53   0
 -10  -4   6   19.44    1.48   0
 -10  -4   7   80.70    1.98   0
 -10  -4   8   16.30    1.71   0
 -10  -4   9   25.35    1.98   0
 -10  -4  10   85.31    2.56   0
  -9   0 -11    4.98    1.34   0
  -7  -3  16   16.29    2.16   0
  -7   0 -10 1193.29    3.73   0
  -7   4  -8  176.59    2.88   0
  -6  -3  14  451.17    3.58   0
  -6   2 -10  367.87    2.76   0
  -6   3  -9  141.31    2.18   0
  -6   4  -7   12.56    1.50   0
  -5  -3   5  566.10    2.19   0
  -5  -3   6  309.21    1.78   0
  -5  -3   7  202.56    1.58   0
  -5  -3   8   33.21    1.08   0
  -5  -3   9  123.68    1.59   0
  -5  -3  10  177.50    1.88   0
  -5  -2  18   54.92    2.29   0
  -5   4  -6  545.52    3.30   0
  -5   5  -2    1.89    1.22   0
  -4  -2  16   67.39    1.96   0
  -4  -1  20  154.27    2.74   0
  -4   4  -5  176.02    1.92   0
  -3  -2  13  548.89    3.07   0
  -3  -1  18  835.71    4.47   0
  -3   0  20   20.26    1.92   0
  -3   1  21   43.18    2.16   0
  -3   3  -6  363.23    2.16   0
  -2   0  18  184.46    2.26   0
  -2   1  -6 1872.29    3.34   0
  -1  -1  12  435.92    2.27   0
  -1   0  16   86.78    1.64   0
  -1   1  17  126.03    1.86   0
  -1   2  -4 1400.34    2.84   0
  -1   4   3  240.51    1.16   0
   0   0  12    2.76    0.64   0
   0   1  14  203.30    1.68   0
   0   2  14  118.93    1.27   0
   1   2   9  405.38    1.26   0
 -12  -1 -10  329.77    2.99   0
 -12   1 -12   17.65    2.31   0
 -10  -4   5    6.52    1.32   0
 -10   0 -11   -0.35    1.47   0
  -8   1 -11   52.32    1.70   0
  -8   3 -10   13.12    1.69   0
  -8   4  -8   20.38    2.08   0
  -7  -3  17   72.07    2.59   0
  -6  -3   1 1139.71    2.08   0
  -6   5  -3   27.64    1.79   0
  -5  -3   4    9.20    0.76   0
  -5  -3  11   83.94    1.73   0
  -5   3  -8   40.99    1.15   0
  -4   3  -7  274.09    1.93   0
  -3  -2  14  332.97    2.69   0
  -3   1  -7 1231.90    3.02   0
  -3   2  -7  621.42    2.44   0
  -3   4  -3  443.47    2.34   0
  -2  -2   5  434.65    1.62   0
  -2  -2   7 1049.91    2.79   0
  -2  -2   8 1134.07    3.13   0
  -2  -2   9   64.67    1.17   0
  -2  -1  16  225.67    2.26   0
  -2   3  -4  213.53    1.45   0
  -1  -1  13  123.49    1.50   0
  -1   1  -4  111.57    0.77   0
  -1   3  -2  360.52    1.47   0
  -1   4  11   36.64    0.43   0
   0   0  13  105.07    1.39   0
   0   3  12  140.31    0.99   0
 -13  -1 -10   66.70    2.01   0
 -12  -3  -4  141.50    1.09   0
 -12   0 -11  144.88    2.82   0
 -11   0 -11  632.42    4.26   0
  -9  -4   8  138.28    2.35   0
  -9  -4   9   47.42    1.97   0
  -9  -4  10   13.85    1.88   0
  -9   1 -11    0.75    1.44   0
  -9   2 -11  223.27    2.78   0
  -9   3 -10    9.93    1.96   0
  -9   4  -8   23.25    2.13   0
  -8  -2  -6  292.04    1.31   0
  -7   2 -10  508.58    3.32   0
  -7   3  -9   58.73    1.85   0
  -7   4  -7  124.08    2.28   0
  -6  -3  15  228.81    2.71   0
  -5  -3  12  229.98    2.48   0
  -5  -2  19  153.38    2.66   0
  -5   5  -1    1.64    1.17   0
  -4  -2  17   26.56    1.39   0
  -4  -1  21    9.72    2.04   0
  -4   4  -4  135.97    1.67   0
  -4   5   1  107.54    1.66   0
  -3  -2  15   53.59    1.60   0
  -3  -1  19  316.98    3.21   0
  -3   0  -6 3972.67    4.27   0
  -3   0  21   10.20    2.04   0
  -3   5   6  331.94    1.95   0
  -2  -2   4  189.21    1.04   0
  -2  -2  10  138.35    1.53   0
  -2  -1  17  297.62    2.69   0
  -2   0  19    1.92    1.47   0
  -2   1  20  101.51    2.29   0
  -2   2  20   46.31    1.89   0
  -2   4   0 1078.45    3.02   0
  -1  -1  14   45.12    1.24   0
  -1   0  17  157.89    2.06   0
  -1   1  18   55.30    1.75   0
  -1   4   4  182.11    0.98   0
   0   0  14   78.27    1.29   0
   0   1  15  365.60    2.17   0
   0   2  -1 2801.79    2.91   0
   0   2  15   67.60    1.26   0
   1   2  10  241.96    1.08   0
 -13   0 -11    5.62    2.16   0
 -12  -4   2  324.79    1.87   0
 -10  -4   4   17.21    1.09   0
 -10   1 -11   81.20    2.12   0
 -10   2 -11  144.31    2.56   0
 -10   3 -10    4.10    1.86   0
  -9  -4   7   74.69    1.68   0
  -9  -4  11   27.92    2.17   0
  -9  -4  12   23.93    2.11   0
  -7   5  -3  220.73    3.27   0
  -6  -3  16  112.69    2.66   0
  -6   3  -8   98.90    1.87   0
  -6   4  -6  303.55    2.81   0
  -6   5  -2   21.19    1.58   0
  -5  -3   3  247.81    1.34   0
  -5  -3  13  696.68    4.04   0
  -5  -2  20  165.01    3.51   0
  -5   3  -7  175.42    1.91   0
  -5   4  -5  250.87    2.29   0
  -4  -2  18  135.41    2.67   0
  -4   0  -7   72.14    0.85   0
  -4   5   2  191.69    2.04   0
  -3   3  -5  330.59    1.96   0
  -3   4  -2  181.27    1.57   0
  -3   5   8   13.56    0.69   0
  -2   2  -5 1272.66    3.07   0
  -1   2  18   29.21    1.37   0
   0  -1   7  499.47    1.77   0
   0  -1   8  852.27    2.41   0
   0  -1   9  623.33    2.22   0
   0   1  16  100.25    1.60   0
   0   3   2  129.24    0.65   0
   1   0   6  157.32    0.86   0
   1   0   7   69.54    0.73   0
   1   0   8  864.24    2.19   0
   1   2  11  179.66    1.10   0
 -13  -3  -4  100.39    1.18   0
 -12   1 -11   32.19    2.23   0
  -9  -4   6   61.41    1.45   0
  -8   3  -9   24.66    1.41   0
  -8   4  -7    1.26    1.60   0
  -7   0  -9   42.37    1.16   0
  -6  -3  17   43.18    2.59   0
  -5  -3  14  366.55    3.16   0
  -5   5   0    1.68    1.13   0
  -4  -3   7  118.32    1.41   0
  -4  -3   8  191.72    1.72   0
  -4  -3   9  152.01    1.70   0
  -4  -3  10  217.63    2.03   0
  -4   3  -6   87.98    1.15   0
  -3  -2   0  647.92    1.08   0
  -3  -2  16   31.39    1.64   0
  -3  -1  20   13.29    1.91   0
  -3   2  -6 1044.20    3.10   0
  -2  -2  13  783.61    3.51   0
  -2  -1  18  168.83    2.53   0
  -2   0  20    5.83    1.59   0
  -2   1  -5  121.76    0.93   0
  -1   0  18    5.62    1.51   0
  -1   1  19   95.99    2.12   0
  -1   2  -3 1227.29    2.47   0
   0  -1   5 3289.88    3.70   0
   0  -1  10  564.68    2.24   0
   0   0  15  191.99    1.88   0
   0   2  16  184.75    1.73   0
   0   3  13   17.06    0.65   0
   1   0   5 1164.82    1.95   0
   1   0   9 1117.06    2.62   0
   1   0  10  111.68    1.09   0
 -11  -1  -9  131.00    1.73   0
 -10  -3  -3  154.11    0.73   0
 -10   0 -10    2.28    1.30   0
  -9  -4   5  139.86    1.73   0
  -9   3  -9   83.79    2.28   0
  -9   4  -7  111.26    2.80   0
  -8  -4   8  291.03    2.71   0
  -8  -4   9   47.05    1.76   0
  -8  -4  10   16.52    1.72   0
  -8  -4  11   61.15    2.03   0
  -8  -1  -8  142.77    1.30   0
  -7  -2  -5  657.11    1.54   0
  -7   3  -8   38.83    1.64   0
  -7   4  -6   32.56    1.60   0
  -7   5  -2   85.62    2.16   0
  -6   4  -5  604.78    3.52   0
  -6   5  -1  106.95    2.15   0
  -5  -3  15   60.82    1.82   0
  -5   4  -4  109.81    1.73   0
  -4  -3   6  221.78    1.54   0
  -4  -3  11   43.16    1.44   0
  -4  -3  12  176.18    2.19   0
  -4  -2  19  118.49    2.36   0
  -4   4  -3   19.79    0.97   0
  -4   5   3  309.62    2.49   0
  -3  -2  17   17.22    1.80   0
  -2  -2  14   61.27    1.67   0
  -2  -1  -2 1260.99    0.80   0
  -1  -1  16   81.29    1.74   0
  -1   2  19   11.53    1.39   0
   0  -1   4 1869.81    2.59   0
   0   0  16    2.88    1.18   0
   0   1  17   15.54    1.24   0
   1   0  11    9.42    0.80   0
   1   1  13   11.12    0.79   0
   1   2  12  259.28    1.33   0
 -12  -1  -9  323.82    2.84   0
 -11   2 -10  282.56    3.73   0
 -10   2 -10  246.57    2.91   0
 -10   3  -9   94.69    2.32   0
  -9  -2  -6  239.65    1.31   0
  -9   1 -10   59.82    1.65   0
  -8  -4   7  621.40    3.43   0
  -8  -4  12   31.03    2.22   0
  -8  -4  13   23.56    2.34   0
  -8   0  -9 3333.28    6.33   0
  -8   3  -8  115.37    2.14   0
  -8   4  -6   25.17    1.84   0
  -7   1  -9   99.14    1.61   0
  -6   0  -8  169.39    1.42   0
  -6   3  -7  200.86    2.14   0
  -5  -3   2  835.39    2.01   0
  -5  -3  16   42.35    1.90   0
  -5   5   1   17.61    1.24   0
  -4  -3  13  218.60    2.58   0
  -4  -2  20  180.00    3.45   0
  -4   1  -7   35.27    0.86   0
  -3  -2  18    5.42    1.93   0
  -3  -1  21   44.06    2.03   0
  -3   1  -6 2361.66    3.92   0
  -3   3  -4   19.91    0.85   0
  -3   4  -1   61.27    1.09   0
  -2  -2  15  190.05    2.25   0
  -2  -1  19   14.18    1.43   0
  -2   0  -4  177.88    0.78   0
  -2   0  21   22.01    1.59   0
  -1   0  19   27.71    1.72   0
  -1   1  -3  103.85    0.70   0
  -1   1  20   83.77    2.16   0
  -1   4   6    2.71    0.38   0
  -1   4  12  139.85    0.74   0
   0  -1  13  161.46    1.66   0
   0   1  -1  121.95    0.50   0
   1   0   4 2216.80    2.37   0
   1   0  12 1073.40    3.25   0
   1   1  14   40.13    0.98   0
   1   2  13 1042.06    2.80   0
 -12   2 -10  105.75    2.77   0
 -11  -4   2  213.95    1.37   0
 -10   1 -10   21.24    1.56   0
  -9  -4   4  424.87    2.32   0
  -9  -1  -8  483.38    2.31   0
  -9   4  -6  143.83    2.69   0
  -8  -4   6  330.96    2.49   0
  -7   4  -5  120.57    2.18   0
  -7   5  -1    6.58    1.63   0
  -6   5   0  210.59    2.51   0
  -5  -3  17  198.90    3.39   0
  -5  -2  -3  956.70    1.01   0
  -5   3  -6   78.23    1.19   0
  -4  -3  14  252.11    2.93   0
  -4   3  -5    9.11    0.70   0
  -4   4  -2    0.77    0.86   0
  -4   5   4   42.89    1.25   0
  -2  -2   2   61.14    0.61   0
  -2  -2  16  197.77    2.50   0
  -2  -1  20  111.75    2.76   0
  -2   2  -4  917.86    2.48   0
  -2   4   2   56.36    0.85   0
  -1  -2   7  149.68    1.24   0
  -1  -2   8  200.92    1.50   0
  -1  -2   9  414.80    2.09   0
  -1  -2  10  811.71    3.05   0
  -1  -2  11  542.51    2.64   0
  -1  -1   0 1046.20    0.97   0
  -1  -1  17  118.85    1.83   0
  -1   3   0  178.31    1.00   0
   0  -1  14  209.02    1.98   0
   0   0  17    5.02    1.34   0
   0   1  18  322.76    2.75   0
   0   2   0 4190.43    3.23   0
   0   2  17  112.58    1.55   0
   0   3   3  554.22    1.15   0
   1   0  13 1345.67    3.81   0
 -12   1 -10  321.97    3.56   0
 -10   3  -8  101.04    2.38   0
 -10   4  -6   55.43    2.33   0
  -9   0  -9  400.94    2.56   0
  -9   3  -8  142.82    2.20   0
  -7  -4   9   53.12    1.74   0
  -7  -4  10   91.47    2.11   0
  -7  -4  11   86.89    2.24   0
  -7  -4  12   64.86    2.39   0
  -7  -1  -7   74.56    0.86   0
  -7   3  -7   73.61    1.64   0
  -6  -3   0  475.54    1.09   0
  -6   1  -8  740.93    2.91   0
  -6   4  -4  405.15    2.86   0
  -5  -3  18   67.81    2.85   0
  -5   4  -3   65.33    1.41   0
  -5   5   2    6.67    1.16   0
  -4  -3   4  902.14    2.40   0
  -4  -3  15  190.02    2.85   0
  -4   0  -6 2952.85    3.99   0
  -4   2  -6 1906.79    4.41   0
  -3  -2  19   40.45    2.16   0
  -3   2  -5 1331.11    3.34   0
  -3   4   0  239.44    1.73   0
  -2  -2  17  272.33    2.95   0
  -2   3  -2  353.63    1.55   0
  -1  -2   6    4.75    0.59   0
  -1  -2  12  218.69    2.01   0
  -1  -1  18   57.96    2.08   0
  -1   0  20  132.66    2.38   0
  -1   1  21   33.87    2.15   0
  -1   2  -2 1158.10    2.26   0
   0  -1   3  704.73    1.46   0
   0  -1  15  389.05    2.58   0
   0   3  15  103.41    1.30   0
   1   0  14  965.47    3.43   0
   1   1  15   15.45    0.94   0
   1   2  14  411.26    1.99   0
 -11   2  -9   66.76    2.23   0
 -11   3  -8  309.59    3.86   0
 -10  -2  -6   23.41    0.84   0
 -10  -1  -8  386.93    2.31   0
  -8  -4   5   23.85    1.13   0
  -8   3  -7   30.39    1.62   0
  -8   4  -5   26.77    1.51   0
  -7  -4   7  176.17    2.14   0
  -7  -4   8  113.30    1.86   0
  -7  -4  13    0.71    1.95   0
  -7   0  -8    7.19    0.92   0
  -7   2  -8  319.65    2.36   0
  -6   3  -6   71.46    1.50   0
  -6   5   1  109.77    2.05   0
  -4  -3  16  191.89    2.75   0
  -4   5   5   19.96    1.07   0
  -3  -3   7 1007.17    3.28   0
  -3  -3   8    5.78    0.95   0
  -3  -3   9   49.61    1.24   0
  -3  -3  10  105.97    1.57   0
  -3  -3  11   20.28    1.31   0
  -3  -3  12   80.95    1.75   0
  -3  -2  20   66.18    2.70   0
  -3   3  -3  133.37    1.21   0
  -2  -1  21   27.80    2.50   0
  -1  -2   5  158.43    1.08   0
  -1  -2  13  623.92    2.98   0
  -1  -2  14  341.40    2.61   0
  -1  -1  19  101.81    2.33   0
  -1   0  21  173.90    2.84   0
  -1   4  13  288.03    1.15   0
   0   0  18   46.87    1.39   0
   0   1  19  549.36    3.66   0
   0   2  18   52.65    1.44   0
   1   0  15   98.11    1.50   0
   1   1  16   22.06    1.06   0
 -14   0  -9   20.91    2.17   0
 -13  -1  -8  551.10    3.88   0
 -13   2  -9    0.73    2.18   0
 -12  -1  -8  194.43    2.24   0
 -12   0  -9  244.47    2.88   0
 -12   2  -9  222.63    3.53   0
 -11   0  -9  116.02    2.01   0
  -9   3  -7   92.51    2.06   0
  -9   4  -5   48.63    2.14   0
  -7   1  -8   57.45    1.32   0
  -7   4  -4  162.04    2.22   0
  -7   5   0  154.89    2.61   0
  -6   4  -3  109.25    1.67   0
  -5   3  -5   58.82    1.18   0
  -5   5   3    0.76    1.08   0
  -4  -3   3  598.15    1.88   0
  -4  -3  17   95.08    2.43   0
  -4   1  -6   81.94    1.03   0
  -4   3  -4  103.83    1.31   0
  -4   4  -1  125.48    1.41   0
  -4   5   6   74.52    1.44   0
  -3  -3   6  779.84    2.70   0
  -3  -3  13  212.59    2.20   0
  -3  -3  14  172.70    2.60   0
  -2  -2  18   31.31    1.93   0
  -2   1  -4  170.02    0.95   0
  -1  -2  15   72.18    1.73   0
  -1   0  -2   15.55    0.22   0
   0  -1  16   91.21    1.56   0
   0   0  19    8.16    1.63   0
   1  -1   8  120.21    1.08   0
   1  -1   9   65.76    0.96   0
   1  -1  10  318.85    1.82   0
   1  -1  11  132.78    1.38   0
   1   0   3 5275.19    3.18   0
   1   2  15  135.99    1.37   0
   2   1   9  394.33    1.44   0
   2   1  10  331.49    1.50   0
 -11  -3  -3  345.00    1.38   0
 -10  -4   2   58.47    0.86   0
 -10   3  -7   67.11    2.21   0
 -10   4  -5   51.98    2.35   0
  -8  -4   4  185.21    1.52   0
  -8   0  -8  269.06    2.00   0
  -8   4  -4   24.44    1.46   0
  -7  -4   6  408.83    2.50   0
  -7   3  -6   22.29    1.39   0
  -6  -4   9    7.35    1.42   0
  -6  -4  10   11.81    1.47   0
  -6  -4  11   59.16    1.96   0
  -6  -4  12   41.06    2.05   0
  -6  -4  13   28.40    2.13   0
  -6   0  -7  166.06    1.31   0
  -6   5   2   17.37    1.42   0
  -5  -3   1 1179.80    2.03   0
  -5   4  -2  182.71    1.77   0
  -4  -3  18  107.95    2.77   0
  -3  -3  15   32.00    2.04   0
  -3   1  -5 1130.43    2.60   0
  -2  -2  19   31.75    2.25   0
  -2   2  -3  169.28    1.13   0
  -1  -2   4  148.45    0.96   0
  -1  -2  16  229.19    2.62   0
  -1  -1  20   86.67    2.60   0
  -1   3   1  458.17    1.43   0
   0  -1  17    9.96    1.59   0
   0   1  20  290.24    3.17   0
   0   3  16   26.72    1.01   0
   1  -1   7  596.64    1.99   0
   1  -1  12   85.31    1.31   0
   1   0  16  140.89    1.90   0
   1   1  17  256.08    2.28   0
   1   2  16  164.89    1.73   0
   2   1   7 2890.82    3.21   0
   2   1   8 1490.25    2.50   0
 -12   3  -7  109.44    3.01   0
 -11   3  -7  116.73    2.45   0
 -10   2  -8   48.25    1.91   0
  -9   0  -8  644.88    3.01   0
  -8   3  -6  161.08    2.13   0
  -7   4  -3   60.32    1.52   0
  -7   5   1  385.67    3.66   0
  -6  -4   8  148.40    1.88   0
  -6  -4  14   36.98    2.35   0
  -6   3  -5  159.26    1.79   0
  -5   5   4    1.58    0.97   0
  -4   2  -5 2258.94    4.50   0
  -4   5   7   50.79    1.28   0
  -3  -3   5 1021.27    2.76   0
  -3  -3  16   81.93    2.50   0
  -3   2  -4 1229.86    3.06   0
  -2  -2  20   55.02    2.66   0
  -1  -2  17   68.91    2.09   0
  -1  -1  21   32.73    2.29   0
  -1   4   9  180.23    0.70   0
   0  -2   9   57.18    1.10   0
   0  -2  10  202.08    1.69   0
   0  -2  11  488.88    2.56   0
   0  -1   2  598.57    1.20   0
   0   0  20   49.26    2.12   0
   0   3   4  289.29    0.78   0
   1  -1   6  336.76    1.42   0
   1  -1  13   14.34    0.84   0
   1   0  17  578.06    3.38   0
   2   0   8   79.62    0.82   0
   2   0   9   71.10    0.88   0
   2   0  10    4.77    0.70   0
   2   0  11  976.65    2.91   0
   2   1  13  457.22    2.05   0
 -13   2  -8    8.60    2.07   0
 -12  -3  -3   68.16    0.97   0
 -12   2  -8    2.17    1.81   0
 -11   2  -8   51.15    1.74   0
 -10   4  -4   26.09    1.89   0
  -9   1  -8  528.46    3.14   0
  -9   3  -6   13.94    1.39   0
  -9   4  -4    2.08    1.19   0
  -7  -4   5  253.25    1.77   0
  -6  -4   7  117.64    1.72   0
  -6   4  -2   57.33    1.46   0
  -6   5   3    8.51    1.34   0
  -5   0  -6   25.08    0.70   0
  -5   3  -4  362.36    2.15   0
  -5   4  -1  220.22    1.88   0
  -4   3  -3  106.12    1.23   0
  -4   4   0   35.11    0.99   0
  -4   5   8   16.54    1.02   0
  -3  -3  17  135.18    2.62   0
  -3  -3  18  152.59    3.38   0
  -3   3  -2   95.59    1.04   0
  -2  -3   9  164.05    1.74   0
  -2  -3  10  102.09    1.62   0
  -2  -3  11   93.84    1.69   0
  -2  -3  12    5.66    1.33   0
  -2  -3  13  142.35    2.21   0
  -2  -2   1  737.40    1.41   0
  -1  -2  18   34.47    2.02   0
  -1   4  14  152.30    1.02   0
   0  -2   8  194.80    1.49   0
   0  -2  12  457.70    2.47   0
   0  -2  13  327.04    2.51   0
   0  -1  19  537.54    4.25   0
   0   0  21    5.02    1.90   0
   0   2  20    5.11    1.52   0
   1  -1  15    9.78    1.38   0
   1   0  18  607.11    3.71   0
   1   1  18  496.95    3.12   0
   1   2  17  287.74    2.17   0
   2   0   7   10.57    0.53   0
   2   0  12  947.37    3.08   0
   2   1   6 1737.55    2.26   0
   2   1  14    9.86    0.85   0
 -14  -1  -7  226.13    2.80   0
 -13  -3  -3   44.38    1.01   0
 -11   1  -8   32.23    1.68   0
 -11   4  -4   35.01    2.36   0
 -10   1  -8  389.61    2.96   0
 -10   3  -6  210.83    2.77   0
  -9  -2  -5   38.71    0.79   0
  -8   2  -7   21.34    1.03   0
  -8   4  -3   32.37    1.59   0
  -7  -1  -6   78.23    0.86   0
  -7   1  -7   81.72    1.39   0
  -7   3  -5  133.04    1.85   0
  -7   5   2  133.81    2.37   0
  -5  -4  10  133.59    2.11   0
  -5  -4  11   39.69    1.87   0
  -5  -4  12  108.90    2.51   0
  -5  -4  13   94.88    2.63   0
  -5  -4  14   18.29    2.07   0
  -5   1  -6   24.30    0.84   0
  -4  -3   2  852.37    1.98   0
  -3  -3   4  215.20    1.33   0
  -3  -1  -3   51.56    0.35   0
  -2  -3   8  207.23    1.73   0
  -2  -3  14   88.44    2.15   0
  -2  -3  15  313.25    3.24   0
  -1  -2   3  150.54    0.89   0
  -1  -2  19   14.37    2.17   0
  -1   1  -2   46.76    0.42   0
  -1   2  -1 1387.91    2.32   0
   0  -2   7  124.42    1.06   0
   0  -2  14  122.59    1.63   0
   0  -2  15   66.68    1.70   0
   0   2   1 2875.74    2.47   0
   1  -1   5  138.14    0.90   0
   1  -1  16   18.47    1.49   0
   1   1  19  163.33    2.37   0
   2   0  14  149.37    1.69   0
   2   1  15   54.31    1.13   0
 -12  -1  -7   13.64    1.22   0
 -12   1  -8  189.27    2.50   0
 -12   3  -6   80.99    2.60   0
  -9   2  -7  191.36    2.02   0
  -9   4  -3   16.04    1.64   0
  -8  -4   3  665.47    2.25   0
  -8   3  -5  183.09    2.13   0
  -7  -4   4   78.39    1.14   0
  -7   4  -2   39.57    1.43   0
  -6  -4   6   56.06    1.30   0
  -6   3  -4  277.51    2.05   0
  -6   5   4  100.22    2.00   0
  -5  -4   9  343.07    2.76   0
  -4   1  -5   43.69    0.81   0
  -4   5   9   10.72    0.94   0
  -2  -3   7  539.77    2.43   0
  -2  -3  16   93.92    2.58   0
  -2   3   0  387.31    1.51   0
  -1  -2  20   56.96    2.64   0
  -1   4  10   45.10    0.46   0
   0  -2   6  161.54    1.21   0
   0  -2  16  204.82    2.51   0
   0  -1  20  312.58    3.31   0
   1  -1  17  296.45    2.89   0
   1   0  19   39.67    1.80   0
   1   2  18  211.01    2.16   0
   1   3  10  347.54    0.90   0
   1   3  11  479.92    1.28   0
   1   3  12  143.87    0.92   0
   2   0   6  174.99    0.94   0
   2   0  15  540.91    2.90   0
   2   1  16   11.71    1.17   0
   2   2   9   79.92    0.62   0
   2   2  10   70.55    0.70   0
   2   2  11  214.85    1.10   0
   2   2  12  726.56    2.16   0
 -13   2  -7   52.18    2.27   0
 -11   2  -7   93.35    2.16   0
 -11   4  -3   37.29    2.15   0
 -10   4  -3   47.60    2.14   0
  -9   3  -5  184.94    2.33   0
  -8   1  -7   55.26    1.35   0
  -7   5   3   29.76    1.67   0
  -6   4  -1  161.42    1.93   0
  -5  -4   8  561.28    3.12   0
  -5   3  -3  288.92    1.92   0
  -5   4   0  104.34    1.42   0
  -5   5   6    8.80    1.13   0
  -4   2  -4 2306.80    4.33   0
  -4   4   1   89.91    1.22   0
  -3   1  -4  176.00    1.10   0
  -2  -3   6  754.08    2.67   0
  -2  -3  17   39.74    2.36   0
  -2  -3  18  122.59    3.17   0
  -2   1  -3  988.89    2.05   0
  -2   2  -2  175.40    1.08   0
  -1   3   2  399.50    1.29   0
  -1   4  15   16.75    0.63   0
   0  -2  17  134.67    2.45   0
   0  -1  21   17.68    2.64   0
   1  -1   4  116.12    0.77   0
   1  -1  18  528.56    3.92   0
   1   0  20   32.46    2.09   0
   1   3  13    9.29    0.58   0
   2  -1  11 1295.02    3.65   0
   2   0  16 1109.72    4.27   0
   2   2  13  270.92    1.50   0
 -14   0  -7  419.38    3.96   0
 -10   3  -5  285.84    2.93   0
  -9  -3  -2  156.01    0.73   0
  -9   0  -7  168.43    1.72   0
  -8   4  -2   88.48    1.81   0
  -7   3  -4  660.44    3.22   0
  -6  -4   5   14.97    1.00   0
  -6   5   5   78.08    1.89   0
  -5  -4   7  513.89    2.79   0
  -4  -4  11  377.28    3.31   0
  -4  -4  12  455.78    3.93   0
  -4  -4  13  139.80    2.80   0
  -4  -4  14   19.18    2.30   0
  -4  -4  15   21.19    2.21   0
  -4   3  -2  366.43    1.88   0
  -3   2  -3 1236.55    2.84   0
  -3   3  -1   45.68    0.80   0
  -1  -3  10  402.31    2.62   0
  -1  -3  11  188.76    2.11   0
  -1  -3  12   86.87    1.77   0
   0  -2   5 1401.60    2.89   0
   0  -2  18   56.33    2.22   0
   0   1   0    0.39    0.18   0
   1  -2  11  179.72    1.76   0
   1  -2  12  306.55    2.33   0
   1  -1  19  170.92    2.99   0
   1   2  19  105.87    1.94   0
   1   3   9  256.85    0.58   0
   1   3  14    8.49    0.66   0
   2  -1   9  408.49    1.96   0
   2  -1  10  331.13    1.77   0
   2  -1  12 1055.60    3.38   0
   2  -1  13  486.11    2.68   0
   2  -1  14   11.04    1.27   0
   2   0   5  142.62    0.79   0
   2   0  17 1076.57    4.44   0
   2   1   5  118.76    0.58   0
   2   1  17   14.81    1.23   0
   2   2  14   45.96    0.94   0
 -14   1  -7  196.84    2.91   0
 -13   0  -7    2.67    1.66   0
 -13   1  -7  377.16    3.72   0
 -13   3  -5   31.72    1.87   0
 -12   3  -5  141.53    2.67   0
 -11   1  -7   77.32    1.91   0
 -11   3  -5  189.83    2.52   0
 -10   0  -7   22.08    1.23   0
  -9   2  -6  253.59    2.38   0
  -9   4  -2   97.35    2.05   0
  -7   4  -1   64.46    1.54   0
  -7   5   4    7.27    1.44   0
  -5  -4   6   28.10    1.22   0
  -5   5   7    4.10    1.07   0
  -4  -4   9  118.02    1.93   0
  -4  -4  10   49.92    1.67   0
  -3  -3   3  364.26    1.47   0
  -2  -3   5  565.77    2.17   0
  -1  -3   8  115.92    1.47   0
  -1  -3  16   53.63    2.37   0
   0  -2  19    7.50    2.05   0
   1  -2   9  497.20    2.35   0
   1  -2  10  263.30    1.77   0
   1  -2  13 1105.51    4.00   0
   1  -2  15  155.68    2.12   0
   1   0   2   15.19    0.19   0
   1   0  21   10.17    1.99   0
   2  -1   8 1465.35    3.18   0
   2  -1  15   75.90    1.71   0
   2   0  18  225.98    2.65   0
   2   1  18    7.46    1.31   0
   2   2  15  175.19    1.55   0
 -14   2  -6  126.86    2.75   0
 -13   2  -6   24.45    2.15   0
 -12   2  -6   36.77    2.00   0
 -11   4  -2   89.65    2.69   0
 -10   2  -6   18.62    1.36   0
 -10   4  -2   31.68    1.53   0
  -8   3  -4  217.76    2.02   0
  -8   4  -1   35.28    1.41   0
  -7   0  -6 2999.87    5.02   0
  -6   3  -3  351.26    2.17   0
  -6   4   0   25.21    1.19   0
  -6   5   6   61.26    1.77   0
  -5   0  -5  861.21    2.30   0
  -5   1  -5  289.58    1.63   0
  -5   2  -4  666.92    2.51   0
  -5   5   8   23.74    1.25   0
  -4  -4   8  559.56    3.08   0
  -4   4   2  138.41    1.40   0
  -2   3   1  640.72    1.86   0
  -1  -3  17  169.49    3.36   0
   0  -2   4 1321.84    2.67   0
   1  -2   8  304.24    1.76   0
   1  -2  16  173.76    2.50   0
   1   3  15   65.05    0.98   0
   2  -1   7 2830.95    4.27   0
   2  -1  16    9.64    1.11   0
   2  -1  17   13.83    1.57   0
   2   0  19   28.73    1.94   0
   2   1  19   51.05    1.89   0
   2   2  16  535.51    2.70   0
   3   0  11    2.85    0.81   0
   3   0  12   66.51    1.22   0
 -15   0  -6  218.69    3.34   0
 -15   1  -6    6.13    2.19   0
 -13   3  -4   92.14    2.66   0
 -10   3  -4  314.13    2.91   0
  -9   3  -4  349.51    2.62   0
  -9   4  -1  156.64    2.24   0
  -8   1  -6  390.37    2.39   0
  -7  -4   3  221.92    1.40   0
  -7   5   5   52.77    1.80   0
  -6  -4   4   95.96    1.21   0
  -5   3  -2  231.72    1.71   0
  -3  -4  11  306.63    3.04   0
  -3  -4  12   89.78    2.48   0
  -3  -4  13  108.71    2.66   0
  -3  -4  14   32.28    2.31   0
  -3  -4  15   49.59    2.55   0
  -3   4   4   86.20    1.07   0
  -2   4   6   35.60    0.67   0
  -1  -3  18  327.75    4.20   0
  -1   2   0 1623.23    2.31   0
  -1   4  11   36.26    0.47   0
   1  -2  17  329.22    3.30   0
   1  -2  18  219.38    3.14   0
   1   3  16    7.18    0.85   0
   2  -1   6 1783.16    3.21   0
   2   2  17  311.44    2.27   0
   3   0   9  146.15    1.19   0
   3   0  10    1.33    0.71   0
   3   0  13    0.74    0.69   0
   3   0  14  226.86    1.95   0
   3   0  15  253.96    2.16   0
   3   1  10 2323.84    3.59   0
   3   1  11 2165.30    3.71   0
   3   1  12  928.89    2.63   0
   3   1  13   22.63    0.81   0
   3   1  14  159.97    1.46   0
 -14  -3  -2    4.32    1.10   0
 -14   0  -6   88.45    2.23   0
 -14   1  -6  110.25    2.81   0
 -12   3  -4  125.77    2.30   0
 -11   3  -4  301.16    2.92   0
 -10   4  -1   17.81    1.73   0
  -8   0  -6 1318.36    3.62   0
  -7  -1  -5  160.63    1.07   0
  -7   3  -3  624.20    2.86   0
  -7   4   0   54.72    1.51   0
  -6   5   7    5.02    1.32   0
  -5  -4   5  146.37    1.54   0
  -4  -4   7  936.73    3.64   0
  -4  -3   1  556.46    1.43   0
  -4   1  -4  142.44    1.11   0
  -4   2  -3 1211.83    3.01   0
  -4   3  -1  394.38    1.88   0
  -3  -4  10  277.71    2.77   0
  -3   3   0  339.75    1.54   0
  -2  -3   4  773.97    2.27   0
  -1  -3   6 1220.24    3.40   0
  -1   3   3  126.18    0.76   0
   0  -3  10  149.06    1.83   0
   0  -3  11  337.73    2.67   0
   0  -3  12  153.95    2.13   0
   0  -3  14  137.10    2.46   0
   0  -1   1  138.96    0.54   0
   1  -2  19  109.50    2.81   0
   1  -1   3   88.98    0.60   0
   2  -1  19   56.78    2.40   0
   2   0  20  107.98    2.49   0
   3   0   8   85.13    0.90   0
   3   0  16  318.60    2.59   0
   3   1   9  711.80    1.88   0
   3   1  15  397.71    2.28   0
 -15  -1  -5   29.60    1.98   0
 -13   0  -6    5.00    1.53   0
 -13   2  -5   48.31    2.24   0
 -12   2  -5    7.43    1.54   0
 -11   2  -5   69.00    1.76   0
 -11   4  -1   12.49    1.44   0
 -10  -3  -2  219.82    1.04   0
 -10   0  -6    6.69    1.03   0
 -10   2  -5  128.15    1.88   0
  -9   0  -6  108.32    1.45   0
  -9   2  -5   25.88    1.23   0
  -8   3  -3  609.13    3.21   0
  -8   4   0    9.37    1.37   0
  -7   5   6   40.29    1.83   0
  -6   1  -5   73.12    0.92   0
  -6   3  -2  266.29    1.96   0
  -6   4   1   39.52    1.22   0
  -5  -3   0  477.20    1.00   0
  -5   4   2   52.29    1.15   0
  -4   4   3  116.13    1.28   0
  -3  -4   9   73.41    1.71   0
  -3  -3   2 1278.50    2.44   0
  -3  -2  -1 1364.62    0.99   0
  -3   2  -2  784.30    2.16   0
  -2   2  -1  970.68    2.11   0
   0  -3   9  405.53    2.54   0
   0  -3  16   29.08    2.10   0
   1  -2   6  232.85    1.34   0
   1   3  17   63.66    1.35   0
   2  -2  11  229.33    1.98   0
   2  -2  12  825.18    3.56   0
   2  -2  13  306.28    2.53   0
   2  -2  14   55.49    1.66   0
   2  -1  20   26.88    2.30   0
   2   2  18  262.74    2.49   0
   3  -1  11 2454.70    5.18   0
   3  -1  12  983.90    3.53   0
   3  -1  13   27.79    1.33   0
   3  -1  14  201.16    2.16   0
   3   0  17   50.59    1.66   0
   3   1  16  229.32    1.96   0
 -13  -3  -2   59.56    1.22   0
 -13   3  -3   39.64    2.26   0
 -12  -3  -2   70.84    1.04   0
 -12   3  -3   61.25    2.07   0
 -11  -3  -2  216.96    1.30   0
 -11   3  -3  328.53    3.08   0
 -10   3  -3  125.44    2.19   0
  -9  -2  -4    8.29    0.64   0
  -9   3  -3  456.90    3.01   0
  -9   4   0   68.22    1.91   0
  -8  -1  -5 1037.48    2.75   0
  -4  -4   6  418.56    2.38   0
  -3  -4   8   98.45    1.70   0
  -3   1  -3   52.58    0.61   0
  -2  -4  12  137.53    2.63   0
  -2  -4  13   50.41    2.27   0
  -2  -4  14   13.51    2.23   0
  -2  -4  15    8.47    2.39   0
  -2  -2   0 1966.05    1.91   0
  -2   1  -2 1429.25    2.31   0
  -1  -3   5  892.90    2.83   0
  -1   1  -1  102.47    0.57   0
   0  -3   8  490.98    2.59   0
   0  -3  18   95.25    3.05   0
   0  -2   3  280.05    1.23   0
   2  -2   9   86.86    1.31   0
   2  -2  10   73.78    1.10   0
   2  -2  15  185.06    2.16   0
   2  -2  16  596.59    4.03   0
   2  -2  17  323.95    3.41   0
   2  -1   5  146.63    0.98   0
   3  -1   9  792.22    2.73   0
   3  -1  10 2587.36    4.86   0
   3  -1  15  425.54    2.99   0
   3  -1  16  261.23    2.74   0
   3   0   7  986.37    2.35   0
   3   0  18    2.13    1.69   0
   3   1  17   32.48    1.35   0
 -12   4   0    0.35    2.02   0
 -11   4   0   83.31    2.39   0
 -10   4   0    6.57    1.62   0
  -7   3  -2  243.77    2.04   0
  -7   4   1  144.93    1.94   0
  -5  -4   4  267.82    1.64   0
  -5   1  -4 1995.66    3.84   0
  -5   2  -3  995.94    2.91   0
  -5   3  -1    2.30    0.82   0
  -3  -4   7  295.80    2.31   0
  -2  -4  10   56.00    1.76   0
  -2  -4  11   59.34    2.13   0
  -2  -3   3  604.06    1.94   0
  -2   3   2  397.91    1.47   0
   0   2   2  127.21    0.53   0
   1  -2   5  512.00    1.90   0
   2  -2   8   24.72    0.93   0
   2  -2  18  277.78    3.54   0
   2   1   4  159.37    0.53   0
   3  -1   8  314.39    1.71   0
   3  -1  17   34.40    1.95   0
   3   1  18   41.41    1.52   0
 -14   0  -5   56.99    2.03   0
 -14   2  -4   47.61    1.93   0
 -14   3  -2    2.41    1.94   0
 -13   1  -5  273.40    3.07   0
 -13   2  -4  195.13    2.97   0
  -9   1  -5  655.81    3.07   0
  -8   3  -2  335.28    2.53   0
  -8   4   1  193.03    2.27   0
  -6  -4   3   59.50    0.89   0
  -6   4   2   54.86    1.29   0
  -5   4   3  211.78    1.77   0
  -4  -4   5   44.93    1.20   0
  -4   3   0  403.31    1.85   0
  -4   4   4   54.13    1.02   0
  -2  -4   9   38.54    1.60   0
   0  -3   7 1028.16    3.26   0
   1  -3  11  592.84    3.45   0
   1  -3  12  168.92    2.24   0
   1  -3  13   10.55    1.24   0
   3  -1  18   40.36    1.71   0
   3  -1  19   25.85    2.18   0
   3   0   6 4045.87    4.37   0
   3   0  20   75.41    2.51   0
   3   1  19   27.43    1.64   0
   3   2  12   70.20    0.88   0
   3   2  13  125.50    1.15   0
   3   2  14  126.20    1.29   0
 -13   3  -2   48.27    2.30   0
 -12   1  -5  480.34    3.19   0
 -12   2  -4   31.51    1.63   0
 -12   3  -2   61.45    2.16   0
 -12   4   1  130.49    2.91   0
 -11   2  -4   43.40    1.53   0
 -11   3  -2  177.25    2.47   0
 -10   2  -4  155.77    1.96   0
 -10   3  -2  199.97    2.35   0
 -10   4   1   67.85    1.98   0
  -9   3  -2  142.74    2.01   0
  -9   4   1   16.53    1.62   0
  -8   0  -5 1838.40    4.13   0
  -7   4   2   99.98    1.67   0
  -6   2  -3  119.86    1.31   0
  -6   3  -1  738.92    2.93   0
  -4   2  -2  482.89    1.88   0
  -1  -4  13  425.98    4.12   0
  -1  -4  14  222.91    3.53   0
  -1  -4  15   30.50    2.56   0
  -1  -3   4  139.94    1.24   0
  -1  -2   1 1777.78    2.29   0
   0  -3   6  776.64    2.82   0
   1  -3  10  440.21    2.83   0
   1  -3  17   73.74    2.35   0
   2  -2   7   24.26    0.85   0
   2  -1   4  169.41    0.98   0
   3  -2  13  136.80    1.90   0
   3  -2  14  137.33    2.00   0
   3  -1   7 1255.89    3.03   0
   3  -1  20   24.56    2.54   0
   3   1  20   23.23    1.78   0
   3   2  11    3.47    0.55   0
   3   2  15  234.31    1.72   0
   3   2  16   64.12    1.41   0
   4   0  11  114.35    1.32   0
   4   0  12   12.13    0.93   0
   4   0  13   19.93    0.84   0
   4   0  14   87.20    1.48   0
   4   0  15   -0.22    1.18   0
   4   0  16   78.93    1.64   0
 -16   0  -4    2.42    1.86   0
 -15  -1  -4   11.28    1.67   0
 -15   1  -4   11.51    2.17   0
 -12   0  -5    9.91    1.30   0
 -11   4   1  208.58    2.78   0
 -10   0  -5    1.01    1.00   0
  -9   0  -5  197.65    1.69   0
  -7   3  -1    6.26    0.98   0
  -6   1  -4  280.92    1.68   0
  -4   1  -3  214.67    1.26   0
  -3  -4   6  162.39    1.70   0
  -3   4   6  120.24    1.14   0
  -2  -4   8   38.25    1.34   0
  -2   4   8   33.66    0.67   0
  -1  -4  11   50.18    2.03   0
  -1  -4  12  205.17    2.65   0
  -1   4  12  134.31    0.84   0
   1  -3   9  294.90    2.09   0
   1  -2   4 1464.71    2.94   0
   3  -2  11    4.18    1.14   0
   3  -2  15  253.38    2.52   0
   3  -2  16   82.96    2.24   0
   3  -2  17  270.48    3.31   0
   3   2  17  271.77    2.16   0
   4  -1  12  234.53    2.04   0
   4  -1  14  251.80    2.40   0
   4   0  10  938.60    2.88   0
   4   0  17   12.96    1.56   0
   4   1  12  185.75    1.33   0
   4   1  13  150.19    1.34   0
   4   1  14  208.22    1.61   0
   4   1  15  209.87    1.76   0
 -14  -1  -4   12.09    1.46   0
 -14   1  -4   10.80    1.96   0
 -14   2  -3  361.04    3.72   0
 -14   3  -1   54.75    2.57   0
 -13   2  -3  278.98    2.97   0
  -9   4   2  113.75    2.13   0
  -8   4   2  571.81    3.52   0
  -6   4   3   39.23    1.25   0
  -5   3   0  411.17    2.04   0
  -5   4   4  200.59    1.82   0
  -4   4   5   38.13    1.06   0
  -2  -4   7  102.89    1.61   0
  -2   2   0 1640.07    2.56   0
  -1  -4  10   57.44    1.93   0
  -1   2   1 1473.44    2.07   0
   0  -2   2  114.82    0.79   0
   1  -3   8   98.39    1.47   0
   2  -3  13   62.43    1.90   0
   2  -3  14   97.77    2.35   0
   2  -2   6  298.56    1.57   0
   2   0   3  143.88    0.67   0
   3  -1   6 2350.41    3.91   0
   3   2  10   51.26    0.65   0
   3   2  18   93.77    1.81   0
   4  -1  10  901.44    3.19   0
   4  -1  16   50.83    1.91   0
   4  -1  17    3.35    1.88   0
   4   0   9  883.31    2.66   0
   4   0  18   58.36    1.96   0
   4   0  19   29.90    1.88   0
   4   1  11  289.59    1.45   0
   4   1  16   46.08    1.31   0
   4   1  17    1.74    1.22   0
 -16  -1  -3   12.11    1.75   0
 -16   1  -3    5.53    2.34   0
 -14  -3  -1   72.72    1.52   0
 -13   1  -4  438.80    3.60   0
 -13   3  -1   16.02    1.83   0
 -12   1  -4  461.20    3.25   0
 -12   3  -1   83.49    2.21   0
 -12   4   2  244.00    3.89   0
 -11   2  -3  236.63    2.41   0
 -11   3  -1   69.10    1.92   0
 -11   4   2  161.66    3.00   0
 -10   2  -3  268.48    2.28   0
 -10   3  -1  106.08    1.89   0
 -10   4   2   47.87    2.03   0
  -9   3  -1    4.25    1.31   0
  -8   3  -1  297.22    2.11   0
  -7   4   3  175.40    2.07   0
  -6   0  -4    3.48    0.57   0
  -5  -4   3  271.06    1.52   0
  -5   2  -2  348.05    1.73   0
  -4  -4   4   65.26    1.03   0
  -4   3   1  470.30    1.95   0
  -3  -4   5   92.54    1.38   0
  -1  -4   9  258.08    2.59   0
   0  -4  13  283.47    3.55   0
   0  -4  14   24.45    2.36   0
   0  -4  15   56.42    2.87   0
   0  -3   5  419.53    2.02   0
   1  -3   7  903.79    3.39   0
   2  -3  12  190.07    2.47   0
   2  -3  16   31.32    1.84   0
   2  -3  17    2.12    2.38   0
   3  -2   9   49.31    0.99   0
   3   0   5 3970.72    4.14   0
   3   1   6 2206.85    2.51   0
   4  -1   9  868.43    2.94   0
   4  -1  18   76.04    2.36   0
   4   0   8  904.65    2.54   0
   4   1  10  756.23    2.09   0
   4   1  18   76.71    1.79   0
 -15   1  -3   22.37    2.23   0
 -15   2  -2  194.80    3.29   0
 -13   0  -4  522.01    3.37   0
 -10   1  -4  320.69    2.39   0
  -9   1  -4 2351.06    5.27   0
  -8   4   3  519.09    3.31   0
  -6   3   0  426.98    2.28   0
  -5   1  -3 1709.93    3.44   0
  -3  -3   1 1837.33    2.58   0
  -3   1  -2  181.30    1.00   0
  -3   3   2 1058.58    2.50   0
  -2  -4   6   42.81    1.34   0
  -2  -3   2  449.63    1.54   0
  -2   3   3  490.93    1.55   0
  -1  -4   8  328.19    2.64   0
  -1  -3   3  172.37    1.24   0
   0  -4  11  374.06    3.36   0
   0  -4  12  638.31    4.57   0
   2  -3  10  565.21    3.33   0
   2  -2   5 1252.15    3.07   0
   2   3  14   83.27    0.91   0
   3  -2   8  149.56    1.50   0
   3   2   9   40.28    0.53   0
   4   1   9  791.56    2.05   0
   4   1  19   78.20    2.03   0
 -14   2  -2  449.40    4.05   0
 -14   3   0   72.93    2.51   0
 -13  -3  -1   18.29    1.11   0
 -13   3   0   46.68    2.04   0
 -12   0  -4    0.44    1.22   0
 -12   4   3  172.98    3.38   0
 -11   4   3   27.93    1.88   0
 -10   4   3   76.78    2.07   0
  -9   4   3  234.05    2.76   0
  -8  -2  -3   38.68    0.68   0
  -7   3   0  791.50    3.16   0
  -6   4   4   75.58    1.39   0
  -4   2  -1  867.14    2.34   0
  -3   4   7  241.51    1.52   0
  -2   4   9   32.84    0.72   0
   0  -4  10   42.51    1.87   0
   1  -3   6 1378.83    3.89   0
   1  -2   3 1382.15    2.70   0
   2  -3   9  244.83    2.23   0
   2   3  13   52.23    0.67   0
   2   3  16   22.80    0.84   0
   2   3  17    2.28    0.87   0
   3  -2   7  616.07    2.51   0
   3  -1   5 1209.03    2.73   0
   4  -2  12   37.21    1.53   0
   4  -2  13  118.02    1.96   0
   4  -2  14   34.67    1.33   0
   4  -1   8  401.73    1.99   0
   4   0   7   73.12    0.86   0
   5   0  13  463.64    2.59   0
   5   0  14  105.98    1.67   0
   5   0  15  196.04    2.12   0
   5   0  16   93.18    1.83   0
 -16   1  -2   21.42    2.44   0
 -13   1  -3  382.18    3.25   0
 -13   2  -2  177.85    2.38   0
 -12   2  -2  372.70    3.06   0
 -12   3   0   59.50    2.08   0
 -11   0  -4    1.31    1.10   0
 -11   3   0   33.46    1.63   0
  -9   0  -4    4.72    0.95   0
  -9   3   0  162.08    1.89   0
  -8   0  -4  517.31    2.26   0
  -8   3   0  301.24    2.26   0
  -7   4   4   64.15    1.55   0
  -6  -5   7    2.56    1.40   0
  -6   1  -3 1650.36    3.57   0
  -5  -5   8   35.68    1.83   0
  -5   3   1 1051.51    3.13   0
  -4   4   6  354.76    1.96   0
  -1  -4   7   96.96    1.65   0
   0  -4   9   81.24    1.79   0
   0  -3   4  370.21    1.80   0
   1  -4  14   71.02    2.59   0
   2  -3   8  529.59    2.82   0
   3  -3  13    4.04    1.76   0
   3  -3  14   94.90    2.42   0
   4  -2  10  214.05    1.94   0
   4  -2  11   87.82    1.34   0
   4  -2  18   81.22    2.43   0
   5  -1  12   83.30    1.57   0
   5  -1  14  110.45    2.00   0
   5  -1  15  109.03    2.16   0
   5  -1  17   43.42    2.08   0
   5   0  11   14.84    0.98   0
   5   0  12  108.08    1.39   0
   5   0  17  432.49    3.41   0
   5   0  18  470.67    3.69   0
 -15   2  -1   90.61    2.35   0
 -14  -1  -3   22.91    1.39   0
 -14   3   1   54.54    2.48   0
 -12   1  -3   84.51    1.85   0
 -11   2  -2  209.59    2.25   0
 -10   2  -2  479.03    2.86   0
 -10   3   0  142.42    1.80   0
  -8   4   4  151.96    2.19   0
  -6  -4   2   57.34    0.75   0
  -4  -5   9   15.48    1.81   0
  -4   3   2  715.48    2.37   0
  -3  -4   4  109.81    1.32   0
  -2  -4   5  149.41    1.68   0
  -2   1  -1 1164.41    1.95   0
   1  -4  12  173.30    2.83   0
   1  -4  13   36.00    2.12   0
   2  -2   4  909.83    2.50   0
   2   3  12  177.16    0.85   0
   3  -3  11  662.84    3.81   0
   3  -3  12  192.54    2.28   0
   3  -2   6 1000.16    3.00   0
   4  -2   9 1054.36    3.66   0
   4  -1   7   30.23    0.71   0
   4   1   8  344.09    1.28   0
   5  -1  18    2.05    2.12   0
   5   0  10  209.75    1.61   0
   5   0  19  217.68    3.27   0
   5   1  15   92.85    1.51   0
 -16   0  -2    5.75    2.07   0
 -14   2  -1  133.40    2.55   0
 -13   3   1    6.55    1.94   0
 -12   4   4   33.54    2.15   0
 -11   1  -3  121.99    1.91   0
 -11   4   4   31.43    2.10   0
 -10   1  -3 1179.17    4.04   0
 -10   4   4   17.02    1.80   0
  -9   4   4  374.93    3.25   0
  -5  -2  -2  366.38    0.79   0
  -5   2  -1  305.28    1.59   0
  -4  -4   3  137.52    1.21   0
  -4  -3   0  564.03    1.14   0
  -4   1  -2   91.20    0.86   0
  -3   4   8   82.17    1.08   0
  -1  -4   6    3.54    1.04   0
  -1   4  13  288.94    1.31   0
   0  -4   8  137.56    2.03   0
   1  -4  11  152.48    2.56   0
   1  -3   5  824.02    2.88   0
   2  -3   7  740.12    3.14   0
   3  -3  10  582.88    3.48   0
   3   0   4  525.81    1.47   0
   4   0   6 3136.35    4.20   0
   4   2  13  111.17    1.09   0
   4   2  14   30.95    0.86   0
   4   2  15   70.01    1.17   0
   4   2  16  214.66    1.89   0
   4   2  17  152.29    1.87   0
   5  -1  10  119.09    1.55   0
   5  -1  19    9.96    1.74   0
   5   1  12   76.08    1.15   0
   5   1  13   40.98    1.04   0
   5   1  14  106.86    1.44   0
   5   1  16   25.10    1.28   0
   5   1  17   34.15    1.52   0
 -16   1  -1  140.87    3.14   0
 -15   2   0   55.86    2.22   0
 -14   1  -2   23.96    1.74   0
 -13   2  -1  140.50    2.34   0
 -12   3   1  109.78    2.28   0
 -11   3   1   86.15    2.13   0
  -8  -3  -1  415.82    1.08   0
  -8   3   1  242.16    2.07   0
  -7   3   1  789.62    3.12   0
  -7   4   5  202.94    2.15   0
  -6   2  -1  103.96    1.19   0
  -5  -5   7    5.26    1.42   0
  -5   4   6   32.45    1.05   0
  -4  -5   8   22.62    1.69   0
  -4   4   7  747.35    2.88   0
  -3  -5   9   27.74    2.17   0
  -3   3   3  316.40    1.41   0
  -2   3   4  679.92    1.84   0
  -2   4  10   43.74    0.79   0
   1  -4  10   71.06    1.89   0
   2  -4  14   12.06    2.22   0
   3  -3   9   72.06    1.69   0
   3  -1   4  164.08    0.99   0
   3   1   5 1093.31    1.67   0
   3   2   8  140.05    0.66   0
   4  -2   8  427.88    2.38   0
   4  -1   6   86.06    1.06   0
   4   2  12   31.91    0.72   0
   4   2  18   74.49    1.72   0
   5  -2  12  245.93    2.45   0
   5  -2  13  116.09    2.09   0
   5  -2  14  225.26    2.71   0
   5  -2  15   72.13    2.16   0
   5   0   9  753.93    2.60   0
   5   1  11  241.79    1.52   0
   5   1  19    7.03    1.76   0
 -15   0  -2  183.76    2.55   0
 -14  -3   0   78.45    1.73   0
 -14   3   2   66.61    2.41   0
 -13   1  -2   35.21    1.71   0
 -12   2  -1   90.67    1.66   0
 -12   4   5    3.31    2.01   0
 -11   2  -1  526.60    3.20   0
 -10   3   1   97.00    1.77   0
 -10   4   5    2.90    1.61   0
  -9   4   5  109.50    2.07   0
  -8   4   5   23.60    1.47   0
  -7   2  -1  305.61    1.87   0
  -6  -5   6   81.55    1.80   0
  -6  -1  -3 1634.30    2.75   0
  -6   0  -3    6.24    0.63   0
  -5   3   2  739.78    2.59   0
  -2   2   1  663.58    1.60   0
  -1  -3   2  521.43    1.75   0
   0  -4   7  162.30    1.91   0
   0  -3   3  662.52    2.21   0
   0  -2   1 3378.34    3.46   0
   0  -1   0    0.56    0.21   0
   1  -4   9  101.59    1.99   0
   1  -2   2 1326.80    2.56   0
   2  -4  12   13.47    1.83   0
   2  -4  13   88.54    2.79   0
   2  -3   6  445.92    2.45   0
   3  -3   8   19.72    1.22   0
   3  -2   5 1309.03    3.33   0
   4   1   7   28.77    0.51   0
   5  -2  11  202.28    2.22   0
   6   0  15   37.60    1.52   0
   6   0  16  280.87    2.94   0
 -16  -1  -1  139.96    2.89   0
 -16   0  -1    4.01    1.81   0
 -16   2   1   19.34    2.12   0
 -15   1  -1  316.62    3.51   0
 -14   2   0   14.76    1.64   0
 -13   3   2   73.70    2.28   0
 -12   1  -2   52.51    1.65   0
 -10   2  -1  349.75    2.49   0
  -6   3   2  436.02    2.23   0
  -6   4   6   44.31    1.29   0
  -5  -4   2   76.85    0.83   0
  -5   1  -2  596.06    1.94   0
  -4  -5   7   79.76    2.09   0
  -4   2   0 1959.92    3.37   0
  -3  -5   8   21.83    1.92   0
  -2  -4   4  129.15    1.46   0
  -2  -3   1  810.40    1.88   0
  -1  -4   5   90.42    1.39   0
  -1  -2   0 2084.59    2.26   0
  -1   2   2 1572.69    2.09   0
   0   2   3  241.54    0.67   0
   1  -4   8   73.37    1.74   0
   1  -3   4   53.50    1.00   0
   2  -4  11   22.99    1.83   0
   4   2  11   91.88    0.86   0
   5  -2  10  180.15    2.04   0
   5  -1   8   10.37    0.66   0
   5   0   8  881.22    2.62   0
   5   1  10   84.15    0.93   0
   6  -1  13  786.20    3.90   0
   6  -1  14   57.75    1.78   0
   6  -1  15  220.34    2.44   0
   6  -1  16  405.44    3.38   0
   6  -1  17  227.00    3.37   0
   6   0  12    1.69    1.02   0
   6   0  13    5.11    1.12   0
   6   0  14   37.21    1.36   0
   6   0  18  248.77    3.23   0
 -16   1   0  221.51    3.65   0
 -15   2   1   57.13    2.35   0
 -14   3   3   92.56    2.83   0
 -13   2   0  268.32    2.85   0
 -12   3   2    6.24    1.24   0
 -11   1  -2   28.34    1.35   0
 -11   3   2   25.96    1.73   0
  -7   3   2  458.98    2.44   0
  -7   4   6  337.86    2.69   0
  -6   1  -2 1970.16    3.76   0
  -5  -5   6   11.91    1.32   0
  -5   4   7  431.36    2.49   0
  -4   3   3  524.52    2.01   0
  -4   4   8  529.57    2.55   0
  -3  -4   3   52.63    0.97   0
  -3   1  -1   69.06    0.65   0
  -3   4   9   59.17    1.01   0
  -2  -5   9  106.33    2.60   0
   0  -4   6   81.32    1.50   0
   2  -4  10   48.15    1.93   0
   2  -2   3  176.78    1.11   0
   3  -3   7  331.07    2.32   0
   4   0   5 6961.55    5.98   0
   5  -2   9  240.81    2.12   0
   6  -1  11  525.90    3.06   0
   6   0  11   85.22    1.38   0
 -17   0   0  101.31    2.83   0
 -16   2   2   16.55    2.18   0
 -13  -3   0   58.76    1.45   0
 -13   3   3  168.45    2.92   0
 -12   2   0   13.31    1.40   0
 -10   3   2    7.35    1.18   0
 -10   4   6   17.52    1.79   0
  -9   3   2   82.23    1.66   0
  -9   4   6   54.49    1.88   0
  -8   3   2  408.73    2.51   0
  -8   4   6  269.27    2.56   0
  -7   1  -2  120.14    1.20   0
  -5   2   0   58.00    0.88   0
  -2   4  11   50.97    0.91   0
  -1  -5  10    9.61    2.06   0
   0   1   1  117.03    0.37   0
   0   3   7  971.41    1.50   0
   1  -4   7   61.87    1.62   0
   2  -4   9   83.17    1.95   0
   2  -3   5  400.09    2.08   0
   3  -4  13  241.51    3.78   0
   3  -2   4 1218.21    3.10   0
   5  -1   7  134.00    1.22   0
   5   0   7  837.83    2.49   0
   5   1   9  155.18    1.06   0
   6  -2  13   52.47    2.01   0
   6  -2  14   16.55    1.94   0
   6  -2  15   22.46    1.99   0
   6  -2  16   92.80    2.65   0
   6  -2  17  245.00    3.99   0
 -15   1   0  234.21    3.20   0
 -14   2   1  202.12    2.82   0
 -13   1  -1   22.64    1.26   0
 -12   3   3  123.74    2.44   0
 -11   2   0  308.99    2.50   0
 -10   2   0   18.49    1.18   0
  -6   2   0   35.41    0.89   0
  -6   4   7  122.24    1.65   0
  -5   3   3  214.51    1.53   0
  -4  -5   6  110.88    1.94   0
  -3  -5   7  191.71    2.56   0
  -3   2   1  736.05    1.90   0
  -3   3   4  193.29    1.18   0
  -2  -5   8   39.47    1.98   0
   2   1   3 1083.93    1.08   0
   3  -4  11    7.87    1.75   0
   3  -4  12   56.40    2.40   0
   3  -3   6  440.96    2.54   0
   3  -1   3   54.64    0.63   0
   4   2  10  205.18    1.04   0
   5  -3  12  369.54    3.64   0
   5  -3  13   26.31    1.70   0
   6  -1   9   99.22    1.50   0
   6   1  13  696.32    2.91   0
   6   1  14   62.41    1.29   0
   6   1  15  226.76    2.13   0
   6   1  16  359.20    2.80   0
   6   1  17  228.31    2.60   0
   6   1  18   80.02    2.15   0
 -16   0   0   -0.09    1.91   0
 -16   1   1  192.23    3.30   0
 -15  -2   0   63.60    2.12   0
 -15   2   2   71.33    2.43   0
 -14   3   4  138.58    2.96   0
 -13   2   1  203.35    2.57   0
 -12   1  -1  145.42    2.08   0
 -11   3   3  152.28    2.39   0
 -11   4   7   37.55    2.23   0
  -9   4   7   62.02    1.92   0
  -8   2   0   16.93    0.99   0
  -8   4   7  521.03    3.48   0
  -7   4   7  162.49    2.08   0
  -6   3   3  240.46    1.75   0
  -5   4   8  464.10    2.70   0
  -4  -4   2  195.61    1.23   0
  -4   0  -2  227.82    0.99   0
  -3   4  10  223.53    1.69   0
  -2   3   5  539.00    1.67   0
  -1  -5   9    3.03    1.78   0
  -1  -4   4  262.20    1.85   0
   0  -4   5   44.19    1.27   0
   0  -3   2  188.28    1.28   0
   1  -3   3   29.90    0.83   0
   2  -4   8   91.99    1.90   0
   3  -4  10   26.81    1.76   0
   3   0   3  655.44    1.53   0
   4  -3   8  383.45    2.55   0
   4  -2   5 2346.69    4.64   0
   4   1   6   75.14    0.62   0
   5  -1   6   24.10    0.89   0
   5   2  15   68.33    1.28   0
   5   2  16   34.06    1.29   0
   5   2  17  169.12    2.01   0
   6   0   9   20.45    0.91   0
   6   1  12  747.40    2.84   0
   7  -1  16  539.37    4.36   0
   7  -1  17  154.56    3.18   0
   7   0  16    5.96    1.58   0
 -17   0   1   80.29    2.92   0
 -16   2   3    7.42    2.32   0
 -14  -1  -1   12.35    1.55   0
 -14   1   0   34.24    1.51   0
 -13   3   4  415.61    4.09   0
 -12   2   1  184.04    2.25   0
 -11   1  -1   12.70    1.22   0
 -10   3   3   31.45    1.44   0
  -9   3   3   97.91    1.72   0
  -8   3   3   93.02    1.51   0
  -7   3   3   68.51    1.33   0
  -6   4   8  133.60    1.90   0
  -4   1  -1 2038.17    3.12   0
  -4   4   9  105.38    1.35   0
  -2  -5   7   24.83    1.92   0
  -2  -4   3   80.03    1.18   0
  -1   3   6 1178.26    2.06   0
   1  -4   6   79.16    1.54   0
   2  -3   4  268.27    1.78   0
   4  -4  13   67.71    3.12   0
   4  -3   7  340.26    2.45   0
   4  -1   4  135.31    1.03   0
   5   1   8   11.13    0.53   0
   5   2  14  200.31    1.57   0
   7  -1  12  537.46    3.39   0
   7  -1  13    7.20    1.19   0
   7   0  17   34.18    1.85   0
   7   0  18   13.32    2.07   0
 -15   1   1    9.77    1.88   0
 -14   2   2  111.97    2.12   0
 -14   3   5  182.21    3.50   0
 -13   0  -1   23.99    1.64   0
 -13   1   0   31.82    1.61   0
 -12   3   4  181.80    2.78   0
 -11   2   1  275.96    2.44   0
 -11   4   8    6.74    2.12   0
 -10   4   8   14.65    1.79   0
  -5   0  -2  579.93    1.76   0
  -5   1  -1   39.72    0.77   0
  -4   3   4  862.14    2.53   0
  -1  -5   8   15.51    1.79   0
   1  -2   1 1629.13    2.72   0
   2  -4   7   32.65    1.62   0
   2  -2   2  194.88    1.21   0
   3  -4   9  161.40    2.49   0
   3  -3   5  381.36    2.32   0
   3  -2   3 1460.49    3.27   0
   4  -4  12   64.43    2.83   0
   4   0   4 6546.72    5.56   0
   6  -3  13  173.93    3.20   0
   6  -3  14   59.75    2.60   0
   6  -2   9  372.81    2.45   0
   6   0   8  165.72    1.39   0
   6   1  11  465.23    2.05   0
   7  -2  13   12.92    1.94   0
   7  -2  14   34.31    2.28   0
   7   0  12  217.27    1.94   0
;
_shelx_hkl_checksum              95452
_shelx_res_file
;
TITL g70cui_a.res in P2(1)
    g70cui.res
    created by SHELXL-2017/1 at 21:06:09 on 11-Jul-2018
REM Old TITL G70CuI in P21/c #14
REM SHELXT solution in P2(1)
REM R1 0.059, Rweak 0.019, Alpha 0.009, Orientation as input
REM Flack x = 0.314 ( 0.021 ) from Parsons' quotients
REM Formula found by SHELXT: C13 Cu2 I2 N2 O2 S
CELL 0.71073 12.688 4.1152 15.8952 90 100.258 90
ZERR 2 0.0012 0.0004 0.0015 0 0.008 0
LATT -1
SYMM -X,0.5+Y,-Z
SFAC C H Cu I N O S
UNIT 28 20 4 4 4 2 2
EQIV $1 +X,-1+Y,+Z
L.S. 20 0 0
PLAN  3
SIZE 0.06 0.09 0.569
TEMP -153.15
HTAB N1 I1_$1
BOND $H
list 4
fmap 2
acta
OMIT -3 52
REM <olex2.extras>
REM <HklSrc "%.\\G70CuI.hkl">
REM </olex2.extras>
WGHT    0.077100    6.693400
FVAR       0.38590
I2    4    1.020991    0.891727    0.379617    11.00000    0.01815    0.02031 =
         0.02157    0.00072    0.00387    0.00035
I1    4    0.729449    0.481983    0.411035    11.00000    0.02040    0.02244 =
         0.02310    0.00298    0.00344    0.00159
CU2   3    0.936503    0.384904    0.451455    11.00000    0.02474    0.02922 =
         0.02714   -0.00401    0.00487   -0.00260
CU1   3    0.811299   -0.008961    0.336388    11.00000    0.03494    0.04144 =
         0.03482    0.00106    0.00456   -0.00095
S1    7    0.613533    0.170458    0.071183    11.00000    0.01873    0.03236 =
         0.01831    0.00296    0.00186    0.00157
O1    6    0.439448   -0.106929    0.114016    11.00000    0.02601    0.04656 =
         0.02019    0.00471    0.00170    0.00087
N1    5    0.584028   -0.122984    0.219048    11.00000    0.02155    0.03276 =
         0.01616    0.00296    0.00322    0.00054
AFIX  43
H1    2    0.609540   -0.193974    0.270900    11.00000   -1.20000
AFIX   0
N2    5    0.753373    0.087210    0.210471    11.00000    0.02186    0.02392 =
         0.01744    0.00419    0.00254   -0.00040
C1    1    0.653380    0.030286    0.175885    11.00000    0.01744    0.02754 =
         0.01376   -0.00178   -0.00118    0.00292
C25   1    0.910902    0.371246    0.174027    11.00000    0.02767    0.02495 =
         0.01918   -0.00154    0.00425    0.00324
AFIX  43
H25   2    0.953311    0.330248    0.228530    11.00000   -1.20000
AFIX   0
C21   1    0.743555    0.325417    0.075474    11.00000    0.02359    0.02152 =
         0.02501   -0.00243    0.00606    0.00208
C22   1    0.782056    0.497975    0.012462    11.00000    0.02099    0.03674 =
         0.01796    0.00144   -0.00121    0.00221
AFIX  43
H22   2    0.737748    0.543116   -0.040998    11.00000   -1.20000
AFIX   0
C13   1    0.254069   -0.612365    0.267388    11.00000    0.02564    0.03891 =
         0.04450    0.00517    0.00704   -0.00103
AFIX  43
H13   2    0.190294   -0.725404    0.243961    11.00000   -1.20000
AFIX   0
C10   1    0.476255   -0.175507    0.187402    11.00000    0.02368    0.02504 =
         0.02912   -0.00472    0.00677    0.00132
C24   1    0.952469    0.544057    0.111608    11.00000    0.02432    0.02549 =
         0.03326   -0.00663    0.00760   -0.00104
AFIX  43
H24   2    1.024029    0.622134    0.123787    11.00000   -1.20000
AFIX   0
C14   1    0.281960   -0.581393    0.355101    11.00000    0.02982    0.04566 =
         0.03807    0.01522    0.01341    0.00626
AFIX  43
H14   2    0.238052   -0.671896    0.391680    11.00000   -1.20000
AFIX   0
C20   1    0.807343    0.262612    0.154466    11.00000    0.02285    0.02201 =
         0.02000   -0.00210    0.00691    0.00290
C11   1    0.412541   -0.318794    0.247944    11.00000    0.02104    0.02870 =
         0.02511   -0.00374    0.00576    0.00393
C12   1    0.317630   -0.480960    0.212110    11.00000    0.02606    0.02980 =
         0.04406    0.00316    0.00825    0.00208
AFIX  43
H12   2    0.297025   -0.501082    0.151884    11.00000   -1.20000
AFIX   0
C23   1    0.889031    0.603789    0.030507    11.00000    0.02283    0.03491 =
         0.03025    0.00478    0.00623    0.00120
AFIX  43
H23   2    0.918855    0.715912   -0.011950    11.00000   -1.20000
AFIX   0
C15   1    0.376978   -0.412677    0.389472    11.00000    0.02379    0.04951 =
         0.02487    0.00258    0.00228   -0.00324
AFIX  43
H15   2    0.396217   -0.386533    0.449633    11.00000   -1.20000
AFIX   0
C16   1    0.441388   -0.286962    0.337448    11.00000    0.02767    0.03683 =
         0.01885   -0.00446    0.00430    0.00594
AFIX  43
H16   2    0.505710   -0.177906    0.361500    11.00000   -1.20000
AFIX   0
HKLF 4
REM  g70cui_a.res in P2(1)
REM R1 =  0.0441 for    3139 Fo > 4sig(Fo)  and  0.0443 for all    3163 data
REM    199 parameters refined using      1 restraints
END
WGHT      0.0772      6.6939
REM Highest difference peak  1.307,  deepest hole -2.028,  1-sigma level  0.247
Q1    1   0.6849  0.4894  0.4588  11.00000  0.05    1.31
Q2    1   1.0256  1.0982  0.3806  11.00000  0.05    1.15
Q3    1   0.9679  0.8928  0.4235  11.00000  0.05    1.08
;
_shelx_res_checksum              86851
loop_
_space_group_symop_operation_xyz
'x, y, z'
'-x, y+1/2, -z'
loop_
_atom_site_type_symbol
_atom_site_label
_atom_site_fract_x
_atom_site_fract_y
_atom_site_fract_z
_atom_site_U_iso_or_equiv
_atom_site_adp_type
_atom_site_calc_flag
_atom_site_occupancy
I I2 1.02099(5) 0.89173(17) 0.37962(5) 0.0200(2) Uani d 1
I I1 0.72945(6) 0.48198(19) 0.41104(5) 0.0220(2) Uani d 1
Cu Cu2 0.93650(12) 0.3849(4) 0.45145(10) 0.0270(4) Uani d 1
Cu Cu1 0.81130(14) -0.0090(5) 0.33639(12) 0.0373(4) Uani d 1
S S1 0.6135(2) 0.1705(8) 0.07118(19) 0.0233(6) Uani d 1
O O1 0.4394(7) -0.107(3) 0.1140(5) 0.031(2) Uani d 1
N N1 0.5840(8) -0.123(3) 0.2190(6) 0.024(2) Uani d 1
H H1 0.609540 -0.193974 0.270900 0.028 Uiso calc 1
N N2 0.7534(8) 0.087(3) 0.2105(6) 0.021(2) Uani d 1
C C1 0.6534(9) 0.030(3) 0.1759(7) 0.020(2) Uani d 1
C C25 0.9109(9) 0.371(4) 0.1740(7) 0.024(2) Uani d 1
H H25 0.953311 0.330248 0.228530 0.029 Uiso calc 1
C C21 0.7436(10) 0.325(3) 0.0755(8) 0.023(2) Uani d 1
C C22 0.7821(9) 0.498(4) 0.0125(8) 0.026(3) Uani d 1
H H22 0.737748 0.543116 -0.040998 0.031 Uiso calc 1
C C13 0.2541(10) -0.612(4) 0.2674(9) 0.036(3) Uani d 1
H H13 0.190294 -0.725404 0.243961 0.044 Uiso calc 1
C C10 0.4763(10) -0.176(4) 0.1874(8) 0.026(3) Uani d 1
C C24 0.9525(10) 0.544(4) 0.1116(8) 0.027(3) Uani d 1
H H24 1.024029 0.622134 0.123787 0.033 Uiso calc 1
C C14 0.2820(11) -0.581(4) 0.3551(9) 0.037(3) Uani d 1
H H14 0.238052 -0.671896 0.391680 0.044 Uiso calc 1
C C20 0.8073(9) 0.263(3) 0.1545(7) 0.021(2) Uani d 1
C C11 0.4125(9) -0.319(3) 0.2479(8) 0.025(3) Uani d 1
C C12 0.3176(10) -0.481(4) 0.2121(10) 0.033(3) Uani d 1
H H12 0.297025 -0.501082 0.151884 0.040 Uiso calc 1
C C23 0.8890(10) 0.604(4) 0.0305(9) 0.029(3) Uani d 1
H H23 0.918855 0.715912 -0.011950 0.035 Uiso calc 1
C C15 0.3770(10) -0.413(4) 0.3895(8) 0.033(3) Uani d 1
H H15 0.396217 -0.386533 0.449633 0.040 Uiso calc 1
C C16 0.4414(10) -0.287(4) 0.3374(8) 0.028(3) Uani d 1
H H16 0.505710 -0.177906 0.361500 0.033 Uiso calc 1
loop_
_atom_site_aniso_label
_atom_site_aniso_U_11
_atom_site_aniso_U_22
_atom_site_aniso_U_33
_atom_site_aniso_U_12
_atom_site_aniso_U_13
_atom_site_aniso_U_23
I2 0.0181(3) 0.0203(4) 0.0216(4) 0.0004(3) 0.0039(3) 0.0007(3)
I1 0.0204(4) 0.0224(4) 0.0231(4) 0.0016(3) 0.0034(3) 0.0030(3)
Cu2 0.0247(7) 0.0292(9) 0.0271(7) -0.0026(7) 0.0049(6) -0.0040(7)
Cu1 0.0349(8) 0.0414(11) 0.0348(9) -0.0009(9) 0.0046(7) 0.0011(9)
S1 0.0187(13) 0.0324(17) 0.0183(13) 0.0016(12) 0.0019(10) 0.0030(12)
O1 0.026(4) 0.047(6) 0.020(4) 0.001(5) 0.002(3) 0.005(5)
N1 0.022(4) 0.033(6) 0.016(4) 0.001(5) 0.003(4) 0.003(5)
N2 0.022(5) 0.024(5) 0.017(5) 0.000(4) 0.003(4) 0.004(4)
C1 0.017(5) 0.028(7) 0.014(5) 0.003(5) -0.001(4) -0.002(5)
C25 0.028(6) 0.025(6) 0.019(5) 0.003(5) 0.004(4) -0.002(5)
C21 0.024(5) 0.022(7) 0.025(6) 0.002(5) 0.006(4) -0.002(5)
C22 0.021(5) 0.037(7) 0.018(5) 0.002(6) -0.001(4) 0.001(6)
C13 0.026(6) 0.039(8) 0.044(8) -0.001(6) 0.007(6) 0.005(7)
C10 0.024(6) 0.025(7) 0.029(6) 0.001(5) 0.007(5) -0.005(5)
C24 0.024(6) 0.025(7) 0.033(7) -0.001(5) 0.008(5) -0.007(6)
C14 0.030(6) 0.046(10) 0.038(7) 0.006(7) 0.013(6) 0.015(7)
C20 0.023(5) 0.022(6) 0.020(6) 0.003(5) 0.007(4) -0.002(5)
C11 0.021(5) 0.029(7) 0.025(6) 0.004(5) 0.006(5) -0.004(5)
C12 0.026(6) 0.030(7) 0.044(8) 0.002(6) 0.008(6) 0.003(7)
C23 0.023(6) 0.035(8) 0.030(7) 0.001(6) 0.006(5) 0.005(6)
C15 0.024(6) 0.050(9) 0.025(6) -0.003(6) 0.002(5) 0.003(6)
C16 0.028(6) 0.037(8) 0.019(6) 0.006(6) 0.004(5) -0.004(5)
loop_
_atom_type_symbol
_atom_type_description
_atom_type_scat_dispersion_real
_atom_type_scat_dispersion_imag
_atom_type_scat_source
C C 0.0033 0.0016 'International Tables Vol C Tables 4.2.6.8 and 6.1.1.4'
H H 0.0000 0.0000 'International Tables Vol C Tables 4.2.6.8 and 6.1.1.4'
Cu Cu 0.3201 1.2651 'International Tables Vol C Tables 4.2.6.8 and 6.1.1.4'
I I -0.4742 1.8119 'International Tables Vol C Tables 4.2.6.8 and 6.1.1.4'
N N 0.0061 0.0033 'International Tables Vol C Tables 4.2.6.8 and 6.1.1.4'
O O 0.0106 0.0060 'International Tables Vol C Tables 4.2.6.8 and 6.1.1.4'
S S 0.1246 0.1234 'International Tables Vol C Tables 4.2.6.8 and 6.1.1.4'
loop_
_geom_angle_atom_site_label_1
_geom_angle_atom_site_label_2
_geom_angle_atom_site_label_3
_geom_angle_site_symmetry_1
_geom_angle_site_symmetry_3
_geom_angle
Cu2 I2 Cu2 2_756 1_565 66.11(5)
Cu2 I2 Cu2 1_565 . 100.88(5)
Cu2 I2 Cu2 2_756 . 65.50(5)
Cu2 I2 Cu1 2_756 1_565 106.14(6)
Cu2 I2 Cu1 1_565 1_565 61.97(6)
Cu1 I2 Cu2 1_565 . 76.87(6)
Cu2 I1 Cu1 . . 62.45(6)
Cu2 I1 Cu1 . 1_565 77.24(6)
Cu1 I1 Cu1 . 1_565 100.52(6)
I2 Cu2 I2 2_746 1_545 114.92(7)
I2 Cu2 I2 2_746 . 113.47(6)
I2 Cu2 I2 1_545 . 100.88(5)
I2 Cu2 Cu2 1_545 2_756 123.16(8)
I2 Cu2 Cu2 2_746 2_746 58.04(6)
I2 Cu2 Cu2 . 2_756 56.46(4)
I2 Cu2 Cu2 2_746 2_756 57.02(6)
I2 Cu2 Cu2 1_545 2_746 56.88(4)
I2 Cu2 Cu2 . 2_746 123.57(8)
I2 Cu2 Cu1 . . 113.83(7)
I2 Cu2 Cu1 1_545 . 59.21(5)
I2 Cu2 Cu1 2_746 . 132.51(8)
I1 Cu2 I2 . . 103.62(6)
I1 Cu2 I2 . 2_746 105.17(6)
I1 Cu2 I2 . 1_545 118.44(6)
I1 Cu2 Cu2 . 2_746 132.81(7)
I1 Cu2 Cu2 . 2_756 117.53(6)
I1 Cu2 Cu1 . . 59.23(6)
Cu2 Cu2 Cu2 2_746 2_756 90.97(9)
Cu1 Cu2 Cu2 . 2_756 169.75(8)
Cu1 Cu2 Cu2 . 2_746 97.92(5)
I2 Cu1 I1 1_545 1_545 102.26(7)
I2 Cu1 Cu2 1_545 . 58.81(5)
I1 Cu1 I2 . 1_545 117.13(7)
I1 Cu1 I1 . 1_545 100.52(6)
I1 Cu1 Cu2 1_545 . 112.88(7)
I1 Cu1 Cu2 . . 58.32(5)
N2 Cu1 I2 . 1_545 116.8(3)
N2 Cu1 I1 . 1_545 118.7(3)
N2 Cu1 I1 . . 100.9(3)
N2 Cu1 Cu2 . . 127.3(3)
C1 S1 C21 . . 88.4(6)
C1 N1 H1 . . 117.5
C1 N1 C10 . . 124.9(10)
C10 N1 H1 . . 117.5
C1 N2 Cu1 . . 121.9(8)
C1 N2 C20 . . 111.6(10)
C20 N2 Cu1 . . 125.8(8)
N1 C1 S1 . . 121.9(8)
N2 C1 S1 . . 115.7(9)
N2 C1 N1 . . 122.3(10)
C24 C25 H25 . . 120.9
C20 C25 H25 . . 120.9
C20 C25 C24 . . 118.2(11)
C22 C21 S1 . . 127.4(10)
C22 C21 C20 . . 121.6(11)
C20 C21 S1 . . 111.0(9)
C21 C22 H22 . . 121.2
C21 C22 C23 . . 117.6(11)
C23 C22 H22 . . 121.2
C14 C13 H13 . . 119.2
C14 C13 C12 . . 121.6(14)
C12 C13 H13 . . 119.2
O1 C10 N1 . . 120.0(12)
O1 C10 C11 . . 123.8(11)
N1 C10 C11 . . 116.2(11)
C25 C24 H24 . . 119.7
C25 C24 C23 . . 120.7(12)
C23 C24 H24 . . 119.7
C13 C14 H14 . . 120.6
C13 C14 C15 . . 118.9(13)
C15 C14 H14 . . 120.6
C25 C20 N2 . . 125.2(11)
C25 C20 C21 . . 121.6(11)
C21 C20 N2 . . 113.2(10)
C12 C11 C10 . . 116.9(11)
C12 C11 C16 . . 120.2(12)
C16 C11 C10 . . 122.9(12)
C13 C12 C11 . . 118.4(13)
C13 C12 H12 . . 120.8
C11 C12 H12 . . 120.8
C22 C23 C24 . . 120.3(12)
C22 C23 H23 . . 119.9
C24 C23 H23 . . 119.9
C14 C15 H15 . . 119.5
C16 C15 C14 . . 120.9(13)
C16 C15 H15 . . 119.5
C11 C16 H16 . . 120.0
C15 C16 C11 . . 120.0(13)
C15 C16 H16 . . 120.0
loop_
_geom_bond_atom_site_label_1
_geom_bond_atom_site_label_2
_geom_bond_site_symmetry_2
_geom_bond_distance
I2 Cu2 2_756 2.6431(18)
I2 Cu2 . 2.6905(18)
I2 Cu2 1_565 2.6473(18)
I2 Cu1 1_565 2.658(2)
I1 Cu2 . 2.6216(17)
I1 Cu1 1_565 2.704(2)
I1 Cu1 . 2.647(2)
Cu2 Cu2 2_746 2.885(2)
Cu2 Cu2 2_756 2.885(2)
Cu2 Cu1 . 2.732(2)
Cu1 N2 . 2.044(10)
S1 C1 . 1.749(11)
S1 C21 . 1.759(13)
O1 C10 . 1.210(16)
N1 H1 . 0.8800
N1 C1 . 1.363(16)
N1 C10 . 1.387(15)
N2 C1 . 1.311(15)
N2 C20 . 1.414(15)
C25 H25 . 0.9500
C25 C24 . 1.398(18)
C25 C20 . 1.370(17)
C21 C22 . 1.386(18)
C21 C20 . 1.392(17)
C22 H22 . 0.9500
C22 C23 . 1.406(17)
C13 H13 . 0.9500
C13 C14 . 1.38(2)
C13 C12 . 1.403(19)
C10 C11 . 1.485(17)
C24 H24 . 0.9500
C24 C23 . 1.414(19)
C14 H14 . 0.9500
C14 C15 . 1.41(2)
C11 C12 . 1.406(19)
C11 C16 . 1.411(17)
C12 H12 . 0.9500
C23 H23 . 0.9500
C15 H15 . 0.9500
C15 C16 . 1.364(19)
C16 H16 . 0.9500
loop_
_geom_hbond_atom_site_label_D
_geom_hbond_atom_site_label_H
_geom_hbond_atom_site_label_A
_geom_hbond_site_symmetry_A
_geom_hbond_distance_DH
_geom_hbond_distance_HA
_geom_hbond_distance_DA
_geom_hbond_angle_DHA
_geom_hbond_publ_flag
N1 H1 I1 1_545 0.88 2.80 3.654(10) 163.7 yes

_cod_database_fobs_code 2021353
