#------------------------------------------------------------------------------
#$Date: 2018-02-28 09:16:58 +0200 (Wed, 28 Feb 2018) $
#$Revision: 206688 $
#$URL: file:///home/coder/svn-repositories/cod/cif/2/02/10/2021040.cif $
#------------------------------------------------------------------------------
#
# This file is available in the Crystallography Open Database (COD),
# http://www.crystallography.net/. The original data for this entry
# were provided by IUCr Journals, http://journals.iucr.org/.
#
# The file may be used within the scientific community so long as
# proper attribution is given to the journal article from which the
# data were obtained.
#
data_2021040
loop_
_publ_author_name
'Pogoda, Dorota'
'Matera-Witkiewicz, Agnieszka'
'Listowski, Marcin'
'Janczak, Jan'
'Videnova-Adrabinska, Veneta'
_publ_section_title
;
 The role of different nonspecific interactions and halogen contacts in
 the crystal structure organization of 5-chloroisatoic anhydride
;
_journal_coeditor_code           KU3216
_journal_issue                   3
_journal_name_full               'Acta Crystallographica Section C'
_journal_page_first
;
;
_journal_paper_doi               10.1107/S2053229618002280
_journal_volume                  74
_journal_year                    2018
_chemical_formula_iupac          'C8 H4 Cl N O3'
_chemical_formula_moiety         'C8 H4 Cl N O3'
_chemical_formula_sum            'C8 H4 Cl N O3'
_chemical_formula_weight         197.57
_chemical_name_common
;
5-Chloroisatoic anhydride
;
_chemical_name_systematic
;
6-Chloro-2,4-dihydro-1<i>H</i>-3,1-benzoxazine-2,4-dione
;
_space_group_crystal_system      orthorhombic
_space_group_IT_number           33
_space_group_name_Hall           'P 2c -2n'
_space_group_name_H-M_alt        'P n a 21'
_symmetry_space_group_name_Hall  'P 2c -2n'
_symmetry_space_group_name_H-M   'P n a 21'
_atom_sites_solution_hydrogens   mixed
_atom_sites_solution_primary     direct
_atom_sites_solution_secondary   difmap
_audit_creation_method           SHELXL-2014/7
_cell_angle_alpha                90
_cell_angle_beta                 90
_cell_angle_gamma                90
_cell_formula_units_Z            4
_cell_length_a                   24.3852(12)
_cell_length_b                   6.0502(4)
_cell_length_c                   5.100(3)
_cell_measurement_reflns_used    2601
_cell_measurement_temperature    100(2)
_cell_measurement_theta_max      29.714
_cell_measurement_theta_min      3.456
_cell_volume                     752.4(4)
_computing_cell_refinement
;
CrysAlis RED (Rigaku OD, 2015)
;
_computing_data_collection
;
CrysAlis CCD (Rigaku OD, 2015)
;
_computing_data_reduction
;
CrysAlis RED (Rigaku OD, 2015)
;
_computing_molecular_graphics
;
DIAMOND (Brandenburg & Putz, 2006)
;
_computing_publication_material
;
SHELXL2014 (Sheldrick, 2015b)
;
_computing_structure_refinement
;
SHELXL2014 (Sheldrick, 2015b)
;
_computing_structure_solution
;
SHELXT (Sheldrick, 2015a)
;
_diffrn_ambient_temperature      100(2)
_diffrn_detector_area_resol_mean 10.6249
_diffrn_measured_fraction_theta_full 0.999
_diffrn_measured_fraction_theta_max 0.909
_diffrn_measurement_device_type  'Kuma KM-4 with a CCD detector'
_diffrn_measurement_method       '\w scan'
_diffrn_radiation_type           MoK\a
_diffrn_radiation_wavelength     0.71073
_diffrn_reflns_av_R_equivalents  0.0257
_diffrn_reflns_limit_h_max       34
_diffrn_reflns_limit_h_min       -34
_diffrn_reflns_limit_k_max       7
_diffrn_reflns_limit_k_min       -8
_diffrn_reflns_limit_l_max       6
_diffrn_reflns_limit_l_min       -7
_diffrn_reflns_number            5402
_diffrn_reflns_theta_full        25.242
_diffrn_reflns_theta_max         30.273
_diffrn_reflns_theta_min         3.342
_exptl_absorpt_coefficient_mu    0.473
_exptl_absorpt_correction_T_max  1.00000
_exptl_absorpt_correction_T_min  0.99468
_exptl_absorpt_correction_type   multi-scan
_exptl_absorpt_process_details
;
(CrysAlis PRO; Rigaku OD, 2015)
;
_exptl_crystal_colour            colourless
_exptl_crystal_density_diffrn    1.744
_exptl_crystal_density_meas      1.74
_exptl_crystal_density_method    floatation
_exptl_crystal_description       parallelepiped
_exptl_crystal_F_000             400
_exptl_crystal_size_max          0.290
_exptl_crystal_size_mid          0.260
_exptl_crystal_size_min          0.210
_refine_diff_density_max         0.284
_refine_diff_density_min         -0.277
_refine_ls_abs_structure_details
;
Flack <i>x</i> determined using 679 quotients [(I+)-(I-)]/[(I+)+(I-)]
(Parsons <i>et al.</i>,  2013)
;
_refine_ls_abs_structure_Flack   -0.03(4)
_refine_ls_extinction_method     none
_refine_ls_goodness_of_fit_ref   1.000
_refine_ls_hydrogen_treatment    mixed
_refine_ls_matrix_type           full
_refine_ls_number_parameters     121
_refine_ls_number_reflns         1960
_refine_ls_number_restraints     1
_refine_ls_restrained_S_all      1.000
_refine_ls_R_factor_all          0.0379
_refine_ls_R_factor_gt           0.0320
_refine_ls_shift/su_max          0.001
_refine_ls_shift/su_mean         0.000
_refine_ls_structure_factor_coef Fsqd
_refine_ls_weighting_details
'w=1/[\s^2^(Fo^2^)+(0.0286P)^2^+0.1626P] where P=(Fo^2^+2Fc^2^)/3'
_refine_ls_weighting_scheme      calc
_refine_ls_wR_factor_gt          0.0626
_refine_ls_wR_factor_ref         0.0651
_reflns_number_gt                1787
_reflns_number_total             1960
_reflns_threshold_expression     'I > 2\s(I)'
_cod_data_source_file            ku3216sup1.cif
_cod_data_source_block           I
_cod_database_code               2021040
_shelx_space_group_comment
;
The symmetry employed for this shelxl refinement is uniquely defined
by the following loop, which should always be used as a source of
symmetry information in preference to the above space-group names.
They are only intended as comments.
;
_shelx_estimated_absorpt_t_min   0.875
_shelx_estimated_absorpt_t_max   0.907
_shelx_hkl_file
;
   0   0  -6 1689.76 307.382   1
   0   0  -5-59.0451 170.014   1
   0   0  -4 11818.5 602.655   1
   0   0  -3 21.5864 122.809   2
   0   0  -3-43.8141 118.723   3
   0   0  -3-93.5400 126.659   1
   0   0  -2 68559.0 1105.82   3
   0   0  -2 67713.4 980.341   1
   0   0  -2 68838.0 1117.89   2
   0   0  -1 13.5275 76.4715   1
   0   0  -1 36.4239 88.2804   3
   0   0  -1-63.4184 92.6018   2
   0   0   1 111.463 92.2943   3
   0   0   2 66533.0 1110.95   3
   0   0   3 38.4119 156.343   3
   0  -1  -7 377.713 233.764   1
   0  -1  -6 417.470 288.860   1
   0   1  -5 2750.51 317.718   1
   0  -1  -5 2826.57 403.859   1
   0  -1  -4-88.5394 175.615   1
   0   1  -4 22.5179 120.733   1
   0  -1  -3 32824.2 918.310   2
   0   1  -3 34293.7 953.094   3
   0   1  -3 32294.8 726.041   1
   0  -1  -3 33730.3 955.144   1
   0   1  -2 25.7854 69.3004   1
   0  -1  -2-20.8363 111.464   3
   0   1  -2 63.5703 100.748   3
   0  -1  -2-86.6830 133.323   1
   0   1  -2 72.5649 133.818   2
   0  -1  -1 20677.9 501.352   3
   0  -1  -1 21614.8 514.092   1
   0   1  -1 21167.5 513.532   2
   0  -1   0 50.5406 58.5620   2
   0   1   0 7.54729 55.4837   2
   0  -1   1 20251.8 512.402   2
   0   1   1 19495.4 484.563   3
   0   1   2 6.44239 141.147   3
   0  -1   2-47.9600 140.212   2
   0   1   3 33760.7 1017.74   3
   0   1   4 64.2511 218.274   3
   0  -2  -6 51116.3 1813.26   1
   0  -2  -5-188.834 233.518   1
   0   2  -5-173.284 137.717   1
   0  -2  -4 13427.0 771.505   1
   0   2  -4 13718.0 476.163   1
   0   2  -3-7.17933 60.1428   1
   0  -2  -3 57.7013 163.795   1
   0   2  -3 96.3984 130.762   3
   0  -2  -2 27749.1 840.905   1
   0   2  -2 27259.1 833.172   2
   0  -2  -2 28592.4 824.689   3
   0   2  -2 26367.0 658.926   3
   0   2  -1 23.4476 96.8431   2
   0  -2  -1-22.3642 119.956   1
   0  -2  -1-81.9024 112.046   3
   0   2   0 813.279 115.459   3
   0   2   0 1152.39 153.206   2
   0  -2   0 855.438 121.949   2
   0   2   1 69.6898 114.001   3
   0  -2   1-101.130 113.251   2
   0  -2   2 26683.4 831.605   2
   0   2   2 28140.2 822.614   3
   0   2   3-16.5351 174.302   3
   0   2   4 12469.9 772.519   3
   0   2   5 225.419 274.416   3
   0  -3  -6 340.740 326.247   1
   0  -3  -5 1307.78 351.280   1
   0  -3  -4-34.6847 196.587   1
   0   3  -3 42619.9 1034.70   3
   0  -3  -3 41498.7 1288.80   1
   0   3  -2 57.9718 125.474   2
   0  -3  -2-25.9546 176.416   1
   0  -3  -2 197.021 157.149   3
   0   3  -1 11527.0 512.274   2
   0  -3  -1 12141.5 480.615   3
   0  -3  -1 12908.4 555.836   1
   0   3   0 82.4216 83.2173   3
   0  -3   0 16.4401 96.5844   2
   0  -3   1 12031.4 325.861   1
   0   3   1 11466.8 478.116   3
   0  -3   1 11390.5 507.225   2
   0  -3   2-82.2754 129.670   2
   0   3   2 81.4933 157.900   3
   0   3   3 43580.4 1283.85   3
   0  -3   3 41239.7 1293.85   2
   0   3   4 211.755 256.290   3
   0   3   5 1336.81 339.136   3
   0  -4  -5-455.768 316.866   1
   0  -4  -4 785.440 303.836   1
   0   4  -3-12.0729 109.990   3
   0  -4  -3-173.836 241.360   1
   0  -4  -2 54695.6 1449.77   1
   0   4  -1 217.006 157.686   2
   0  -4  -1 143.320 117.399   2
   0  -4  -1-140.836 170.653   1
   0  -4   0 129059. 1713.25   2
   0   4   0 129484. 1540.18   3
   0  -4   0 129372. 1737.36   1
   0   4   1 67.5130 126.239   3
   0  -4   1 59.6587 143.908   2
   0  -4   1-65.5396 87.7754   1
   0  -4   1-22.0324 84.5880   1
   0   4   2 55121.5 1328.14   3
   0  -4   2 57122.0 1429.31   2
   0  -4   3-97.2185 223.658   2
   0   4   3 124.556 183.883   3
   0   4   4 1179.53 323.944   3
   0   4   5 163.582 260.887   3
   0  -5  -5 22358.8 1318.98   1
   0  -5  -4 169.080 225.251   1
   0  -5  -3 24681.1 1178.42   1
   0  -5  -2 8.41857 122.668   2
   0  -5  -2-183.818 200.462   1
   0  -5  -1 6997.32 412.688   2
   0  -5  -1 5878.48 486.288   1
   0   5  -1 7171.59 364.381   3
   0  -5   0 42.8993 147.509   1
   0  -5   0 3.66694 139.224   2
   0   5   0 121.226 125.403   3
   0  -5   1 7524.32 527.139   2
   0   5   1 5982.29 419.483   3
   0  -5   1 6726.51 366.025   1
   0  -5   1 7149.53 380.221   1
   0   5   2 249.717 192.207   3
   0  -5   2-190.205 183.026   2
   0  -5   3 24073.1 1131.88   2
   0   5   3 25924.3 1109.91   3
   0   5   4 155.793 236.302   3
   0   5   5 21843.1 1287.51   3
   0  -6  -4 3226.72 537.619   1
   0  -6  -3-37.6086 276.894   1
   0  -6  -2 1781.08 365.901   1
   0  -6  -1 144.174 184.913   1
   0  -6  -1-22.8776 122.915   2
   0   6  -1 113.397 100.483   3
   0  -6   0 747.376 215.799   1
   0   6   0 603.971 167.724   3
   0  -6   0 733.108 211.145   2
   0   6   1 8.77729 163.774   3
   0  -6   1 9.60891 120.227   1
   0  -6   1-194.584 187.068   2
   0  -6   2 1335.35 291.981   2
   0   6   2 1689.39 311.363   3
   0  -6   3-141.564 249.215   2
   0   6   3-43.7965 210.543   3
   0   6   4 4262.49 566.791   3
   0  -7  -3 12191.7 958.641   1
   0  -7  -2-362.655 341.878   1
   0  -7  -1 16806.0 935.002   1
   0  -7   0 49.3625 155.544   1
   0  -7   1 18857.5 947.598   2
   0  -7   2-76.0312 212.827   2
   0   7   3 11705.8 839.912   3
   0   7   4 283.475 249.341   3
   0  -8  -2 2431.74 445.631   1
   1   0  -6-22.3127 186.767   1
  -1   0  -6 52.6830 208.694   1
  -1   0  -5-40.9936 186.203   1
   1   0  -5 141.401 179.067   1
  -1   0  -4 132.038 158.034   1
   1   0  -4-113.625 166.353   1
   1   0  -3 278.147 120.133   2
  -1   0  -3 16.1455 144.387   2
  -1   0  -3-143.821 155.254   3
  -1   0  -3 27.4781 111.081   1
   1   0  -3-132.708 140.161   1
   1   0  -3-63.6175 159.913   3
   1   0  -2 202.521 130.823   2
  -1   0  -2 61.8586 116.985   3
   1   0  -2 28.3198 116.244   3
  -1   0  -2-58.1209 101.224   1
   1   0  -2 176.597 126.464   1
   1   0  -1 100.511 89.9309   2
   1   0  -1 32.1125 70.9144   3
  -1   0  -1 4.14591 83.3761   3
   1   0  -1 17.2878 75.4449   1
  -1   0   1-51.9504 95.2427   3
  -1   0   1 55.8168 94.9156   2
   1   0   1 47.5720 80.5044   3
  -1   0   1-39.3623 79.9751   1
  -1   0   2 192.144 118.960   1
  -1   0   2-4.13281 128.633   3
   1   0   2-45.5775 132.482   3
   1   0   3 142.254 163.899   3
   1   0   4-105.706 174.684   3
   1  -1  -7 4338.19 555.109   1
  -1  -1  -6 5721.59 599.382   1
   1  -1  -6 4909.61 561.525   1
  -1   1  -5 14037.9 669.475   1
  -1  -1  -5 14859.0 824.997   1
   1   1  -5 13813.2 670.821   1
   1  -1  -5 13892.6 808.302   1
  -1   1  -4 82.7608 134.038   1
   1  -1  -4 30.0861 175.148   1
   1   1  -4 368.099 155.264   1
  -1  -1  -4 245.964 202.436   1
  -1   1  -3 17756.1 526.481   1
   1  -1  -3 18557.9 686.461   2
   1  -1  -3 17441.7 704.819   1
   1   1  -3 16428.9 670.328   3
   1   1  -3 17646.9 547.652   1
  -1   1  -3 18327.8 693.370   3
  -1  -1  -3 17808.5 696.265   1
  -1   1  -2 19813.0 567.657   3
   1   1  -2 20916.8 605.735   3
  -1   1  -2 20088.8 409.690   1
   1  -1  -2 19298.6 625.581   1
  -1  -1  -2 19201.5 621.890   1
  -1  -1  -2 20181.9 654.511   3
   1   1  -2 19970.4 445.992   1
  -1   1  -2 19941.9 659.597   2
   1  -1  -2 19560.9 641.332   3
   1   1  -2 19628.7 656.819   2
   1  -1  -1 44926.1 740.691   1
   1   1  -1 45813.1 433.271   1
  -1   1  -1 44875.8 568.330   3
   1  -1  -1 44823.2 716.636   3
  -1   1  -1 44519.7 743.921   2
   1   1  -1 44442.6 753.987   2
  -1  -1  -1 45093.1 738.117   3
   1  -1   0 79332.9 568.430   2
  -1   1   0 81272.4 563.339   2
  -1  -1   0 80053.4 724.568   2
   1  -1   0 80731.0 651.498   1
  -1  -1   1 46459.4 770.873   2
  -1   1   1 43763.0 704.973   3
  -1  -1   1 44758.1 428.859   1
   1   1   1 45764.6 746.921   3
   1  -1   1 43513.9 735.270   2
  -1  -1   2 18744.8 433.302   1
   1   1   2 20113.8 658.819   3
  -1  -1   2 19231.4 653.166   2
  -1   1   2 18667.3 628.123   3
  -1   1   3 17747.8 752.549   3
   1   1   3 18703.8 755.837   3
  -1   1   4 287.943 181.613   3
   1   1   4 384.975 223.288   3
   1   1   5 14315.4 892.941   3
   1  -2  -6 786.370 337.506   1
  -1  -2  -6 1112.64 348.493   1
   1   2  -5 79.0045 125.047   1
  -1  -2  -5 573.712 241.777   1
   1  -2  -5 150.547 246.507   1
   1  -2  -4 3532.54 423.523   1
  -1   2  -4 3632.77 245.152   1
  -1  -2  -4 3552.24 426.098   1
   1   2  -4 4442.78 294.929   1
   1  -2  -3 13172.4 682.913   1
   1   2  -3 12639.0 374.658   1
  -1  -2  -3 11729.1 640.774   1
  -1   2  -3 13160.4 333.717   1
  -1   2  -3 12238.3 556.455   3
   1   2  -3 12202.2 578.098   3
  -1   2  -2 3522.39 242.290   3
   1  -2  -2 3983.42 344.228   1
   1   2  -2 4148.33 156.111   1
  -1   2  -2 4458.48 352.344   2
  -1  -2  -2 4400.31 339.518   3
   1   2  -2 4454.07 353.332   2
  -1  -2  -2 4091.62 343.634   1
   1  -2  -2 3907.01 318.328   3
  -1  -2  -1 2272.35 216.477   3
  -1   2  -1 2441.56 225.462   2
   1  -2  -1 2175.44 240.158   1
   1  -2  -1 1985.17 192.200   3
   1   2  -1 2196.66 217.428   2
   1  -2   0 40502.7 613.885   2
  -1   2   0 40478.7 537.889   3
  -1  -2   0 41191.7 697.420   2
  -1   2   0 39223.0 598.732   2
   1  -2   0 40577.4 653.615   1
   1  -2   1 1946.16 217.515   2
  -1   2   1 1777.12 188.246   3
  -1  -2   1 2237.70 238.779   2
   1   2   1 2121.83 216.733   3
  -1  -2   1 2181.44 120.678   1
  -1  -2   2 3529.61 143.554   1
  -1   2   2 3607.49 306.029   3
   1  -2   2 4522.38 361.977   2
  -1  -2   2 3674.06 341.515   2
   1   2   2 3618.05 320.140   3
  -1  -2   3 11406.2 662.968   2
   1   2   3 13078.3 685.346   3
  -1   2   3 11852.3 643.397   3
  -1   2   4 3484.92 432.626   3
   1   2   4 3939.56 458.526   3
  -1   2   5 751.814 306.829   3
   1   2   5 274.848 210.432   3
   1  -3  -6 1553.22 392.352   1
  -1  -3  -6 1789.43 425.406   1
  -1  -3  -5 6491.64 636.374   1
   1  -3  -5 6410.37 637.160   1
   1   3  -4 3447.32 140.861   1
  -1  -3  -4 3994.53 492.952   1
   1  -3  -4 2827.46 427.088   1
  -1  -3  -3 5798.92 499.710   1
   1  -3  -3 6259.88 520.533   1
   1   3  -3 6900.96 442.942   3
  -1   3  -3 6243.98 396.666   3
  -1   3  -2 3563.63 241.677   3
  -1  -3  -2 3995.99 351.818   3
   1  -3  -2 2995.22 325.411   1
  -1   3  -2 3781.47 357.224   2
   1  -3  -2 4162.10 355.607   3
  -1  -3  -2 3354.47 348.643   1
   1   3  -2 3689.76 361.427   2
   1   3  -1 24132.2 748.744   2
   1  -3  -1 24183.7 536.945   2
  -1   3  -1 23935.2 713.304   2
   1  -3  -1 23788.6 655.647   3
   1  -3  -1 23809.2 746.627   1
  -1   3   0 81700.7 994.758   3
   1  -3   0 81860.8 1132.92   2
   1  -3   0 81132.8 1165.77   1
  -1  -3   0 81507.3 1222.73   2
   1   3   0 81323.9 1118.96   3
  -1  -3   1 23699.6 489.473   1
   1  -3   1 22797.9 431.944   1
  -1   3   1 25267.9 678.980   3
  -1  -3   1 25112.0 755.705   2
   1  -3   1 23764.3 437.658   1
   1  -3   1 24400.0 726.994   2
   1   3   1 23289.9 690.523   3
   1   3   2 3529.09 344.730   3
  -1  -3   2 3400.82 356.400   2
   1  -3   2 3278.34 339.351   2
  -1   3   2 4093.58 361.692   3
  -1   3   3 6105.92 497.754   3
  -1  -3   3 6256.95 531.905   2
   1   3   3 6509.98 518.118   3
  -1   3   4 4026.75 472.831   3
   1   3   4 4464.29 497.171   3
   1   3   5 7408.21 696.680   3
  -1   3   5 7444.77 698.378   3
   1   3   6 1767.95 379.018   3
   1  -4  -5 2049.23 446.249   1
  -1  -4  -5 1984.61 411.395   1
  -1  -4  -4 6475.86 643.694   1
   1  -4  -4 7977.36 692.422   1
  -1  -4  -3 17825.0 933.229   1
   1   4  -3 18940.6 716.509   3
   1  -4  -3 19060.9 960.354   1
  -1   4  -3 18659.9 664.131   3
   1  -4  -2 18395.1 848.373   1
  -1  -4  -2 18013.8 841.134   1
   1   4  -1 3354.35 347.682   2
   1  -4  -1 3384.37 349.431   1
  -1  -4  -1 3586.40 290.367   2
  -1   4  -1 3571.96 340.796   2
   1  -4  -1 3707.68 258.522   2
  -1  -4  -1 3221.24 335.099   1
   1   4   0 10421.6 451.932   3
  -1  -4   0 10168.3 494.253   2
   1  -4   0 10336.7 460.651   2
  -1   4   0 11287.6 419.691   3
   1  -4   0 11639.9 509.226   1
   1  -4   1 3441.40 219.636   1
  -1   4   1 3148.86 291.591   3
   1  -4   1 3052.08 215.742   1
  -1  -4   1 3528.47 237.340   1
   1  -4   1 3105.41 315.926   2
  -1  -4   1 3298.76 324.283   2
   1   4   1 3020.84 314.168   3
   1  -4   2 18884.1 818.439   2
  -1  -4   2 18705.1 834.571   2
  -1   4   2 18510.0 768.331   3
   1   4   2 18047.2 777.342   3
   1   4   3 21531.4 959.904   3
  -1  -4   3 19925.0 969.765   2
   1  -4   3 17969.2 912.613   2
  -1   4   3 20356.6 927.223   3
   1   4   4 6276.74 607.867   3
  -1   4   4 7314.56 647.225   3
  -1   4   5 1214.96 351.327   3
   1   4   5 1231.10 363.483   3
   1  -5  -5 1615.67 425.679   1
  -1  -5  -5 1076.52 387.191   1
  -1  -5  -4 472.649 240.635   1
   1  -5  -4 643.802 305.171   1
   1  -5  -3 3678.81 485.419   1
  -1  -5  -3 3586.99 493.819   1
  -1  -5  -2 6788.80 433.934   2
   1  -5  -2 6676.06 383.786   2
  -1  -5  -2 6575.13 573.717   1
  -1   5  -1 904.722 146.769   3
   1  -5  -1 873.041 177.957   2
   1   5  -1 928.328 178.120   3
  -1  -5  -1 778.258 226.707   1
   1  -5  -1 685.054 217.653   1
  -1  -5  -1 803.722 181.347   2
   1  -5   0 846.164 194.049   2
   1  -5   0 829.034 194.580   1
  -1  -5   0 726.400 183.717   2
  -1  -5   0 1018.65 208.214   1
  -1   5   0 918.953 169.812   3
   1   5   0 637.893 165.283   3
  -1   5   1 1263.56 234.382   3
   1   5   1 1201.49 228.870   3
   1  -5   1 692.309 209.490   2
   1  -5   1 1087.66 171.412   1
  -1  -5   1 1070.79 177.112   1
  -1  -5   1 986.521 165.252   1
   1  -5   1 657.367 145.333   1
  -1  -5   1 1112.98 257.572   2
  -1  -5   2 5282.25 510.616   2
   1  -5   2 5811.31 505.215   2
  -1   5   2 5647.09 460.716   3
  -1  -5   2 5940.95 196.913   1
   1   5   2 6779.55 522.882   3
  -1  -5   3 3289.40 453.601   2
  -1   5   3 3807.21 451.852   3
   1   5   3 3662.89 452.858   3
   1  -5   3 3076.66 418.148   2
   1   5   4 404.887 268.141   3
  -1   5   4 645.317 263.741   3
   1   5   5 1398.26 403.828   3
  -1   5   5 1621.58 395.128   3
   1  -6  -4-147.813 281.262   1
  -1  -6  -4 70.4362 284.867   1
   1  -6  -3 8153.13 756.427   1
  -1  -6  -3 8286.31 758.212   1
  -1  -6  -2 15345.7 667.877   2
  -1  -6  -2 16079.0 934.008   1
   1  -6  -2 14739.4 899.062   1
  -1  -6  -1 1073.55 218.142   2
   1  -6  -1 1125.47 211.709   2
  -1  -6  -1 1380.99 303.914   1
   1  -6  -1 1447.26 295.257   1
   1   6  -1 1396.51 200.919   3
  -1  -6   0 3762.33 381.983   2
   1  -6   0 3688.15 356.963   2
  -1  -6   0 3361.60 356.453   1
   1   6   0 3564.67 326.601   3
  -1   6   0 4130.72 317.114   3
   1  -6   0 2977.69 332.121   1
   1  -6   1 1528.58 269.108   2
  -1  -6   1 1718.03 236.338   1
  -1   6   1 1438.51 250.387   3
  -1  -6   1 1613.62 314.353   2
   1  -6   1 1280.14 187.227   1
   1   6   1 1678.22 282.443   3
   1   6   2 17585.1 874.870   3
  -1  -6   2 15269.3 887.507   2
   1  -6   2 15945.4 880.536   2
  -1   6   2 16340.8 819.422   3
   1   6   3 8761.49 697.402   3
  -1  -6   3 8316.42 736.210   2
  -1   6   3 7445.96 634.743   3
   1   6   4 159.844 256.245   3
  -1   6   4 221.782 295.984   3
  -1  -7  -3 258.765 250.178   1
   1  -7  -3 120.395 258.072   1
   1  -7  -2 3445.72 518.042   1
  -1  -7  -2 2442.43 479.865   1
   1  -7  -1 3255.41 447.046   1
  -1  -7  -1 3640.93 456.779   1
  -1  -7   0 217.681 202.196   2
  -1  -7   0 703.932 232.853   1
   1  -7   0 356.205 142.561   1
  -1  -7   1 3075.02 410.639   2
   1  -7   1 3444.44 416.153   2
  -1  -7   2 2270.57 421.886   2
   1  -7   2 2475.34 384.984   2
   1   7   2 2455.37 374.722   3
  -1  -7   3 283.718 227.558   2
   1   7   3-33.3870 258.331   3
  -1   7   4 5052.05 641.687   3
   1   7   4 2994.32 517.229   3
   1  -8  -2 2703.93 517.722   1
  -1  -8  -2 2232.36 443.280   1
   2   0  -6 18431.4 966.874   1
  -2   0  -6 19231.1 975.796   1
  -2   0  -5 2737.61 358.616   1
   2   0  -5 2230.51 333.135   1
  -2   0  -4 24302.0 851.804   1
   2   0  -4 22794.9 853.467   1
  -2   0  -3 44583.2 969.955   1
  -2   0  -3 44021.0 1129.06   2
   2   0  -3 44848.4 1011.89   1
  -2   0  -3 45377.3 1124.78   3
   2   0  -3 48575.6 1176.24   3
   2   0  -3 45215.0 1122.18   2
   2   0  -2 91673.0 1307.16   3
  -2   0  -2 94998.0 1306.19   3
   2   0  -2 91229.8 1180.90   1
   2   0  -2 92287.1 1281.13   2
  -2   0  -1 9250.80 298.656   3
   2   0  -1 8975.09 288.961   1
   2   0  -1 8686.99 287.300   2
   2   0   1 9646.31 306.089   3
  -2   0   1 8985.95 284.830   1
  -2   0   1 9166.56 293.435   2
   2   0   2 93966.7 1307.03   3
  -2   0   2 95892.3 1204.93   1
   2   0   3 46627.2 1134.38   3
   2   0   4 22319.8 938.787   3
   2  -1  -7-347.835 287.166   1
  -2  -1  -6 3252.98 469.809   1
   2  -1  -6 2830.86 443.549   1
  -2  -1  -5 2669.72 383.395   1
   2  -1  -5 2942.16 404.174   1
   2   1  -5 3009.67 342.092   1
  -2   1  -5 3083.63 320.114   1
  -2   1  -4 1391.89 217.552   1
  -2  -1  -4 1154.00 258.592   1
   2   1  -4 1508.80 222.432   1
   2  -1  -4 1552.37 283.914   1
   2  -1  -3 13400.9 623.951   1
  -2   1  -3 13733.4 462.906   1
   2   1  -3 13225.8 614.065   3
  -2   1  -3 12471.4 570.350   3
   2   1  -3 12953.2 482.675   1
   2  -1  -3 12961.3 572.487   2
  -2  -1  -3 13044.1 605.230   1
  -2   1  -2 46393.1 620.157   1
   2   1  -2 48022.9 717.521   1
  -2   1  -2 48597.8 1014.72   2
   2  -1  -2 46473.5 974.837   1
  -2   1  -2 47377.1 858.597   3
  -2  -1  -2 46287.4 989.528   3
   2  -1  -2 47947.1 994.740   3
   2   1  -2 47393.3 921.879   3
   2  -1  -2 45541.4 823.232   2
   2   1  -2 47460.9 1004.97   2
  -2   1  -1 29553.8 438.956   3
   2  -1  -1 29152.3 615.055   1
   2   1  -1 31995.1 658.423   2
  -2  -1  -1 29672.9 619.690   3
   2  -1  -1 29763.3 586.335   3
  -2   1  -1 28601.8 597.758   2
   2   1  -1 30245.0 423.607   1
  -2  -1   0 36452.4 528.656   2
   2  -1   0 36404.9 446.641   1
  -2  -1   0 36451.6 489.505   1
  -2   1   0 36439.3 447.914   1
  -2  -1   1 28698.3 418.765   1
   2   1   1 28696.7 610.429   3
  -2  -1   1 28530.3 619.565   2
  -2   1   1 28950.9 578.924   3
  -2   1   1 29475.6 617.128   1
  -2   1   2 47967.1 999.209   3
  -2  -1   2 46359.6 713.455   1
   2   1   2 46309.5 994.621   3
  -2  -1   2 46526.7 1008.48   2
   2  -1   2 46262.8 845.122   3
  -2   1   3 14646.2 682.876   3
   2   1   3 13157.9 644.568   3
   2   1   4 1737.60 331.355   3
   2   1   5 2622.53 409.617   3
  -2  -2  -6 3718.36 516.401   1
   2  -2  -6 3622.52 526.438   1
  -2  -2  -5 2570.36 417.138   1
   2  -2  -5 3116.10 445.051   1
   2   2  -4 20812.9 628.914   1
   2  -2  -4 20188.0 928.948   1
  -2   2  -4 20481.4 546.460   1
  -2  -2  -4 21179.3 957.772   1
   2  -2  -3 10575.8 615.436   1
   2  -2  -3 12422.7 536.964   2
  -2   2  -3 10965.8 517.112   3
   2   2  -3 12219.5 592.710   3
  -2   2  -3 11610.4 300.072   1
   2   2  -3 11880.1 389.017   1
  -2  -2  -3 11613.5 639.272   1
  -2  -2  -2 42950.3 1034.81   3
   2  -2  -2 44744.7 1070.21   1
   2  -2  -2 45049.2 1028.20   3
   2   2  -2 45522.0 1091.55   2
  -2   2  -2 44576.5 1061.96   2
   2   2  -2 45056.7 583.525   1
  -2   2  -2 44014.2 789.878   3
   2  -2  -1 2836.01 253.176   1
   2   2  -1 2904.70 160.128   1
  -2  -2  -1 2624.32 233.707   3
   2  -2  -1 2780.19 210.242   3
   2   2  -1 2707.35 242.792   2
  -2   2  -1 2826.78 226.704   2
   2  -2   0 195032. 1241.02   2
  -2   2   0 193042. 1238.51   2
  -2  -2   0 192353. 1593.31   2
   2  -2   0 193492. 1441.09   1
   2  -2   1 2703.64 234.687   2
  -2  -2   1 3064.79 158.612   1
  -2   2   1 2942.06 229.389   3
  -2  -2   1 3594.14 283.014   2
   2   2   1 2673.04 241.911   3
   2   2   2 43154.6 1037.48   3
  -2  -2   2 42715.4 567.461   1
  -2   2   2 44263.0 1007.86   3
  -2  -2   2 46257.7 1103.47   2
   2   2   3 11747.5 647.650   3
  -2   2   3 12732.5 668.770   3
  -2  -2   3 10768.1 632.998   2
  -2   2   4 22342.5 1010.39   3
   2   2   4 20153.1 962.282   3
   2   2   5 3857.16 512.583   3
   2   2   6 4439.68 602.285   3
  -2  -3  -6 3718.25 575.539   1
   2  -3  -6 3567.10 572.553   1
   2  -3  -5 3717.60 515.822   1
  -2  -3  -5 3923.86 538.114   1
   2  -3  -4 1402.64 296.475   1
  -2  -3  -4 1781.11 337.904   1
   2   3  -4 2136.42 145.409   1
   2  -3  -3 14725.2 784.028   1
  -2   3  -3 14336.6 574.717   3
   2   3  -3 15014.8 649.194   3
  -2  -3  -3 14436.2 776.215   1
   2   3  -3 14096.4 289.954   1
  -2   3  -2 5756.92 431.677   2
   2  -3  -2 4623.19 366.050   3
  -2  -3  -2 5414.87 411.604   3
   2  -3  -2 5294.82 428.811   1
  -2   3  -2 5651.03 285.295   3
   2   3  -1 11168.2 530.465   2
   2  -3  -1 10752.8 508.622   1
  -2   3  -1 11041.4 483.414   2
   2  -3  -1 10607.9 325.603   2
   2  -3  -1 10358.8 435.422   3
   2  -3   0 1194.80 166.242   1
   2  -3   0 1212.79 149.071   2
   2   3   0 1358.62 178.277   3
  -2   3   0 1363.20 156.989   2
  -2  -3   0 1179.52 178.546   2
  -2   3   0 1440.84 133.023   3
  -2  -3   1 11318.1 360.855   1
   2  -3   1 11131.8 297.194   1
  -2  -3   1 11686.5 536.567   2
  -2   3   1 11682.8 459.033   3
   2  -3   1 11425.4 488.734   2
   2   3   1 11353.0 498.236   3
   2  -3   2 5059.28 403.149   2
  -2  -3   2 4717.23 416.343   2
  -2   3   2 5347.32 398.250   3
  -2  -3   2 4721.70 178.143   1
   2   3   2 4536.73 381.064   3
  -2  -3   3 14673.5 783.487   2
  -2   3   3 15680.5 770.188   3
   2   3   3 13988.1 745.060   3
   2   3   4 1894.92 357.287   3
  -2   3   4 1850.18 351.223   3
  -2   3   5 3844.03 538.582   3
   2   3   5 4039.62 543.330   3
   2   3   6 3245.79 565.746   3
   2  -4  -5 989.794 341.372   1
  -2  -4  -5 839.101 322.318   1
   2  -4  -4 8586.35 720.184   1
  -2  -4  -4 9214.93 743.139   1
  -2   4  -3 12464.0 526.511   3
   2  -4  -3 12781.0 802.412   1
   2   4  -3 13525.8 630.840   3
  -2  -4  -3 11084.1 735.223   1
  -2   4  -2 16571.1 476.033   3
   2  -4  -2 16485.1 796.705   1
  -2  -4  -2 17134.5 824.478   1
   2   4  -1 4034.77 380.621   2
  -2   4  -1 3588.35 197.835   3
   2  -4  -1 3697.27 352.403   1
   2  -4  -1 3375.83 232.145   2
  -2   4  -1 4209.06 348.477   2
  -2  -4  -1 3218.20 297.562   2
  -2   4   0 1993.48 181.895   3
   2  -4   0 1627.00 217.831   1
  -2  -4   0 1841.97 263.995   2
   2  -4   0 1752.41 206.675   2
   2   4   0 1606.18 207.728   3
  -2   4   1 3508.68 289.477   3
   2  -4   1 3673.81 224.756   1
   2   4   1 3741.68 331.479   3
   2  -4   1 4002.06 336.689   2
  -2  -4   1 3456.25 244.510   1
  -2  -4   1 3400.22 351.041   2
  -2   4   2 18163.4 752.013   3
   2   4   2 18607.2 802.602   3
  -2  -4   2 19112.5 862.396   2
   2  -4   2 16975.2 771.209   2
  -2  -4   2 17292.9 369.415   1
   2   4   3 12552.0 745.015   3
  -2  -4   3 13908.4 817.980   2
  -2   4   3 13252.2 744.275   3
   2   4   4 10138.7 767.197   3
  -2   4   4 9211.38 723.791   3
  -2  -4   4 9689.33 766.681   2
   2   4   5 1065.26 316.873   3
  -2   4   5 965.382 336.330   3
   2  -5  -5 2953.44 538.841   1
  -2  -5  -5 1790.26 461.669   1
  -2  -5  -4 560.905 269.871   1
   2  -5  -4 1071.96 337.238   1
  -2  -5  -3 15436.2 932.239   1
   2  -5  -3 13107.2 870.826   1
  -2  -5  -2 9404.63 671.173   1
   2  -5  -2 8731.02 649.149   1
   2  -5  -2 9070.49 399.859   2
  -2  -5  -2 9311.10 530.398   2
   2  -5  -1 15444.0 534.151   2
  -2  -5  -1 13935.9 734.431   1
   2  -5  -1 15594.0 764.115   1
  -2  -5  -1 14275.7 631.452   2
  -2   5  -1 14818.7 425.868   3
  -2  -5   0 902.909 210.813   1
   2  -5   0 864.134 217.309   1
   2  -5   0 570.040 156.708   2
  -2   5   0 1065.54 165.543   3
   2   5   0 745.865 183.796   3
  -2  -5   0 1282.49 248.874   2
  -2  -5   0 880.297 207.074   1
  -2  -5   1 15224.4 570.533   1
   2  -5   1 14795.0 515.116   1
  -2   5   1 14821.6 617.093   3
   2   5   1 14821.1 689.818   3
  -2  -5   1 14137.6 718.964   2
   2  -5   1 13731.0 500.326   1
  -2  -5   1 14085.6 552.403   1
   2  -5   1 15563.3 705.553   2
  -2  -5   2 8523.88 286.459   1
  -2  -5   2 8433.06 623.901   2
  -2   5   2 9309.18 578.153   3
   2  -5   2 8472.28 610.433   2
  -2  -5   2 8503.35 294.523   1
   2   5   2 8327.72 581.633   3
  -2   5   3 12754.1 772.540   3
   2   5   3 12561.0 794.857   3
  -2  -5   3 12826.6 842.764   2
  -2  -5   4 1340.53 389.105   2
  -2   5   4 239.070 214.413   3
   2   5   4 1065.00 289.847   3
   2   5   5 2156.23 493.188   3
  -2   5   5 2648.21 505.367   3
  -2  -6  -4 6137.39 734.674   1
   2  -6  -4 6517.32 730.986   1
  -2  -6  -3 11365.6 876.993   1
   2  -6  -3 9288.92 794.855   1
   2  -6  -2 1772.21 373.716   1
  -2  -6  -2 2078.29 282.113   2
  -2  -6  -2 1940.07 354.031   1
   2  -6  -1-95.7188 203.832   1
   2  -6  -1 125.971 109.018   2
  -2  -6  -1-115.964 205.153   1
  -2  -6  -1 181.723 147.482   2
   2   6  -1-46.2873 135.945   3
  -2  -6   0-143.203 164.733   1
   2  -6   0-71.4177 152.040   2
  -2   6   0 30.8166 98.2246   3
   2   6   0 77.9326 129.303   3
  -2  -6   0 25.7807 167.441   2
   2  -6   0 303.127 171.640   1
  -2  -6   1 212.867 114.303   1
  -2  -6   1 76.0654 181.315   2
  -2   6   1 25.5750 134.684   3
   2   6   1-118.860 160.759   3
   2  -6   1-31.6379 110.851   1
   2  -6   1-114.950 186.482   2
  -2  -6   2 2579.72 399.511   2
   2   6   2 1871.54 320.072   3
  -2   6   2 1818.91 291.937   3
   2  -6   2 1571.21 317.198   2
   2   6   3 10663.6 779.835   3
  -2  -6   3 11749.9 863.674   2
  -2   6   3 9754.94 709.964   3
  -2   6   4 5462.92 604.529   3
   2   6   4 5083.66 608.543   3
   2  -7  -3 4790.17 633.854   1
  -2  -7  -3 3929.36 599.434   1
  -2  -7  -2 1443.59 374.534   1
   2  -7  -2 907.797 355.583   1
  -2  -7  -1 3954.66 481.961   1
   2  -7  -1 3885.87 466.854   1
   2  -7   0 1666.20 287.366   1
  -2  -7   0 957.981 267.912   1
  -2  -7   0 1043.83 239.070   2
   2  -7   1 4194.17 446.944   2
  -2  -7   1 4444.58 497.892   2
   2  -7   2 1732.70 350.044   2
  -2  -7   2 1659.70 373.824   2
   2   7   2 1221.62 310.144   3
  -2  -7   3 3721.17 539.574   2
   2   7   3 4718.47 577.460   3
   2   7   4 988.554 343.901   3
  -2  -8  -2 1516.12 374.395   1
   2  -8  -2 2124.64 458.030   1
  -3   0  -6-107.369 219.740   1
   3   0  -6-99.1474 218.305   1
   3   0  -5-264.855 224.613   1
  -3   0  -5-19.7560 171.575   1
   3   0  -4-134.999 170.928   1
  -3   0  -4-177.077 187.667   1
   3   0  -3 38.5740 133.768   2
  -3   0  -3 105.176 139.570   3
   3   0  -3 68.0580 137.962   3
  -3   0  -3-7.74804 118.144   1
   3   0  -3 58.4357 135.986   1
  -3   0  -2 8.23958 102.805   3
   3   0  -2-9.82965 129.391   1
   3   0  -2-155.241 135.121   2
   3   0  -2 120.268 130.276   3
  -3   0  -1 116.502 104.405   3
   3   0  -1-12.0665 95.0961   2
   3   0  -1 11.2412 109.729   1
   3   0   0 84.7962 57.2638   1
   3   0   1-36.7399 101.326   3
  -3   0   1 41.7015 95.1657   2
  -3   0   1 75.2509 97.0882   1
  -3   0   2-62.9338 122.785   2
  -3   0   2 43.4492 99.2139   1
   3   0   2-90.7821 123.870   3
   3   0   3-44.5948 144.433   3
  -3   0   3 25.8085 104.775   1
   3   0   4-42.3001 164.026   3
   3  -1  -7 2498.93 482.927   1
  -3  -1  -6 2063.48 387.815   1
   3  -1  -6 2552.84 418.409   1
  -3   1  -5 29974.8 964.070   1
   3  -1  -5 28979.8 1181.78   1
  -3  -1  -5 30748.9 1185.62   1
   3   1  -5 31593.4 1034.49   1
  -3  -1  -4 2182.48 319.946   1
   3   1  -4 2611.16 279.695   1
   3  -1  -4 2041.28 318.950   1
  -3   1  -4 2805.49 267.251   1
   3  -1  -3 52638.0 1221.81   1
   3   1  -3 51267.5 1214.44   3
   3  -1  -3 53050.6 1133.47   2
  -3   1  -3 52834.5 896.269   1
  -3   1  -3 54177.2 1169.55   3
  -3  -1  -3 51049.5 1180.05   1
   3   1  -3 51744.1 979.938   1
  -3   1  -2 18242.5 532.106   3
  -3   1  -2 19356.2 661.510   2
  -3  -1  -2 17973.5 627.116   3
   3  -1  -2 18535.3 629.631   3
   3   1  -2 18083.0 633.762   2
   3  -1  -2 17538.8 610.092   1
   3   1  -2 18536.4 478.800   1
   3  -1  -2 17425.4 506.685   2
   3  -1  -1 132950. 1327.64   1
  -3   1  -1 128659. 704.108   1
   3  -1  -1 127737. 1217.84   3
   3   1  -1 133313. 1367.84   2
  -3  -1  -1 129635. 1317.68   3
   3   1  -1 128934. 1006.30   1
  -3   1  -1 128475. 906.501   3
   3  -1  -1 127167. 816.864   2
  -3   1  -1 127256. 1272.09   2
   3  -1   0 43900.7 554.243   1
  -3  -1   0 42417.9 600.606   1
  -3   1   0 42492.5 555.444   1
   3   1   0 43135.6 603.983   1
  -3   1   1 131570. 1330.96   1
  -3   1   1 134024. 1244.79   3
  -3  -1   1 130192. 1365.60   2
   3  -1   1 128729. 703.564   1
   3   1   1 133129. 1349.50   3
  -3  -1   1 127886. 1014.97   1
   3  -1   1 131915. 893.974   3
   3   1   2 18048.3 636.253   3
  -3   1   2 18430.2 625.329   1
  -3  -1   2 17785.5 470.759   1
  -3   1   2 18584.4 629.776   3
   3  -1   2 17319.8 526.708   3
  -3  -1   2 19380.3 661.551   2
   3   1   3 53743.8 1290.66   3
  -3  -1   3 51316.3 980.130   1
  -3   1   3 51516.1 1278.26   3
   3  -1   3 52614.6 1151.41   3
  -3  -1   3 50752.8 1268.41   2
   3   1   4 2498.31 372.926   3
   3   1   5 33458.1 1362.42   3
   3  -2  -6 7608.23 751.396   1
  -3  -2  -6 7683.55 729.351   1
  -3  -2  -5 934.441 312.437   1
   3   2  -5 885.692 195.890   1
   3  -2  -5 301.874 245.952   1
  -3   2  -4 2073.10 187.543   1
  -3  -2  -4 1676.50 320.766   1
  -3   2  -4 1908.86 178.691   1
   3   2  -4 1965.55 220.224   1
   3  -2  -4 1874.44 345.394   1
  -3   2  -3 8486.62 253.856   1
   3  -2  -3 7888.66 536.039   1
   3   2  -3 8648.46 353.107   1
  -3  -2  -3 8643.04 553.447   1
  -3   2  -3 7939.17 245.017   1
   3  -2  -3 8036.49 427.223   2
   3   2  -3 8542.11 508.047   3
  -3   2  -3 8387.24 450.747   3
  -3  -2  -2 41638.0 1030.83   3
  -3   2  -2 39531.4 729.949   3
   3   2  -2 41029.4 632.498   1
  -3   2  -2 39250.8 997.131   2
   3   2  -2 43052.2 1084.55   2
   3  -2  -2 40458.8 971.313   3
   3  -2  -2 40909.4 1031.94   1
   3   2  -1 2942.10 265.418   2
   3  -2  -1 2846.60 264.936   1
   3   2  -1 2935.89 181.908   1
   3  -2  -1 3120.32 226.606   3
  -3   2  -1 2978.81 121.218   3
  -3   2  -1 3317.15 245.988   2
  -3  -2  -1 2957.49 255.860   3
   3  -2   0 14.9129 96.4484   1
  -3   2   0 63.4019 88.6484   1
  -3  -2   0 296.690 153.253   2
   3  -2   0 133.955 75.3652   2
  -3  -2   0 169.996 108.271   1
  -3   2   0-76.5673 75.5884   2
   3  -2   0-47.7186 48.7179   3
  -3   2   0 73.0995 48.4242   3
  -3   2   1 3156.24 237.871   3
  -3   2   1 3118.31 263.000   1
  -3  -2   1 2577.09 255.219   2
   3  -2   1 3041.51 245.373   2
   3  -2   1 2930.77 108.938   1
   3   2   1 2685.36 256.557   3
  -3  -2   1 3171.81 183.802   1
  -3  -2   2 39307.6 621.858   1
  -3  -2   2 40208.0 1048.86   2
   3   2   2 40717.9 1018.15   3
  -3   2   2 38382.8 954.236   3
   3   2   3 8246.23 556.036   3
  -3   2   3 8428.37 556.281   3
  -3  -2   3 7853.95 337.087   1
  -3  -2   3 7911.92 554.504   2
  -3   2   4 1825.28 319.763   3
   3   2   4 1558.69 311.748   3
   3   2   5 746.216 315.843   3
   3   2   6 8640.84 821.299   3
   3  -3  -6 69.3453 316.032   1
  -3  -3  -6 1308.58 422.913   1
  -3  -3  -5 6635.71 668.993   1
   3  -3  -5 5877.68 632.278   1
   3  -3  -4 5533.73 423.059   2
   3   3  -4 5367.25 258.823   1
  -3  -3  -4 5212.97 545.189   1
   3  -3  -4 6630.86 611.844   1
  -3   3  -3 39079.3 917.569   3
   3  -3  -3 38755.8 876.854   2
   3  -3  -3 38206.5 1248.34   1
  -3  -3  -3 39392.3 1267.24   1
   3   3  -3 38709.0 596.934   1
  -3   3  -2 1784.03 260.202   2
  -3   3  -2 2002.77 169.585   3
   3  -3  -2 2080.15 268.827   3
  -3  -3  -2 1871.09 253.631   3
   3  -3  -2 1952.65 289.818   1
   3  -3  -1 33718.0 759.004   3
  -3   3  -1 34670.6 835.966   2
   3  -3  -1 33960.6 896.295   1
   3  -3  -1 34213.9 506.901   2
   3   3  -1 35672.1 952.499   2
  -3  -3   0 6925.86 387.713   2
  -3  -3   0 7578.50 385.167   1
  -3   3   0 7860.57 315.833   2
   3  -3   0 6923.81 341.855   1
  -3   3   0 7455.78 253.645   3
   3  -3   0 7551.61 304.830   2
  -3  -3   1 35058.5 665.619   1
   3  -3   1 34130.5 516.837   1
  -3  -3   1 35759.8 948.408   2
  -3   3   1 35542.9 772.301   3
   3  -3   1 35182.9 835.655   2
   3   3   1 34500.2 879.563   3
  -3  -3   2 2093.99 147.754   1
   3   3   2 2043.61 276.307   3
  -3   3   2 2036.29 260.252   3
  -3  -3   2 2376.87 331.813   2
  -3  -3   3 40734.1 1308.70   2
  -3   3   3 41074.8 1236.27   3
   3   3   3 41522.3 1273.45   3
  -3  -3   3 39014.9 588.411   1
   3   3   4 6370.70 591.271   3
  -3  -3   4 5133.58 550.210   2
  -3   3   4 5168.20 510.399   3
   3   3   5 7253.23 703.408   3
   3   3   6 1010.02 367.604   3
   3  -4  -5 835.647 330.497   1
  -3  -4  -5 295.209 291.668   1
   3  -4  -4 3853.45 509.164   1
  -3  -4  -4 4452.62 528.032   1
  -3   4  -3 10941.4 470.465   3
   3  -4  -3 10586.9 720.750   1
  -3  -4  -3 10352.0 726.563   1
  -3   4  -2 37518.6 647.179   3
   3  -4  -2 39171.7 1221.80   1
   3  -4  -1 4047.43 377.912   1
  -3   4  -1 3060.53 299.641   2
  -3  -4  -1 4433.49 357.991   2
   3   4  -1 4141.22 381.581   2
   3  -4  -1 4045.16 226.486   2
  -3   4  -1 3886.05 173.387   3
   3  -4  -1 3787.90 293.474   3
  -3   4   0 7246.24 299.182   3
   3   4   0 7460.89 416.776   3
  -3  -4   0 6741.80 417.715   1
  -3  -4   0 7564.86 464.183   2
   3  -4   0 6982.62 395.275   1
   3  -4   0 7787.02 372.655   2
  -3  -4   1 3304.20 250.060   1
   3  -4   1 3854.52 333.244   2
   3  -4   1 3478.16 224.370   1
  -3   4   1 3691.73 295.714   3
   3   4   1 3599.71 338.903   3
  -3  -4   1 3702.52 370.730   2
  -3   4   2 40020.1 1088.90   3
  -3  -4   2 39586.6 1233.04   2
   3  -4   2 40615.4 1180.23   2
  -3  -4   2 38228.7 637.908   1
   3   4   2 37414.8 1144.98   3
  -3   4   3 11677.6 701.966   3
  -3  -4   3 9867.65 709.217   2
   3   4   3 11050.5 707.175   3
  -3   4   4 4288.62 484.596   3
   3   4   4 4401.11 544.824   3
  -3  -4   4 3910.09 528.659   2
   3   4   5 573.770 299.972   3
  -3   4   5 1169.22 374.313   3
  -3  -5  -5 6684.79 763.675   1
   3  -5  -5 6179.88 744.770   1
  -3  -5  -4 2410.86 450.082   1
   3  -5  -4 1075.62 357.220   1
  -3  -5  -3 9957.39 767.067   1
   3  -5  -3 9979.11 751.047   1
   3  -5  -2 8979.88 352.237   2
   3  -5  -2 8676.55 639.073   1
  -3  -5  -2 9262.34 553.740   2
  -3  -5  -2 8555.49 643.696   1
   3  -5  -1 2510.81 214.510   2
   3  -5  -1 3131.78 366.901   1
  -3   5  -1 2539.70 157.426   3
  -3   5  -1 2599.46 315.943   2
  -3  -5  -1 2270.40 293.718   2
   3  -5   0 1477.60 219.973   2
  -3  -5   0 1290.13 247.959   2
   3   5   0 1455.31 242.766   3
  -3   5   0 1672.37 179.420   3
   3  -5   0 1427.90 231.002   1
   3  -5   1 2454.61 301.044   2
   3  -5   1 2321.35 215.027   1
  -3   5   1 2244.41 252.701   3
  -3  -5   1 2098.89 323.792   2
   3   5   1 2464.59 319.662   3
  -3  -5   1 2372.75 253.733   1
  -3   5   2 8773.17 561.275   3
   3  -5   2 7563.57 568.246   2
  -3  -5   2 9040.04 661.733   2
   3   5   2 8212.65 592.026   3
  -3  -5   2 8673.22 329.664   1
  -3  -5   2 8746.60 336.262   1
   3   5   3 11044.8 751.626   3
  -3  -5   3 11135.4 797.660   2
  -3   5   3 9676.99 679.255   3
  -3  -5   4 2189.95 422.822   2
   3   5   4 2313.32 418.258   3
  -3   5   4 2078.13 376.926   3
   3   5   5 6716.62 745.138   3
  -3   5   5 6701.33 732.541   3
  -3  -6  -4 16842.1 1151.79   1
   3  -6  -4 17321.3 1150.63   1
  -3  -6  -3 8705.03 786.431   1
   3  -6  -3 10564.3 828.249   1
  -3  -6  -2 6183.91 614.015   1
  -3  -6  -2 6417.10 494.553   2
   3  -6  -2 6537.61 623.601   1
   3  -6  -1 909.377 244.686   1
  -3  -6  -1 808.734 216.828   2
   3   6  -1 814.748 204.184   3
   3  -6   0 38646.8 1133.81   1
   3   6   0 40713.0 1131.04   3
  -3  -6   0 39213.6 1190.71   1
   3  -6   0 39414.4 1034.15   2
  -3   6   0 38379.3 806.948   3
  -3  -6   0 37952.2 1212.75   2
   3  -6   1 979.696 175.187   1
   3  -6   1 555.188 194.291   2
  -3  -6   1 728.378 226.166   2
  -3  -6   1 887.835 186.373   1
  -3   6   1 686.070 180.852   3
   3   6   1 689.801 216.583   3
   3   6   2 6325.77 561.667   3
   3  -6   2 5285.09 514.657   2
  -3  -6   2 6403.12 610.755   2
  -3   6   2 6383.02 506.389   3
   3   6   3 9833.92 768.218   3
  -3   6   3 10199.3 724.910   3
  -3  -6   3 8443.24 746.443   2
  -3  -6   4 18073.3 1176.04   2
   3   6   4 15973.7 1063.35   3
  -3   6   4 18086.2 1078.92   3
   3  -7  -3 1721.52 436.163   1
  -3  -7  -3 2205.15 484.935   1
   3  -7  -2 656.121 326.181   1
  -3  -7  -2 712.056 308.496   1
  -3  -7  -1 1906.40 371.579   1
   3  -7  -1 2419.95 391.099   1
  -3  -7   0 2739.87 360.390   1
  -3  -7   0 2617.17 375.745   2
   3  -7   0 3205.75 387.448   1
  -3  -7   1 1912.80 350.638   2
   3   7   1 2435.23 357.381   3
   3   7   2 1192.35 284.237   3
  -3  -7   2 1331.24 347.328   2
  -3  -7   3 1610.68 434.749   2
   3   7   3 2015.81 435.704   3
   3   7   4 5043.58 641.793   3
  -3  -8  -2 6523.98 719.853   1
   3  -8  -2 6454.21 700.205   1
  -4   0  -6 5526.93 531.719   1
   4   0  -6 6115.91 582.208   1
   4   0  -5 5726.35 510.787   1
  -4   0  -5 6358.81 501.177   1
  -4   0  -4 2489.85 299.567   1
   4   0  -4 2407.53 311.263   1
   4   0  -3 23807.5 765.221   1
   4   0  -3 24831.3 826.207   2
  -4   0  -3 25136.2 837.782   3
  -4   0  -2 121164. 1486.01   3
   4   0  -2 122388. 1464.35   2
   4   0  -2 122348. 1576.46   3
   4   0  -2 122862. 1445.18   1
  -4   0  -1 295590. 1667.15   1
  -4   0  -1 291259. 1751.41   3
   4   0  -1 290502. 1799.53   1
   4   0  -1 292033. 1711.48   2
   4   0   0 1455.38 127.201   1
  -4   0   1 293486. 1699.51   2
   4   0   1 291794. 1731.82   3
  -4   0   1 294475. 1803.58   1
   4   0   2 118543. 1476.90   3
  -4   0   2 118685. 1430.68   1
  -4   0   2 117764. 1452.02   2
  -4   0   3 24676.1 783.555   1
   4   0   3 24880.7 832.937   3
   4   0   4 1959.41 335.021   3
   4   0   5 5474.95 562.516   3
   4  -1  -7 1838.16 413.964   1
  -4  -1  -6 779.777 271.739   1
   4  -1  -6 425.696 278.385   1
   4  -1  -5 6282.87 570.421   1
  -4  -1  -5 5245.21 523.205   1
  -4   1  -5 6043.72 446.637   1
   4   1  -5 5395.57 454.239   1
  -4   1  -4 693.236 166.648   1
   4  -1  -4 939.799 250.517   1
  -4  -1  -4 810.119 226.598   1
   4   1  -4 1001.18 214.409   1
  -4   1  -3 3572.22 247.397   1
   4   1  -3 4078.43 365.750   3
   4  -1  -3 3554.89 350.398   1
  -4   1  -3 3614.54 321.795   3
   4  -1  -3 3462.76 302.412   2
   4   1  -3 3520.67 280.541   1
  -4   1  -2 10258.7 313.945   1
  -4   1  -2 10304.1 410.037   3
   4  -1  -2 10834.0 494.538   1
  -4  -1  -2 10347.4 486.429   3
  -4   1  -2 10677.5 500.491   2
   4   1  -2 10991.1 507.078   2
   4  -1  -2 10405.8 393.337   2
   4  -1  -2 10371.8 477.011   3
   4   1  -2 10005.5 380.099   1
   4  -1  -1 179297. 1609.42   1
   4   1  -1 176456. 1311.12   1
  -4  -1  -1 179079. 1602.39   3
  -4   1  -1 178730. 1011.13   1
   4   1  -1 181031. 1636.25   2
   4  -1  -1 179840. 958.452   2
   4  -1  -1 178265. 1472.99   3
  -4   1  -1 178333. 1092.88   3
   4  -1   0 2786.74 174.775   1
   4   1   0 2757.40 189.746   1
  -4   1   0 2602.19 173.513   1
  -4  -1   0 2742.74 196.330   1
  -4  -1   1 178474. 1657.36   2
   4  -1   1 180388. 1082.34   3
   4  -1   1 179860. 1002.86   1
  -4   1   1 180700. 948.905   2
   4   1   1 177598. 1624.10   3
  -4   1   1 181890. 1610.47   1
  -4  -1   1 179353. 1334.25   1
   4   1   2 10238.5 497.270   3
  -4  -1   2 10247.1 381.973   1
  -4   1   2 10027.8 478.332   1
   4  -1   2 10541.7 413.845   3
  -4  -1   2 10030.3 486.280   2
   4   1   3 3604.31 364.564   3
  -4   1   3 3472.43 340.673   1
  -4  -1   3 3322.07 272.953   1
  -4  -1   3 3486.26 356.338   2
   4  -1   3 3893.98 339.461   3
   4   1   4 913.074 238.744   3
   4  -1   4 967.303 237.136   3
   4   1   5 7194.64 655.971   3
   4   1   6 494.462 282.653   3
  -4  -2  -6 8038.01 744.663   1
   4  -2  -6 8751.87 789.893   1
   4  -2  -5 22507.3 1111.57   1
  -4  -2  -5 21946.0 1090.05   1
   4   2  -5 22999.4 808.671   1
   4  -2  -4 9642.89 668.759   1
  -4  -2  -4 9601.67 645.511   1
   4   2  -4 9307.16 459.516   1
  -4   2  -4 9453.92 372.294   1
  -4   2  -4 10613.6 392.124   1
  -4   2  -3 4122.14 183.351   1
  -4   2  -3 3534.35 297.601   3
   4   2  -3 3698.56 255.782   1
  -4   2  -3 3915.24 177.534   1
   4  -2  -3 4041.36 404.034   1
   4  -2  -3 4498.76 318.128   2
   4   2  -3 3943.73 358.053   3
   4   2  -2 8368.54 489.080   2
   4  -2  -2 7164.49 426.351   3
  -4   2  -2 6896.59 433.750   2
   4  -2  -2 7531.43 463.729   1
   4   2  -2 7265.41 297.705   1
   4  -2  -2 6625.63 277.265   2
  -4   2  -2 7487.29 315.378   3
  -4  -2  -2 8117.22 473.991   3
   4  -2  -1 28131.1 730.834   1
  -4   2  -1 25796.4 372.381   1
   4   2  -1 27155.7 551.964   1
   4   2  -1 28509.8 765.230   2
  -4   2  -1 26802.3 660.430   2
   4  -2  -1 27269.7 614.022   3
  -4  -2   0 25888.7 668.164   2
  -4   2   0 27153.4 427.566   2
   4  -2   0 26477.5 570.989   1
  -4  -2   0 26377.6 613.774   1
   4  -2   0 26556.1 343.775   3
  -4   2   0 26780.2 575.048   1
   4   2   1 26318.7 719.454   3
  -4  -2   1 25953.8 541.330   1
  -4   2   1 27544.4 727.350   1
  -4   2   1 26833.0 621.571   3
  -4  -2   1 27136.5 755.513   2
   4  -2   1 26456.0 370.368   1
  -4  -2   2 6824.92 288.933   1
   4   2   2 6790.50 443.514   3
  -4   2   2 6948.77 446.405   1
  -4   2   2 6988.71 421.088   3
  -4  -2   2 7257.87 461.396   2
  -4  -2   3 3965.89 264.219   1
   4   2   3 3477.56 378.264   3
  -4  -2   3 3964.56 418.155   2
  -4   2   3 4496.08 427.177   3
  -4  -2   4 9703.35 690.056   2
   4   2   4 7993.25 622.046   3
   4   2   5 24818.8 1220.73   3
   4   2   6 9714.45 871.557   3
  -4  -3  -6 109.580 267.978   1
   4  -3  -6 346.316 285.000   1
   4  -3  -5 6572.40 674.019   1
  -4  -3  -5 5519.12 582.951   1
  -4  -3  -4 4470.34 504.723   1
   4   3  -4 4425.01 264.647   1
   4  -3  -4 4463.85 506.265   1
   4  -3  -4 4186.91 366.167   2
   4  -3  -3 13653.3 761.613   1
   4  -3  -3 13725.2 511.560   2
  -4   3  -3 13769.9 539.446   3
   4   3  -3 14076.7 412.723   1
  -4   3  -2 9432.47 537.103   2
   4  -3  -2 9971.71 524.764   3
   4  -3  -2 9419.36 567.457   1
   4   3  -2 8851.09 325.470   1
  -4   3  -2 8798.92 313.238   3
  -4   3  -1 66261.6 1135.64   2
   4   3  -1 65938.2 1321.50   2
   4  -3  -1 64406.4 1030.04   3
   4  -3  -1 66905.2 1259.52   1
  -4  -3   0 77.8348 137.984   2
   4  -3   0 6.62677 68.2654   2
   4  -3   0 80.4953 107.787   1
  -4   3   0 18.7569 78.8611   2
  -4  -3   0 164.993 125.721   1
  -4   3   0 10.6759 50.1544   3
   4  -3   1 64153.6 733.847   1
  -4  -3   1 63820.2 1295.98   2
  -4   3   1 65189.4 1028.00   3
  -4  -3   1 62272.7 956.146   1
   4  -3   1 63800.1 1114.04   2
   4   3   1 63029.8 1224.76   3
  -4  -3   2 8775.91 325.119   1
  -4   3   2 9158.29 499.031   3
  -4  -3   2 8872.91 563.375   2
   4   3   2 9436.89 555.322   3
  -4   3   3 13521.4 724.986   3
   4   3   3 12956.5 732.739   3
  -4  -3   3 13358.2 398.850   1
  -4  -3   3 12984.7 763.330   2
  -4   3   4 3792.02 459.032   3
   4   3   4 3792.79 466.083   3
  -4  -3   4 3676.60 480.759   2
   4   3   5 7145.44 691.799   3
   4   3   6 692.485 370.288   3
  -4  -4  -5 2820.14 507.556   1
   4  -4  -5 3758.55 557.749   1
  -4  -4  -4 7724.16 697.910   1
   4  -4  -4 7717.79 691.856   1
  -4   4  -3 10129.6 432.420   3
   4  -4  -3 9942.30 405.759   2
  -4  -4  -3 10791.8 746.028   1
   4  -4  -3 9422.08 689.578   1
  -4   4  -2 1671.03 127.760   3
   4  -4  -2 1838.44 281.154   3
   4  -4  -2 1879.92 150.142   2
   4  -4  -2 2441.74 360.396   1
   4  -4  -1 4562.96 413.580   1
   4  -4  -1 4569.33 218.035   2
  -4   4  -1 4565.55 362.392   2
   4  -4  -1 4566.78 337.569   3
  -4  -4  -1 4560.32 395.846   2
  -4   4   0 12808.7 365.438   3
  -4  -4   0 12885.4 601.059   2
   4  -4   0 12941.6 545.740   1
  -4  -4   0 12898.5 583.947   1
   4   4   0 12877.8 562.851   3
   4  -4   0 12913.5 455.966   2
  -4   4   1 5083.91 337.068   3
   4   4   1 4920.86 389.928   3
  -4  -4   1 5097.19 439.358   2
   4  -4   1 4894.43 256.660   1
   4  -4   1 4900.42 363.379   2
  -4  -4   1 5086.14 322.879   1
  -4  -4   2 1496.43 302.552   2
  -4  -4   2 1440.04 152.985   1
   4   4   2 1115.71 261.933   3
  -4   4   2 1149.30 231.904   3
   4   4   3 10150.7 692.607   3
  -4   4   3 9853.85 652.979   3
  -4  -4   3 10152.2 725.866   2
   4   4   4 8038.33 695.368   3
  -4   4   4 7899.22 677.109   3
  -4  -4   4 7492.11 697.497   2
   4   4   5 3256.65 526.798   3
   4  -5  -5 520.804 330.085   1
  -4  -5  -5 757.359 343.585   1
  -4  -5  -4 1230.33 345.847   1
   4  -5  -4 300.994 264.174   1
   4  -5  -3 4974.94 558.741   1
  -4  -5  -3 6246.54 623.335   1
   4  -5  -2 9654.51 687.382   1
  -4  -5  -2 10271.2 706.293   1
   4  -5  -2 9977.75 311.487   2
   4  -5  -1 1630.31 157.399   2
  -4   5  -1 1672.56 259.774   2
  -4  -5  -1 1944.09 289.961   2
   4  -5  -1 1643.49 296.724   1
  -4   5   0 63.4474 72.1945   3
   4  -5   0 318.593 162.699   1
   4   5   0 12.5834 146.947   3
  -4  -5   0 75.0987 188.713   2
   4  -5   0-4.61535 114.815   2
   4   5   1 1768.13 296.290   3
   4  -5   1 1798.52 261.915   2
  -4  -5   1 2128.83 336.541   2
   4  -5   1 1925.80 196.587   1
  -4  -5   1 2537.53 262.884   1
  -4   5   1 1658.52 226.649   3
  -4   5   2 10287.2 598.377   3
  -4  -5   2 9485.79 380.983   1
   4   5   2 10095.3 664.963   3
  -4  -5   2 9791.91 692.010   2
  -4   5   3 5726.26 532.113   3
   4   5   3 6895.37 612.377   3
  -4  -5   3 6496.92 626.220   2
   4   5   4 839.336 301.349   3
  -4  -5   4 897.037 343.482   2
  -4   5   4 322.030 228.067   3
   4   5   5 768.033 324.848   3
   4  -6  -4 858.114 359.802   1
  -4  -6  -4 603.286 342.349   1
   4  -6  -3 4258.87 549.533   1
  -4  -6  -3 3285.40 490.725   1
  -4  -6  -2 277.696 206.361   2
  -4  -6  -2 120.840 237.155   1
   4  -6  -2 639.730 291.797   1
  -4  -6  -1 1037.51 260.790   2
   4  -6  -1 1538.21 314.531   1
   4   6  -1 1384.39 243.863   3
  -4  -6  -1 889.817 256.868   1
   4  -6   0 4237.36 399.871   1
  -4  -6   0 4218.85 447.452   2
  -4  -6   0 4513.57 430.784   1
   4   6   0 3684.31 387.725   3
   4  -6   0 3618.91 314.196   2
   4  -6   1 1211.33 228.445   2
  -4  -6   1 1312.79 309.770   2
   4   6   1 1661.50 300.397   3
  -4   6   1 1212.54 210.490   3
   4  -6   1 1171.84 183.009   1
  -4  -6   1 1353.56 229.102   1
  -4  -6   2-194.822 245.322   2
   4   6   2 30.9827 183.850   3
  -4   6   2 91.9119 155.756   3
  -4   6   3 4472.78 494.420   3
  -4  -6   3 4826.97 583.445   2
   4   6   3 3692.49 486.099   3
  -4  -6   4-15.4258 255.008   2
   4   6   4-167.416 248.866   3
   4  -7  -3 2053.01 464.100   1
  -4  -7  -3 2316.88 516.800   1
   4  -7  -2 463.867 293.676   1
  -4  -7  -2 391.973 340.412   1
  -4  -7  -1 10268.5 768.165   1
   4  -7  -1 10991.2 768.382   1
   4  -7   0 9173.98 616.654   1
  -4  -7   0 9608.56 666.750   1
  -4  -7   0 9364.59 671.643   2
  -4  -7   1 8881.12 716.101   2
   4   7   1 10261.7 694.941   3
  -4  -7   2 95.2970 229.046   2
   4   7   2-120.326 201.535   3
  -4  -7   3 2799.19 491.353   2
   4   7   3 3543.00 513.013   3
   4   7   4 631.339 307.578   3
  -4  -8  -2 587.227 318.327   1
   4  -8  -2 172.635 236.659   1
  -5   0  -6-7.53088 173.714   1
   5   0  -6-73.4572 189.640   1
  -5   0  -5 260.177 196.683   1
   5   0  -5-195.415 205.917   1
   5   0  -4-15.0818 171.979   1
  -5   0  -4-234.193 193.594   1
   5   0  -3 27.5238 133.086   2
  -5   0  -3 29.5657 133.280   3
   5   0  -3 37.7526 134.309   1
  -5   0  -2 99.3972 127.639   3
   5   0  -2 17.3438 136.868   1
   5   0  -2-29.4802 114.849   2
   5   0  -2 39.5292 121.512   3
  -5   0  -1 25.4010 97.9761   1
   5   0  -1 81.7688 101.704   2
   5   0  -1 125.665 137.003   1
  -5   0  -1 259.884 113.498   3
   5   0   0-37.6379 94.0505   1
  -5   0   0 176.131 115.996   1
  -5   0   1 123.634 107.837   2
   5   0   1-157.816 124.487   3
   5   0   1 167.048 109.593   1
  -5   0   1 99.2187 122.387   1
  -5   0   2-2.05556 123.036   2
  -5   0   2 3.71395 105.819   1
   5   0   2 1.70281 115.492   3
   5   0   3 161.742 166.281   3
  -5   0   3 93.1691 131.300   1
   5   0   4 293.219 218.085   3
   5   0   5 75.4392 192.642   3
   5  -1  -7 9319.19 829.297   1
   5  -1  -6 1190.67 332.612   1
  -5  -1  -6 1512.32 347.350   1
   5   1  -5 9295.38 595.002   1
   5  -1  -5 8204.55 653.987   1
  -5   1  -5 8535.72 518.988   1
  -5  -1  -5 9628.24 686.182   1
  -5   1  -4 211.949 133.043   1
   5  -1  -4-85.6941 185.678   1
  -5   1  -4 166.884 118.675   1
  -5  -1  -4 381.228 192.929   1
   5   1  -4 263.845 163.483   1
   5   1  -3 12613.4 523.844   1
   5  -1  -3 12251.5 545.701   2
  -5   1  -3 11795.2 445.638   1
  -5   1  -3 12420.1 565.818   3
   5  -1  -3 11320.9 595.811   1
   5  -1  -2 2937.74 219.967   2
   5   1  -2 2985.10 316.542   2
  -5   1  -2 2954.28 244.373   3
   5  -1  -2 2941.54 291.775   1
   5   1  -2 2959.85 238.254   1
   5  -1  -2 2998.63 271.550   3
  -5  -1  -2 2980.46 309.420   3
  -5   1  -2 2911.29 200.775   1
   5  -1  -1 276621. 1877.57   3
   5  -1  -1 278260. 1241.83   2
  -5   1  -1 281800. 1451.78   1
  -5  -1  -1 280575. 2075.53   1
   5  -1  -1 280791. 2084.95   1
   5   1  -1 282661. 2124.29   2
   5   1  -1 280911. 1805.53   1
  -5   1  -1 280136. 1407.37   3
   5   1   0 12326.3 391.326   1
  -5   1   0 11202.2 346.463   1
   5  -1   0 12258.0 360.565   1
  -5  -1   0 12548.0 396.689   1
  -5  -1   1 278314. 2119.14   2
   5   1   1 272632. 2092.83   3
  -5   1   1 277084. 2063.22   1
  -5  -1   1 275928. 1816.65   1
   5  -1   1 274862. 1440.83   1
  -5   1   1 277143. 1251.37   2
   5  -1   1 276553. 1419.07   3
  -5  -1   2 2918.39 225.913   1
  -5   1   2 2917.85 283.954   1
   5   1   2 3528.30 312.384   3
  -5  -1   2 2819.78 291.542   2
   5  -1   2 2837.54 230.293   3
   5   1   3 11753.0 620.558   3
   5  -1   3 11453.9 546.817   3
  -5  -1   3 12747.2 524.327   1
  -5  -1   3 11480.6 621.421   2
  -5  -1   4 44.1452 122.545   1
   5  -1   4 114.816 174.978   3
   5   1   4 482.781 263.562   3
   5   1   5 10806.8 790.848   3
   5   1   6 1320.69 359.649   3
   5  -2  -6 1530.73 390.320   1
  -5  -2  -6 1690.73 401.611   1
   5  -2  -5-268.854 246.594   1
   5   2  -5 162.320 160.003   1
  -5  -2  -5-76.2185 188.621   1
   5   2  -4 2659.88 269.702   1
   5  -2  -4 3370.67 420.864   1
  -5   2  -4 3340.17 227.275   1
  -5   2  -4 3258.65 227.687   1
   5  -2  -4 3228.69 327.457   2
  -5  -2  -4 3533.09 427.052   1
  -5   2  -3 407.698 74.9897   1
   5  -2  -3 565.420 149.465   2
   5   2  -3 417.169 140.654   1
  -5   2  -3 420.050 74.8391   1
   5  -2  -3 448.620 211.770   1
  -5   2  -3 649.677 158.149   3
   5   2  -2 30374.8 932.291   2
   5  -2  -2 30477.8 915.964   1
   5  -2  -2 29297.5 835.829   3
   5   2  -2 29690.8 641.753   1
  -5  -2  -2 30604.3 908.397   3
   5  -2  -2 28542.9 544.872   2
  -5   2  -2 27480.9 354.157   1
  -5   2  -2 28647.6 600.333   3
  -5   2  -2 30494.4 887.615   2
  -5   2  -1 2275.36 137.129   1
  -5   2  -1 2512.12 213.597   2
   5  -2  -1 2267.22 200.122   3
   5  -2  -1 1919.01 229.683   1
   5   2  -1 2156.86 250.894   2
   5   2  -1 1935.75 181.734   1
  -5  -2   0 4268.80 277.109   1
  -5  -2   0 5122.28 338.836   2
  -5   2   0 4619.37 260.190   1
  -5   2   0 4703.92 182.306   2
   5  -2   0 4670.27 148.929   3
   5  -2   0 4862.47 270.913   1
  -5  -2   1 2528.34 281.423   2
   5   2   1 2433.51 251.315   3
  -5  -2   1 2096.32 182.233   1
  -5   2   1 2102.45 226.081   1
   5  -2   1 2133.43 132.403   1
  -5  -2   2 29230.2 915.936   2
  -5   2   2 29289.9 896.389   1
   5   2   2 30803.1 920.267   3
  -5   2   2 29109.2 835.763   3
  -5  -2   2 29289.9 636.151   1
  -5  -2   3 583.052 222.978   2
   5   2   3 488.555 200.102   3
  -5  -2   3 333.062 113.894   1
  -5  -2   4 3406.61 290.434   1
  -5  -2   4 3618.79 445.593   2
   5   2   4 3506.26 427.852   3
   5   2   5-170.823 195.010   3
   5   2   6 2153.23 464.680   3
   5  -3  -6 462.737 347.346   1
  -5  -3  -6 70.2032 258.165   1
   5  -3  -5 6821.53 686.314   1
  -5  -3  -5 6973.59 677.633   1
   5  -3  -4 7691.35 656.621   1
  -5  -3  -4 5899.18 565.649   1
   5   3  -4 5893.95 327.877   1
   5  -3  -4 6723.34 446.313   2
   5  -3  -3 17772.5 865.865   1
  -5   3  -3 16550.8 581.347   3
   5  -3  -3 17773.4 557.923   2
   5   3  -3 18206.6 519.152   1
  -5   3  -2 8389.72 508.949   2
   5  -3  -2 8437.49 543.166   1
   5  -3  -2 8861.98 496.557   3
   5   3  -2 8502.17 350.998   1
  -5   3  -2 8524.89 290.867   3
   5  -3  -2 7854.07 249.848   2
   5   3  -1 36014.3 1005.16   2
   5  -3  -1 36538.9 774.268   3
  -5   3  -1 35457.4 832.255   2
   5  -3  -1 33929.6 926.340   1
   5  -3   0-55.3855 104.315   1
  -5   3   0 46.3814 67.4152   2
  -5  -3   0-105.114 163.885   2
  -5  -3   0-53.9909 107.712   1
  -5   3   0-32.2958 94.7005   1
  -5   3   1 35218.6 932.463   1
   5   3   1 35072.7 943.314   3
  -5  -3   1 35422.7 996.198   2
  -5  -3   1 34293.9 753.617   1
  -5   3   1 32937.1 739.313   3
   5  -3   1 34688.8 573.060   1
  -5  -3   2 8018.46 543.944   2
  -5  -3   2 8226.54 347.456   1
   5   3   2 8062.20 525.711   3
  -5   3   2 8967.26 502.922   3
   5   3   3 17346.2 849.275   3
  -5   3   3 16878.4 799.595   3
  -5  -3   3 17615.7 500.882   1
  -5  -3   3 17606.1 878.230   2
  -5  -3   4 5573.43 581.128   2
   5   3   4 5776.58 574.310   3
   5   3   5 6310.04 660.206   3
   5   3   6 318.300 257.202   3
  -5  -4  -5 757.988 280.470   1
   5  -4  -5 424.117 310.552   1
  -5  -4  -4 18777.2 1065.95   1
   5  -4  -4 18429.3 1056.78   1
  -5   4  -3 3580.52 250.413   3
   5  -4  -3 2751.80 402.743   1
   5  -4  -3 3241.23 220.301   2
   5  -4  -2 4653.02 162.106   2
   5  -4  -2 4384.88 160.979   2
   5  -4  -2 5174.89 476.063   1
  -5   4  -2 4452.26 157.631   3
   5  -4  -2 5568.79 414.758   3
  -5   4  -1 2573.39 269.010   2
   5  -4  -1 3048.65 342.367   1
   5  -4  -1 2627.66 239.013   3
   5  -4  -1 2353.06 124.336   2
  -5  -4  -1 3242.66 334.658   2
  -5   4   0 16846.2 387.959   3
  -5  -4   0 16201.4 655.820   1
   5   4   0 16071.6 647.715   3
  -5  -4   0 16126.7 696.313   2
   5  -4   0 15881.8 606.795   1
   5  -4   0 16079.3 485.142   2
   5   4   1 2556.94 314.371   3
   5  -4   1 2266.03 194.931   1
  -5  -4   1 2473.39 345.058   2
  -5  -4   1 2255.65 220.932   1
  -5   4   1 2230.49 222.259   3
  -5  -4   2 4992.64 491.801   2
  -5  -4   2 5161.75 294.865   1
   5   4   2 5419.16 477.738   3
  -5   4   2 5312.00 418.536   3
  -5  -4   3 3210.80 444.954   2
   5   4   3 3763.11 446.276   3
  -5   4   3 2433.00 360.197   3
  -5  -4   3 3173.62 190.546   1
   5   4   4 18887.2 1050.63   3
  -5  -4   4 17225.1 1036.68   2
   5   4   5 325.865 289.362   3
   5  -5  -5 172.932 356.144   1
  -5  -5  -5 334.310 278.728   1
  -5  -5  -4 5047.58 632.585   1
   5  -5  -4 5952.16 670.119   1
  -5  -5  -3 1634.28 347.149   1
   5  -5  -3 1210.81 317.788   1
   5  -5  -2 5856.66 539.990   1
  -5   5  -1 30283.2 936.251   2
   5  -5  -1 29242.9 529.280   2
  -5  -5  -1 30258.2 1021.21   2
   5  -5  -1 29638.2 1046.08   1
   5  -5   0 274.471 125.046   2
  -5  -5   0 384.234 217.197   2
  -5   5   0 342.365 85.1325   3
   5  -5   0 145.259 141.556   1
   5   5   0 362.208 174.513   3
  -5   5   1 30492.4 821.495   3
   5   5   1 29456.2 1031.26   3
  -5  -5   1 28876.8 1083.63   2
   5  -5   1 29493.1 716.924   1
  -5  -5   1 28692.0 853.431   1
  -5  -5   2 7462.53 610.126   2
  -5   5   2 7320.77 511.670   3
  -5  -5   2 7435.78 373.266   1
   5   5   2 6959.32 565.962   3
  -5  -5   3 1312.36 323.619   2
  -5   5   3 1744.93 311.251   3
   5   5   3 2100.26 362.662   3
   5   5   4 5255.86 619.953   3
  -5  -5   4 4667.99 590.628   2
   5   5   5-77.8675 302.524   3
   5  -6  -4 12693.3 994.089   1
  -5  -6  -4 11588.7 971.826   1
   5  -6  -3-63.0726 280.369   1
  -5  -6  -3 307.559 266.158   1
  -5  -6  -2 12662.8 724.787   2
  -5  -6  -2 13618.5 886.727   1
   5  -6  -2 12190.3 825.898   1
  -5  -6  -1 489.190 254.015   1
  -5  -6  -1 223.635 197.216   2
   5  -6  -1 389.686 211.548   1
   5   6  -1 474.810 184.733   3
   5   6   0 6543.98 508.340   3
  -5  -6   0 6022.29 538.342   2
   5  -6   0 5712.16 370.050   2
   5  -6   0 6253.90 479.359   1
  -5  -6   1 336.841 205.500   2
   5  -6   1 311.749 123.772   1
  -5   6   1 240.441 134.908   3
   5   6   1 437.643 207.886   3
   5   6   2 13678.4 831.214   3
  -5  -6   2 12880.6 854.164   2
  -5   6   2 15368.4 751.570   3
  -5  -6   3 10.3467 210.368   2
   5   6   3-2.64615 213.023   3
  -5   6   3-361.164 228.239   3
   5   6   4 12313.3 951.879   3
  -5  -6   4 13808.2 1055.82   2
   5  -7  -3 2901.46 524.539   1
  -5  -7  -3 3019.98 540.141   1
  -5  -7  -2 889.485 375.624   1
   5  -7  -2 1007.91 372.314   1
  -5  -7  -1 408.583 221.748   1
  -5  -7  -1 514.993 266.201   2
   5  -7  -1 657.134 235.616   1
  -5  -7   0-129.550 214.882   2
  -5  -7   0-305.843 192.212   1
   5   7   1 65.3409 160.610   3
  -5  -7   1 715.880 290.178   2
  -5  -7   2 817.923 304.228   2
   5   7   2 1118.76 315.045   3
  -5  -7   3 3140.39 525.260   2
   5   7   3 3344.32 526.994   3
   5  -8  -2 6082.00 683.089   1
  -5  -8  -2 7106.52 747.306   1
  -5  -8  -1 530.625 288.684   1
  -5  -8   2 6840.59 751.556   2
   6   0  -6 7478.23 661.150   1
  -6   0  -6 7013.32 610.429   1
   6   0  -5 10490.5 692.992   1
  -6   0  -5 10267.2 648.894   1
  -6   0  -4 64747.5 1398.43   1
   6   0  -4 64285.3 1480.67   1
   6   0  -3 8064.38 484.053   1
   6   0  -3 7817.31 477.231   2
  -6   0  -3 8132.03 493.968   3
   6   0  -2 15451.5 564.191   1
   6   0  -2 16082.1 554.216   2
  -6   0  -2 15153.5 522.067   1
  -6   0  -2 16081.4 571.891   3
  -6   0  -1 51862.1 810.887   1
   6   0  -1 49579.3 775.304   2
   6   0  -1 50644.3 861.305   1
   6   0   0 46919.8 736.745   1
  -6   0   0 47169.5 735.730   1
  -6   0   1 50527.3 851.207   1
  -6   0   1 49035.8 770.062   2
   6   0   1 48003.7 777.565   1
   6   0   1 51410.2 809.108   3
  -6   0   2 15633.1 559.091   1
   6   0   2 16090.7 567.911   3
  -6   0   2 16843.5 572.724   2
  -6   0   3 7639.72 460.774   1
   6   0   3 9364.74 533.041   3
  -6   0   3 7424.72 469.464   2
   6   0   4 63263.2 1570.20   3
   6   0   5 10414.7 756.748   3
   6  -1  -7 1447.58 412.281   1
  -6  -1  -6 1176.93 356.679   1
   6  -1  -6 864.756 310.771   1
  -6  -1  -5 4682.93 485.458   1
  -6   1  -5 4732.29 404.942   1
   6  -1  -5 4767.51 508.312   1
   6   1  -5 4555.12 432.713   1
   6   1  -4 15463.4 686.911   1
   6  -1  -4 14450.4 774.144   1
  -6   1  -4 14267.7 583.372   1
  -6  -1  -4 14195.0 737.077   1
  -6   1  -4 14436.6 588.629   1
   6  -1  -3 381.710 187.873   1
   6  -1  -3 361.808 138.262   2
   6   1  -3 369.662 157.137   1
  -6   1  -3 246.748 131.100   3
  -6   1  -3 639.482 133.388   1
   6  -1  -2 15137.3 469.195   2
   6   1  -2 15921.5 623.718   2
  -6   1  -2 15583.5 433.451   1
  -6  -1  -2 16388.1 635.364   3
  -6   1  -2 15645.8 509.719   3
   6  -1  -2 15449.3 617.152   1
   6  -1  -2 16303.2 619.862   3
   6   1  -2 16178.0 538.006   1
   6  -1  -1 194850. 1141.47   2
  -6  -1  -1 198896. 1807.58   1
  -6   1  -1 193720. 1361.81   1
   6  -1  -1 198568. 1823.57   1
   6   1  -1 194259. 1635.95   1
   6   1  -1 199408. 1867.32   2
  -6   1   0 15949.6 438.245   1
   6   1   0 15943.6 475.699   1
  -6  -1   0 15997.5 472.141   1
   6  -1   0 16501.4 457.292   1
  -6   1   1 199676. 1831.91   1
  -6   1   1 194077. 1123.85   2
   6  -1   1 196478. 1361.26   1
   6   1   1 198615. 1829.98   3
  -6  -1   1 195488. 1644.33   1
   6  -1   1 194821. 1259.47   3
  -6  -1   1 196319. 1851.95   2
  -6  -1   2 15842.9 623.715   2
  -6  -1   2 15489.6 525.678   1
  -6   1   2 15667.0 616.684   1
   6  -1   2 15332.6 496.197   3
   6   1   2 16525.9 630.059   3
  -6   1   2 15680.9 470.391   2
  -6  -1   3 498.989 212.233   2
   6  -1   3 434.498 160.232   3
   6   1   3 617.461 211.962   3
  -6  -1   3 173.397 125.161   1
  -6  -1   4 13895.0 649.882   1
   6   1   4 15422.8 827.221   3
   6  -1   4 14657.2 730.493   3
   6   1   5 4953.54 561.120   3
   6   1   6 735.776 327.186   3
   6  -2  -6 1574.77 412.922   1
  -6  -2  -6 1563.03 389.959   1
   6   2  -5 4257.19 377.516   1
  -6  -2  -5 3996.79 495.458   1
   6  -2  -5 4926.81 569.876   1
   6  -2  -4 8919.89 664.917   1
  -6   2  -4 8669.89 361.015   1
  -6  -2  -4 8995.52 644.852   1
  -6   2  -4 8851.81 363.810   1
   6   2  -4 9094.78 489.215   1
   6  -2  -4 7704.21 494.580   2
   6  -2  -3 719.353 148.237   2
   6   2  -3 677.205 145.829   1
   6  -2  -3 627.277 230.540   1
  -6   2  -3 549.265 84.6494   1
  -6   2  -3 720.792 101.691   1
  -6   2  -3 695.342 155.578   3
   6  -2  -2 38456.1 610.404   2
   6   2  -2 40966.0 1093.55   2
   6  -2  -2 40538.3 986.483   3
  -6   2  -2 39518.4 705.639   3
  -6  -2  -2 40810.9 1063.95   3
   6   2  -2 38970.3 796.136   1
   6  -2  -2 39173.3 1056.50   1
  -6   2  -2 39744.6 513.900   1
  -6   2  -2 42279.5 1047.32   2
   6  -2  -1 90038.4 1411.91   1
   6  -2  -1 90064.9 1160.15   3
  -6  -2  -1 90096.1 1449.74   1
  -6   2  -1 90069.8 903.941   1
   6   2  -1 90044.3 1193.67   1
   6   2  -1 90094.0 1484.98   2
  -6   2  -1 90014.6 1274.22   2
  -6  -2   0 62338.3 1099.03   2
  -6   2   0 62402.4 945.159   1
  -6  -2   0 63118.3 1055.96   1
   6   2   0 62334.4 1054.91   1
   6  -2   0 62474.6 945.794   1
   6  -2   0 62333.8 570.149   3
  -6   2   0 62596.4 661.658   2
  -6   2   1 88347.0 1400.41   1
  -6  -2   1 88396.0 1472.40   2
   6   2   1 88476.2 1428.28   3
   6  -2   1 88464.4 902.458   1
  -6  -2   1 88416.5 1189.56   1
  -6  -2   2 40280.7 1093.31   2
  -6  -2   2 40269.1 802.145   1
   6   2   2 40414.3 1070.45   3
  -6   2   2 39435.8 1058.13   1
   6  -2   2 39663.4 695.553   3
  -6  -2   3 185.646 202.882   2
   6   2   3 685.678 214.294   3
  -6  -2   3 411.134 121.727   1
  -6  -2   4 8216.47 463.436   1
   6   2   4 8925.81 672.057   3
  -6  -2   4 9088.59 679.486   2
   6   2   5 4815.88 557.928   3
   6   2   6 1165.38 412.888   3
  -6  -3  -6 1056.15 351.974   1
   6  -3  -6 1236.35 366.454   1
  -6  -3  -5 3848.79 531.615   1
   6  -3  -5 4401.79 566.792   1
   6  -3  -4 13814.5 866.085   1
  -6  -3  -4 16223.4 919.512   1
   6   3  -4 15818.1 565.204   1
   6  -3  -3 6314.07 325.932   2
   6  -3  -3 5941.94 533.445   1
  -6   3  -3 7483.22 387.129   3
   6   3  -3 6757.32 355.842   1
   6  -3  -2 134.913 153.890   1
   6  -3  -2 146.920 40.7424   2
   6  -3  -2 62.5740 122.352   3
  -6   3  -2 144.137 129.071   2
   6   3  -2 16.2277 87.0125   1
  -6   3  -2 146.235 56.4436   3
  -6   3  -1 1231.06 168.214   2
   6  -3  -1 1206.10 256.609   1
   6   3  -1 1267.94 173.753   1
  -6  -3  -1 1297.38 227.654   1
  -6   3  -1 1270.32 130.766   1
   6   3  -1 1274.00 261.695   2
   6  -3  -1 1264.26 167.183   3
   6  -3   0 7232.73 365.806   1
  -6  -3   0 7237.62 448.542   2
  -6   3   0 7236.74 385.914   1
  -6   3   0 7236.53 256.149   2
  -6  -3   0 7230.49 419.585   1
  -6  -3   1 1400.26 279.213   2
   6  -3   1 1402.43 138.095   1
  -6   3   1 1404.95 223.222   1
  -6  -3   1 1416.80 186.400   1
   6   3   1 1413.15 211.105   3
  -6  -3   2 261.076 210.552   2
  -6  -3   2 274.748 93.4493   1
  -6   3   2 294.785 159.481   3
   6   3   2 301.100 209.500   3
  -6  -3   3 7185.68 356.189   1
   6   3   3 6954.21 576.077   3
  -6  -3   3 7504.10 612.284   2
  -6  -3   4 16132.1 960.273   2
   6   3   4 15700.3 916.573   3
   6   3   5 3957.90 535.825   3
   6   3   6 1618.71 450.392   3
  -6  -4  -5 1668.03 386.195   1
   6  -4  -5 1632.60 416.627   1
   6  -4  -4 4405.39 550.814   1
  -6  -4  -4 4475.47 566.964   1
   6  -4  -3 3812.53 484.125   1
   6  -4  -2 10792.3 571.082   3
   6  -4  -2 11879.6 703.095   1
   6  -4  -1 7250.53 488.695   1
  -6   4  -1 7099.69 419.108   2
  -6  -4  -1 7084.97 488.785   2
   6  -4  -1 7095.70 375.764   3
  -6   4   0 3825.64 246.296   2
   6  -4   0 3918.53 322.406   1
  -6  -4   0 3998.69 379.914   2
  -6  -4   0 3859.31 348.473   1
   6  -4   1 6404.62 308.224   1
  -6  -4   1 6948.55 401.740   1
  -6  -4   1 8005.47 551.251   2
  -6   4   1 6380.62 350.888   3
   6   4   1 6258.13 477.472   3
  -6  -4   2 11054.7 689.589   2
  -6   4   2 11194.4 579.221   3
   6   4   2 11281.0 678.883   3
  -6  -4   2 11131.8 451.123   1
  -6  -4   3 3661.16 236.941   1
  -6  -4   3 3247.40 450.415   2
  -6   4   3 3296.02 390.580   3
   6   4   3 3824.49 464.275   3
  -6  -4   4 4757.14 579.121   2
   6   4   4 5080.41 586.716   3
   6   4   5 1557.20 386.984   3
   6  -5  -4 1149.23 379.984   1
  -6  -5  -4 944.312 365.069   1
   6  -5  -3 5296.90 587.491   1
  -6  -5  -3 4520.10 540.755   1
   6  -5  -2 21530.3 1010.84   1
   6  -5  -1 47235.6 1327.49   1
  -6   5  -1 46625.4 1145.65   2
  -6  -5  -1 45626.6 1284.42   2
   6  -5   0 197.933 168.881   1
  -6  -5   0 311.596 186.286   2
   6   5   0 114.606 156.886   3
   6  -5   1 47021.0 919.732   1
  -6  -5   1 47485.8 1418.45   2
  -6   5   1 46343.1 976.816   3
   6   5   1 47332.8 1329.22   3
  -6  -5   1 47580.7 1127.07   1
  -6  -5   2 20224.9 641.693   1
  -6  -5   2 21176.3 1030.47   2
   6   5   2 20898.0 974.086   3
  -6   5   2 21265.9 832.570   3
  -6  -5   3 4220.04 541.356   2
   6   5   3 4293.34 524.098   3
  -6   5   3 4415.40 462.630   3
   6   5   4 516.560 276.755   3
  -6  -5   4 965.699 315.102   2
   6   5   5 2510.76 497.601   3
   6  -6  -4 2199.74 450.116   1
  -6  -6  -4 1827.07 453.792   1
   6  -6  -3-121.493 267.220   1
  -6  -6  -3 33.2073 258.151   1
  -6  -6  -2 1987.92 399.240   1
   6  -6  -2 2720.35 453.639   1
  -6  -6  -2 1528.44 295.408   2
  -6  -6  -1 9205.16 633.895   2
   6  -6  -1 8546.87 627.329   1
   6   6  -1 10196.5 618.234   3
  -6  -6   0 3332.73 428.261   2
   6   6   0 3501.22 396.394   3
   6  -6   0 3101.72 340.480   1
   6  -6   1 9946.10 473.713   1
   6   6   1 9249.05 648.131   3
  -6  -6   1 8821.83 681.270   2
  -6  -6   2 1329.06 305.461   2
  -6   6   2 2233.90 310.557   3
   6   6   2 1676.36 316.404   3
  -6  -6   3-272.371 289.819   2
   6   6   3-118.135 263.425   3
   6   6   4 2230.86 453.573   3
  -6  -6   4 1982.85 458.497   2
  -6  -7  -3 1581.55 388.261   1
   6  -7  -3 1763.23 433.886   1
   6  -7  -2 633.091 343.721   1
  -6  -7  -2 721.142 345.609   1
   6  -7  -1 4977.09 536.651   1
  -6  -7  -1 4723.63 495.896   2
  -6  -7  -1 4541.15 554.933   1
  -6  -7   0-18.8516 154.448   1
  -6  -7   0 40.1178 212.459   2
   6   7   0 230.368 179.722   3
  -6  -7   1 4970.59 571.104   2
   6   7   1 5800.56 558.001   3
  -6  -7   2 830.950 322.493   2
   6   7   2 495.369 257.395   3
  -6  -7   3 2266.61 486.003   2
   6   7   3 2262.41 457.759   3
   6  -8  -2 2191.66 436.514   1
  -6  -8  -2 1277.37 365.365   1
  -6  -8  -1 599.690 211.997   1
  -6  -8   2 2182.15 451.398   2
   7   0  -6 173.969 198.643   1
  -7   0  -6 339.137 225.029   1
   7   0  -5 227.866 193.066   1
  -7   0  -5-234.057 182.385   1
   7   0  -4 256.211 215.412   1
   7   0  -3-112.677 141.819   2
  -7   0  -3-69.4097 139.669   3
  -7   0  -3-22.8612 116.971   1
   7   0  -3 265.659 160.389   1
   7   0  -2 138.834 124.854   2
  -7   0  -2 138.853 112.128   1
  -7   0  -2-48.9948 110.716   3
   7   0  -2 41.7693 123.012   1
   7   0  -1-56.2086 148.822   1
  -7   0  -1 145.864 112.845   1
   7   0  -1 179.485 129.830   2
  -7   0   0-9.10684 105.859   1
   7   0   0 44.4212 132.137   1
  -7   0   1-105.877 122.566   2
  -7   0   1 46.0604 104.417   1
   7   0   1-4.77802 122.374   1
   7   0   1-112.727 108.946   3
  -7   0   2-51.7963 134.234   2
  -7   0   2 57.2102 108.615   1
   7   0   2-32.0821 120.344   3
   7   0   3-260.737 183.860   3
  -7   0   3-124.709 132.828   2
  -7   0   3 151.019 164.807   1
   7   0   4 86.1706 195.703   3
   7   0   5 226.003 252.668   3
   7   0   6 65.4812 239.458   3
   7  -1  -7 4460.11 615.902   1
  -7  -1  -6 273.360 241.696   1
   7   1  -6 465.993 242.720   1
   7  -1  -6 474.276 244.988   1
  -7  -1  -5 2504.43 381.569   1
   7   1  -5 2602.14 363.199   1
  -7   1  -5 2619.53 314.863   1
   7  -1  -5 2528.63 397.986   1
   7  -1  -4 3511.64 418.400   1
  -7   1  -4 3783.03 323.136   1
   7   1  -4 3018.37 346.261   1
  -7   1  -4 3906.34 322.753   1
   7  -1  -3 47285.7 1232.40   1
  -7   1  -3 45006.6 1081.77   3
   7  -1  -3 44066.5 1021.15   2
  -7   1  -3 45280.7 899.881   1
   7   1  -3 45685.4 1061.18   1
  -7  -1  -2 1864.67 252.525   3
   7   1  -2 1375.65 183.205   1
   7  -1  -2 1664.71 172.644   2
   7   1  -2 1037.23 196.455   2
  -7  -1  -2 1540.86 222.265   1
   7  -1  -2 1885.84 235.377   3
  -7   1  -2 1427.95 158.494   1
  -7   1  -2 1466.30 184.399   3
   7  -1  -2 1800.87 246.172   1
  -7  -1  -1 16651.5 556.365   1
   7   1  -1 16684.1 569.146   2
   7  -1  -1 15576.7 545.578   1
   7   1  -1 16618.4 521.896   1
  -7   1  -1 16878.7 445.129   1
  -7   1   0 34951.3 689.197   1
  -7  -1   0 34826.4 737.463   1
   7   1   0 35709.0 744.981   1
   7  -1   0 34034.8 689.882   1
  -7  -1   1 14483.1 536.469   2
   7  -1   1 14488.7 378.648   3
  -7   1   1 15821.1 548.999   1
  -7   1   1 15167.6 347.313   2
   7  -1   1 14538.4 416.646   1
  -7  -1   1 15918.3 506.061   1
   7   1   1 15485.7 543.648   3
  -7  -1   2 1770.48 209.446   1
  -7   1   2 1225.30 156.155   2
  -7  -1   2 1226.58 211.764   2
   7  -1   2 1535.70 193.295   3
  -7   1   2 1258.21 214.758   1
   7   1   2 1248.47 215.911   3
  -7  -1   3 43348.9 1030.96   1
   7   1   3 45248.1 1222.25   3
   7  -1   3 45080.1 1074.60   3
  -7  -1   3 42961.4 1199.12   2
  -7  -1   4 3756.46 426.284   2
   7   1   4 4007.05 455.025   3
   7  -1   4 4048.51 410.607   3
   7  -1   5 2334.35 382.278   3
   7   1   5 2576.69 421.563   3
   7   1   6 695.935 276.529   3
   7  -2  -6 9.38847 309.234   1
  -7  -2  -6 1027.90 328.781   1
  -7  -2  -5 1082.67 313.141   1
   7   2  -5 1077.45 244.770   1
   7  -2  -5 342.039 229.960   1
   7  -2  -4 15440.4 873.703   1
  -7   2  -4 14899.2 486.356   1
   7  -2  -4 14515.3 665.665   2
  -7   2  -4 15084.2 488.064   1
   7   2  -4 14883.1 642.425   1
   7  -2  -3 1407.16 268.838   1
   7  -2  -3 1266.16 177.631   2
   7   2  -3 1348.55 205.628   1
  -7   2  -3 1334.12 194.394   3
  -7   2  -3 1286.17 128.594   1
   7  -2  -2 8676.42 294.799   2
   7   2  -2 8659.40 560.962   2
   7  -2  -2 8605.39 518.624   1
  -7   2  -2 8517.68 352.942   3
  -7   2  -2 8697.08 507.529   2
   7  -2  -2 8665.59 489.294   3
  -7  -2  -2 8662.89 548.380   1
   7   2  -2 8628.13 428.561   1
  -7   2  -2 8626.53 290.241   1
  -7   2  -1 15010.9 405.864   1
   7  -2  -1 14205.3 569.841   1
   7   2  -1 14889.4 616.595   2
   7   2  -1 15338.7 517.834   1
   7  -2  -1 14940.9 479.894   3
  -7  -2  -1 15775.9 610.702   1
  -7   2  -1 14907.9 509.391   2
   7  -2   0 14129.6 481.804   1
   7   2   0 13596.4 516.306   1
  -7   2   0 14035.7 478.652   1
  -7  -2   0 13532.8 518.503   1
   7  -2   0 13712.9 298.718   3
  -7   2   0 13601.1 322.811   2
  -7   2   1 14067.7 599.274   1
  -7  -2   1 14069.4 625.982   2
   7   2   1 14040.8 619.808   3
   7  -2   1 14060.5 398.008   1
  -7  -2   1 14046.8 522.362   1
  -7  -2   2 8578.67 572.491   2
  -7   2   2 8576.32 539.737   1
   7   2   2 8545.81 563.864   3
  -7  -2   2 8519.97 417.333   1
   7  -2   2 8527.98 354.518   3
  -7  -2   3 1476.80 299.271   2
  -7  -2   3 1320.81 205.397   1
   7   2   3 1490.06 300.317   3
   7  -2   3 1506.31 205.724   3
  -7  -2   4 14905.0 636.652   1
   7   2   4 15562.4 879.927   3
  -7  -2   4 15087.8 875.597   2
   7   2   5 1008.57 313.235   3
   7   2   6 1349.95 379.734   3
  -7  -3  -6 1171.96 364.095   1
   7  -3  -6 2126.72 476.487   1
   7  -3  -5 5235.82 616.680   1
  -7  -3  -5 4615.11 553.271   1
   7  -3  -4 1108.15 277.182   1
   7   3  -4 1042.08 176.977   1
   7  -3  -3 5079.49 278.287   2
  -7   3  -3 4725.69 305.053   3
   7  -3  -3 5191.52 511.579   1
   7   3  -3 4727.90 324.976   1
   7  -3  -2 1254.60 221.904   3
  -7   3  -2 1455.59 255.410   2
   7  -3  -2 1239.37 270.556   1
  -7   3  -2 1257.95 105.245   3
   7   3  -2 1157.76 169.835   1
   7  -3  -1 13715.7 618.326   1
  -7   3  -1 13932.9 417.971   1
   7   3  -1 13920.5 532.216   1
   7  -3  -1 13965.0 485.030   3
  -7  -3  -1 13312.6 634.595   1
  -7   3  -1 13668.4 525.585   2
  -7   3   0 2000.70 148.792   2
  -7  -3   0 1867.48 231.569   1
  -7   3   0 1887.09 213.277   1
  -7  -3   0 2262.66 298.415   2
   7  -3   0 1925.89 220.847   1
  -7  -3   1 14567.3 678.675   2
  -7   3   1 14929.2 638.794   1
   7   3   1 13805.1 637.471   3
  -7  -3   1 14194.2 541.492   1
   7  -3   1 14553.5 425.233   1
  -7  -3   2 1374.81 287.417   2
  -7  -3   2 1318.80 182.478   1
   7   3   2 1328.55 280.750   3
  -7  -3   3 4952.10 327.279   1
  -7  -3   3 5618.56 534.958   2
   7   3   3 5172.37 508.832   3
  -7  -3   4 1891.80 369.907   2
   7   3   4 1412.78 331.108   3
   7   3   5 5172.09 610.289   3
   7  -4  -5 1081.41 360.877   1
  -7  -4  -5 1176.84 357.995   1
   7  -4  -4 1014.48 313.973   1
  -7  -4  -4 1659.54 371.108   1
   7  -4  -3 458.569 246.055   1
   7   4  -3 782.181 154.673   1
   7  -4  -2 14194.5 650.432   3
   7  -4  -2 13281.7 755.557   1
  -7   4  -1 10250.7 497.200   2
   7  -4  -1 9799.06 576.970   1
   7  -4  -1 10742.0 448.085   3
   7  -4   0 28105.8 826.018   1
  -7   4   0 28342.0 591.271   2
  -7  -4   0 28928.1 982.481   2
  -7  -4   0 28623.6 909.326   1
  -7  -4   1 9543.38 608.570   2
  -7  -4   1 9908.97 493.206   1
   7   4   1 10452.3 611.236   3
   7  -4   1 10208.0 401.189   1
   7   4   2 14703.1 781.300   3
  -7  -4   2 15407.4 818.432   2
  -7  -4   2 13910.7 540.657   1
  -7  -4   3 969.847 321.024   2
  -7  -4   3 1035.94 157.300   1
   7   4   3 864.254 291.212   3
  -7  -4   4 1929.13 409.038   2
   7   4   4 2166.53 410.722   3
  -7  -4   5 1036.52 358.172   2
   7   4   5 699.914 323.511   3
  -7  -5  -4 1870.82 432.378   1
   7  -5  -4 2877.87 490.977   1
   7  -5  -3 6464.83 647.820   1
   7  -5  -2 7107.07 601.362   1
  -7  -5  -1 20616.5 901.098   2
   7  -5  -1 21488.7 912.799   1
  -7   5  -1 21389.1 762.559   2
   7  -5   0 1445.63 245.563   1
  -7  -5   0 1182.90 287.446   2
   7   5   0 1253.19 285.218   3
   7  -5   1 22600.0 654.985   1
  -7  -5   1 20081.7 945.565   2
  -7  -5   1 21438.2 785.988   1
   7   5   1 21817.8 933.049   3
  -7  -5   2 5805.17 563.507   2
   7   5   2 6812.73 584.125   3
  -7  -5   2 6720.40 397.439   1
   7   5   3 5935.23 598.625   3
  -7  -5   3 6497.67 652.622   2
  -7  -5   4 2585.00 477.910   2
   7   5   4 2403.27 426.537   3
   7   5   5 44.7922 292.777   3
   7  -6  -4 2622.68 487.135   1
  -7  -6  -4 1643.37 444.864   1
   7  -6  -3 2029.44 450.318   1
  -7  -6  -3 2122.24 440.948   1
   7  -6  -2 4089.44 511.509   1
  -7  -6  -2 3363.11 406.503   2
  -7  -6  -1-68.1374 224.881   2
   7  -6  -1 277.004 201.366   1
  -7  -6   0-252.027 221.812   2
   7   6   0 187.730 187.814   3
   7  -6   0-118.652 172.977   1
   7  -6   1 179.820 130.591   1
  -7  -6   1-102.820 205.519   2
   7   6   1-25.5854 196.662   3
  -7  -6   2 4718.99 554.710   2
   7   6   2 5272.35 568.791   3
  -7  -6   3 992.702 321.014   2
   7   6   3 2485.21 457.998   3
  -7  -6   4 2694.07 510.193   2
   7   6   4 2532.36 474.294   3
   7  -7  -3 876.396 309.853   1
  -7  -7  -3 719.008 373.642   1
   7  -7  -2 893.854 389.788   1
  -7  -7  -2 730.229 324.914   1
   7  -7  -1 599.992 231.797   1
  -7  -7  -1 1407.40 377.735   1
  -7  -7  -1 1789.13 359.927   2
  -7  -7   0 37.1738 225.257   2
   7   7   0 9.39782 189.328   3
  -7  -7   0-38.7918 201.274   1
  -7  -7   1 632.040 281.229   2
   7   7   1 1284.83 333.463   3
  -7  -7   2 2022.77 423.758   2
   7   7   2 1495.53 380.094   3
  -7  -7   3 1029.03 390.269   2
   7   7   3 1496.59 388.531   3
   7  -8  -2 2464.08 477.057   1
  -7  -8  -1 1314.32 382.823   1
  -7  -8   2 1510.07 373.428   2
  -8   0  -6 4865.34 511.416   1
   8   0  -6 4046.48 503.191   1
  -8   0  -5 494.181 217.827   1
   8   0  -5 139.158 223.519   1
   8   0  -4 73042.5 1648.60   1
  -8   0  -3 5352.71 383.172   1
   8   0  -3 5444.82 416.686   1
   8   0  -3 5082.25 398.725   2
  -8   0  -3 5186.08 407.190   3
   8   0  -2 46941.4 1034.49   1
   8   0  -2 47057.2 973.552   2
  -8   0  -2 46226.4 958.646   1
  -8   0  -2 48715.4 1019.54   3
   8   0  -1 16346.8 559.136   1
  -8   0  -1 16611.7 522.460   1
   8   0   0 73531.3 1062.88   1
  -8   0   0 72915.8 1055.88   1
   8   0   1 16086.2 508.285   3
  -8   0   1 15652.5 538.375   1
   8   0   1 15100.0 499.128   1
  -8   0   1 14722.1 473.646   2
  -8   0   2 45908.2 967.126   2
  -8   0   2 45481.4 1033.30   1
   8   0   2 46107.8 990.871   3
  -8   0   3 5838.24 424.089   1
   8   0   3 5306.31 428.829   3
  -8   0   3 5039.05 399.544   2
   8   0   4 72037.4 1698.15   3
   8   0   5 445.049 235.057   3
   8   0   6 3868.51 545.815   3
  -8  -1  -6 1376.61 334.765   1
   8   1  -6 1273.32 318.009   1
   8  -1  -6 1138.54 308.555   1
   8  -1  -5 6084.36 590.024   1
  -8   1  -5 6461.43 467.533   1
  -8  -1  -5 5368.37 537.313   1
   8   1  -5 5737.71 510.836   1
  -8   1  -4 19145.9 700.018   1
  -8   1  -4 18580.8 690.935   1
   8  -1  -4 19812.8 922.195   1
   8   1  -4 19878.7 815.916   1
   8  -1  -3 3985.99 332.438   2
  -8   1  -3 3664.25 330.661   3
   8   1  -3 3634.09 329.124   1
   8  -1  -3 4356.14 410.973   1
  -8   1  -3 4150.28 297.833   1
   8  -1  -2 31607.6 692.434   2
   8  -1  -2 32910.6 933.872   1
  -8   1  -2 33733.5 709.671   1
  -8  -1  -2 33085.4 907.531   1
  -8   1  -2 31528.5 740.574   3
   8  -1  -2 32335.2 892.493   3
  -8  -1  -2 33042.2 927.296   3
   8   1  -2 32214.1 832.015   1
   8   1  -2 34021.1 937.777   2
   8  -1  -1 6230.65 371.591   1
   8   1  -1 6962.24 394.720   2
   8   1  -1 6660.69 364.081   1
  -8   1  -1 6481.81 307.875   1
  -8  -1  -1 7177.29 396.725   1
  -8   1   0 36126.6 744.376   1
  -8  -1   0 37157.2 799.647   1
   8   1   0 36642.4 799.312   1
   8  -1   0 36855.6 757.282   1
   8   1   1 6183.26 369.830   1
  -8  -1   1 6972.52 392.859   2
  -8   1   1 6037.61 243.861   2
  -8   1   1 6420.66 368.657   1
   8  -1   1 6516.20 273.646   3
   8   1   1 6142.23 370.379   3
   8  -1   1 6392.25 309.048   1
  -8  -1   1 6488.82 360.277   1
  -8  -1   2 33120.4 932.750   2
  -8  -1   2 32401.0 823.927   1
  -8   1   2 34361.7 945.867   1
   8  -1   2 31916.0 739.712   3
   8   1   2 32666.9 922.669   3
  -8   1   2 31767.3 689.273   2
  -8  -1   3 4353.27 362.119   1
  -8  -1   3 3946.37 402.509   2
   8   1   3 4517.04 424.704   3
   8  -1   3 3900.64 341.571   3
   8  -1   4 19632.8 852.658   3
   8   1   4 19296.3 931.597   3
  -8  -1   4 18470.5 915.674   2
   8  -1   5 6246.25 577.086   3
   8   1   5 6434.55 610.952   3
   8   1   6 945.673 327.319   3
  -8  -2  -6 2699.48 476.543   1
   8  -2  -6 2861.41 523.586   1
  -8  -2  -5 4181.87 506.944   1
   8  -2  -5 5014.95 575.277   1
   8   2  -5 5246.12 452.980   1
   8  -2  -4 24421.1 850.984   2
  -8   2  -4 26627.3 664.108   1
  -8   2  -4 26016.0 656.942   1
   8  -2  -4 23809.2 1075.30   1
   8   2  -4 26331.3 881.705   1
   8  -2  -3 8882.87 419.115   2
   8  -2  -3 8926.02 610.234   1
  -8   2  -3 8616.63 453.223   3
  -8   2  -3 9138.53 342.388   1
   8   2  -3 10208.9 500.119   1
   8  -2  -2 101981. 980.115   2
   8  -2  -2 100795. 1748.46   1
   8  -2  -2 104187. 1619.15   3
   8   2  -2 106404. 1457.09   1
  -8   2  -2 102210. 1148.30   3
  -8   2  -2 104144. 1058.11   1
  -8   2  -2 106683. 1699.68   2
  -8   2  -1 8413.41 333.306   1
   8  -2  -1 8519.37 466.319   1
   8  -2  -1 8172.16 370.831   3
  -8  -2  -1 8584.78 468.800   1
   8   2  -1 8366.71 411.300   1
  -8   2   0 81.4261 101.405   1
   8  -2   0 196.561 123.568   1
   8   2   0 171.699 143.809   1
  -8  -2   0 320.953 146.250   1
  -8  -2   1 7563.24 462.239   2
  -8   2   1 8127.50 450.072   1
   8   2   1 8776.05 477.503   3
   8  -2   1 8094.80 210.912   3
   8  -2   1 8044.33 330.306   1
  -8  -2   1 8482.78 407.685   1
  -8  -2   2 109268. 1855.97   2
  -8  -2   2 104417. 1444.20   1
   8   2   2 107678. 1807.71   3
   8  -2   2 106646. 1153.90   3
  -8  -2   3 9817.22 489.032   1
   8  -2   3 9111.95 457.250   3
   8   2   3 11109.1 677.593   3
  -8  -2   3 8838.09 622.394   2
  -8  -2   4 25077.0 849.369   1
   8   2   4 25830.2 1131.94   3
  -8  -2   4 25941.1 1146.77   2
   8   2   5 3948.62 520.847   3
   8   2   6 3232.03 536.224   3
  -8  -3  -6-153.550 225.309   1
   8  -3  -6 207.065 271.338   1
   8  -3  -5 2236.29 452.558   1
  -8  -3  -5 2274.57 435.477   1
   8  -3  -4 21922.5 1108.81   1
   8   3  -4 21521.4 736.717   1
   8  -3  -3 8583.59 636.346   1
  -8   3  -3 8345.14 398.436   3
   8   3  -3 7244.18 410.413   1
   8  -3  -3 8511.22 340.692   2
   8  -3  -2 9357.93 594.188   1
  -8   3  -2 9094.18 255.083   1
   8  -3  -2 9262.58 510.599   3
   8   3  -2 9687.41 463.014   1
  -8   3  -2 10252.0 571.542   2
   8  -3  -1 40786.5 1062.29   1
  -8   3  -1 40096.6 741.772   1
   8   3  -1 39773.8 932.417   1
   8  -3  -1 39126.6 803.168   3
  -8   3  -1 39129.6 891.659   2
  -8   3   0 26.3676 54.5366   2
  -8   3   0-15.8242 107.920   1
   8  -3   0 80.4624 38.9799   3
  -8  -3   0-54.1181 135.584   2
  -8  -3   0 74.4671 119.378   1
   8  -3   0 39.8843 107.944   1
  -8  -3   1 39457.0 1121.25   2
  -8   3   1 41062.6 1068.23   1
   8   3   1 42598.6 1126.73   3
  -8  -3   1 38743.9 925.718   1
   8  -3   1 39465.3 743.487   1
  -8  -3   2 10151.2 635.728   2
   8  -3   2 9344.16 249.608   1
   8   3   2 8467.17 567.803   3
  -8  -3   2 9562.56 457.752   1
  -8  -3   3 7451.34 412.377   1
   8   3   3 7600.54 614.553   3
  -8  -3   3 7453.74 619.785   2
   8   3   4 22414.4 1114.74   3
  -8  -3   4 22552.0 1132.84   2
  -8  -3   5 1867.89 415.032   2
   8   3   5 2874.80 480.263   3
   8  -4  -5 1880.21 458.404   1
  -8  -4  -5 2272.70 464.517   1
   8  -4  -4 6969.08 692.184   1
  -8  -4  -4 5966.33 626.238   1
   8  -4  -3 1412.62 329.843   1
   8   4  -3 758.812 166.487   1
   8  -4  -2 16668.4 849.178   1
   8  -4  -2 17803.9 720.995   3
   8  -4  -1-18.6543 159.611   1
  -8   4  -1 183.222 132.371   2
   8  -4  -1 21.8821 107.739   3
   8  -4   0 12308.4 557.443   1
  -8   4   0 11188.7 363.903   2
  -8   4   0 10668.4 525.233   1
  -8  -4   0 12490.6 679.027   2
  -8  -4   1-288.945 199.433   2
   8  -4   1 55.6711 95.0601   1
   8   4   1-47.3874 192.618   3
  -8  -4   1 212.374 146.036   1
   8   4   2 18351.3 887.230   3
  -8  -4   2 17864.6 903.366   2
  -8  -4   2 17335.1 633.198   1
  -8  -4   3 839.449 287.494   2
   8   4   3 782.578 241.746   3
  -8  -4   3 449.091 119.809   1
   8   4   4 6790.75 665.677   3
  -8  -4   4 6011.70 663.532   2
  -8  -4   5 1815.83 414.929   2
   8   4   5 2437.37 490.537   3
   8  -5  -4 4559.42 595.772   1
  -8  -5  -4 4561.95 614.426   1
   8  -5  -3 1474.75 335.983   1
   8  -5  -2 3744.93 460.521   1
  -8   5  -1 21273.0 750.676   2
  -8  -5  -1 22017.7 952.056   2
   8  -5  -1 20874.8 919.755   1
  -8  -5   0 1142.36 280.974   2
   8   5   0 928.057 253.300   3
   8  -5   0 879.099 213.627   1
  -8  -5   1 21645.8 1004.65   2
   8   5   1 22841.5 979.159   3
   8  -5   1 22560.2 672.287   1
  -8  -5   2 2348.54 410.811   2
   8   5   2 2927.12 401.721   3
  -8  -5   3 2152.56 423.065   2
   8   5   3 1940.39 394.219   3
  -8  -5   4 5394.84 678.432   2
   8   5   4 3919.89 555.109   3
   8  -6  -4 4108.44 607.892   1
  -8  -6  -4 3672.81 603.290   1
   8  -6  -3 1515.53 379.611   1
  -8  -6  -3 1055.55 331.878   1
   8  -6  -2 3822.71 506.662   1
  -8  -6  -2 3188.37 424.329   2
   8  -6  -1 6648.90 564.489   1
  -8  -6  -1 6795.00 593.389   2
  -8  -6   0-10.0370 203.012   2
   8   6   0 0.97757 176.634   3
   8  -6   0 202.392 144.444   1
  -8  -6   1 7608.14 661.472   2
   8   6   1 7602.30 624.820   3
  -8  -6   2 4236.81 534.652   2
   8   6   2 3700.85 477.969   3
   8   6   3 1005.49 281.977   3
  -8  -6   3 980.020 376.520   2
  -8  -6   4 5237.52 681.620   2
   8   6   4 5253.74 651.043   3
   8  -7  -3 9753.66 884.916   1
  -8  -7  -2 4787.68 610.288   1
   8  -7  -2 5112.84 636.635   1
  -8  -7  -1 8650.58 697.031   2
   8  -7  -1 6753.24 607.538   1
  -8  -7  -1 7756.51 689.548   1
  -8  -7   0 1207.10 313.576   2
   8   7   0 857.709 260.551   3
  -8  -7   1 8381.52 725.180   2
   8   7   1 7496.45 652.871   3
  -8  -7   2 4221.40 569.558   2
   8   7   2 4945.51 586.140   3
  -8  -7   3 8046.44 815.256   2
   8   7   3 9019.19 820.351   3
  -8  -8  -1 2075.26 437.366   1
  -8  -8   1 2338.76 456.460   2
  -9   0  -6 141.464 209.896   1
   9   0  -6 26.1390 253.787   1
   9   0  -5-103.550 194.862   1
  -9   0  -5 206.627 172.111   1
   9   0  -4 44.6218 180.033   1
  -9   0  -3 114.332 144.365   1
   9   0  -3-21.4330 142.791   2
   9   0  -3 110.524 202.608   1
   9   0  -2-57.3881 133.349   2
  -9   0  -2 89.4200 115.862   1
   9   0  -2-12.3060 129.398   1
   9   0  -1 168.997 151.127   1
  -9   0  -1-32.6958 115.114   1
  -9   0   0-136.487 116.732   1
   9   0   0 110.967 151.606   1
   9   0   1 157.500 137.970   3
   9   0   1 37.7015 134.909   1
  -9   0   1 91.6224 115.733   2
  -9   0   1 53.6297 134.405   1
  -9   0   2 18.5129 129.040   1
  -9   0   2 16.2259 127.072   2
   9   0   2-200.581 133.800   3
  -9   0   3 51.3143 140.872   2
   9   0   3 35.9359 167.932   3
   9   0   4-113.462 208.114   3
   9   0   5-73.6957 197.337   3
   9   0   6-299.929 228.665   3
   9   1  -6 2851.91 415.164   1
  -9  -1  -6 3081.70 461.258   1
   9  -1  -6 3103.71 493.291   1
   9  -1  -5 6706.30 616.081   1
  -9   1  -5 6781.60 486.685   1
  -9  -1  -5 6649.07 584.526   1
   9   1  -5 6884.63 560.888   1
   9  -1  -4 23639.2 1019.13   1
  -9   1  -4 25005.1 813.522   1
   9   1  -4 25667.0 950.022   1
   9  -1  -3 14062.0 595.924   2
   9  -1  -3 14550.9 722.938   1
  -9   1  -3 16229.7 670.245   3
  -9   1  -3 15937.7 580.870   1
   9   1  -3 15814.7 673.501   1
   9  -1  -2 75522.9 1436.03   1
   9  -1  -2 74640.7 1084.23   2
   9   1  -2 79358.7 1456.15   2
  -9  -1  -2 78979.7 1424.84   1
   9   1  -2 75715.4 1313.36   1
   9  -1  -2 77797.6 1408.48   3
  -9   1  -2 75237.6 1119.26   1
   9  -1  -1 40976.4 947.291   1
   9   1  -1 40980.0 904.476   1
  -9  -1  -1 42741.1 967.010   1
  -9   1  -1 41002.4 797.095   1
   9  -1   0 370.341 155.569   1
  -9   1   0 95.1365 111.325   1
   9   1   0 281.012 157.725   1
  -9  -1   0-4.34070 131.946   1
  -9   1   1 40907.0 946.402   1
   9   1   1 41468.0 949.588   1
   9  -1   1 39705.8 699.648   3
  -9   1   1 40750.4 659.845   2
   9  -1   1 42301.1 802.032   1
  -9  -1   1 37914.7 916.806   2
  -9  -1   1 40538.5 900.994   1
  -9  -1   2 76653.9 1428.29   2
  -9  -1   2 75580.7 1314.68   1
  -9   1   2 78046.0 1471.69   1
   9  -1   2 77982.9 1191.22   3
   9   1   2 75719.8 1432.23   3
  -9   1   2 77663.3 1112.70   2
  -9  -1   3 15340.7 663.037   1
   9  -1   3 15183.7 641.221   3
   9   1   3 15752.2 759.055   3
  -9  -1   3 14754.9 734.109   2
  -9  -1   4 25274.6 1065.95   2
   9   1   4 26078.7 1088.72   3
   9  -1   4 24505.3 953.010   3
   9  -1   5 6974.08 603.099   3
   9   1   5 8807.16 743.590   3
   9   1   6 2568.31 499.693   3
  -9  -2  -6 1422.86 382.942   1
   9  -2  -6 1396.91 404.052   1
  -9  -2  -5 547.021 219.370   1
   9   2  -5 587.788 201.783   1
   9  -2  -5 479.693 269.213   1
   9  -2  -4-15.4417 246.870   1
   9   2  -4-39.0688 149.514   1
   9  -2  -4 350.961 166.740   2
  -9   2  -4 208.072 98.6711   1
   9  -2  -3 3113.50 396.266   1
   9   2  -3 2921.95 296.987   1
   9  -2  -3 3339.12 267.007   2
  -9   2  -3 3036.88 218.835   1
  -9   2  -3 2983.61 281.224   3
   9  -2  -2 9189.53 558.129   1
   9  -2  -2 9811.22 518.045   3
  -9   2  -2 8749.27 343.149   1
   9   2  -2 9044.17 463.877   1
   9  -2  -2 8741.23 296.874   2
  -9   2  -1 26638.8 627.967   1
   9  -2  -1 26632.1 819.620   1
  -9  -2  -1 26393.8 837.306   1
   9   2  -1 26319.5 749.718   1
   9  -2  -1 26445.1 677.149   3
   9   2   0 6591.76 399.334   1
  -9   2   0 6072.57 359.858   1
  -9  -2   0 6323.42 397.775   1
   9  -2   0 6096.06 355.593   1
  -9  -2   1 26468.5 854.772   2
  -9   2   1 26832.9 821.952   1
   9  -2   1 26776.6 427.973   3
   9  -2   1 26669.3 626.301   1
  -9  -2   1 28066.6 770.988   1
   9   2   1 25372.0 822.613   3
  -9  -2   2 8505.27 446.917   1
  -9  -2   2 8568.25 548.665   2
   9  -2   2 9374.23 356.744   3
   9  -2   2 9245.09 351.635   1
   9   2   2 9837.08 575.477   3
  -9  -2   3 2900.16 288.756   1
  -9  -2   3 2926.56 398.170   2
   9  -2   3 2985.51 281.307   3
   9   2   3 3040.08 402.490   3
  -9  -2   4 148.833 240.573   2
   9   2   4 180.218 235.449   3
   9  -2   4 231.035 156.215   3
  -9  -2   5 288.679 254.626   2
   9   2   5 744.154 344.121   3
   9   2   6 1297.91 404.802   3
  -9  -3  -6 1495.67 397.489   1
   9  -3  -6 2973.36 545.125   1
  -9  -3  -5 1650.18 387.637   1
   9  -3  -5 1970.25 430.746   1
   9  -3  -4 26520.2 1222.27   1
   9   3  -4 26198.6 850.822   1
   9  -3  -3 8143.52 315.272   2
   9  -3  -3 7915.42 629.924   1
   9   3  -3 7971.28 454.934   1
  -9   3  -3 7602.49 375.417   3
   9  -3  -2 1599.53 239.919   3
   9  -3  -2 1711.01 297.309   1
  -9   3  -2 2188.18 158.396   1
  -9   3  -2 1974.23 274.943   2
   9   3  -2 1690.49 227.915   1
  -9   3  -1 4594.27 276.246   1
   9  -3  -1 4149.10 362.329   1
   9   3  -1 4013.61 335.440   1
   9  -3  -1 4171.30 277.224   3
  -9   3  -1 4818.40 319.031   2
  -9   3   0-13.8856 103.947   1
  -9   3   0 105.965 72.8965   2
  -9  -3   0 84.4407 177.802   2
   9  -3   0 100.161 128.435   1
  -9  -3   0 24.9710 117.566   1
   9  -3   0 77.4533 42.8239   3
   9  -3   1 5159.44 299.000   1
  -9   3   1 5022.64 395.103   1
  -9  -3   1 4651.65 415.665   2
   9   3   1 4833.24 415.514   3
  -9  -3   1 4812.03 354.812   1
  -9  -3   2 2205.08 347.881   2
  -9  -3   2 1601.57 219.245   1
   9  -3   2 2169.74 149.479   1
   9   3   2 2253.00 347.392   3
  -9  -3   3 7415.09 606.580   2
  -9  -3   3 8224.24 451.942   1
   9   3   3 8203.20 628.168   3
   9   3   4 27899.0 1248.30   3
  -9  -3   4 26858.8 1249.70   2
  -9  -3   5 2101.07 439.919   2
   9   3   5 1451.35 355.342   3
   9  -4  -5 4104.35 600.047   1
  -9  -4  -5 3159.01 531.581   1
   9  -4  -4 2100.69 427.582   1
   9  -4  -3 317.417 229.903   1
   9   4  -3 119.619 115.255   1
   9  -4  -2 3859.72 444.068   1
   9   4  -2 3848.72 327.699   1
   9  -4  -2 3741.24 349.933   3
   9  -4  -1 11285.9 636.463   1
  -9   4  -1 10556.4 440.128   1
   9  -4  -1 9719.91 426.478   3
  -9   4  -1 10888.8 505.170   2
   9  -4   0 13869.4 604.396   1
  -9   4   0 13616.1 383.557   2
  -9  -4   0 13848.9 730.385   2
  -9   4   0 12910.3 588.524   1
  -9  -4   1 10593.7 678.309   2
   9   4   1 10783.2 648.088   3
  -9  -4   1 11372.5 573.002   1
   9  -4   1 10215.8 433.706   1
   9   4   2 3846.53 434.231   3
  -9  -4   2 3311.06 303.014   1
  -9  -4   2 3365.34 444.809   2
   9  -4   2 3970.03 152.293   1
  -9  -4   3 104.266 250.781   2
   9   4   3 444.799 280.515   3
  -9  -4   3 203.405 119.484   1
  -9  -4   4 2524.65 444.148   2
   9   4   4 2200.74 428.562   3
  -9  -4   5 4047.32 603.638   2
   9   4   5 4166.00 609.309   3
  -9  -5  -4 924.742 362.060   1
   9  -5  -4 1278.64 401.842   1
   9  -5  -3 640.836 296.261   1
   9  -5  -2 22929.1 1073.89   1
  -9   5  -1 12075.6 566.238   2
   9  -5  -1 12708.9 728.437   1
  -9  -5  -1 12012.8 739.743   2
   9  -5  -1 12918.2 489.119   3
   9   5   0-196.721 190.880   3
  -9  -5   0 89.4668 237.659   2
   9  -5   0 137.588 162.624   1
   9   5   1 12249.0 749.389   3
  -9  -5   1 10929.4 734.638   2
   9  -5   1 13079.0 529.039   1
  -9  -5   2 22609.1 1114.24   2
   9   5   2 21779.7 1046.05   3
  -9  -5   3 737.375 314.290   2
   9   5   3 62.9950 228.301   3
  -9  -5   4 680.238 334.941   2
   9   5   4 469.296 277.351   3
   9  -6  -4 2644.25 524.649   1
   9  -6  -3 7124.74 725.747   1
  -9  -6  -3 7618.08 747.305   1
   9  -6  -2 8969.57 735.508   1
  -9  -6  -2 7632.97 643.048   2
  -9  -6  -1 15759.8 898.284   2
   9  -6  -1 14616.9 838.590   1
   9  -6   0 5963.38 474.163   1
  -9  -6   0 6210.30 584.231   2
   9   6   0 5180.92 497.887   3
  -9  -6   1 15431.7 934.305   2
   9   6   1 15177.3 881.962   3
  -9  -6   2 8754.53 756.156   2
   9   6   2 8117.87 706.240   3
   9   6   3 7021.08 684.781   3
  -9  -6   3 7657.87 767.180   2
  -9  -6   4 2498.29 504.029   2
   9   6   4 2167.97 445.821   3
   9  -7  -3 78.2880 303.140   1
   9  -7  -2 512.707 336.145   1
  -9  -7  -2 672.601 298.170   1
  -9  -7  -1 336.620 243.118   2
   9  -7  -1 908.655 278.628   1
  -9  -7   0-2.71106 219.134   2
   9   7   0 516.535 217.613   3
  -9  -7   1 1236.42 375.300   2
   9   7   1 1408.89 335.541   3
  -9  -7   2 821.973 335.729   2
   9   7   2 1237.80 369.253   3
  -9  -7   3 503.152 365.104   2
   9   7   3 693.762 330.853   3
  -9  -8  -1 3565.30 531.052   1
  -9  -8   1 4519.41 611.193   2
  10   0  -6 4781.55 572.241   1
  10   0  -5 11309.2 757.232   1
 -10   0  -5 12152.2 715.094   1
  10   0  -4 15051.1 790.478   1
  10   0  -3 2387.84 294.227   2
  10   0  -3 1879.53 291.246   1
 -10   0  -3 2207.46 263.906   1
  10   0  -2 55417.9 1127.55   2
 -10   0  -2 54096.1 1117.75   1
  10   0  -2 55011.8 1219.43   1
 -10   0  -1 17086.6 585.145   1
  10   0  -1 17240.2 617.640   1
  10   0   0 6753.51 382.060   1
 -10   0   0 6373.87 364.180   1
 -10   0   1 15905.7 599.417   1
 -10   0   1 16383.6 544.184   2
  10   0   1 15793.6 566.433   1
 -10   0   2 55255.4 1109.22   2
 -10   0   2 55097.5 1201.20   1
  10   0   2 55357.8 1141.31   3
 -10   0   3 1719.98 272.171   2
  10   0   3 2411.40 312.752   3
 -10   0   4 17320.9 836.395   2
  10   0   4 18317.5 880.513   3
  10   0   5 12483.0 821.445   3
  10   0   6 7233.84 727.929   3
  10   1  -6 482.459 249.768   1
  10  -1  -6 643.168 288.204   1
 -10  -1  -6 584.844 260.546   1
 -10  -1  -5 1637.44 354.841   1
 -10   1  -5 1067.67 242.539   1
  10   1  -5 931.071 265.454   1
  10  -1  -5 1708.62 360.190   1
  10   1  -4 3657.37 393.195   1
 -10   1  -4 4064.08 340.807   1
  10  -1  -4 2947.52 399.142   1
  10  -1  -3 5680.41 483.257   1
  10  -1  -3 5800.35 388.685   2
 -10   1  -3 6549.12 435.155   3
 -10   1  -3 6120.42 381.078   1
  10   1  -3 6692.02 470.426   1
  10   1  -2 11591.9 587.873   2
  10  -1  -2 11232.9 584.911   1
  10  -1  -2 12190.0 463.829   2
 -10  -1  -2 11540.2 574.646   1
  10   1  -2 11855.7 550.729   1
 -10   1  -2 12026.7 476.567   1
 -10   1  -1 31778.7 746.304   1
 -10  -1  -1 33454.4 880.573   1
  10   1  -1 31958.8 840.456   1
  10  -1  -1 32947.3 892.083   1
 -10   1   0 6797.04 387.699   1
  10   1   0 6745.97 437.168   1
 -10  -1   0 6769.26 398.373   1
  10  -1   0 6716.04 395.181   1
 -10   1   1 33015.3 634.335   2
 -10  -1   1 33581.7 892.675   2
 -10   1   1 32778.1 870.373   1
  10   1   1 33471.5 894.716   1
  10  -1   1 32228.7 673.215   3
  10  -1   1 32996.7 747.534   1
 -10  -1   1 32329.2 865.433   1
 -10  -1   2 10996.4 571.647   2
 -10  -1   2 11719.7 541.737   1
 -10   1   2 11507.4 589.411   1
  10  -1   2 12179.9 494.698   3
  10  -1   2 11317.2 461.887   1
  10   1   2 12331.1 608.235   3
 -10   1   2 11740.2 448.635   2
 -10  -1   3 6142.73 440.087   1
  10  -1   3 7506.33 465.626   3
  10   1   3 6290.09 502.442   3
 -10   1   3 6472.23 404.405   2
 -10  -1   3 6548.55 511.938   2
 -10  -1   4 3370.76 425.360   2
  10  -1   4 3662.79 388.067   3
  10   1   4 3418.92 430.229   3
  10  -1   5 1730.15 344.626   3
  10   1   5 967.019 265.150   3
  10   1   6 766.084 314.571   3
 -10  -2  -6 4652.25 614.892   1
  10  -2  -6 4634.47 631.474   1
  10   2  -5 2779.41 354.224   1
  10  -2  -5 1654.06 390.003   1
 -10  -2  -5 2573.45 428.230   1
  10   2  -4 3812.61 385.095   1
  10  -2  -4 3504.29 338.857   2
 -10   2  -4 3895.75 292.421   1
  10  -2  -4 3160.78 434.559   1
  10  -2  -3 8581.63 415.318   2
  10  -2  -3 9857.80 650.116   1
 -10   2  -3 8638.06 455.679   3
  10   2  -3 9023.76 514.901   1
 -10   2  -3 9292.31 392.709   1
  10   2  -2 104867. 1599.06   1
  10  -2  -2 109458. 1894.21   1
  10  -2  -2 110010. 1720.67   3
 -10   2  -2 107397. 1275.47   1
 -10   2  -1 8865.87 396.585   1
  10  -2  -1 8798.67 500.789   1
  10  -2  -1 8720.42 402.037   3
  10   2  -1 8970.87 473.819   1
 -10  -2  -1 8454.64 500.468   1
 -10   2   0 104103. 1466.36   1
 -10  -2   0 106716. 1610.75   1
  10   2   0 101875. 1573.43   1
  10  -2   0 104627. 1484.25   1
 -10   2   1 8046.74 211.288   2
 -10  -2   1 8480.09 515.389   2
 -10   2   1 8576.35 489.036   1
  10  -2   1 8594.14 275.228   3
  10   2   1 8921.92 515.801   3
  10  -2   1 8592.56 383.853   1
 -10  -2   1 8800.45 467.662   1
 -10  -2   2 106229. 1896.50   2
  10  -2   2 104413. 1244.62   1
 -10  -2   2 104854. 1594.47   1
  10   2   2 107176. 1898.47   3
  10  -2   2 104068. 1204.42   3
 -10  -2   3 8824.53 632.034   2
 -10  -2   3 8882.26 502.214   1
  10   2   3 9315.69 651.390   3
  10  -2   3 8979.24 461.852   3
 -10  -2   4 2868.87 407.621   2
  10  -2   4 3500.81 361.231   3
  10   2   4 2858.44 427.371   3
 -10  -2   5 2629.01 459.621   2
  10   2   5 2910.45 482.167   3
  10   2   6 5436.37 691.853   3
 -10  -3  -6 5385.89 662.774   1
  10  -3  -5 10816.0 880.074   1
 -10  -3  -5 12102.9 904.388   1
  10  -3  -4 1803.57 345.159   1
  10   3  -4 1538.51 249.668   1
  10  -3  -3 341.755 237.382   1
  10  -3  -3 328.474 83.4536   2
  10   3  -3 472.966 170.157   1
 -10   3  -2 2497.76 190.526   1
  10  -3  -2 2400.75 270.144   3
  10   3  -2 2825.70 293.890   1
  10  -3  -2 1584.21 312.137   1
  10  -3  -1 8956.15 537.270   1
 -10   3  -1 9679.47 419.021   1
  10  -3  -1 9492.37 418.907   3
  10   3  -1 9336.36 508.109   1
 -10   3  -1 9528.54 458.613   2
  10  -3   0 3895.18 327.799   1
 -10   3   0 4418.79 338.961   1
 -10  -3   0 4843.25 425.014   2
  10  -3   0 4180.27 181.561   3
 -10  -3   0 4186.11 368.223   1
 -10   3   0 4332.84 214.044   2
 -10  -3   1 9899.13 606.708   2
  10   3   1 9000.35 563.745   3
 -10  -3   1 9921.01 521.494   1
  10  -3   1 9119.46 410.393   1
 -10  -3   2 2298.63 345.469   2
 -10  -3   2 2973.96 304.357   1
  10  -3   2 2926.30 192.224   1
  10   3   2 2686.88 369.674   3
 -10  -3   3 302.694 239.500   2
  10   3   3 806.837 273.007   3
 -10  -3   3 363.026 137.448   1
 -10  -3   4 1538.62 354.129   2
  10   3   4 1851.79 389.710   3
  10   3   5 11876.2 934.667   3
 -10  -3   5 11525.9 928.378   2
  10  -4  -5 2862.57 520.606   1
 -10  -4  -5 4013.39 601.123   1
  10  -4  -4 672.403 264.042   1
  10  -4  -3 1852.54 375.467   1
  10   4  -3 1453.13 227.123   1
  10  -4  -2 799.934 265.817   1
  10   4  -2 888.465 196.338   1
  10  -4  -2 1397.45 234.808   3
 -10   4  -1 6858.08 406.598   2
  10  -4  -1 6272.29 494.672   1
 -10   4  -1 7898.44 401.362   1
  10  -4  -1 6526.82 356.790   3
  10  -4   0 6881.28 446.791   1
 -10   4   0 6422.05 261.195   2
 -10  -4   0 6676.79 540.131   2
 -10   4   0 6548.42 437.141   1
 -10  -4   1 6222.88 548.459   2
 -10  -4   1 6613.99 459.279   1
  10   4   1 8057.66 589.038   3
  10  -4   1 6650.96 378.870   1
 -10  -4   2 1174.46 224.669   1
 -10  -4   2 1200.22 290.092   2
  10   4   2 2018.26 356.381   3
  10  -4   2 1338.23 119.538   1
 -10  -4   3 1205.56 319.812   2
  10   4   3 1324.38 307.274   3
 -10  -4   4 971.208 339.539   2
  10   4   4 1097.92 362.159   3
 -10  -4   5 3750.98 621.014   2
  10   4   5 4248.59 603.344   3
  10  -5  -4 2444.80 465.701   1
  10  -5  -3 5589.66 606.074   1
  10  -5  -2 205.145 200.852   1
 -10   5  -1 1362.09 207.200   2
 -10  -5  -1 1565.61 320.861   2
  10  -5  -1 1730.96 192.655   3
  10  -5  -1 1691.76 301.944   1
  10  -5   0 13801.1 672.934   1
 -10  -5   0 12906.2 791.095   2
  10  -5   1 2190.74 240.337   1
 -10  -5   1 1646.53 352.728   2
  10   5   1 2593.73 387.340   3
  10   5   2 172.723 223.119   3
 -10  -5   2 897.548 299.135   2
 -10  -5   3 6561.96 670.595   2
  10   5   3 6929.34 673.322   3
 -10  -5   4 3240.09 549.996   2
  10   5   4 3391.87 540.345   3
  10  -6  -3 330.649 237.460   1
 -10  -6  -2 2147.27 383.334   2
  10  -6  -2 2623.93 447.069   1
 -10  -6  -1 1711.08 362.394   2
  10  -6  -1 1297.32 309.128   1
  10  -6   0 21177.6 889.127   1
 -10  -6   0 20693.7 1067.56   2
  10   6   0 20607.4 995.760   3
 -10  -6   1 1810.75 376.023   2
  10   6   1 1297.99 322.662   3
 -10  -6   2 2056.36 431.756   2
  10   6   2 1767.87 370.668   3
 -10  -6   3 589.842 342.031   2
  10   6   3 189.141 237.897   3
  10   6   4 244.064 257.284   3
  10  -7  -3 4742.63 644.699   1
 -10  -7  -2 399.855 295.163   2
  10  -7  -2 785.821 376.051   1
 -10  -7  -1 5038.66 585.611   2
  10   7  -1 6350.18 593.096   3
  10  -7  -1 5192.83 551.458   1
  10   7   0-100.443 216.058   3
 -10  -7   0-43.6431 244.055   2
 -10  -7   1 5075.88 612.435   2
  10   7   1 5427.23 593.228   3
 -10  -7   2 92.9064 251.492   2
  10   7   2 102.746 222.598   3
  10   7   3 7027.02 751.863   3
 -10  -8  -1 2549.29 471.690   1
 -10  -8   1 2594.43 524.102   2
  11   0  -6 59.6496 249.641   1
  11   0  -5-161.920 228.449   1
 -11   0  -5-91.8809 211.177   1
  11   0  -4-310.679 224.910   1
  11   0  -3-113.255 188.768   2
  11   0  -3-24.2736 167.588   1
 -11   0  -3-8.63162 139.901   1
  11   0  -2-71.3001 160.572   1
  11   0  -2 103.235 139.222   2
 -11   0  -2 120.755 119.743   1
  11   0  -1 6.45684 153.993   1
 -11   0  -1-26.4456 114.496   1
 -11   0   0-75.3067 136.964   1
  11   0   0-134.630 132.042   1
 -11   0   1 79.8695 143.594   2
  11   0   1 9.79689 123.758   1
 -11   0   1 124.112 144.065   1
 -11   0   2-59.0531 118.935   1
 -11   0   2-83.6571 130.391   2
  11   0   2 212.419 148.980   3
 -11   0   3-132.079 168.956   2
  11   0   3-267.741 195.467   3
 -11   0   4-16.3161 164.658   2
  11   0   4-84.9176 198.267   3
  11   0   5 209.403 193.888   3
  11   0   6 441.963 294.551   3
 -11  -1  -6 5297.98 590.844   1
  11  -1  -6 5677.05 650.135   1
  11   1  -6 6369.76 639.209   1
  11  -1  -5 15333.3 941.055   1
 -11   1  -5 14580.2 717.185   1
  11   1  -5 14646.2 836.941   1
  11   1  -4 3368.52 397.714   1
 -11   1  -4 3429.52 331.336   1
  11  -1  -4 3335.47 443.257   1
  11   1  -3 24952.8 893.027   1
  11  -1  -3 23845.2 957.130   1
  11  -1  -3 23271.3 775.820   2
 -11   1  -3 25999.5 862.001   3
 -11   1  -3 24911.9 770.630   1
  11  -1  -2 50361.5 1246.13   1
  11   1  -2 50628.6 1234.16   2
  11  -1  -2 48849.7 942.042   2
 -11   1  -2 50493.4 1015.85   1
  11   1  -2 49244.8 1144.29   1
 -11  -1  -2 48150.1 1188.37   1
 -11  -1  -1 42158.7 1029.87   1
  11   1  -1 41004.7 987.781   1
 -11   1  -1 43568.6 923.133   1
  11  -1  -1 43245.7 1055.16   1
 -11  -1   0 13080.2 557.409   1
  11   1   0 11909.0 538.115   1
  11  -1   0 12144.2 518.385   1
 -11   1   0 12067.4 523.729   1
 -11   1   1 42532.3 1028.69   1
 -11   1   1 40336.2 749.650   2
 -11  -1   1 40623.3 1011.59   2
  11   1   1 43561.6 1037.76   1
  11  -1   1 43222.8 920.629   1
 -11  -1   1 42144.4 1007.12   1
 -11   1   2 49685.6 932.014   2
  11  -1   2 48345.8 991.720   1
 -11  -1   2 49072.6 1209.28   2
 -11  -1   2 49299.3 1148.74   1
  11   1   2 48659.0 1215.61   3
  11  -1   2 50324.3 1004.60   3
  11  -1   3 23831.7 822.174   3
  11   1   3 26036.7 1000.82   3
 -11   1   3 24064.5 781.377   2
 -11  -1   3 24227.5 956.368   2
 -11  -1   4 2827.73 378.658   2
  11   1   4 3741.92 443.412   3
  11  -1   4 3697.59 387.815   3
  11  -1   5 16179.4 913.376   3
  11   1   5 16122.4 989.678   3
  11   1   6 5491.33 663.471   3
 -11  -2  -6 1763.87 427.903   1
  11  -2  -6 1886.98 446.224   1
  11  -2  -5 6539.50 663.513   1
  11   2  -5 5579.42 500.543   1
  11   2  -4 1530.55 276.370   1
  11  -2  -4 789.515 292.716   1
  11  -2  -3 4154.00 293.365   2
  11   2  -3 4267.78 386.676   1
 -11   2  -3 4301.91 286.340   1
  11  -2  -3 3570.21 425.585   1
  11  -2  -2 10749.0 622.509   1
  11  -2  -2 9937.20 542.649   3
  11   2  -2 10591.2 542.413   1
 -11   2  -2 10376.3 430.959   1
  11  -2  -1 7207.48 468.094   1
 -11   2  -1 6904.43 370.257   1
 -11  -2  -1 6478.90 453.041   1
  11   2  -1 7334.56 445.723   1
 -11   2   0 28370.0 799.850   1
  11   2   0 27725.7 865.735   1
 -11  -2   0 28062.5 864.042   1
  11  -2   0 28034.2 795.136   1
 -11   2   1 7385.85 235.691   2
 -11  -2   1 8129.31 524.764   2
 -11   2   1 7317.45 471.399   1
  11  -2   1 7827.63 286.015   3
  11  -2   1 7054.54 371.548   1
 -11  -2   1 7850.56 462.423   1
 -11  -2   2 10926.0 549.549   1
 -11  -2   2 11264.3 656.668   2
  11  -2   2 10074.4 394.660   3
  11  -2   2 10360.1 426.732   1
  11   2   2 11516.3 653.750   3
 -11   2   2 10611.4 335.320   2
  11  -2   3 4253.24 328.382   3
 -11  -2   3 4533.97 389.257   1
 -11  -2   3 4539.08 486.649   2
  11   2   3 3839.75 441.201   3
 -11  -2   4 1397.72 326.781   2
  11  -2   4 1314.17 254.667   3
  11   2   4 929.623 292.605   3
  11   2   5 6415.59 653.671   3
 -11  -2   5 6882.35 702.636   2
  11   2   6 1986.79 461.755   3
 -11  -3  -6 764.235 336.352   1
 -11  -3  -5 4545.76 579.558   1
  11  -3  -5 4509.97 611.185   1
  11   3  -4 817.686 201.755   1
  11  -3  -4 1184.90 339.480   1
 -11   3  -3 10276.0 332.922   1
  11  -3  -3 9748.63 711.980   1
  11   3  -3 10210.1 552.145   1
  11  -3  -2 7101.27 559.886   1
 -11   3  -2 8387.94 357.221   1
  11  -3  -2 8330.94 498.895   3
  11   3  -2 8070.43 489.690   1
  11  -3  -1 21759.5 835.732   1
 -11   3  -1 22373.8 664.108   1
  11  -3  -1 22495.6 656.371   3
  11   3  -1 21749.6 786.482   1
 -11   3  -1 23161.9 704.166   2
 -11  -3   0 34274.3 1108.08   2
 -11   3   0 33314.8 916.736   1
  11  -3   0 32679.8 537.635   3
  11   3   0 33807.1 1018.14   1
 -11   3   0 34675.9 611.232   2
  11  -3   0 34984.6 947.190   1
 -11  -3   1 22490.8 923.627   2
  11   3   1 21763.3 888.654   3
 -11  -3   1 22764.8 811.865   1
  11  -3   1 22481.7 663.015   1
 -11  -3   2 8374.99 626.844   2
  11  -3   2 8528.00 353.625   1
  11   3   2 8475.99 612.940   3
 -11  -3   2 8568.38 503.726   1
 -11  -3   3 9252.66 691.659   2
 -11  -3   3 10056.6 548.629   1
  11   3   3 10301.1 727.640   3
 -11  -3   4 1542.81 365.365   2
  11   3   4 1171.78 352.970   3
 -11  -3   5 4426.83 610.515   2
  11   3   5 5194.77 658.266   3
 -11  -4  -5 1505.85 424.281   1
  11  -4  -5 1599.29 449.233   1
  11  -4  -4 5366.01 624.932   1
  11  -4  -3 1917.63 383.005   1
  11   4  -3 1472.09 251.649   1
  11  -4  -2 10501.1 718.575   1
 -11   4  -2 10702.4 368.024   1
  11   4  -2 10788.3 571.605   1
 -11   4  -1 28295.2 810.974   2
  11  -4  -1 27290.0 1000.90   1
 -11   4  -1 27242.2 763.300   1
  11  -4  -1 26263.0 695.466   3
 -11   4   0 856.966 107.315   2
  11  -4   0 832.877 217.460   1
 -11   4   0 363.764 149.563   1
 -11  -4   1 26444.5 1080.04   2
  11  -4   1 28444.8 779.655   1
  11   4   1 29260.0 1101.24   3
 -11  -4   2 11157.5 772.077   2
  11   4   2 11250.0 737.377   3
  11  -4   2 11413.0 363.836   1
 -11  -4   2 10671.9 574.235   1
 -11  -4   3 1384.99 366.088   2
  11   4   3 1686.15 369.505   3
 -11  -4   4 7172.50 723.632   2
  11   4   4 5372.24 625.952   3
 -11  -4   5 1558.53 440.883   2
  11   4   5 1537.84 412.738   3
  11  -5  -4 765.709 313.597   1
  11  -5  -3 1352.12 378.029   1
  11  -5  -2 5781.01 550.320   1
 -11   5  -1 3359.39 307.421   2
 -11  -5  -1 3803.81 463.733   2
  11  -5  -1 3815.33 432.226   1
  11  -5   0 17773.8 772.389   1
 -11  -5   0 16103.4 889.478   2
 -11  -5   1 3221.42 436.084   2
  11   5   1 3908.22 474.819   3
  11  -5   1 3746.62 311.248   1
 -11  -5   2 5581.62 598.718   2
  11   5   2 4873.47 538.563   3
 -11  -5   3 1542.77 384.070   2
  11   5   3 1673.24 379.002   3
 -11  -5   4 1747.99 434.103   2
  11   5   4 969.044 381.057   3
  11  -6  -3 1179.41 327.408   1
 -11  -6  -2 2430.39 414.453   2
  11  -6  -2 2522.17 454.414   1
 -11  -6  -1 1198.79 332.689   2
  11  -6  -1 322.573 223.977   1
  11  -6   0 63717.2 1543.00   1
 -11  -6   0 59905.2 1821.66   2
  11   6   0 59478.3 1712.67   3
 -11  -6   1 471.701 262.546   2
  11   6   1 351.054 239.735   3
 -11  -6   2 2071.30 404.997   2
  11   6   2 2307.04 427.562   3
 -11  -6   3 2399.83 513.014   2
  11   6   3 2175.86 435.196   3
 -11  -7  -2 71.7446 256.222   2
  11  -7  -2-74.9232 249.876   1
 -11  -7  -1 2727.84 470.157   2
  11  -7  -1 2108.10 365.334   1
  11   7  -1 2452.47 402.420   3
 -11  -7   0 2003.32 410.077   2
  11   7   0 2001.46 399.634   3
 -11  -7   1 2383.49 464.537   2
  11   7   1 2517.94 433.183   3
 -11  -7   2-134.658 224.878   2
  11   7   2 211.273 273.788   3
  11   7   3 994.113 369.732   3
 -11  -8  -1 4594.67 613.206   1
 -11  -8   1 5445.41 678.149   2
  12   0  -6 787.551 335.550   1
  12   0  -5-52.8826 216.271   1
  12   0  -4 15734.3 845.563   1
  12   0  -3 65070.3 1553.12   1
  12   0  -2 36881.1 968.250   2
 -12   0  -2 35179.5 968.143   1
  12   0  -2 38048.0 1078.17   1
 -12   0  -1 47676.7 1071.45   1
  12   0  -1 46891.7 1101.72   1
  12   0   0 20910.6 707.521   1
 -12   0   0 21943.2 732.464   1
 -12   0   1 47253.1 998.581   2
  12   0   1 46589.8 1044.79   1
 -12   0   1 47269.7 1112.74   1
 -12   0   2 34730.4 936.394   2
  12   0   2 34409.5 944.650   1
  12   0   2 35035.2 964.886   3
  12   0   3 68983.8 1526.55   3
 -12   0   3 68269.0 1471.66   2
  12   0   4 13579.2 778.405   3
 -12   0   4 14434.3 780.628   2
  12   0   5 384.650 238.767   3
  12   0   6 499.022 299.445   3
  12   1  -6 1636.32 352.539   1
 -12  -1  -6 2236.43 408.486   1
  12  -1  -6 1398.78 369.243   1
 -12   1  -5 5427.09 451.546   1
  12  -1  -5 5319.68 594.283   1
  12   1  -5 5267.12 557.972   1
  12  -1  -4 5376.87 536.233   1
  12   1  -4 6223.22 526.884   1
  12   1  -3 3815.64 386.949   1
  12  -1  -3 3754.39 332.973   2
 -12   1  -3 4221.17 348.888   1
  12  -1  -3 4360.17 471.477   1
 -12   1  -2 1199.17 194.088   1
  12   1  -2 1229.26 244.143   1
  12   1  -2 1087.14 239.795   2
  12  -1  -2 790.381 216.451   1
 -12  -1  -1 12862.7 617.860   1
  12   1  -1 12821.6 614.366   1
 -12   1  -1 12861.5 563.765   1
  12  -1  -1 12881.4 626.037   1
 -12  -1   0 2783.79 277.542   1
  12  -1   0 2738.78 287.786   1
 -12   1   0 2793.58 270.267   1
  12   1   0 2808.79 315.970   1
 -12   1   1 14006.7 639.882   1
 -12   1   1 14007.8 463.011   2
 -12  -1   1 13807.4 615.545   2
  12   1   1 14000.6 628.191   1
  12  -1   1 14001.5 557.788   1
 -12  -1   1 14006.2 621.127   1
 -12   1   2 1118.47 177.334   2
 -12  -1   2 1182.44 230.927   2
  12  -1   2 566.201 163.431   1
  12   1   2 999.497 224.215   3
 -12  -1   2 1153.79 221.971   1
  12  -1   2 1080.79 191.143   3
 -12  -1   3 4211.67 438.698   2
  12  -1   3 4137.76 374.985   3
  12   1   3 4098.96 437.381   3
 -12   1   3 3985.15 343.391   2
  12  -1   4 6684.70 524.331   3
  12   1   4 4864.77 502.481   3
 -12  -1   4 5775.41 537.408   2
 -12  -1   5 5810.40 611.853   2
  12  -1   5 5614.12 544.617   3
  12   1   5 6319.24 648.685   3
  12  -1   6 782.856 307.553   3
  12   1   6 1541.61 392.098   3
 -12  -2  -6 1138.98 371.511   1
  12  -2  -6 1916.76 451.006   1
  12  -2  -5 17300.4 1058.96   1
  12   2  -5 18694.0 915.451   1
  12  -2  -4 11296.2 789.894   1
  12   2  -4 11595.0 676.982   1
  12  -2  -3 8882.71 645.572   1
  12  -2  -3 8411.88 411.816   2
  12   2  -3 8786.76 545.875   1
 -12   2  -3 7956.44 403.992   1
 -12   2  -2 2116.86 223.323   1
  12  -2  -2 2410.60 296.523   3
  12  -2  -2 1800.23 301.060   1
  12   2  -2 2191.42 290.031   1
 -12   2  -1 22925.3 697.621   1
  12   2  -1 22942.6 800.882   1
  12  -2  -1 23692.4 847.264   1
  12  -2   0 693.167 175.805   1
  12   2   0 885.080 203.559   1
 -12  -2   0 661.455 172.696   1
 -12   2   0 389.329 147.741   1
 -12   2   1 21464.4 442.588   2
 -12  -2   1 22419.6 869.334   2
 -12   2   1 23390.2 838.180   1
  12   2   1 22479.3 839.287   1
  12  -2   1 20917.8 499.745   3
  12  -2   1 23198.0 696.959   1
 -12  -2   1 21965.8 786.186   1
 -12  -2   2 2592.90 354.078   2
 -12  -2   2 2591.89 293.216   1
  12  -2   2 2354.67 229.661   1
  12  -2   2 2595.21 227.881   3
  12   2   2 2400.63 343.705   3
 -12   2   2 2787.45 186.650   2
 -12  -2   3 8459.02 632.469   2
  12  -2   3 8739.40 466.528   3
  12   2   3 9123.87 658.177   3
  12   2   4 10501.1 761.824   3
  12  -2   4 11827.8 641.717   3
 -12  -2   4 11909.1 821.713   2
  12   2   5 16774.3 1058.72   3
 -12  -2   5 18807.3 1123.39   2
  12   2   6 1198.38 358.984   3
  12  -3  -5-258.548 249.097   1
  12   3  -4 36.0199 149.703   1
  12  -3  -4-125.426 196.156   1
 -12   3  -3 3997.88 239.786   1
  12  -3  -3 4521.29 511.744   1
  12   3  -3 4028.93 373.344   1
 -12   3  -2 3425.76 254.893   1
  12   3  -2 3353.31 351.771   1
  12  -3  -2 3389.89 329.482   3
  12  -3  -2 3266.85 403.788   1
  12  -3  -1 6539.80 489.850   1
 -12   3  -1 6178.83 375.116   1
  12   3  -1 6230.68 453.556   1
  12  -3  -1 6064.06 355.818   3
 -12   3  -1 6230.65 379.662   2
 -12  -3   0 31119.8 1087.65   2
 -12   3   0 32187.0 939.727   1
  12  -3   0 31759.0 567.060   3
  12   3   0 32182.0 1020.71   1
 -12   3   0 31025.4 602.584   2
  12  -3   0 30794.3 922.988   1
  12   3   1 6497.20 524.530   3
 -12  -3   1 6021.01 526.027   2
  12  -3   1 6377.86 375.197   1
 -12  -3   2 3348.02 449.321   2
 -12  -3   2 3564.81 337.705   1
  12  -3   2 3431.08 254.243   1
  12   3   2 3389.50 436.028   3
 -12  -3   3 5123.15 544.720   2
  12   3   3 4887.41 535.882   3
 -12  -3   4 109.501 233.077   2
  12   3   4 22.7884 243.396   3
 -12  -3   5-11.4615 219.676   2
  12   3   5 315.304 237.798   3
 -12  -4  -5 912.348 310.879   1
  12  -4  -5 28.3045 271.681   1
  12  -4  -4 2579.32 485.791   1
  12  -4  -3 11956.6 789.741   1
  12   4  -3 11990.3 576.289   1
  12  -4  -2 7029.87 612.596   1
 -12   4  -2 7025.15 324.695   1
  12   4  -2 7025.85 481.627   1
 -12   4  -1 16461.1 624.519   2
  12  -4  -1 16283.5 797.505   1
 -12   4  -1 16323.6 619.127   1
  12  -4  -1 15742.3 555.338   3
 -12   4   0 5176.79 231.237   2
 -12  -4   0 4488.62 482.522   2
  12  -4   0 5465.57 436.101   1
 -12  -4   1 14985.7 844.480   2
  12   4   1 16532.2 854.130   3
  12  -4   1 16291.2 614.484   1
 -12  -4   2 6976.20 628.721   2
  12   4   2 8192.60 660.709   3
  12  -4   2 7326.47 328.955   1
 -12  -4   3 10234.9 791.335   2
  12   4   3 11069.8 810.572   3
 -12  -4   4 3561.10 538.834   2
  12   4   4 3035.63 498.577   3
 -12  -4   5 409.694 329.763   2
  12   4   5 406.022 319.576   3
  12  -5  -4 3206.26 517.707   1
  12  -5  -3 7070.99 697.755   1
  12  -5  -2 9996.02 752.084   1
 -12  -5  -1 942.417 314.230   2
  12  -5  -1 627.565 228.529   1
  12  -5   0 5514.80 455.419   1
 -12  -5   0 6023.29 579.730   2
  12  -5   1 746.880 186.896   1
 -12  -5   1 885.609 282.724   2
  12   5   1 541.231 242.529   3
 -12  -5   2 11036.4 824.564   2
  12   5   2 11497.0 817.048   3
 -12  -5   3 7664.89 736.016   2
  12   5   3 8833.33 774.003   3
 -12  -5   4 3546.28 573.909   2
  12   5   4 3802.58 567.686   3
  12  -6  -3 1353.94 315.692   1
 -12  -6  -2 379.447 268.072   2
  12  -6  -2 371.632 260.514   1
 -12  -6  -1 656.330 272.400   2
  12  -6  -1 1105.25 313.510   1
  12  -6   0 15654.8 795.078   1
 -12  -6   0 14380.1 933.937   2
  12   6   0 14055.8 870.147   3
 -12  -6   1 1583.43 387.893   2
  12   6   1 1039.49 346.126   3
 -12  -6   2 498.563 293.280   2
  12   6   2 385.797 259.477   3
 -12  -6   3 1807.61 448.639   2
  12   6   3 1274.46 365.244   3
 -12  -7  -2 394.765 268.521   2
  12  -7  -2 1270.41 360.122   1
 -12  -7  -1-152.113 276.209   2
  12  -7  -1 164.626 187.768   1
  12   7  -1 670.639 276.040   3
 -12  -7   0 6375.07 695.755   2
  12   7   0 6109.71 635.275   3
 -12  -7   1 504.802 257.606   2
  12   7   1 66.9888 231.720   3
 -12  -7   2 963.327 360.785   2
  12   7   2 469.163 271.260   3
  13   0  -6-184.325 256.541   1
  13   0  -5-21.3063 220.120   1
  13   0  -4-170.867 202.757   1
  13   0  -3 190.439 213.430   1
  13   0  -2-212.205 210.139   1
 -13   0  -2-7.65157 140.329   1
 -13   0  -1 60.0774 126.703   1
  13   0  -1 246.126 197.577   1
 -13   0   0-11.7610 129.097   1
  13   0   0-56.8507 131.157   1
 -13   0   1 121.335 163.634   2
 -13   0   1 65.2163 144.895   1
  13   0   1 166.167 172.341   1
 -13   0   2-30.5660 140.071   2
  13   0   2 128.103 147.525   1
  13   0   2 91.5928 177.582   3
 -13   0   3 164.601 207.840   2
  13   0   3-6.37972 181.782   3
 -13   0   4-30.9635 192.477   2
  13   0   4 19.9720 181.885   3
  13   0   5 74.3767 239.365   3
  13   0   6-213.674 288.451   3
  13   1  -6 225.236 233.263   1
  13  -1  -6 394.108 306.695   1
 -13  -1  -6-80.5247 260.071   1
  13  -1  -5 14201.5 931.214   1
  13   1  -5 13653.4 845.740   1
  13  -1  -4 8517.81 684.682   1
  13   1  -4 7644.23 591.220   1
  13  -1  -3 25036.8 1027.70   1
  13  -1  -3 26364.9 857.075   2
 -13   1  -3 25080.2 828.601   1
  13   1  -3 23648.4 924.651   1
 -13   1  -2 6454.01 413.981   1
  13   1  -2 6148.00 456.266   1
  13  -1  -2 5985.10 484.435   1
 -13  -1  -1 4002.77 366.598   1
  13   1  -1 4435.42 377.449   1
 -13   1  -1 5024.73 359.368   1
  13  -1  -1 4858.16 402.824   1
 -13  -1   0 7608.39 465.950   1
  13  -1   0 8064.67 467.033   1
  13   1   0 8063.40 490.536   1
 -13   1   0 7872.62 458.049   1
 -13   1   1 4855.47 395.837   1
 -13  -1   1 4346.04 384.518   2
 -13   1   1 4666.99 306.627   2
  13  -1   1 4647.97 351.642   1
 -13  -1   1 5099.77 405.214   1
  13   1   1 4734.93 389.126   1
 -13   1   2 5752.53 354.783   2
 -13  -1   2 6276.34 469.880   2
  13   1   2 6319.84 479.171   3
  13  -1   2 6706.73 415.002   1
  13  -1   2 5866.25 379.327   3
 -13  -1   3 24550.8 992.694   2
  13  -1   3 26538.9 895.024   3
  13   1   3 25196.7 1014.83   3
 -13   1   3 26376.0 840.462   2
  13   1   4 9163.35 685.986   3
  13  -1   4 7775.98 568.398   3
 -13  -1   4 8862.25 669.634   2
  13   1   5 13713.4 933.159   3
  13  -1   5 12937.7 821.484   3
 -13  -1   5 13092.5 902.718   2
  13  -1   6 337.849 292.210   3
  13   1   6-338.207 356.803   3
 -13  -2  -6 1018.85 363.985   1
  13  -2  -6 1698.84 439.600   1
  13   2  -5 3832.00 442.736   1
  13  -2  -5 4141.70 593.288   1
  13   2  -4 2818.33 369.718   1
  13  -2  -4 1783.44 369.340   1
  13   2  -3 4388.36 416.632   1
  13  -2  -3 3664.46 459.665   1
 -13   2  -3 4450.40 334.051   1
 -13   2  -2 1667.64 211.370   1
  13  -2  -2 1414.95 272.524   1
  13   2  -2 990.452 228.006   1
 -13   2  -1 9449.70 475.624   1
  13   2  -1 10108.2 562.874   1
  13  -2  -1 9993.12 585.072   1
  13   2   0 32.8311 166.661   1
  13  -2   0 357.962 175.111   1
 -13   2   0 71.3333 124.818   1
 -13   2   1 8720.27 311.750   2
 -13  -2   1 9744.98 597.915   2
  13   2   1 9175.23 560.948   1
  13  -2   1 9303.10 365.018   3
  13  -2   1 9074.26 471.261   1
 -13  -2   1 9204.40 533.415   1
 -13   2   2 1628.08 156.340   2
 -13  -2   2 1916.35 317.391   2
  13  -2   2 1460.75 211.690   1
  13  -2   2 1467.78 188.239   3
  13   2   2 1246.66 300.731   3
 -13  -2   3 5366.82 519.332   2
  13  -2   3 5425.29 376.716   3
  13   2   3 4448.98 511.833   3
 -13  -2   4 2312.33 403.584   2
  13  -2   4 2209.90 298.391   3
  13   2   4 2083.19 394.983   3
 -13  -2   5 4023.55 571.246   2
  13  -2   5 3722.54 437.150   3
  13   2   5 3925.06 551.460   3
  13  -3  -5 2471.86 469.573   1
  13  -3  -4 1846.32 400.783   1
  13   3  -4 2085.69 321.778   1
  13  -3  -3 15705.9 908.405   1
  13   3  -3 15492.4 733.042   1
  13  -3  -2 8344.03 622.637   1
 -13   3  -2 8540.52 416.291   1
  13   3  -2 8890.75 551.393   1
  13  -3  -1 15881.1 756.442   1
 -13   3  -1 17265.9 640.336   1
  13  -3  -1 15616.3 569.639   3
  13   3  -1 16662.7 749.994   1
 -13   3  -1 15784.3 613.635   2
 -13   3   0 74.6243 74.0664   2
  13  -3   0 223.569 173.580   1
  13   3   0 134.689 173.753   1
 -13   3   0 41.2504 143.620   1
 -13  -3   0-211.356 195.766   2
  13  -3   0 54.5975 68.3233   3
 -13  -3   1 16038.6 826.102   2
  13   3   1 16477.7 815.590   3
  13  -3   1 16450.1 623.614   1
 -13  -3   2 9314.45 679.617   2
  13  -3   2 8698.01 413.686   1
  13   3   2 7515.97 603.660   3
  13  -3   2 8955.73 281.771   3
 -13  -3   3 16024.5 929.964   2
  13   3   3 17071.8 955.429   3
 -13  -3   4 1579.82 388.577   2
  13   3   4 1809.13 398.306   3
 -13  -3   5 2672.08 487.830   2
  13   3   5 2075.45 452.540   3
  13  -4  -5 3561.53 627.083   1
  13  -4  -4 3391.95 536.023   1
  13  -4  -3 5786.18 599.744   1
  13   4  -3 5783.42 459.139   1
  13  -4  -2 5830.66 543.472   1
  13   4  -2 5149.51 435.758   1
 -13   4  -1 4834.57 361.215   1
  13   4  -1 4240.29 416.470   1
  13  -4  -1 5271.51 328.841   3
  13  -4  -1 4068.99 427.811   1
 -13   4  -1 4491.22 341.911   2
 -13   4   0 42775.7 663.271   2
 -13  -4   0 41377.1 1380.72   2
  13  -4   0 44833.6 1202.60   1
 -13  -4   1 4903.78 517.467   2
  13   4   1 5818.04 548.258   3
  13  -4   1 5429.03 381.013   1
  13  -4   2 5079.25 295.349   1
 -13  -4   2 5774.54 581.063   2
  13   4   2 5015.83 527.935   3
 -13  -4   3 6001.47 637.908   2
  13   4   3 5652.54 604.286   3
 -13  -4   4 4454.19 612.505   2
  13   4   4 3282.80 511.413   3
 -13  -4   5 3637.25 580.285   2
  13   4   5 5038.64 677.415   3
  13  -5  -4 63.1042 206.610   1
  13  -5  -3 4469.35 568.617   1
  13  -5  -2 1542.79 329.201   1
 -13  -5  -1 966.546 325.284   2
  13  -5  -1-114.367 176.562   1
 -13  -5   0 548.756 272.634   2
  13  -5   0 809.135 221.535   1
  13  -5   1 543.704 158.331   1
 -13  -5   1 567.814 277.092   2
  13   5   1-26.7535 230.188   3
 -13  -5   2 1611.97 369.663   2
  13   5   2 1831.51 389.241   3
 -13  -5   3 4749.89 612.852   2
  13   5   3 3967.58 536.268   3
 -13  -5   4 361.964 248.964   2
  13   5   4 794.518 278.216   3
  13  -6  -3-363.223 321.547   1
 -13  -6  -2 5618.24 620.135   2
  13  -6  -2 5636.80 635.576   1
  13  -6  -1 6820.58 602.484   1
 -13  -6  -1 8710.85 740.364   2
 -13  -6   0-105.607 261.759   2
  13  -6   0 136.013 161.418   1
  13   6   0 227.400 248.682   3
 -13  -6   1 7831.64 729.448   2
  13   6   1 8257.41 720.928   3
 -13  -6   2 6435.21 703.641   2
  13   6   2 5423.89 629.769   3
 -13  -6   3 174.005 283.266   2
  13   6   3-151.015 262.974   3
 -13  -7  -2 2213.83 433.760   2
  13  -7  -2 1786.19 396.321   1
 -13  -7  -1 993.561 325.266   2
  13  -7  -1 1537.63 346.250   1
  13   7  -1 1599.99 364.145   3
 -13  -7   0 360.561 271.602   2
  13   7   0 4.22273 201.691   3
 -13  -7   1 1039.27 357.246   2
  13   7   1 1357.06 377.746   3
 -13  -7   2 1683.88 413.839   2
  13   7   2 2304.64 484.713   3
  14   0  -6 6748.80 707.994   1
  14   0  -5 8010.26 701.728   1
  14   0  -4 17078.4 924.733   1
  14   0  -3 107110. 2082.42   1
  14   0  -2 160.198 180.888   1
 -14   0  -1 12935.6 614.978   1
  14   0  -1 12428.5 623.771   1
  14   0   0 202508. 2365.82   1
 -14   0   0 204464. 2399.39   1
 -14   0   1 13197.0 582.596   2
  14   0   1 13568.7 614.801   1
 -14   0   2 32.9688 156.037   2
  14   0   2 149.440 156.422   1
  14   0   2 90.8097 175.842   3
  14   0   3 106855. 1967.24   3
 -14   0   3 107327. 1914.26   2
  14   0   4 16289.4 872.218   3
 -14   0   4 16752.1 844.086   2
  14   0   5 8648.96 719.643   3
  14   0   6 7381.05 732.163   3
  14   1  -6 4857.76 568.841   1
 -14  -1  -6 4130.45 538.067   1
  14  -1  -6 5715.20 675.132   1
  14   1  -5 384.732 253.588   1
  14  -1  -5 367.947 270.170   1
  14   1  -4 1423.20 321.028   1
  14  -1  -4 981.531 301.281   1
  14   1  -3 652.401 218.409   1
  14  -1  -3 1674.48 263.864   2
  14  -1  -3 1453.47 302.864   1
 -14   1  -3 1117.11 217.639   1
 -14   1  -2 300.400 154.972   1
  14   1  -2 197.710 195.250   1
  14  -1  -2 41.9563 228.773   1
  14   1  -1 21318.3 811.920   1
  14  -1  -1 19586.0 805.680   1
 -14   1  -1 22444.0 767.464   1
  14   1   0 16105.0 701.600   1
  14  -1   0 16795.3 696.138   1
 -14  -1   0 15593.5 688.930   1
 -14   1   0 16029.3 673.888   1
 -14  -1   1 21854.4 825.718   2
 -14   1   1 20581.9 632.686   2
  14   1   1 20505.6 799.905   1
  14  -1   1 20527.8 728.112   1
 -14   1   2 156.276 109.706   2
 -14  -1   2 231.230 167.453   2
  14  -1   2 198.539 155.365   1
  14  -1   2 302.322 138.949   3
  14   1   2 82.5737 211.216   3
 -14   1   3 1520.18 236.945   2
 -14  -1   3 1124.21 249.957   2
  14  -1   3 1285.50 250.937   3
  14   1   3 1370.01 305.994   3
 -14  -1   4 746.297 281.112   2
  14  -1   4 1170.85 260.236   3
  14   1   4 1444.58 362.144   3
 -14  -1   5 919.156 350.589   2
  14  -1   5 379.163 247.547   3
  14   1   5 324.264 236.312   3
  14  -1   6 4538.56 561.536   3
  14   1   6 4337.13 601.024   3
 -14  -2  -6 6694.85 738.941   1
  14  -2  -5 18212.0 1115.91   1
  14   2  -5 16461.1 898.280   1
  14  -2  -4 6418.10 616.149   1
  14   2  -4 6228.83 528.064   1
  14  -2  -3 56717.6 1645.35   1
 -14   2  -3 54314.7 1146.94   1
  14   2  -3 57256.4 1455.91   1
  14  -2  -2 24884.9 1003.48   1
  14   2  -2 23976.9 897.151   1
 -14   2  -2 23438.5 759.719   1
 -14   2  -1 7483.84 449.488   1
  14   2  -1 7171.15 494.036   1
  14  -2  -1 6976.67 507.625   1
 -14   2   0 7197.48 459.586   1
  14   2   0 7826.02 524.758   1
  14  -2   0 6245.09 439.605   1
 -14   2   1 6995.99 308.178   2
 -14  -2   1 7445.88 542.950   2
  14   2   1 6927.03 507.805   1
  14  -2   1 6785.93 333.333   3
  14  -2   1 7481.29 449.535   1
 -14  -2   2 23429.4 992.167   2
  14  -2   2 23158.4 741.241   1
  14  -2   2 23104.0 660.378   3
  14   2   2 23456.2 982.861   3
 -14   2   2 24253.8 583.801   2
 -14  -2   3 55285.1 1599.15   2
  14  -2   3 56507.1 1201.96   3
  14   2   3 56243.6 1629.88   3
  14  -2   4 6563.50 491.948   3
  14   2   4 6490.19 631.636   3
 -14  -2   4 6595.40 637.936   2
  14  -2   5 16642.0 883.785   3
  14   2   5 14849.7 1015.21   3
 -14  -2   5 16050.2 1046.95   2
  14  -3  -5 925.413 320.213   1
  14   3  -4 4952.83 468.194   1
  14  -3  -4 4847.13 592.933   1
  14  -3  -3 14751.6 895.648   1
  14   3  -3 14474.0 730.523   1
  14  -3  -2 763.304 303.228   1
  14   3  -2 511.536 222.981   1
 -14   3  -2 268.050 132.408   1
 -14   3  -1-158.999 151.726   1
  14  -3  -1 95.0683 187.729   1
  14   3  -1 51.6627 170.929   1
  14  -3  -1 117.268 102.958   3
 -14  -3   0 50511.9 1449.10   2
  14  -3   0 49522.6 808.368   3
  14   3   0 52178.8 1384.76   1
  14  -3   0 49270.4 1234.26   1
  14  -3   1 46.8351 129.333   1
 -14  -3   1 446.307 258.961   2
  14  -3   1 92.8643 47.2217   3
  14   3   1 166.338 225.825   3
 -14  -3   2 137.439 198.164   2
  14  -3   2 365.776 134.535   1
  14  -3   2 243.588 74.0574   3
  14   3   2 485.376 233.044   3
  14  -3   3 12714.8 477.184   3
  14   3   3 12959.8 846.705   3
 -14  -3   4 4777.96 588.782   2
  14   3   4 5097.17 606.763   3
 -14  -3   5 269.786 233.996   2
  14   3   5 1196.47 369.992   3
  14  -4  -4 3816.93 571.272   1
  14   4  -3 5535.06 476.779   1
  14  -4  -3 5629.71 604.852   1
  14   4  -2 2818.41 345.641   1
  14  -4  -2 3136.38 426.141   1
  14  -4  -1 14314.8 777.527   1
 -14   4  -1 15102.9 640.826   1
  14   4  -1 13910.2 753.334   1
  14  -4  -1 14314.8 544.931   3
 -14   4  -1 14819.2 608.696   2
 -14   4   0 8722.37 308.838   2
 -14  -4   0 9260.13 690.295   2
  14  -4   0 9923.40 592.600   1
 -14  -4   1 15317.7 880.118   2
  14  -4   1 15713.9 652.847   1
  14   4   1 14722.6 842.416   3
 -14  -4   2 3417.50 485.982   2
  14  -4   2 2872.90 251.023   1
  14   4   2 2592.43 415.347   3
 -14  -4   3 6720.50 665.291   2
  14   4   3 5551.06 613.237   3
 -14  -4   4 3980.58 571.549   2
  14   4   4 4121.65 581.479   3
  14  -5  -4 1140.53 335.261   1
  14  -5  -3 6396.35 675.576   1
  14  -5  -2 11319.2 815.391   1
  14  -5  -1 9642.10 680.111   1
 -14  -5  -1 10281.6 776.728   2
 -14  -5   0 8782.53 725.126   2
  14  -5   0 7847.89 565.916   1
 -14  -5   1 11073.2 829.807   2
  14   5   1 10669.9 774.684   3
  14  -5   1 10527.0 552.665   1
 -14  -5   2 10442.9 837.710   2
  14   5   2 10495.0 800.661   3
 -14  -5   3 6422.61 715.087   2
  14   5   3 6485.57 685.184   3
 -14  -5   4 785.789 287.320   2
  14   5   4 1841.01 434.051   3
  14  -6  -3 1497.51 396.250   1
 -14  -6  -2 1495.86 378.155   2
  14  -6  -2 1590.30 424.892   1
 -14  -6  -1 3273.28 498.391   2
  14  -6  -1 2965.24 419.641   1
 -14  -6   0 231.248 250.760   2
  14  -6   0 193.173 172.910   1
  14   6   0 28.2890 243.553   3
 -14  -6   1 3209.88 496.956   2
  14   6   1 4022.95 528.512   3
 -14  -6   2 1612.46 407.723   2
  14   6   2 1717.77 384.687   3
 -14  -6   3 1423.14 438.567   2
  14   6   3 1986.91 453.339   3
  14  -7  -2 12361.1 955.339   1
 -14  -7  -2 11617.2 925.520   2
 -14  -7  -1 3757.03 547.566   2
  14  -7  -1 3167.30 468.006   1
  14   7  -1 2766.31 460.495   3
 -14  -7   0 11709.8 959.262   2
  14   7   0 12028.3 911.319   3
 -14  -7   1 3514.81 541.839   2
  14   7   1 4191.87 558.696   3
  14   7   2 11070.1 923.707   3
  15   0  -6 59.9825 219.319   1
  15   0  -5-117.352 200.214   1
  15   0  -4-29.7264 236.065   1
  15   0  -3 195.098 224.824   1
  15   0  -2 6.60765 178.803   1
  15   0  -1-53.5130 148.126   1
  15   0   0 443.252 237.492   1
  15   0   1 158.287 171.831   1
 -15   0   1 130.849 155.916   2
 -15   0   2 107.709 175.466   2
  15   0   2-185.700 161.549   1
  15   0   2 158.345 170.156   3
 -15   0   3 174.738 194.128   2
  15   0   3-96.6366 171.525   3
 -15   0   4 44.3721 186.182   2
  15   0   4-228.953 224.369   3
  15   0   5-52.5405 226.593   3
  15   0   6-346.191 234.460   3
  15   1  -6 1185.71 353.018   1
  15  -1  -6 1283.12 372.291   1
  15   1  -5 699.140 271.375   1
  15  -1  -5 369.664 281.744   1
  15   1  -4 7734.83 614.772   1
  15  -1  -4 8938.73 711.735   1
  15   1  -3 1618.83 297.029   1
  15  -1  -3 1193.39 287.977   1
  15   1  -2 10050.4 607.953   1
 -15   1  -2 10677.1 566.661   1
  15  -1  -2 11188.5 684.792   1
  15   1  -1 19929.3 815.773   1
  15  -1  -1 20618.3 832.012   1
 -15   1  -1 19962.9 756.856   1
  15   1   0 43180.0 1171.72   1
  15  -1   0 45433.5 1162.70   1
 -15   1   0 44696.5 1158.12   1
 -15  -1   1 19380.8 806.069   2
 -15   1   1 18877.4 636.868   2
  15   1   1 18944.0 792.147   1
  15  -1   1 17393.6 711.136   1
 -15   1   2 10698.7 505.884   2
 -15  -1   2 10038.7 616.108   2
  15  -1   2 10732.5 556.444   1
  15  -1   2 11035.5 549.051   3
  15   1   2 11170.8 661.877   3
 -15   1   3 1169.07 219.136   2
 -15  -1   3 800.654 252.446   2
  15  -1   3 718.608 203.918   3
  15   1   3 1431.58 300.312   3
  15  -1   4 7508.38 578.744   3
  15   1   4 8661.63 689.651   3
 -15   1   4 8223.26 556.297   2
 -15  -1   4 8994.66 699.973   2
 -15  -1   5 1413.47 380.129   2
  15  -1   5 544.340 259.513   3
  15   1   5 1227.50 367.616   3
  15  -1   6 1867.51 416.896   3
  15   1   6 770.974 334.957   3
 -15  -2  -6 1757.70 431.066   1
  15   2  -5 941.832 292.394   1
  15  -2  -5 1098.81 321.625   1
  15   2  -4 2027.57 352.225   1
  15  -2  -4 1894.27 382.311   1
  15  -2  -3 8473.81 680.180   1
  15   2  -3 8164.31 581.047   1
 -15   2  -3 7635.06 458.775   1
 -15   2  -2 2457.06 281.868   1
  15  -2  -2 1974.36 336.905   1
  15   2  -2 2168.51 315.547   1
  15  -2  -1 1493.07 293.095   1
 -15   2  -1 1501.84 221.624   1
  15   2  -1 1574.03 280.588   1
  15  -2   0 2346.42 303.353   1
  15   2   0 2311.93 349.993   1
 -15   2   1 1632.41 179.839   2
 -15  -2   1 1497.43 305.138   2
  15   2   1 1473.07 267.852   1
  15  -2   1 1525.36 244.336   1
  15  -2   1 1903.29 208.557   3
 -15  -2   2 2989.28 410.680   2
  15  -2   2 2824.56 257.440   3
  15  -2   2 2023.90 248.433   1
  15   2   2 2009.52 350.879   3
 -15   2   2 2319.30 203.867   2
 -15  -2   3 8261.60 656.562   2
  15   2   3 8978.76 680.891   3
  15  -2   3 9395.50 509.166   3
 -15  -2   4 2412.04 444.919   2
  15  -2   4 1949.00 293.568   3
  15   2   4 1673.45 349.538   3
 -15  -2   5 772.041 334.496   2
  15  -2   5 830.180 242.571   3
  15   2   5 1193.92 339.052   3
  15  -3  -5 2805.46 429.789   1
  15  -3  -4 1659.10 379.277   1
  15   3  -4 692.951 233.967   1
  15  -3  -3 7505.44 667.519   1
  15   3  -3 7830.93 566.979   1
  15  -3  -2 8090.18 639.925   1
 -15   3  -2 6815.59 411.880   1
  15   3  -2 6761.47 528.856   1
 -15   3  -1 9421.62 515.924   1
  15  -3  -1 10283.4 500.976   3
  15   3  -1 10035.8 635.044   1
  15  -3  -1 10791.0 667.712   1
  15  -3   0 4430.66 398.124   1
  15   3   0 4429.99 436.285   1
 -15  -3   0 4431.21 495.872   2
 -15  -3   1 9970.41 684.068   2
  15  -3   1 10160.2 315.339   3
  15  -3   1 10143.8 548.265   1
 -15  -3   2 8035.27 666.740   2
  15  -3   2 7304.59 288.638   3
  15  -3   2 7697.78 438.740   1
  15   3   2 7499.18 629.802   3
 -15  -3   3 7217.74 662.635   2
  15  -3   3 8113.90 397.703   3
  15   3   3 7577.79 666.331   3
 -15  -3   4 1126.87 368.402   2
  15   3   4 1061.92 343.161   3
 -15  -3   5 2588.09 491.612   2
  15   3   5 2636.61 486.365   3
  15  -4  -4 2931.05 500.098   1
  15   4  -3 3909.57 428.220   1
  15  -4  -3 3912.80 524.553   1
  15   4  -2 1915.71 313.104   1
  15  -4  -2 2093.31 389.069   1
  15  -4  -1 5047.21 336.847   3
 -15   4  -1 6360.83 444.159   1
  15   4  -1 4934.85 483.580   1
 -15   4  -1 5108.78 372.133   2
  15  -4  -1 5571.88 512.649   1
 -15   4   0 8069.41 305.433   2
 -15  -4   0 9344.54 713.570   2
  15  -4   0 7519.43 243.739   3
  15  -4   0 8290.26 565.231   1
 -15  -4   1 4459.40 506.027   2
  15  -4   1 5665.49 418.591   1
  15   4   1 4944.49 521.965   3
 -15  -4   2 1593.24 376.873   2
  15  -4   2 1871.88 218.347   1
  15   4   2 1953.77 385.664   3
 -15  -4   3 3778.20 525.820   2
  15   4   3 4151.94 549.727   3
 -15  -4   4 2463.69 473.620   2
  15   4   4 3037.35 531.070   3
  15  -5  -4 1466.04 415.099   1
  15  -5  -3 949.466 344.189   1
  15  -5  -2 5542.07 599.846   1
 -15  -5  -1 2226.68 446.581   2
  15  -5  -1 1755.68 344.128   1
  15  -5   0 326.069 183.587   1
 -15  -5   0 346.604 278.966   2
  15  -5   1 2006.25 271.114   1
 -15  -5   1 990.910 321.686   2
  15   5   1 1585.60 382.212   3
 -15  -5   2 4406.44 585.427   2
  15   5   2 4682.13 586.100   3
 -15  -5   3 677.558 305.444   2
  15   5   3 862.266 287.111   3
 -15  -5   4 847.479 405.256   2
  15   5   4 1213.07 381.563   3
  15  -6  -3 7123.99 764.272   1
 -15  -6  -2 4940.56 615.629   2
  15  -6  -2 4679.28 607.692   1
  15  -6  -1 7983.44 682.045   1
 -15  -6  -1 8956.91 777.081   2
  15  -6   0 138.915 179.912   1
 -15  -6   0 517.920 292.875   2
  15   6   0 602.019 287.536   3
 -15  -6   1 8336.12 788.414   2
  15   6   1 8456.36 756.410   3
 -15  -6   2 5419.65 657.720   2
  15   6   2 3915.15 549.060   3
 -15  -6   3 7786.74 838.392   2
  15   6   3 8501.12 834.997   3
 -15  -7  -2 2376.66 490.271   2
  15  -7  -2 2177.78 435.600   1
 -15  -7  -1 10151.7 902.708   2
  15   7  -1 10575.5 844.274   3
 -15  -7   0 992.651 354.661   2
  15   7   0 996.578 356.952   3
 -15  -7   1 9226.03 882.602   2
  15   7   1 10448.2 904.570   3
  15   7   2 2052.33 470.623   3
  16   0  -6 8680.33 824.980   1
  16   0  -5 7419.74 703.491   1
  16   0  -4 6062.02 602.130   1
  16   0  -3 6976.98 596.864   1
  16   0  -2 17939.4 848.463   1
  16   0  -1 38412.7 1160.35   1
  16   0   0 5630.66 459.879   1
 -16   0   1 37400.4 1044.66   2
  16   0   1 37608.4 1108.61   1
 -16   0   2 17791.4 754.518   2
  16   0   2 19631.3 820.826   1
  16   0   2 17790.1 779.917   3
 -16   0   3 6713.89 515.912   2
  16   0   3 7712.31 569.848   3
 -16   0   4 4474.71 480.031   2
  16   0   4 4562.02 492.224   3
  16   0   5 6626.94 651.912   3
  16   0   6 7866.79 772.659   3
  16   1  -6 6283.86 673.094   1
  16  -1  -6 5436.52 680.925   1
 -16  -1  -6 6059.91 682.532   1
  16   1  -5 2112.34 411.328   1
  16  -1  -5 1502.71 381.374   1
  16   1  -4 4468.90 497.691   1
  16  -1  -4 3913.91 496.314   1
  16   1  -3 11154.6 708.921   1
  16  -1  -3 11773.9 777.525   1
  16   1  -2 6841.19 529.128   1
  16  -1  -2 8006.90 600.848   1
  16  -1  -1 263.339 180.131   1
  16   1  -1-153.802 194.880   1
  16   1   0 3304.94 367.410   1
  16  -1   0 2779.85 340.328   1
 -16  -1   1 213.903 225.579   2
 -16   1   1 290.059 164.938   2
  16   1   1 46.8868 182.343   1
  16  -1   1 45.4110 157.070   1
 -16   1   2 8092.49 457.039   2
 -16  -1   2 6712.38 528.905   2
  16   1   2 8199.63 588.095   3
  16  -1   2 7387.71 489.264   1
  16  -1   2 8574.48 508.948   3
 -16  -1   3 11947.2 728.164   2
  16  -1   3 12357.3 660.444   3
  16   1   3 11453.2 734.241   3
 -16   1   3 11966.8 603.021   2
 -16  -1   4 4189.24 498.614   2
  16  -1   4 4504.36 456.636   3
  16   1   4 4498.84 525.319   3
 -16   1   4 5265.94 473.553   2
 -16  -1   5 2284.56 449.825   2
  16  -1   5 1832.44 344.792   3
  16   1   5 1595.83 372.033   3
  16  -1   6 6454.42 684.020   3
 -16  -2  -6 5468.33 677.080   1
  16   2  -5 2669.82 419.994   1
  16  -2  -5 2371.52 452.757   1
  16   2  -4 3802.75 458.505   1
  16  -2  -4 4703.61 572.700   1
  16   2  -3 7116.12 568.846   1
  16  -2  -3 6822.63 613.844   1
  16   2  -2 5979.24 501.350   1
 -16   2  -2 6083.88 432.606   1
  16  -2  -2 6062.12 550.497   1
 -16   2  -1 7879.08 492.351   1
  16   2  -1 6363.23 508.417   1
  16  -2  -1 6868.01 535.080   1
  16   2   0 29395.5 1047.42   1
  16  -2   0 28327.0 967.206   1
 -16   2   1 8214.14 380.872   2
 -16  -2   1 7892.28 599.060   2
  16   2   1 7652.08 567.011   1
  16  -2   1 7793.86 494.186   1
 -16   2   2 6484.77 340.923   2
 -16  -2   2 6284.29 563.823   2
  16  -2   2 6298.91 380.316   3
  16  -2   2 5756.84 422.428   1
  16   2   2 7302.29 610.200   3
 -16  -2   3 6641.46 607.811   2
  16  -2   3 6785.82 443.809   3
  16   2   3 7152.66 622.364   3
 -16   2   3 6577.52 385.790   2
 -16  -2   4 5485.38 595.130   2
  16  -2   4 4568.74 421.051   3
  16   2   4 5182.02 598.480   3
 -16  -2   5 1583.66 408.663   2
  16  -2   5 2605.19 382.621   3
  16   2   5 2430.09 469.862   3
  16  -3  -5 714.474 374.547   1
  16  -3  -4 1847.11 395.725   1
  16   3  -4 1985.82 353.746   1
  16  -3  -3 15105.2 935.501   1
  16   3  -3 15452.9 813.183   1
 -16   3  -2 18525.5 702.982   1
  16   3  -2 18721.5 870.923   1
  16  -3  -2 19043.4 966.307   1
  16   3  -1 9235.91 629.429   1
  16  -3  -1 8751.82 477.719   3
  16  -3  -1 9139.04 641.670   1
 -16  -3   0 6796.25 619.908   2
  16   3   0 6733.79 556.729   1
  16  -3   0 6720.73 500.302   1
 -16   3   1 8338.65 242.534   2
 -16  -3   1 8896.51 675.683   2
  16  -3   1 9274.07 532.358   1
  16  -3   1 9654.22 337.389   3
 -16  -3   2 20095.1 1028.69   2
  16  -3   2 18655.6 487.370   3
  16  -3   2 19641.3 714.276   1
  16   3   2 19184.0 997.456   3
 -16  -3   3 15806.1 976.001   2
  16  -3   3 15756.4 556.294   3
  16   3   3 15099.4 941.090   3
 -16  -3   4 2340.16 461.622   2
  16   3   4 2177.92 443.536   3
 -16  -3   5 705.889 379.997   2
  16   3   5 802.705 284.605   3
  16  -4  -4 1074.86 348.742   1
  16   4  -3 501.733 236.741   1
  16  -4  -3 23.9021 224.267   1
  16   4  -2 2782.08 365.206   1
  16  -4  -2 2819.43 416.074   1
  16   4  -1 17461.9 875.536   1
  16  -4  -1 18296.4 636.507   3
 -16   4  -1 18919.8 712.708   2
  16  -4  -1 19705.8 950.090   1
  16  -4   0 70.8160 161.336   1
 -16   4   0 328.776 79.6780   2
  16  -4   0 268.387 61.9345   3
 -16  -4   1 18377.6 1012.28   2
  16   4   1 18237.7 973.587   3
  16  -4   1 19021.4 770.456   1
 -16  -4   2 2750.10 449.175   2
  16  -4   2 3241.24 299.298   1
  16   4   2 3044.62 470.320   3
 -16  -4   3-305.336 297.772   2
  16   4   3-260.726 240.297   3
 -16  -4   4 1759.93 433.776   2
  16   4   4 1425.02 394.787   3
  16  -5  -3 1827.80 424.679   1
  16  -5  -2 966.467 324.351   1
  16  -5  -1 1769.24 350.600   1
 -16  -5  -1 2195.75 440.759   2
 -16  -5   0 7555.82 696.550   2
  16  -5   0 8613.75 607.291   1
  16  -5   1 1874.11 267.476   1
 -16  -5   1 1537.12 374.836   2
  16   5   1 2428.38 431.695   3
 -16  -5   2 600.038 274.244   2
  16   5   2 785.693 314.393   3
 -16  -5   3 1953.58 446.374   2
  16   5   3 2310.67 468.891   3
  16  -6  -3 1915.07 443.328   1
 -16  -6  -2 691.366 300.936   2
  16  -6  -2 968.687 400.429   1
 -16  -6  -1 368.226 300.019   2
  16  -6  -1 492.779 280.299   1
 -16  -6   0 7309.74 731.614   2
  16   6   0 6667.13 669.807   3
  16  -6   0 8107.80 621.248   1
 -16  -6   1 222.314 278.688   2
  16   6   1 171.241 236.902   3
 -16  -6   2 1025.59 385.865   2
  16   6   2 642.397 329.218   3
  16   6   3 1199.97 341.947   3
 -16  -7  -2 2858.92 560.474   2
  16  -7  -2 1987.06 469.558   1
 -16  -7  -1 8818.21 854.948   2
  16   7  -1 8509.12 773.484   3
 -16  -7   0 1567.54 423.205   2
  16   7   0 1334.84 390.901   3
 -16  -7   1 10169.2 952.359   2
  16   7   1 8845.13 830.348   3
  17   0  -6-3.33340 264.219   1
  17   0  -5 61.8776 256.461   1
  17   0  -4 66.6237 234.112   1
  17   0  -3-345.296 276.879   1
  17   0  -2-66.8853 199.762   1
  17   0  -1 124.388 203.772   1
  17   0   0 233.817 225.403   1
 -17   0   1 177.054 185.021   2
  17   0   1 121.087 200.277   1
 -17   0   2 287.973 210.118   2
  17   0   2 106.907 216.634   1
  17   0   2-188.503 193.803   3
 -17   0   3-71.3726 180.225   2
  17   0   3 100.607 165.442   3
 -17   0   4 37.5362 187.419   2
  17   0   4 269.203 218.840   3
 -17   0   5-122.732 223.973   2
  17   0   5 276.919 258.684   3
  17   0   6 426.438 322.116   3
 -17  -1  -6 15830.3 1078.39   1
  17   1  -6 15890.9 1100.92   1
  17   1  -5 3469.16 501.429   1
  17  -1  -5 3379.29 558.382   1
  17   1  -4 2897.30 438.632   1
  17  -1  -4 2898.54 439.947   1
  17   1  -3 1976.44 281.061   1
  17  -1  -3 2046.72 422.888   1
  17   1  -2 35341.3 1205.62   1
  17  -1  -2 36805.4 1259.92   1
  17   1  -1 9741.22 629.793   1
  17  -1  -1 9836.40 630.356   1
  17   1   0 27770.3 1029.52   1
  17  -1   0 27641.7 961.576   1
 -17  -1   1 10171.4 624.983   2
 -17   1   1 9928.48 513.178   2
  17   1   1 10037.6 631.936   1
  17  -1   1 9991.72 584.219   1
 -17   1   2 38453.3 1009.77   2
 -17  -1   2 36929.6 1212.28   2
  17   1   2 38964.4 1251.21   1
  17  -1   2 38166.9 1120.28   1
  17  -1   2 38800.5 1072.92   3
  17   1   2 36902.1 1232.39   3
 -17   1   3 1776.31 271.450   2
 -17  -1   3 2026.77 338.371   2
  17  -1   3 1209.94 256.343   3
  17   1   3 1888.75 341.231   3
 -17   1   4 2958.26 365.164   2
 -17  -1   4 3696.90 506.738   2
  17  -1   4 3087.52 391.040   3
  17   1   4 3007.78 424.212   3
 -17  -1   5 3462.01 522.631   2
  17  -1   5 3080.74 432.164   3
  17   1   5 2842.83 484.921   3
  17  -1   6 16534.2 1061.63   3
  17  -2  -5 6071.31 701.567   1
  17   2  -5 6858.44 642.866   1
  17   2  -4 2807.43 411.528   1
  17  -2  -4 2603.86 451.103   1
  17   2  -3 6169.28 540.796   1
  17  -2  -3 5835.81 591.315   1
  17  -2  -2 1966.90 359.108   1
  17   2  -2 2191.50 364.324   1
  17  -2  -1 3223.46 400.333   1
  17   2  -1 2803.67 375.420   1
  17   2   0 4560.53 448.182   1
  17  -2   0 4482.44 421.918   1
 -17   2   1 3996.88 288.344   2
 -17  -2   1 3996.28 454.708   2
  17   2   1 3388.58 420.936   1
  17  -2   1 3657.33 369.637   1
 -17   2   2 1599.24 198.466   2
 -17  -2   2 2532.65 410.064   2
  17  -2   2 1574.02 257.543   1
  17  -2   2 1775.13 223.453   3
  17   2   2 2125.12 383.958   3
 -17  -2   3 5449.76 559.395   2
  17  -2   3 6695.77 451.426   3
  17   2   3 6572.42 614.193   3
 -17   2   3 6803.46 398.087   2
 -17  -2   4 3887.96 534.859   2
  17  -2   4 2821.28 348.358   3
  17   2   4 3426.35 502.196   3
  17   2   5 6503.10 712.536   3
 -17  -2   5 7462.44 766.003   2
  17  -3  -5 688.469 363.358   1
  17  -3  -4 8491.54 790.790   1
  17   3  -4 8056.89 630.785   1
  17  -3  -3 4850.77 570.742   1
  17   3  -3 5648.40 531.849   1
  17  -3  -2 4208.61 482.419   1
  17   3  -2 4480.61 467.939   1
  17  -3  -1 3311.23 407.670   1
  17   3  -1 3213.11 418.450   1
  17  -3  -1 3696.95 326.003   3
 -17  -3   0 76727.1 1923.82   2
  17   3   0 76226.9 1814.17   1
  17  -3   0 75367.7 1665.51   1
 -17   3   1 4011.36 193.893   2
 -17  -3   1 4240.92 495.895   2
  17  -3   1 4301.26 251.054   3
  17  -3   1 3837.40 366.749   1
 -17  -3   2 4488.04 532.669   2
  17  -3   2 4617.26 262.906   3
  17  -3   2 4855.01 393.171   1
  17   3   2 4697.01 548.044   3
 -17  -3   3 5265.22 593.886   2
  17  -3   3 5178.57 333.156   3
  17   3   3 5624.06 598.322   3
  17   3   4 9310.43 812.201   3
 -17  -3   4 9023.71 817.900   2
 -17  -3   5 977.625 384.994   2
  17   3   5 462.312 349.277   3
  17  -4  -4 1974.11 462.446   1
  17  -4  -3 11758.2 886.276   1
  17   4  -3 12532.1 765.906   1
  17   4  -2 9116.25 652.793   1
  17  -4  -2 9018.82 721.673   1
  17   4  -1 10510.6 712.258   1
  17  -4  -1 11762.2 757.280   1
  17  -4   0 351.602 235.530   1
 -17  -4   0 376.576 247.013   2
 -17  -4   1 10895.2 815.367   2
  17   4   1 10978.1 785.515   3
  17  -4   1 12133.0 641.687   1
 -17  -4   2 9700.56 797.832   2
  17   4   2 8818.82 742.933   3
  17  -4   2 9570.98 510.869   1
 -17  -4   3 13234.3 970.774   2
  17   4   3 12417.8 920.803   3
 -17  -4   4 1833.76 439.291   2
  17   4   4 1605.90 435.905   3
  17  -5  -3 1125.11 332.412   1
  17  -5  -2 821.693 328.701   1
  17  -5  -1 1915.46 368.516   1
 -17  -5  -1 2441.09 483.872   2
  17  -5   0 399.712 206.936   1
 -17  -5   0 446.088 275.929   2
  17  -5   1 2444.81 310.069   1
 -17  -5   1 1534.45 405.364   2
  17   5   1 1861.73 410.769   3
 -17  -5   2 1625.48 398.208   2
  17   5   2 1245.42 365.645   3
 -17  -5   3 1331.64 398.034   2
  17   5   3 2425.25 512.972   3
  17  -6  -3 9270.38 882.427   1
 -17  -6  -2 399.272 289.611   2
  17  -6  -2 334.778 232.987   1
 -17  -6  -1 8147.83 775.808   2
  17  -6  -1 7613.08 700.192   1
  17  -6   0 166.394 181.231   1
 -17  -6   0-514.956 388.249   2
  17   6   0-58.6748 251.606   3
 -17  -6   1 8792.49 840.294   2
  17   6   1 8695.80 811.710   3
 -17  -6   2 834.992 392.860   2
  17   6   2 240.650 292.886   3
  17  -7  -2 2440.05 495.931   1
 -17  -7  -1 5814.52 715.307   2
  17   7  -1 4696.28 618.289   3
 -17  -7   0 3777.50 606.366   2
  17   7   0 2164.86 483.566   3
  17   7   1 5325.55 673.996   3
  18   0  -6 3067.81 556.483   1
  18   0  -5 10212.9 846.852   1
  18   0  -4 15121.1 946.250   1
  18   0  -3 12133.9 785.382   1
  18   0  -2 2882.76 406.934   1
  18   0  -1 35346.8 1196.69   1
  18   0   0 24460.5 950.984   1
 -18   0   1 37190.1 1103.80   2
  18   0   1 36420.4 1161.47   1
 -18   0   2 3199.26 369.429   2
  18   0   2 3013.76 379.429   1
  18   0   2 3228.30 393.168   3
 -18   0   3 13376.6 727.774   2
  18   0   3 11815.1 723.445   3
  18   0   4 15435.6 901.496   3
 -18   0   4 15651.0 862.279   2
  18   0   5 11065.7 848.664   3
 -18   0   5 9714.47 767.340   2
  18   0   6 1362.93 357.689   3
  18   1  -6 2216.54 465.561   1
  18   1  -5 3316.21 497.589   1
  18  -1  -5 3566.30 549.958   1
  18   1  -4 816.223 317.419   1
  18  -1  -4 1262.79 354.391   1
  18   1  -3 8195.94 642.337   1
  18  -1  -3 11324.5 793.355   1
  18   1  -2 21297.3 966.739   1
  18  -1  -2 22577.0 1011.54   1
  18   1  -1 5453.45 508.726   1
  18  -1  -1 5336.89 507.615   1
  18   1   0 7269.97 559.603   1
  18  -1   0 6388.43 508.206   1
 -18   1   1 4946.85 397.395   2
 -18  -1   1 5311.14 487.514   2
  18   1   1 5664.38 503.138   1
  18  -1   1 5212.68 448.028   1
 -18   1   2 21375.2 778.786   2
 -18  -1   2 20539.9 934.395   2
  18   1   2 20327.5 932.513   1
  18  -1   2 20443.0 853.961   1
  18  -1   2 22105.4 835.313   3
  18   1   2 20596.0 943.894   3
 -18  -1   3 8934.26 662.871   2
  18  -1   3 9416.49 604.886   3
  18   1   3 9364.75 687.680   3
 -18   1   3 9366.46 562.510   2
 -18   1   4 1187.93 261.836   2
 -18  -1   4 1163.82 318.265   2
  18  -1   4 1134.61 264.558   3
  18   1   4 1835.83 394.842   3
 -18  -1   5 3399.33 522.667   2
  18  -1   5 3203.87 457.398   3
  18   1   5 3806.85 543.061   3
  18   2  -5 4339.09 528.964   1
  18  -2  -5 3321.42 547.044   1
  18  -2  -4 879.620 362.292   1
  18   2  -4 1706.12 353.497   1
  18  -2  -3 2515.85 437.592   1
  18   2  -3 1632.64 322.736   1
  18   2  -2 9883.72 667.329   1
  18  -2  -2 9981.33 728.987   1
  18   2  -1 11137.1 698.703   1
  18  -2  -1 11318.0 715.369   1
  18   2   0 5800.47 514.315   1
  18  -2   0 4735.25 450.560   1
 -18   2   1 11401.2 493.793   2
 -18  -2   1 10844.3 720.157   2
  18   2   1 10474.9 701.082   1
  18  -2   1 11543.3 644.048   1
 -18   2   2 10476.6 461.394   2
 -18  -2   2 9861.77 704.445   2
  18  -2   2 10836.7 521.416   3
  18  -2   2 11252.6 614.051   1
  18   2   2 10854.5 745.476   3
 -18   2   3 2405.16 256.498   2
 -18  -2   3 2416.68 406.963   2
  18  -2   3 2337.69 298.550   3
  18   2   3 1886.18 360.128   3
 -18  -2   4 904.234 311.633   2
  18  -2   4 1402.41 254.518   3
  18   2   4 1319.96 376.946   3
 -18  -2   5 3797.37 555.159   2
  18   2   5 3762.96 578.526   3
  18  -3  -4 7957.04 782.108   1
  18   3  -4 6391.18 574.777   1
  18  -3  -3 1009.53 352.327   1
  18   3  -3 892.209 284.555   1
  18  -3  -2 2478.21 424.759   1
  18   3  -2 3663.16 451.720   1
  18  -3  -1 7772.52 472.319   3
  18   3  -1 8241.45 626.983   1
  18  -3  -1 9589.68 671.874   1
 -18  -3   0 8257.97 680.176   2
  18   3   0 8687.64 653.486   1
  18  -3   0 7507.51 558.922   1
 -18   3   1 8038.79 298.631   2
 -18  -3   1 7963.85 663.042   2
  18  -3   1 8018.25 360.468   3
  18  -3   1 7121.66 508.787   1
 -18  -3   2 3347.60 481.106   2
  18  -3   2 2438.75 211.293   3
  18  -3   2 3312.58 348.097   1
  18   3   2 2954.36 442.194   3
 -18  -3   3 1409.63 353.265   2
  18   3   3 1048.05 323.850   3
 -18  -3   4 7201.91 729.704   2
  18   3   4 5714.05 654.888   3
 -18  -3   5 2789.92 527.061   2
  18  -4  -4 4997.08 675.234   1
  18  -4  -3 8126.72 780.316   1
  18   4  -3 7947.94 640.733   1
  18  -4  -2 1519.45 354.984   1
  18   4  -2 617.540 264.362   1
  18  -4  -1 1661.59 345.124   1
  18   4  -1 680.945 273.013   1
  18  -4   0 2880.46 379.428   1
 -18  -4   0 3688.52 503.282   2
 -18  -4   1 779.904 287.633   2
  18   4   1 1332.19 345.626   3
  18  -4   1 915.047 202.325   1
 -18  -4   2 1760.94 395.649   2
  18  -4   2 945.740 209.677   1
  18   4   2 1309.08 348.119   3
 -18  -4   3 9184.15 825.914   2
  18   4   3 8260.94 770.359   3
 -18  -4   4 4884.53 649.535   2
  18   4   4 5455.05 693.135   3
  18  -5  -3 680.095 347.172   1
  18   5  -2 9369.25 693.256   1
  18  -5  -2 9832.46 827.761   1
  18  -5  -1 3705.44 497.242   1
 -18  -5  -1 4243.08 571.067   2
 -18  -5   0 8562.38 766.593   2
  18  -5   0 9516.53 667.525   1
 -18  -5   1 3961.02 543.906   2
  18  -5   1 4485.73 412.371   1
  18   5   1 4484.39 577.248   3
 -18  -5   2 9881.58 882.598   2
  18   5   2 7929.61 770.032   3
 -18  -5   3 471.905 287.268   2
  18   5   3 720.718 395.624   3
 -18  -6  -2 529.961 311.331   2
  18  -6  -2 730.718 350.845   1
  18  -6  -1-274.984 251.173   1
 -18  -6  -1 323.948 279.229   2
  18  -6   0 943.758 263.128   1
 -18  -6   0 613.459 299.761   2
  18   6   0 1330.43 351.275   3
 -18  -6   1 760.402 360.570   2
  18   6   1-81.1669 244.475   3
 -18  -6   2 293.240 289.133   2
  18   6   2 245.515 256.121   3
  18   7  -1 376.774 249.416   3
  18   7   0 1319.89 357.274   3
  19   0  -5 165.144 250.093   1
  19   0  -4 97.8494 258.745   1
  19   0  -3 55.0500 219.072   1
  19   0  -2-10.4227 214.783   1
  19   0  -1 4.74903 219.116   1
  19   0   0 49.3682 228.029   1
 -19   0   1 120.143 224.644   2
  19   0   1 920.679 295.524   1
 -19   0   2 296.308 193.675   2
  19   0   2-63.8902 190.265   1
  19   0   2 143.027 198.203   3
 -19   0   3-206.187 202.976   2
  19   0   3 100.036 197.560   3
 -19   0   4 159.270 218.088   2
  19   0   4-138.906 205.422   3
 -19   0   5 420.948 303.782   2
  19   0   5-146.728 261.801   3
  19   1  -5 2815.52 480.319   1
  19  -1  -5 3851.43 594.860   1
  19   1  -4 15592.9 949.101   1
  19  -1  -4 16021.0 1024.04   1
  19   1  -3 2962.22 433.851   1
  19  -1  -3 4843.35 562.878   1
  19   1  -2 18550.7 926.268   1
  19  -1  -2 17715.1 926.184   1
  19   1  -1 12148.8 743.024   1
  19  -1  -1 13252.3 769.807   1
  19   1   0 16092.2 834.192   1
  19  -1   0 15412.1 783.829   1
 -19  -1   1 13313.2 756.334   2
 -19   1   1 13861.2 649.669   2
  19   1   1 11914.4 725.700   1
  19  -1   1 11239.1 663.316   1
 -19   1   2 19711.9 770.944   2
 -19  -1   2 19633.0 934.290   2
  19   1   2 19563.1 947.155   1
  19  -1   2 19427.8 861.213   1
  19  -1   2 20033.5 825.638   3
  19   1   2 18694.7 931.020   3
 -19  -1   3 3919.13 472.729   2
  19  -1   3 3683.89 402.709   3
  19   1   3 2517.80 400.809   3
 -19   1   3 3813.54 383.724   2
  19  -1   4 17792.7 911.055   3
  19   1   4 16047.8 987.226   3
 -19   1   4 17334.3 849.007   2
 -19  -1   4 15239.3 951.114   2
 -19  -1   5 3349.87 555.893   2
  19  -1   5 2096.49 385.002   3
  19   1   5 3379.56 522.980   3
  19  -2  -5 1702.70 446.768   1
  19   2  -5 763.043 288.503   1
  19  -2  -4 842.304 350.127   1
  19   2  -4 482.593 293.021   1
  19  -2  -3 2614.67 429.471   1
  19   2  -3 1995.07 376.875   1
  19  -2  -2 2693.99 417.259   1
  19   2  -2 1768.66 329.703   1
  19   2  -1 5221.72 516.976   1
  19  -2  -1 5388.88 525.923   1
  19  -2   0 1085.08 292.858   1
  19   2   0 499.342 251.640   1
 -19   2   1 4989.11 352.217   2
 -19  -2   1 4590.40 524.620   2
  19  -2   1 3926.80 410.780   1
 -19   2   2 2290.11 239.052   2
 -19  -2   2 1730.16 348.522   2
  19  -2   2 2222.42 310.838   1
  19  -2   2 1572.28 233.586   3
  19   2   2 2182.76 382.930   3
 -19   2   3 2647.87 263.732   2
 -19  -2   3 3264.13 459.816   2
  19  -2   3 2898.31 320.811   3
  19   2   3 3137.86 461.072   3
 -19  -2   4 832.667 305.730   2
  19  -2   4 784.171 214.221   3
  19   2   4 405.385 301.822   3
 -19  -2   5 1039.85 353.036   2
  19   2   5 787.032 314.773   3
  19   3  -4 17544.5 981.867   1
  19  -3  -4 18846.9 1189.11   1
  19  -3  -3 3046.96 501.845   1
  19   3  -3 3321.22 444.749   1
  19   3  -2 9805.02 706.040   1
  19  -3  -2 10156.8 775.368   1
  19   3  -1 7046.55 605.205   1
  19  -3  -1 8388.23 650.703   1
  19  -3   0 1758.18 314.248   1
 -19  -3   0 1795.51 395.705   2
  19   3   0 2664.22 410.592   1
 -19   3   1 7769.37 320.838   2
 -19  -3   1 7865.44 678.647   2
  19  -3   1 7630.47 370.538   3
  19  -3   1 7546.64 533.577   1
 -19  -3   2 10931.4 804.685   2
  19  -3   2 10562.5 431.310   3
  19  -3   2 11324.9 615.835   1
  19   3   2 9488.03 749.939   3
 -19  -3   3 2872.13 485.305   2
  19   3   3 3351.62 482.264   3
  19   3   4 18329.5 1159.49   3
 -19  -3   4 18962.5 1184.63   2
  19  -4  -4 7666.68 822.063   1
  19   4  -3 6457.21 597.180   1
  19  -4  -3 8393.25 786.602   1
  19  -4  -2 2155.34 402.184   1
  19   4  -2 1321.22 318.887   1
  19   4  -1 9451.27 719.833   1
  19  -4  -1 9926.89 740.364   1
  19  -4   0 3104.79 399.764   1
 -19  -4   0 2841.51 512.830   2
 -19  -4   1 9970.10 796.978   2
  19   4   1 8899.43 733.139   3
  19  -4   1 10578.2 644.573   1
 -19  -4   2 1243.48 373.250   2
  19  -4   2 1850.21 270.058   1
  19   4   2 1562.31 383.225   3
 -19  -4   3 6498.42 725.472   2
  19   4   3 6479.91 707.109   3
 -19  -4   4 5726.08 730.976   2
  19   4   4 6053.68 736.326   3
  19  -5  -3 1908.36 418.544   1
  19   5  -2 1006.56 342.312   1
  19  -5  -2 1223.60 337.260   1
  19  -5  -1 1131.53 340.707   1
 -19  -5  -1 1380.08 376.638   2
 -19  -5   0 9609.94 828.282   2
  19  -5   0 8799.52 658.757   1
 -19  -5   1 974.087 350.373   2
  19   5   1 685.761 279.344   3
  19  -5   1 1163.91 233.729   1
 -19  -5   2 1460.44 417.895   2
  19   5   2 864.016 356.635   3
 -19  -5   3 1117.22 380.702   2
  19   5   3 1032.77 404.243   3
  19  -6  -2 1815.43 448.527   1
 -19  -6  -2 1599.74 474.695   2
  19  -6  -1 5982.09 654.867   1
 -19  -6  -1 5902.78 699.059   2
 -19  -6   0 2398.44 467.635   2
  19   6   0 2454.93 458.496   3
 -19  -6   1 5532.65 706.466   2
  19   6   1 6658.11 738.646   3
  19   6   2 1897.09 498.926   3
  20   0  -5 6582.90 715.797   1
  20   0  -4 839.627 322.125   1
  20   0  -3 16286.5 949.876   1
  20   0  -2 5467.69 535.695   1
  20   0  -1 37872.7 1291.07   1
  20   0   0 21525.0 964.733   1
 -20   0   1 36508.0 1170.21   2
  20   0   1 37452.8 1258.02   1
 -20   0   2 6545.20 517.221   2
  20   0   2 5226.27 503.172   1
  20   0   2 6115.48 525.914   3
 -20   0   3 14588.7 802.238   2
  20   0   3 15294.4 847.126   3
 -20   0   4 912.277 279.615   2
  20   0   4 385.277 220.965   3
  20   0   5 7024.98 700.738   3
 -20   0   5 7304.80 678.065   2
  20   1  -5 545.117 264.463   1
  20  -1  -5 188.369 286.249   1
  20   1  -4 1762.82 398.352   1
  20  -1  -4 1497.11 365.755   1
  20   1  -3 2528.00 406.728   1
  20  -1  -3 1357.32 355.133   1
  20   1  -2 12656.4 792.568   1
  20  -1  -2 12423.6 804.243   1
  20   1  -1 6457.23 564.102   1
  20  -1  -1 7450.34 615.461   1
  20   1   0 2495.45 391.780   1
  20  -1   0 1423.10 295.718   1
 -20  -1   1 6957.22 574.114   2
 -20   1   1 7098.90 486.766   2
  20   1   1 6379.47 563.488   1
  20  -1   1 6602.42 544.859   1
 -20   1   2 11996.1 622.978   2
 -20  -1   2 12360.5 753.225   2
  20   1   2 12038.3 764.947   1
  20  -1   2 11224.7 678.300   1
  20  -1   2 12726.2 677.243   3
  20   1   2 11003.8 733.209   3
 -20   1   3 2101.08 304.864   2
 -20  -1   3 1976.38 363.657   2
  20  -1   3 2103.37 331.363   3
  20   1   3 2811.59 428.104   3
 -20   1   4 1805.94 313.645   2
 -20  -1   4 1677.23 368.365   2
  20  -1   4 2025.95 354.945   3
  20   1   4 1689.22 387.046   3
 -20  -1   5 209.430 296.401   2
  20  -1   5 683.808 295.355   3
  20   1   5 625.542 347.425   3
  20   2  -5 6389.15 664.359   1
  20  -2  -4 714.270 334.658   1
  20   2  -4 77.6705 217.822   1
  20  -2  -3 5147.74 604.641   1
  20   2  -3 5592.19 574.336   1
  20  -2  -2 1909.67 337.569   1
  20   2  -2 2974.61 427.861   1
  20   2  -1 30699.1 1209.75   1
  20  -2  -1 28343.5 1158.26   1
  20  -2   0 154.641 182.189   1
  20   2   0-183.282 221.753   1
 -20   2   1 29027.6 842.357   2
 -20  -2   1 29230.0 1210.65   2
  20   2   1 32004.7 1261.16   1
  20  -2   1 30070.3 1084.08   1
 -20   2   2 2610.82 268.503   2
 -20  -2   2 2453.69 392.938   2
  20  -2   2 2192.77 321.525   1
  20  -2   2 2955.10 303.506   3
  20   2   2 2391.23 400.229   3
 -20  -2   3 5059.23 555.815   2
  20  -2   3 5863.24 460.701   3
  20   2   3 5996.93 615.198   3
 -20   2   3 5906.89 400.134   2
 -20  -2   4 467.154 293.095   2
  20  -2   4 443.856 199.066   3
  20   2   4 697.789 304.671   3
 -20  -2   5 6231.12 715.924   2
  20   2   5 7326.70 775.275   3
  20   3  -4 15089.9 934.450   1
  20  -3  -4 18380.3 1194.79   1
  20  -3  -3 1132.23 371.171   1
  20   3  -3 1200.22 329.420   1
  20   3  -2 8675.85 679.712   1
  20  -3  -2 8359.79 701.971   1
  20  -3  -1 1465.54 336.509   1
  20   3  -1 1755.51 358.143   1
 -20  -3   0 16027.4 964.050   2
  20   3   0 15510.8 899.250   1
  20  -3   0 15897.2 848.640   1
 -20   3   1 1262.63 159.752   2
 -20  -3   1 1658.21 394.082   2
  20  -3   1 2268.23 340.160   1
  20  -3   1 1553.18 195.589   3
 -20  -3   2 8176.40 733.276   2
  20  -3   2 8076.34 561.610   1
  20   3   2 7740.66 688.615   3
 -20  -3   3 771.302 285.852   2
  20   3   3 989.813 340.339   3
 -20  -3   4 17840.8 1161.28   2
  20   3   4 17515.1 1148.62   3
  20   4  -3 11019.8 789.660   1
  20  -4  -3 11164.9 916.752   1
  20  -4  -2 2785.24 476.763   1
  20   4  -2 3322.09 471.361   1
  20  -4  -1 5093.55 540.155   1
  20   4  -1 5291.01 555.605   1
 -20  -4   0 8155.66 746.360   2
  20  -4   0 7147.07 591.027   1
 -20  -4   1 5323.79 636.880   2
  20  -4   1 5024.71 462.968   1
  20   4   1 4482.90 554.198   3
 -20  -4   2 3490.67 514.123   2
  20  -4   2 3163.55 348.889   1
  20   4   2 3249.86 526.049   3
 -20  -4   3 10462.8 897.145   2
  20   4   3 11143.3 918.198   3
  20  -5  -3 632.821 361.359   1
  20   5  -2 15539.5 947.559   1
  20  -5  -2 16591.8 1073.15   1
  20  -5  -1 1218.59 350.022   1
 -20  -5  -1 1180.25 401.319   2
  20  -5   0 355.586 227.659   1
 -20  -5   0 213.722 282.137   2
 -20  -5   1 855.778 326.281   2
  20   5   1 1264.25 339.911   3
  20  -5   1 1067.46 251.384   1
 -20  -5   2 15616.1 1122.90   2
  20   5   2 16473.5 1123.07   3
  20   5   3 625.591 338.702   3
  20  -6  -2 443.711 245.917   1
 -20  -6  -2 1439.93 485.881   2
  20  -6  -1 655.761 315.179   1
 -20  -6  -1 962.019 365.555   2
 -20  -6   0-151.287 301.722   2
  20   6   0 72.9715 292.612   3
 -20  -6   1 852.857 309.206   2
  20   6   1-258.118 320.697   3
  21   0  -5-310.387 304.775   1
  21   0  -4 164.787 252.171   1
  21   0  -3 50.4525 236.614   1
  21   0  -2 70.9484 229.190   1
  21   0  -1 235.937 233.030   1
  21   0   0 320.960 236.297   1
 -21   0   1-53.9271 184.100   2
  21   0   1 12.1431 210.788   1
 -21   0   2 174.549 213.427   2
  21   0   2 442.560 224.581   1
  21   0   2-106.927 190.157   3
 -21   0   3-93.1222 175.318   2
  21   0   3 47.8158 186.612   3
 -21   0   4-8.25974 220.301   2
  21   0   4 224.803 231.507   3
 -21   0   5-115.098 208.610   2
  21   0   5 558.186 326.306   3
  21   1  -5-359.795 326.149   1
  21  -1  -5 900.035 384.595   1
  21   1  -4 10335.7 817.800   1
  21  -1  -4 11261.9 893.544   1
  21   1  -3 2692.66 442.114   1
  21  -1  -3 1699.51 389.274   1
  21  -1  -2 1014.30 302.063   1
  21   1  -2 971.203 279.840   1
  21  -1  -1 464.627 184.716   1
  21   1  -1 206.391 221.346   1
  21   1   0 29265.4 1170.45   1
  21  -1   0 29845.2 1145.57   1
 -21  -1   1 715.039 257.780   2
 -21   1   1 469.882 199.399   2
  21   1   1 890.876 293.612   1
  21  -1   1 862.196 265.638   1
 -21   1   2 1099.68 230.860   2
 -21  -1   2 1249.76 307.383   2
  21   1   2 1270.18 322.673   1
  21  -1   2 1302.57 281.196   1
  21  -1   2 1138.76 238.101   3
  21   1   2 1137.71 290.165   3
 -21   1   3 2071.59 318.875   2
 -21  -1   3 2752.89 417.974   2
  21  -1   3 2306.04 333.313   3
  21   1   3 2137.25 392.091   3
  21  -1   4 9691.71 701.834   3
  21   1   4 9599.78 815.904   3
 -21   1   4 10182.4 669.045   2
 -21  -1   4 10190.8 817.741   2
 -21  -1   5 748.524 336.565   2
  21  -1   5 884.979 303.310   3
  21   1   5 448.363 273.008   3
  21   2  -5 2136.53 424.209   1
  21  -2  -4-19.8616 302.229   1
  21   2  -4-261.165 272.345   1
  21  -2  -3 2518.96 466.039   1
  21   2  -3 3067.83 446.040   1
  21  -2  -2 1203.26 321.164   1
  21   2  -2 1384.05 333.711   1
  21   2  -1 15561.5 893.987   1
  21  -2  -1 15444.5 884.366   1
  21   2   0 756.062 258.732   1
  21  -2   0 901.724 243.346   1
 -21   2   1 14647.4 627.535   2
 -21  -2   1 13052.6 844.365   2
  21   2   1 15395.6 911.315   1
  21  -2   1 14407.5 787.695   1
 -21   2   2 1024.35 183.290   2
 -21  -2   2 1112.71 324.449   2
  21  -2   2 883.658 257.743   1
  21  -2   2 1403.16 229.979   3
  21   2   2 1206.09 343.614   3
 -21  -2   3 2771.73 433.135   2
  21  -2   3 3367.19 350.100   3
  21   2   3 3548.44 502.906   3
 -21  -2   4 325.661 259.713   2
  21   2   4 430.830 264.671   3
 -21  -2   5 1292.98 373.339   2
  21  -3  -4 731.140 368.144   1
  21   3  -4 198.595 261.384   1
  21  -3  -3 476.805 287.028   1
  21   3  -3 700.487 290.524   1
  21  -3  -2 5475.75 604.601   1
  21   3  -2 6359.01 605.830   1
  21  -3  -1 686.564 274.561   1
  21   3  -1 1086.20 317.875   1
 -21  -3   0 8623.21 750.473   2
  21   3   0 7923.28 669.455   1
  21  -3   0 8308.05 639.796   1
 -21   3   1 1026.93 155.418   2
 -21  -3   1 482.600 240.116   2
  21  -3   1 804.373 264.244   1
  21  -3   1 944.889 178.877   3
 -21  -3   2 6359.70 655.732   2
  21  -3   2 5919.83 490.197   1
  21   3   2 5465.76 601.964   3
 -21  -3   3 1204.13 396.720   2
  21   3   3 587.299 289.477   3
 -21  -3   4 1111.95 364.672   2
  21   3   4 955.398 356.332   3
  21  -4  -3 4301.31 622.447   1
  21   4  -3 4236.65 522.591   1
  21  -4  -2 528.740 320.164   1
  21   4  -2 663.444 283.343   1
  21  -4  -1 5522.59 585.232   1
  21   4  -1 6498.33 631.843   1
  21  -4   0 2333.72 396.699   1
 -21  -4   0 1904.27 436.323   2
 -21  -4   1 6032.52 675.751   2
  21  -4   1 6041.39 526.302   1
  21   4   1 4971.23 594.400   3
 -21  -4   2 1538.67 421.924   2
  21   4   2 1131.39 368.379   3
 -21  -4   3 4983.96 666.159   2
  21   4   3 3915.36 583.113   3
  21   5  -2 6454.82 642.021   1
  21  -5  -2 6842.37 739.107   1
  21  -5  -1 918.399 305.170   1
 -21  -5  -1 955.393 344.322   2
  21  -5   0-212.953 217.753   1
 -21  -5   0 585.787 374.734   2
 -21  -5   1 1056.52 383.185   2
  21   5   1 824.557 257.276   3
 -21  -5   2 7102.85 790.287   2
  21   5   2 8105.13 838.554   3
  21  -6  -2 1415.06 384.139   1
  21  -6  -1 4241.01 587.139   1
 -21  -6  -1 3865.62 613.837   2
 -21  -6   0-265.283 295.040   2
  21   6   0 496.892 372.805   3
  21   6   1 3539.88 557.451   3
  22   0  -5 13809.0 1044.84   1
  22   0  -4 9979.62 836.354   1
  22   0  -3 6885.01 668.079   1
  22   0  -2 360.342 204.272   1
  22   0  -1 13689.3 828.147   1
  22   0   0 999.853 281.159   1
 -22   0   1 12434.0 731.647   2
  22   0   1 12769.8 791.803   1
 -22   0   2 226.744 190.072   2
  22   0   2 326.836 242.956   1
  22   0   2 356.284 197.067   3
 -22   0   3 7329.68 600.848   2
  22   0   3 6837.11 608.795   3
  22   0   4 11159.7 826.150   3
 -22   0   4 10458.9 760.593   2
  22   0   5 14042.0 985.756   3
  22   1  -5 2317.28 492.062   1
  22   1  -4 1954.26 428.397   1
  22  -1  -4 1455.68 396.285   1
  22  -1  -3 213.515 248.261   1
  22   1  -3 411.605 295.890   1
  22  -1  -2 1801.19 383.977   1
  22   1  -2 2023.31 388.263   1
  22  -1  -1 1745.53 369.462   1
  22   1  -1 1799.32 364.002   1
  22   1   0 11922.7 775.991   1
  22  -1   0 12670.1 786.322   1
 -22  -1   1 2321.53 384.684   2
 -22   1   1 2013.90 304.776   2
  22   1   1 1524.36 322.435   1
  22  -1   1 2340.15 365.508   1
 -22   1   2 2148.50 315.275   2
 -22  -1   2 2041.63 372.910   2
  22   1   2 2330.01 397.515   1
  22  -1   2 2410.13 362.665   1
  22  -1   2 1832.64 299.797   3
  22   1   2 2015.10 351.835   3
 -22   1   3 470.155 187.800   2
 -22  -1   3 419.334 246.153   2
  22  -1   3 345.435 181.797   3
  22   1   3 258.293 198.633   3
 -22  -1   4 3109.11 498.965   2
  22  -1   4 2329.14 367.107   3
  22   1   4 2887.36 480.653   3
 -22  -1   5 4004.48 559.646   2
  22   1   5 2413.90 470.720   3
  22   2  -5 1247.94 375.588   1
  22  -2  -4 1794.66 453.534   1
  22   2  -4 1878.26 409.391   1
  22   2  -3 9679.00 771.402   1
  22  -2  -3 9101.63 807.131   1
  22   2  -2 15302.1 922.430   1
  22  -2  -2 16712.9 996.769   1
  22   2  -1 52511.3 1664.67   1
  22  -2  -1 49733.1 1606.65   1
 -22  -2   0 629.754 298.147   2
  22   2   0 494.377 225.508   1
  22  -2   0 225.005 196.591   1
 -22   2   1 50537.1 1190.27   2
 -22  -2   1 49651.6 1642.26   2
  22   2   1 49321.4 1627.01   1
  22  -2   1 49609.9 1484.08   1
 -22   2   2 17013.4 675.113   2
 -22  -2   2 14417.1 917.054   2
  22  -2   2 15209.1 817.262   1
  22  -2   2 16603.8 733.684   3
  22   2   2 15953.6 967.859   3
 -22  -2   3 7711.64 719.320   2
  22  -2   3 9680.85 600.661   3
  22   2   3 9689.86 800.144   3
 -22  -2   4 1811.12 454.551   2
  22   2   4 1845.83 442.105   3
 -22  -2   5 1031.68 365.687   2
  22   3  -4 9270.57 784.284   1
  22  -3  -4 9059.05 892.965   1
  22  -3  -3 865.905 356.243   1
  22   3  -3 178.404 269.235   1
  22   3  -2 8763.38 715.225   1
  22  -3  -2 8545.62 740.000   1
  22   3  -1 9941.47 749.661   1
  22  -3  -1 9439.67 741.241   1
  22  -3   0 611.138 260.093   1
 -22  -3   0 936.055 320.025   2
  22   3   0 248.430 205.391   1
 -22  -3   1 8608.11 750.979   2
  22   3   1 8985.33 735.689   1
  22  -3   1 9694.15 485.938   3
  22  -3   1 9279.51 653.300   1
 -22  -3   2 8668.40 776.904   2
  22  -3   2 8252.50 593.161   1
  22   3   2 9499.63 808.018   3
 -22  -3   3 740.448 307.461   2
  22   3   3-244.342 309.048   3
 -22  -3   4 8830.72 859.592   2
  22   3   4 8059.32 822.937   3
  22  -4  -3 975.510 353.547   1
  22   4  -3 547.038 257.628   1
  22  -4  -2 1463.87 404.676   1
  22   4  -2 1829.52 363.929   1
  22  -4  -1 2375.29 433.480   1
  22   4  -1 2742.60 464.498   1
  22  -4   0 1131.26 298.114   1
  22   4   0 909.116 335.201   1
 -22  -4   0 1181.51 347.304   2
 -22  -4   1 2839.85 498.320   2
  22  -4   1 2811.24 384.083   1
  22   4   1 2573.74 465.421   3
 -22  -4   2 2167.20 491.257   2
  22   4   2 2303.94 443.507   3
 -22  -4   3 1758.83 461.397   2
  22   4   3 444.780 270.928   3
  22   5  -2 8289.22 739.201   1
  22  -5  -2 9062.46 827.850   1
  22  -5  -1 1690.21 387.050   1
 -22  -5  -1 2637.38 548.626   2
 -22  -5   0 8896.26 859.907   2
  22  -5   0 7885.84 676.437   1
 -22  -5   1 1768.58 451.248   2
  22   5   1 2033.79 450.753   3
 -22  -5   2 8054.44 838.431   2
  22   5   2 9308.42 890.154   3
  22  -6  -1 2404.97 450.225   1
  23   0  -4-307.003 275.944   1
  23   0  -3-296.539 261.003   1
  23   0  -2-300.615 267.231   1
  23   0  -1 256.234 215.020   1
  23   0   0 142.856 224.025   1
 -23   0   1 371.001 254.092   2
  23   0   1 211.180 223.555   1
 -23   0   2-52.4745 193.681   2
  23   0   2 121.590 205.756   1
  23   0   2-1.06918 226.799   3
 -23   0   3-235.858 226.109   2
  23   0   3 163.040 225.467   3
 -23   0   4 364.494 254.092   2
  23   0   4 293.560 257.401   3
  23   0   5-10.9653 251.810   3
  23   1  -5 1135.60 384.025   1
  23   1  -4 9245.93 813.341   1
  23  -1  -4 8884.35 837.283   1
  23  -1  -3 3607.73 520.025   1
  23   1  -3 3515.05 497.598   1
  23   1  -2 21605.7 1117.69   1
  23  -1  -2 21853.9 1138.17   1
  23  -1  -1 6041.81 581.479   1
  23   1  -1 5536.90 569.063   1
  23   1   0 10915.7 782.347   1
  23  -1   0 7555.96 635.504   1
 -23  -1   1 6644.84 604.145   2
 -23   1   1 6204.74 509.422   2
  23   1   1 6016.99 584.404   1
  23  -1   1 6160.46 584.241   1
 -23   1   2 21427.0 898.112   2
 -23  -1   2 21791.7 1077.48   2
  23   1   2 22562.4 1128.33   1
  23  -1   2 22481.5 1043.88   1
  23  -1   2 22632.0 973.256   3
  23   1   2 23458.7 1127.29   3
 -23   1   3 2903.69 361.071   2
 -23  -1   3 3056.06 453.573   2
  23  -1   3 3464.38 430.293   3
  23   1   3 3568.74 528.266   3
  23  -1   4 8906.33 699.261   3
  23   1   4 10148.5 854.132   3
 -23  -1   4 8100.04 759.238   2
 -23  -1   5 1382.49 394.240   2
  23   1   5 270.848 272.576   3
  23   2  -5 859.643 330.027   1
  23  -2  -4 2102.92 469.054   1
  23   2  -4 1326.35 369.229   1
  23  -2  -3 2196.96 453.072   1
  23   2  -3 2777.22 464.772   1
  23  -2  -2 15.0870 229.631   1
  23   2  -2 593.024 298.803   1
  23   2  -1 4885.38 550.791   1
  23  -2  -1 5791.78 601.789   1
 -23  -2   0 2316.10 454.538   2
  23   2   0 1296.03 352.446   1
  23  -2   0 1296.59 308.330   1
 -23   2   1 5792.61 432.074   2
 -23  -2   1 5972.96 619.318   2
  23   2   1 6048.71 630.949   1
  23  -2   1 5761.12 541.917   1
 -23   2   2 569.088 169.661   2
 -23  -2   2 545.464 292.062   2
  23  -2   2 445.169 218.356   1
  23  -2   2 544.855 183.674   3
  23   2   2 202.259 244.642   3
 -23  -2   3 2786.33 469.828   2
  23  -2   3 2981.94 356.756   3
  23   2   3 2437.07 443.056   3
 -23  -2   4 1879.59 440.303   2
  23   2   4 1879.25 459.681   3
  23   3  -4 7431.39 723.196   1
  23  -3  -3 1137.21 382.091   1
  23   3  -3 708.545 275.982   1
  23   3  -2 5983.21 639.371   1
  23  -3  -2 6768.13 682.021   1
  23   3  -1 5846.38 616.656   1
  23  -3  -1 6213.68 620.990   1
 -23  -3   0 5356.10 614.927   2
  23   3   0 6035.78 619.708   1
  23  -3   0 5774.61 581.359   1
 -23  -3   1 6036.89 655.703   2
  23   3   1 6764.50 664.243   1
  23  -3   1 5727.42 545.815   1
 -23  -3   2 4961.33 601.129   2
  23  -3   2 5381.24 519.666   1
  23   3   2 5109.89 604.419   3
 -23  -3   3 1547.95 387.122   2
  23   3   3 1312.35 377.107   3
 -23  -3   4 8410.13 850.474   2
  23  -4  -3 2659.51 506.032   1
  23   4  -3 1761.90 396.368   1
  23  -4  -2 269.389 259.610   1
  23   4  -2 1133.48 401.277   1
 -23  -4  -1 8780.86 841.948   2
  23   4  -1 6766.59 682.407   1
  23  -4  -1 8925.20 772.648   1
  23  -4   0 415.502 237.079   1
  23   4   0 667.153 313.409   1
 -23  -4   0 535.518 284.579   2
 -23  -4   1 6860.51 735.259   2
  23  -4   1 7044.79 602.590   1
  23   4   1 6886.37 713.069   3
 -23  -4   2 959.772 382.459   2
  23   4   2 866.510 328.867   3
 -23  -4   3 1613.26 435.659   2
  23   4   3 2444.25 506.852   3
  23  -5  -2 2248.40 435.088   1
  23   5  -2 2027.54 396.559   1
  23  -5  -1 2340.22 474.602   1
 -23  -5  -1 2398.16 497.048   2
  23  -5   0 1940.84 387.747   1
 -23  -5   0 2509.01 516.792   2
 -23  -5   1 2306.50 498.936   2
  23   5   1 1838.44 437.231   3
  23  -6  -1 5110.20 628.955   1
  24   0  -4 1315.35 401.959   1
  24   0  -3 8164.61 758.691   1
  24   0  -2 3818.59 506.652   1
  24   0  -1 31666.9 1332.17   1
  24   0   0 365.322 243.268   1
 -24   0   1 27984.9 1134.37   2
  24   0   1 30703.2 1270.21   1
 -24   0   2 3781.20 447.540   2
  24   0   2 4621.09 525.168   1
  24   0   2 4062.83 477.335   3
 -24   0   3 8716.02 680.712   2
  24   0   3 8644.36 695.501   3
 -24   0   4 859.567 301.648   2
  24   0   4 943.582 365.888   3
  24   0   5 3447.87 521.535   3
  24  -1  -4 87.9041 273.730   1
  24   1  -4 442.511 333.205   1
  24  -1  -3 156.471 263.982   1
  24   1  -3-108.751 257.391   1
  24  -1  -2 5129.74 615.279   1
  24   1  -2 5506.41 608.630   1
  24   1  -1 927.706 307.213   1
  24  -1  -1 1471.51 370.468   1
  24   1   0-193.303 235.419   1
  24  -1   0-165.476 211.413   1
 -24  -1   1 942.179 315.170   2
 -24   1   1 1321.13 289.837   2
  24   1   1 672.017 284.072   1
  24  -1   1 952.020 306.373   1
 -24   1   2 6334.81 514.217   2
 -24  -1   2 5082.05 567.897   2
  24   1   2 3986.77 519.491   1
  24  -1   2 5160.10 547.856   1
  24  -1   2 4568.61 462.178   3
  24   1   2 4849.35 572.000   3
 -24   1   3 229.974 166.246   2
 -24  -1   3 612.163 284.077   2
  24  -1   3 240.138 201.139   3
  24   1   3 401.642 287.314   3
 -24  -1   4 697.185 329.341   2
  24  -1   4 247.303 237.189   3
  24   1   4 218.280 230.201   3
 -24  -1   5-468.575 332.648   2
  24  -2  -4 1488.21 442.049   1
  24   2  -4 2118.45 438.636   1
  24   2  -3 12409.8 902.500   1
  24  -2  -3 15394.7 1070.15   1
  24  -2  -2 6487.08 679.192   1
  24   2  -2 6214.27 643.363   1
  24   2  -1 7173.12 675.868   1
  24  -2  -1 7610.28 699.020   1
 -24  -2   0 2577.66 463.956   2
  24   2   0 1635.83 387.863   1
  24  -2   0 1429.43 330.498   1
 -24   2   1 7965.92 520.032   2
 -24  -2   1 6639.60 656.391   2
  24   2   1 7095.88 670.726   1
  24  -2   1 7379.55 631.480   1
 -24  -2   2 6240.55 652.509   2
  24  -2   2 5928.31 560.525   1
  24  -2   2 7224.45 522.006   3
  24   2   2 6741.81 691.431   3
 -24  -2   3 13829.1 980.809   2
  24   2   3 13600.9 986.758   3
 -24  -2   4 2026.08 436.407   2
  24   2   4 2842.27 551.082   3
  24   3  -4 168.268 268.254   1
  24  -3  -3 1018.61 335.806   1
  24   3  -3 222.727 269.408   1
  24  -3  -2 4413.29 572.915   1
  24   3  -2 4311.22 536.904   1
  24  -3  -1 1586.10 360.227   1
  24   3  -1 2094.55 414.157   1
 -24  -3   0 2384.35 470.463   2
  24   3   0 2129.93 392.154   1
  24  -3   0 2063.15 386.543   1
 -24  -3   1 1564.03 376.721   2
  24   3   1 1876.30 429.475   1
  24  -3   1 2021.42 384.154   1
 -24  -3   2 5445.88 640.715   2
  24  -3   2 5139.69 500.649   1
  24   3   2 5029.38 634.603   3
 -24  -3   3 1690.98 429.705   2
  24   3   3 1137.18 352.285   3
  24   4  -3 3936.11 551.710   1
  24  -4  -2 2959.51 513.318   1
  24   4  -2 2348.48 459.975   1
  24  -4  -1 7500.70 737.225   1
 -24  -4  -1 7837.55 795.726   2
  24   4  -1 6617.85 687.927   1
  24  -4   0 343.766 275.950   1
  24   4   0 783.134 305.483   1
 -24  -4   0 256.384 316.658   2
 -24  -4   1 8555.73 831.564   2
  24   4   1 9052.54 832.382   3
  24  -4   1 7640.74 621.826   1
 -24  -4   2 2613.07 522.880   2
  24   4   2 2006.95 429.828   3
  24  -5  -2 2336.12 482.161   1
  24   5  -2 1208.03 357.698   1
  24  -5  -1 2233.79 435.853   1
 -24  -5  -1 2417.19 574.578   2
 -24  -5   0 7976.17 846.475   2
  24  -5   0 7356.51 685.875   1
 -24  -5   1 1918.66 492.182   2
  24   5   1 1769.62 408.494   3
  24  -6  -1 1575.85 422.677   1
  25   0  -4-455.158 314.727   1
  25   0  -3-310.117 286.957   1
  25   0  -2 253.545 264.703   1
  25   0  -1-585.396 273.242   1
  25   0   0-245.260 257.668   1
 -25   0   1 46.0532 220.141   2
  25   0   1 10.1280 230.646   1
 -25   0   2 319.661 260.943   2
  25   0   2 582.247 299.433   1
  25   0   2 236.462 252.351   3
 -25   0   3 11.8715 208.704   2
  25   0   3-359.856 270.242   3
 -25   0   4 527.264 263.531   2
  25   0   4 558.854 343.726   3
  25  -1  -4 4859.51 646.868   1
  25   1  -4 5515.13 699.032   1
  25  -1  -3 309.965 291.848   1
  25   1  -3 1004.12 361.122   1
  25   1  -2 28499.0 1334.51   1
  25  -1  -2 28564.9 1358.19   1
  25   1  -1 1753.01 360.643   1
  25  -1  -1 1461.44 349.656   1
  25   1   0 11898.0 848.951   1
  25  -1   0 12208.9 829.606   1
 -25  -1   1 1577.55 337.512   2
 -25   1   1 1521.09 325.533   2
  25   1   1 1072.27 348.415   1
  25  -1   1 1539.23 342.870   1
 -25   1   2 28906.5 1097.97   2
 -25  -1   2 28506.5 1273.38   2
  25   1   2 26159.8 1269.06   1
  25  -1   2 28651.2 1230.02   1
  25  -1   2 28743.0 1146.16   3
  25   1   2 28659.2 1295.11   3
 -25  -1   3 822.582 281.067   2
  25  -1   3 966.678 270.950   3
  25   1   3 410.339 268.610   3
 -25  -1   4 5331.57 645.092   2
  25   1   4 5907.60 690.965   3
  25   2  -4 549.027 288.165   1
  25  -2  -3 463.636 337.029   1
  25   2  -3 711.179 311.335   1
  25  -2  -2 1921.12 413.057   1
  25   2  -2 1733.03 393.618   1
  25   2  -1 7087.86 685.117   1
  25  -2  -1 8063.45 714.358   1
 -25  -2   0 4278.75 554.529   2
  25   2   0 5406.50 602.276   1
  25  -2   0 4254.73 529.234   1
 -25   2   1 7819.53 529.469   2
 -25  -2   1 7687.82 706.158   2
  25   2   1 8113.01 735.395   1
  25  -2   1 6948.33 624.529   1
 -25  -2   2 2612.50 476.545   2
  25  -2   2 3231.16 454.226   1
  25  -2   2 2163.42 311.490   3
  25   2   2 2106.51 450.526   3
 -25  -2   3 302.324 234.822   2
  25   2   3 1374.48 430.267   3
 -25  -2   4 843.262 339.968   2
  25   2   4 561.947 279.620   3
  25   3  -4 6066.67 692.304   1
  25  -3  -3 432.207 318.470   1
  25   3  -3-209.396 234.088   1
  25  -3  -2 6848.81 716.274   1
  25   3  -2 5405.36 644.692   1
  25  -3  -1 872.979 336.754   1
  25   3  -1 1422.16 383.194   1
 -25  -3   0 20889.3 1221.56   2
  25   3   0 21675.1 1193.84   1
  25  -3   0 19943.9 1074.17   1
 -25  -3   1 713.798 337.532   2
  25   3   1 929.173 369.872   1
  25  -3   1 1417.47 327.440   1
 -25  -3   2 5350.81 655.649   2
  25  -3   2 6622.21 589.594   1
  25   3   2 5827.93 681.279   3
 -25  -3   3-8.82276 292.604   2
  25   3   3 318.190 272.518   3
  25   4  -3 7331.54 750.978   1
  25  -4  -2 103.981 268.978   1
  25   4  -2-242.086 337.568   1
  25  -4  -1 5893.70 649.299   1
  25   4  -1 5751.96 675.177   1
 -25  -4  -1 6713.69 781.085   2
  25   4   0-356.503 328.847   1
 -25  -4   0-183.310 256.453   2
  25  -4   0-94.1446 243.127   1
 -25  -4   1 6993.66 768.145   2
  25  -4   1 6299.95 587.672   1
  25   4   1 7118.60 782.533   3
 -25  -4   2 195.743 298.316   2
  25   4   2 528.476 273.433   3
  25   5  -2 419.008 295.963   1
  25  -5  -1 2357.23 438.721   1
  25  -5   0 2931.97 462.366   1
  26   0  -4 2271.16 492.239   1
  26   0  -3 17668.8 1139.15   1
  26   0  -2 405.330 312.989   1
  26   0  -1 3412.04 515.322   1
  26   0   0-385.324 283.841   1
 -26   0   1 3596.09 456.663   2
  26   0   1 3446.02 495.415   1
 -26   0   2 589.267 267.928   2
  26   0   2 763.148 324.151   1
  26   0   2 435.026 271.299   3
 -26   0   3 17729.6 991.956   2
  26   0   3 17289.5 1014.91   3
  26   0   4 2063.95 446.924   3
  26   1  -4 3927.35 589.195   1
  26  -1  -3 449.381 258.723   1
  26   1  -3 356.325 291.259   1
  26  -1  -2 4012.91 564.487   1
  26   1  -2 3170.32 490.893   1
  26   1  -1 893.305 298.687   1
  26  -1  -1 999.173 348.267   1
  26   1   0 51.5762 255.803   1
  26  -1   0 337.949 245.508   1
 -26   1   1 882.683 255.322   2
 -26  -1   1 1113.34 320.616   2
  26   1   1 402.637 251.764   1
  26  -1   1 683.616 270.468   1
 -26   1   2 3220.79 407.927   2
 -26  -1   2 3944.17 530.311   2
  26   1   2 3768.76 543.350   1
  26  -1   2 2671.05 427.530   1
  26  -1   2 4180.56 479.183   3
  26   1   2 4583.74 569.780   3
 -26  -1   3 259.802 241.344   2
  26  -1   3 647.325 250.817   3
  26   1   3 351.862 244.174   3
 -26  -1   4 4287.97 579.712   2
  26   1   4 3640.15 575.930   3
  26   2  -4 1436.01 405.161   1
  26  -2  -3 3088.13 517.571   1
  26   2  -3 3593.25 563.031   1
  26  -2  -2 3595.85 544.668   1
  26   2  -2 3400.06 500.667   1
  26   2  -1 22047.4 1190.87   1
  26  -2  -1 23654.2 1229.99   1
 -26  -2   0 1742.09 432.785   2
  26   2   0 1071.77 342.894   1
  26  -2   0 1130.07 350.042   1
 -26   2   1 24238.2 939.464   2
 -26  -2   1 22525.0 1225.47   2
  26   2   1 22341.7 1219.39   1
  26  -2   1 23415.2 969.102   3
  26  -2   1 20875.4 1086.17   1
 -26  -2   2 4071.06 568.966   2
  26  -2   2 3459.38 458.509   1
  26   2   2 2660.10 492.183   3
 -26  -2   3 3606.95 549.249   2
  26   2   3 4369.00 601.452   3
 -26  -2   4 885.965 368.925   2
  26   3  -4 218.611 307.085   1
  26   3  -3 2300.18 499.963   1
  26  -3  -2 2201.91 430.196   1
  26   3  -2 1996.55 398.868   1
  26  -3  -1 1430.48 411.915   1
  26   3  -1 1905.31 406.904   1
 -26  -3   0 14356.7 1042.44   2
  26   3   0 12687.5 955.328   1
  26  -3   0 13718.9 927.232   1
 -26  -3   1 2605.45 490.343   2
  26   3   1 1593.06 416.194   1
  26  -3   1 1797.80 369.979   1
 -26  -3   2 2630.98 501.053   2
  26  -3   2 3370.84 443.347   1
  26   3   2 3009.58 552.563   3
 -26  -3   3 1495.72 431.368   2
  26   3   3 3163.73 572.144   3
  26   4  -3 1388.26 421.369   1
  26  -4  -2 583.203 321.344   1
  26   4  -2 898.785 324.633   1
  26  -4  -1 3050.58 497.901   1
  26   4  -1 2720.88 507.247   1
 -26  -4  -1 3595.63 590.928   2
  26   4   0 680.706 346.949   1
 -26  -4   0 466.958 288.230   2
  26  -4   0-223.952 313.668   1
 -26  -4   1 2809.23 493.809   2
  26  -4   1 2958.98 447.301   1
  26   4   1 3731.43 586.441   3
  26   5  -2 3929.23 621.260   1
  26  -5  -1 90.6717 291.788   1
  26  -5   0 9668.27 801.191   1
  27   0  -3 305.726 326.426   1
  27   0  -2 34.2981 290.465   1
  27   0  -1-183.542 257.962   1
  27   0   0-437.401 282.481   1
 -27   0   1 213.698 221.045   2
  27   0   1-57.5650 263.865   1
 -27   0   2 390.660 255.959   2
  27   0   2-200.905 311.513   1
  27   0   2 196.795 272.211   3
 -27   0   3 126.925 215.421   2
  27   0   3 27.7237 266.713   3
  27   0   4 38.8051 229.323   3
  27  -1  -3 230.813 272.206   1
  27   1  -3 35.1870 272.454   1
  27   1  -2 9265.50 833.319   1
  27  -1  -2 10098.7 850.661   1
  27   1  -1 755.855 276.781   1
  27  -1  -1 387.256 261.900   1
 -27  -1   0 18174.1 1078.47   2
  27   1   0 18278.8 1089.42   1
  27  -1   0 20078.6 1122.04   1
 -27   1   1 543.660 227.950   2
 -27  -1   1 1015.86 337.258   2
  27   1   1 492.036 272.870   1
  27  -1   1 838.089 331.964   1
 -27   1   2 9483.32 672.460   2
 -27  -1   2 10011.5 806.066   2
  27   1   2 8196.75 769.310   1
  27  -1   2 9337.20 771.613   1
  27  -1   2 7960.82 648.138   3
  27   1   2 8877.08 773.871   3
 -27  -1   3 244.311 277.214   2
  27  -1   3 602.184 222.709   3
  27   1   3 441.371 303.436   3
 -27  -1   4 4732.55 595.270   2
  27   1   4 4465.96 631.013   3
  27  -2  -3 2662.29 557.629   1
  27   2  -3 1137.99 374.171   1
  27  -2  -2 863.618 301.884   1
  27   2  -2 257.847 242.434   1
  27   2  -1 1040.10 368.158   1
  27  -2  -1 1246.00 380.349   1
 -27  -2   0 4759.22 629.378   2
  27   2   0 3862.24 551.223   1
  27  -2   0 4062.16 551.843   1
 -27  -2   1 1168.58 364.223   2
  27   2   1 1166.07 348.417   1
  27  -2   1 1883.91 419.535   1
  27  -2   1 1543.42 292.958   3
  27  -2   2 410.724 261.742   1
  27   2   2 737.853 357.330   3
 -27  -2   3 1982.49 435.947   2
  27   2   3 1468.50 427.241   3
  27   3  -3 1268.70 418.929   1
  27   3  -2 7900.92 791.299   1
  27  -3  -2 8556.37 831.152   1
  27  -3  -1 57.7342 215.656   1
  27   3  -1 1523.05 422.831   1
 -27  -3   0 6681.18 737.786   2
  27   3   0 7329.60 747.762   1
  27  -3   0 6600.33 667.270   1
 -27  -3   1 507.724 348.957   2
  27   3   1 333.016 284.088   1
  27  -3   1-339.829 307.673   1
 -27  -3   2 7833.93 813.135   2
  27  -3   2 7655.12 664.154   1
  27   3   2 5429.38 690.010   3
  27   4  -2 1784.02 710.211   1
  27  -4  -1 2726.66 498.519   1
  27   4  -1 3683.95 557.535   1
  27   4   0 1607.16 441.416   1
 -27  -4   0 3172.24 586.739   2
  27  -4   0 2679.06 475.187   1
 -27  -4   1 5727.38 722.642   2
  27  -4   1 3870.08 506.010   1
  27  -5  -1 862.770 366.484   1
  27  -5   0 363.979 241.812   1
  28   0  -3 23673.6 1361.36   1
  28   0  -2 2483.09 473.326   1
  28   0  -1 19266.4 1145.92   1
  28   0   0 13403.2 951.479   1
 -28   0   1 18515.5 1035.00   2
  28   0   1 17037.3 1062.34   1
 -28   0   2 3409.18 468.149   2
  28   0   2 3771.98 546.123   1
  28   0   2 3836.40 526.118   3
 -28   0   3 23814.7 1183.68   2
  28   0   3 23343.4 1234.67   3
  28   0   4 2020.15 477.542   3
  28  -1  -3 1420.68 432.906   1
  28   1  -3 1627.87 418.533   1
  28   1  -2 2639.08 491.396   1
  28  -1  -2 3016.68 525.093   1
  28   1  -1 147.632 247.814   1
  28  -1  -1 325.243 322.868   1
 -28  -1   0 354.159 316.502   2
  28   1   0 150.787 241.633   1
  28  -1   0-116.312 296.552   1
 -28   1   1 268.486 194.176   2
 -28  -1   1-46.9324 286.579   2
  28   1   1 774.750 353.496   1
  28  -1   1 380.963 338.285   1
 -28  -1   2 4139.09 558.418   2
  28   1   2 3358.32 516.479   1
  28  -1   2 3722.87 554.440   1
  28  -1   2 4213.04 491.178   3
  28   1   2 4016.01 569.246   3
 -28  -1   3 1805.12 407.044   2
  28   1   3 2242.90 445.256   3
 -28  -1   4 720.122 307.861   2
  28   2  -3 18898.5 1221.17   1
  28   2  -2 7742.87 772.146   1
  28  -2  -2 9500.38 870.265   1
  28   2  -1 4193.91 584.851   1
  28  -2  -1 4943.10 601.510   1
  28   2   0 1390.96 392.846   1
  28  -2   0 979.432 333.731   1
 -28  -2   1 6051.85 684.531   2
  28   2   1 5598.64 673.530   1
  28  -2   1 4574.09 570.435   1
 -28  -2   2 8520.18 810.545   2
  28  -2   2 7992.85 742.598   1
  28   2   2 7590.69 753.881   3
 -28  -2   3 21055.4 1278.55   2
  28   2   3 21965.6 1316.19   3
  28  -3  -2 2162.61 489.673   1
  28   3  -2 1745.51 445.724   1
  28   3  -1 267.527 247.057   1
  28  -3  -1 667.055 291.211   1
 -28  -3   0 34277.0 1651.83   2
  28   3   0 34570.6 1607.28   1
  28  -3   0 33744.9 1496.09   1
 -28  -3   1 399.971 328.223   2
  28   3   1-133.910 316.918   1
  28  -3   1-110.788 292.491   1
  28   3   1 281.547 239.227   3
 -28  -3   2 2506.82 524.232   2
  28  -3   2 1941.74 388.169   1
  28   3   2 1001.20 412.987   3
  28  -4  -1 5647.38 689.311   1
  28   4  -1 6057.73 737.403   1
  28  -4   0 709.282 275.484   1
  28  -4   1 6290.44 667.005   1
  29   0  -2 455.031 314.877   1
  29   0  -1 453.555 348.646   1
 -29   0   0 902.497 343.928   2
  29   0   0 443.959 309.936   1
 -29   0   1-124.302 253.065   2
  29   0   1 884.336 356.173   1
 -29   0   2 257.457 223.224   2
  29   0   2 23.5957 270.107   1
  29   0   2-39.5911 296.872   3
  29   0   3-454.957 306.545   3
  29   1  -2 5968.05 718.504   1
  29  -1  -2 5786.98 698.423   1
  29   1  -1 422.441 252.302   1
  29  -1  -1 722.918 319.224   1
 -29  -1   0 4135.99 610.761   2
  29   1   0 3186.20 541.816   1
  29  -1   0 2941.44 491.495   1
 -29   1   1 125.867 228.238   2
 -29  -1   1 833.781 379.765   2
  29   1   1 286.476 262.247   1
  29  -1   1 414.305 314.832   1
 -29  -1   2 6935.00 732.395   2
  29   1   2 5506.73 650.727   1
  29  -1   2 6234.40 678.969   1
  29  -1   2 6510.57 614.149   3
  29   1   2 5514.83 656.073   3
 -29  -1   3 4667.12 601.025   2
  29   1   3 4951.18 637.803   3
  29  -2  -2-312.026 250.436   1
  29   2  -2 269.967 316.173   1
  29   2  -1 2712.79 506.973   1
  29  -2  -1 2902.27 537.596   1
 -29  -2   0 4155.60 618.137   2
  29   2   0 2500.32 481.584   1
  29  -2   0 3530.60 526.416   1
 -29  -2   1 3135.98 528.333   2
  29   2   1 2314.61 515.883   1
  29  -2   1 3037.41 491.871   1
 -29  -2   2 539.305 402.665   2
  29  -2   2-283.607 257.288   1
  29   2   2 372.203 341.893   3
 -29  -2   3 618.719 303.650   2
 -29  -3  -1 1874.12 485.248   2
  29   3  -1 1872.38 456.165   1
  29  -3  -1 1472.79 411.862   1
 -29  -3   0 603.532 348.817   2
  29   3   0 76.0586 297.961   1
  29  -3   0 480.413 323.894   1
 -29  -3   1 1554.60 472.892   2
  29  -3   1 2037.80 397.944   1
  29   3   1 2052.29 482.078   3
  29  -4   0 5697.99 680.485   1
  30   0  -2 1743.15 448.997   1
  30   0  -1 9806.77 876.487   1
 -30   0   0 205.559 272.280   2
  30   0   0 591.361 314.745   1
 -30   0   1 8890.83 766.987   2
  30   0   1 7924.63 785.640   1
 -30   0   2 2400.85 467.613   2
  30   0   2 2838.37 517.693   1
  30   0   2 1957.47 417.344   3
  30   0   3 6224.81 689.822   3
  30   1  -2 2069.88 496.697   1
  30  -1  -2 1917.68 452.310   1
  30   1  -1 389.885 335.009   1
  30  -1  -1-227.651 246.080   1
 -30  -1   0 12565.0 977.207   2
 -30   1   0 12482.2 877.164   2
  30   1   0 11830.0 955.315   1
  30  -1   0 11813.9 937.611   1
 -30   1   1 154.241 250.118   2
 -30  -1   1 263.711 310.375   2
  30   1   1 269.141 274.811   1
  30  -1   1 179.375 311.634   1
  30  -1   1 405.722 245.721   3
 -30  -1   2 1670.50 439.976   2
  30   1   2 1834.95 435.336   1
  30  -1   2 1253.80 382.987   1
  30  -1   2 1614.94 367.969   3
  30   1   2 1420.92 397.750   3
 -30  -1   3 5650.75 673.772   2
  30   1   3 5064.26 664.377   3
  30   2  -1 9525.73 873.616   1
  30  -2  -1 9278.39 852.463   1
 -30  -2   0 1665.86 456.770   2
  30   2   0 835.202 387.170   1
  30  -2   0 2078.16 483.411   1
 -30  -2   1 7707.76 790.890   2
  30   2   1 8894.73 843.958   1
  30  -2   1 9163.63 827.816   1
 -30  -2   2 346.269 354.112   2
  30  -2   2 508.126 323.718   1
  30   2   2 510.817 321.121   3
  30  -3  -1 1663.11 428.962   1
  30  -3   0 2879.18 494.986   1
  30  -3   1 1432.83 378.208   1
  30  -4   0 573.494 306.035   1
  31   0  -1 78.4984 302.449   1
 -31   0   0 400.375 399.603   2
  31   0   0-518.602 297.266   1
 -31   0   1 191.411 274.187   2
  31   0   1-136.419 230.634   1
 -31   0   2 25.9586 215.028   2
  31   0   2-91.5637 280.512   1
  31   0   2-231.480 312.503   3
  31   0   3 256.125 257.189   3
  31   1  -1 609.373 329.240   1
  31  -1  -1 839.331 299.013   1
 -31  -1   0 4787.50 641.430   2
 -31   1   0 4238.88 574.255   2
  31   1   0 3633.82 554.591   1
  31  -1   0 3728.36 550.926   1
 -31  -1   1 686.875 334.748   2
  31   1   1 843.582 397.200   1
  31  -1   1 984.920 324.611   1
  31  -1   1 746.896 334.391   3
 -31  -1   2 11150.2 914.339   2
  31  -1   2 8966.83 819.161   1
  31   1   2 9489.27 861.916   3
 -31  -1   3 5668.86 678.833   2
 -31  -2   0 899.945 436.407   2
  31  -2   0 220.966 285.457   1
 -31  -2   1 959.554 381.330   2
  31  -2   1 1040.01 391.253   1
  31   2   1 976.421 360.652   3
 -31  -2   2 852.350 351.206   2
  31  -2   2 436.755 268.863   1
  31  -3   0 16770.1 1133.54   1
  31  -3   1 1812.38 402.451   1
 -32   0   0 344.669 248.481   2
  32   0   0 330.504 287.963   1
 -32   0   1 7303.68 725.614   2
  32   0   1 9101.38 861.894   1
  32   0   1 8224.83 781.582   3
  32   0   2 3382.86 514.361   3
 -32  -1   0 1385.90 444.405   2
 -32   1   0 1214.13 317.581   2
  32  -1   0 2243.41 484.772   1
 -32  -1   1 786.614 331.071   2
  32  -1   1 809.504 316.417   1
  32  -1   1 565.341 303.806   3
  32   1   1 353.290 274.902   3
 -32  -1   2 2746.78 502.466   2
  32  -1   2 1400.38 404.580   1
  32   1   2 1685.23 422.990   3
  32  -2   1 6183.52 703.474   1
  32  -2   2 2432.76 457.031   1
  32  -3   1 3121.27 526.791   1
 -33   0   0 150.316 306.853   2
 -33   0   1-178.029 335.032   2
  33   0   1 132.310 232.906   3
  33   0   2-113.497 255.187   3
 -33  -1   0 8849.90 875.162   2
 -33  -1   1 3471.88 567.390   2
 -33  -1   2 6450.56 748.680   2
 -34   0   0 1712.78 421.664   2
  34   0   1 5440.55 673.797   3
   0   0   0    0.00    0.00   0
TITL dpss4b in Pna2(1)
REM Pna2(1) (#33, found as P2(1)cn in -cba setting)
CELL 0.71073  24.385183   6.050221   5.099836  90.0000  90.0000  90.0000
ZERR    3.00   0.001141   0.000290   0.000270   0.0000   0.0000   0.0000
LATT -1
SYMM -x,-y, z+1/2
SYMM  x+1/2,-y+1/2, z
SYMM -x+1/2, y+1/2, z+1/2
SFAC C H N O
UNIT 33.00 30.00 3.00 3.00
TREF
HKLF 4
END
;
_shelx_hkl_checksum              75511
_shelx_res_file
;
    dpss4b.res created by SHELXL-2014/7
TITL dpss4b_a.res in Pna2(1)
CELL 0.71073 24.3852 6.0502 5.0998 90 90 90
ZERR 4 0.0012 0.0004 0.003 0 0 0
LATT -1
SYMM -X,-Y,0.5+Z
SYMM 0.5+X,0.5-Y,+Z
SYMM 0.5-X,0.5+Y,0.5+Z
SFAC C H N O Cl
UNIT 32 16 4 12 4
TEMP -173
L.S. 6
PLAN  20
BOND $H
HTAB 2
EQIV $1 -X+1, -Y+2, Z-0.5
HTAB N1 O3_$1
fmap 2
acta
SIZE 0.29 0.26 0.21
WGHT    0.028600    0.162600
FVAR       5.48296
CL1   5    0.739980    0.464670    0.038993    11.00000    0.01382    0.02260 =
         0.01932   -0.00220    0.00525    0.00135
O1    4    0.550638    0.505836    0.902436    11.00000    0.01662    0.00956 =
         0.01184    0.00206    0.00400    0.00093
O2    4    0.607705    0.224561    0.845716    11.00000    0.01713    0.01224 =
         0.01456    0.00267   -0.00096    0.00030
O3    4    0.489824    0.772537    0.962304    11.00000    0.01697    0.01434 =
         0.01766   -0.00156    0.00600    0.00065
N1    3    0.550519    0.810495    0.626898    11.00000    0.01287    0.00894 =
         0.01329    0.00150    0.00138    0.00222
H1N   2    0.536171    0.935494    0.588655    11.00000   -1.20000
C1    1    0.528227    0.705257    0.832294    11.00000    0.01275    0.01015 =
         0.01440   -0.00132   -0.00245   -0.00180
C2    1    0.593919    0.402969    0.769466    11.00000    0.01128    0.01103 =
         0.01103   -0.00211   -0.00255   -0.00091
C3    1    0.617864    0.530066    0.554309    11.00000    0.01141    0.01100 =
         0.00940    0.00029   -0.00211   -0.00161
C4    1    0.663014    0.446479    0.417558    11.00000    0.01125    0.01253 =
         0.01475   -0.00002   -0.00211   -0.00063
AFIX  43
H4    2    0.678550    0.307727    0.463230    11.00000   -1.20000
AFIX   0
C5    1    0.684421    0.569684    0.215437    11.00000    0.00882    0.01695 =
         0.01283   -0.00465    0.00135    0.00047
C6    1    0.662597    0.776019    0.146798    11.00000    0.01302    0.01652 =
         0.01138    0.00193    0.00057   -0.00518
AFIX  43
H6    2    0.678297    0.858534    0.007219    11.00000   -1.20000
AFIX   0
C7    1    0.618170    0.858854    0.282962    11.00000    0.01399    0.01019 =
         0.01226    0.00141   -0.00354   -0.00080
AFIX  43
H7    2    0.603084    0.998623    0.238215    11.00000   -1.20000
AFIX   0
C8    1    0.595628    0.734350    0.487772    11.00000    0.01017    0.01015 =
         0.01183   -0.00200   -0.00046   -0.00191
HKLF 4
REM  dpss4b_a.res in Pna2(1)
REM R1 =  0.0320 for    1787 Fo > 4sig(Fo)  and  0.0379 for all    1960 data
REM    121 parameters refined using      1 restraints
END
WGHT      0.0256      0.1060
REM Instructions for potential hydrogen bonds
HTAB N1 O3_$1
EQIV $2 -x+3/2, y-1/2, z+1/2
HTAB C4 Cl1_$2
EQIV $3 x, y+1, z-1
HTAB C7 O2_$3
REM Highest difference peak  0.284,  deepest hole -0.277,  1-sigma level  0.056
Q1    1   0.7502  0.6247  0.0418  11.00000  0.05    0.28
Q2    1   0.6200  0.6520  0.5433  11.00000  0.05    0.26
Q3    1   0.5984  0.7600  0.3417  11.00000  0.05    0.24
Q4    1   0.6194  0.8079  0.4263  11.00000  0.05    0.24
Q5    1   0.6513  0.4858  0.2637  11.00000  0.05    0.21
Q6    1   0.6101  0.4758  0.6592  11.00000  0.05    0.21
Q7    1   0.6391  0.5082  0.5117  11.00000  0.05    0.19
Q8    1   0.6180  0.9159  0.3007  11.00000  0.05    0.19
Q9    1   0.6384  0.8167  0.2231  11.00000  0.05    0.19
Q10   1   0.6748  0.6787  0.2211  11.00000  0.05    0.19
Q11   1   0.5262  1.0423  0.8899  11.00000  0.05    0.18
Q12   1   0.7200  1.0485 -0.1637  11.00000  0.05    0.18
Q13   1   0.5728  0.7431  0.5598  11.00000  0.05    0.17
Q14   1   0.6808  0.0916  0.4529  11.00000  0.05    0.17
Q15   1   0.6393  0.1042  0.4674  11.00000  0.05    0.17
Q16   1   0.6076  0.1856  0.5641  11.00000  0.05    0.17
Q17   1   0.5691  1.1200  0.1517  11.00000  0.05    0.17
Q18   1   0.6617  0.4034 -0.0439  11.00000  0.05    0.16
Q19   1   0.5397  0.5832  0.8675  11.00000  0.05    0.16
Q20   1   0.6031  0.0386  0.8295  11.00000  0.05    0.16
;
_shelx_res_checksum              25790
loop_
_space_group_symop_operation_xyz
'x, y, z'
'-x, -y, z+1/2'
'x+1/2, -y+1/2, z'
'-x+1/2, y+1/2, z+1/2'
loop_
_atom_site_type_symbol
_atom_site_label
_atom_site_fract_x
_atom_site_fract_y
_atom_site_fract_z
_atom_site_U_iso_or_equiv
_atom_site_adp_type
_atom_site_calc_flag
_atom_site_occupancy
Cl Cl1 0.73998(2) 0.46467(10) 0.03899(16) 0.01858(15) Uani d 1
O O1 0.55064(7) 0.5058(3) 0.9024(4) 0.0127(4) Uani d 1
O O2 0.60770(7) 0.2246(3) 0.8457(4) 0.0146(4) Uani d 1
O O3 0.48982(7) 0.7725(3) 0.9623(3) 0.0163(4) Uani d 1
N N1 0.55052(9) 0.8105(3) 0.6269(4) 0.0117(4) Uani d 1
H H1N 0.5362(11) 0.935(5) 0.589(6) 0.014 Uiso d 1
C C1 0.52823(10) 0.7053(4) 0.8323(5) 0.0124(5) Uani d 1
C C2 0.59392(10) 0.4030(4) 0.7695(5) 0.0111(5) Uani d 1
C C3 0.61786(9) 0.5301(4) 0.5543(6) 0.0106(4) Uani d 1
C C4 0.66301(10) 0.4465(4) 0.4176(5) 0.0128(5) Uani d 1
H H4 0.6785 0.3077 0.4632 0.015 Uiso calc 1
C C5 0.68442(10) 0.5697(4) 0.2154(5) 0.0129(5) Uani d 1
C C6 0.66260(10) 0.7760(4) 0.1468(5) 0.0136(5) Uani d 1
H H6 0.6783 0.8585 0.0072 0.016 Uiso calc 1
C C7 0.61817(10) 0.8589(4) 0.2830(5) 0.0121(5) Uani d 1
H H7 0.6031 0.9986 0.2382 0.015 Uiso calc 1
C C8 0.59563(10) 0.7343(4) 0.4878(5) 0.0107(5) Uani d 1
loop_
_atom_site_aniso_label
_atom_site_aniso_U_11
_atom_site_aniso_U_22
_atom_site_aniso_U_33
_atom_site_aniso_U_12
_atom_site_aniso_U_13
_atom_site_aniso_U_23
Cl1 0.0138(2) 0.0226(3) 0.0193(3) 0.0013(2) 0.0053(3) -0.0022(3)
O1 0.0166(9) 0.0096(7) 0.0118(9) 0.0009(7) 0.0040(7) 0.0021(7)
O2 0.0171(9) 0.0122(8) 0.0146(9) 0.0003(7) -0.0010(8) 0.0027(8)
O3 0.0170(9) 0.0143(8) 0.0177(10) 0.0007(7) 0.0060(8) -0.0016(7)
N1 0.0129(11) 0.0089(9) 0.0133(10) 0.0022(8) 0.0014(8) 0.0015(8)
C1 0.0128(12) 0.0101(10) 0.0144(13) -0.0018(9) -0.0024(11) -0.0013(10)
C2 0.0113(11) 0.0110(10) 0.0110(12) -0.0009(9) -0.0025(9) -0.0021(10)
C3 0.0114(9) 0.0110(9) 0.0094(11) -0.0016(8) -0.0021(11) 0.0003(11)
C4 0.0113(11) 0.0125(11) 0.0147(13) -0.0006(10) -0.0021(9) 0.0000(10)
C5 0.0088(11) 0.0170(12) 0.0128(12) 0.0005(9) 0.0013(9) -0.0047(10)
C6 0.0130(11) 0.0165(11) 0.0114(12) -0.0052(10) 0.0006(10) 0.0019(10)
C7 0.0140(12) 0.0102(11) 0.0123(13) -0.0008(9) -0.0035(10) 0.0014(10)
C8 0.0102(10) 0.0101(10) 0.0118(13) -0.0019(8) -0.0005(8) -0.0020(9)
loop_
_atom_type_symbol
_atom_type_description
_atom_type_scat_dispersion_real
_atom_type_scat_dispersion_imag
_atom_type_scat_source
C C 0.0033 0.0016 'International Tables Vol C Tables 4.2.6.8 and 6.1.1.4'
H H 0.0000 0.0000 'International Tables Vol C Tables 4.2.6.8 and 6.1.1.4'
N N 0.0061 0.0033 'International Tables Vol C Tables 4.2.6.8 and 6.1.1.4'
O O 0.0106 0.0060 'International Tables Vol C Tables 4.2.6.8 and 6.1.1.4'
Cl Cl 0.1484 0.1585 'International Tables Vol C Tables 4.2.6.8 and 6.1.1.4'
loop_
_geom_angle_atom_site_label_1
_geom_angle_atom_site_label_2
_geom_angle_atom_site_label_3
_geom_angle
C1 O1 C2 124.4(2)
C1 N1 C8 124.3(2)
C1 N1 H1N 116(2)
C8 N1 H1N 120(2)
O3 C1 N1 125.3(2)
O3 C1 O1 117.3(2)
N1 C1 O1 117.4(2)
O2 C2 O1 117.1(2)
O2 C2 C3 127.4(2)
O1 C2 C3 115.52(19)
C8 C3 C4 120.4(2)
C8 C3 C2 119.6(2)
C4 C3 C2 119.9(2)
C5 C4 C3 118.5(2)
C5 C4 H4 120.8
C3 C4 H4 120.8
C4 C5 C6 121.7(2)
C4 C5 Cl1 118.92(19)
C6 C5 Cl1 119.34(19)
C7 C6 C5 119.7(2)
C7 C6 H6 120.1
C5 C6 H6 120.1
C6 C7 C8 119.2(2)
C6 C7 H7 120.4
C8 C7 H7 120.4
N1 C8 C3 118.6(2)
N1 C8 C7 120.9(2)
C3 C8 C7 120.4(2)
loop_
_geom_bond_atom_site_label_1
_geom_bond_atom_site_label_2
_geom_bond_distance
Cl1 C5 1.746(3)
O1 C1 1.372(3)
O1 C2 1.400(3)
O2 C2 1.196(3)
O3 C1 1.217(3)
N1 C1 1.341(3)
N1 C8 1.388(3)
N1 H1N 0.86(3)
C2 C3 1.462(4)
C3 C8 1.392(3)
C3 C4 1.398(3)
C4 C5 1.375(4)
C4 H4 0.9500
C5 C6 1.401(3)
C6 C7 1.381(3)
C6 H6 0.9500
C7 C8 1.400(3)
C7 H7 0.9500
loop_
_geom_hbond_atom_site_label_D
_geom_hbond_atom_site_label_H
_geom_hbond_atom_site_label_A
_geom_hbond_site_symmetry_A
_geom_hbond_distance_DH
_geom_hbond_distance_HA
_geom_hbond_distance_DA
_geom_hbond_angle_DHA
N1 H1N O3 2_674 0.86(3) 1.98(3) 2.835(3) 172(3)
C7 H7 O2 1_564 0.95 2.43 3.152(4) 133

_cod_database_fobs_code 2021040
