#------------------------------------------------------------------------------
#$Date: 2018-11-16 05:33:15 +0200 (Fri, 16 Nov 2018) $
#$Revision: 212002 $
#$URL: file:///home/coder/svn-repositories/cod/cif/2/02/13/2021346.cif $
#------------------------------------------------------------------------------
#
# This file is available in the Crystallography Open Database (COD),
# http://www.crystallography.net/. The original data for this entry
# were provided by IUCr Journals, http://journals.iucr.org/.
#
# The file may be used within the scientific community so long as
# proper attribution is given to the journal article from which the
# data were obtained.
#
data_2021346
loop_
_publ_author_name
'Dwivedi, Bhavna'
'Das, Dinabandhu'
_publ_section_title
;
 Polymorphism in some new bis-hydrazone compounds
;
_journal_issue                   12
_journal_name_full               'Acta Crystallographica Section C'
_journal_page_first
;
;
_journal_paper_doi               10.1107/S2053229618014286
_journal_volume                  74
_journal_year                    2018
_chemical_formula_iupac          'C30 H22 Cl4 N4'
_chemical_formula_moiety         'C30 H22 Cl4 N4'
_chemical_formula_sum            'C30 H22 Cl4 N4'
_chemical_formula_weight         580.31
_chemical_name_systematic
;
Butane-2,3-dione 2,3-bis{[bis(4-chloroenyl)methylidene]hydrazone}
;
_space_group_crystal_system      triclinic
_space_group_IT_number           2
_space_group_name_Hall           '-P 1'
_space_group_name_H-M_alt        'P -1'
_symmetry_space_group_name_Hall  '-P 1'
_symmetry_space_group_name_H-M   'P -1'
_atom_sites_solution_hydrogens   geom
_audit_creation_method           SHELXL-2016/6
_cell_angle_alpha                93.2550(10)
_cell_angle_beta                 98.7220(10)
_cell_angle_gamma                104.4730(10)
_cell_formula_units_Z            1
_cell_length_a                   6.0349(2)
_cell_length_b                   7.3474(2)
_cell_length_c                   16.6718(5)
_cell_measurement_reflns_used    9957
_cell_measurement_temperature    100(2)
_cell_measurement_theta_max      28.25
_cell_measurement_theta_min      2.48
_cell_volume                     704.03(4)
_computing_cell_refinement
;
SAINT (Bruker, 2012)
;
_computing_data_collection
;
APEX3 (Bruker, 2012)
;
_computing_data_reduction
;
SAINT (Bruker, 2012)
;
_computing_molecular_graphics
;
X-SEED (Barbour, 2001)
;
_computing_structure_refinement
;
SHELXL2016 (Sheldrick, 2015)
;
_computing_structure_solution
;
SHELXS97 (Sheldrick, 2008)
;
_diffrn_ambient_temperature      100(2)
_diffrn_measured_fraction_theta_full 1.000
_diffrn_measured_fraction_theta_max 0.999
_diffrn_measurement_device_type  'Bruker APEXIII CMOS detector'
_diffrn_measurement_method       'phi and omega scans'
_diffrn_radiation_type           MoK\a
_diffrn_radiation_wavelength     0.71073
_diffrn_reflns_av_R_equivalents  0.0275
_diffrn_reflns_av_unetI/netI     0.0177
_diffrn_reflns_limit_h_max       8
_diffrn_reflns_limit_h_min       -8
_diffrn_reflns_limit_k_max       9
_diffrn_reflns_limit_k_min       -9
_diffrn_reflns_limit_l_max       22
_diffrn_reflns_limit_l_min       -22
_diffrn_reflns_number            19577
_diffrn_reflns_theta_full        25.000
_diffrn_reflns_theta_max         28.295
_diffrn_reflns_theta_min         2.484
_diffrn_source                   microfocus
_exptl_absorpt_coefficient_mu    0.447
_exptl_absorpt_correction_T_max  0.948
_exptl_absorpt_correction_T_min  0.889
_exptl_absorpt_correction_type   multi-scan
_exptl_absorpt_process_details
;
(SADABS; Bruker, 2012)
;
_exptl_crystal_colour            yellow
_exptl_crystal_density_diffrn    1.369
_exptl_crystal_description       plate
_exptl_crystal_F_000             298
_exptl_crystal_size_max          0.350
_exptl_crystal_size_mid          0.220
_exptl_crystal_size_min          0.120
_refine_diff_density_max         0.384
_refine_diff_density_min         -0.235
_refine_ls_extinction_coef       0.020(2)
_refine_ls_extinction_expression Fc^*^=kFc[1+0.001xFc^2^\l^3^/sin(2\q)]^-1/4^
_refine_ls_extinction_method
;
SHELXL2016 (Sheldrick, 2015)
;
_refine_ls_goodness_of_fit_ref   1.048
_refine_ls_hydrogen_treatment    constr
_refine_ls_matrix_type           full
_refine_ls_number_parameters     174
_refine_ls_number_reflns         3475
_refine_ls_number_restraints     0
_refine_ls_restrained_S_all      1.048
_refine_ls_R_factor_all          0.0316
_refine_ls_R_factor_gt           0.0277
_refine_ls_shift/su_max          0.001
_refine_ls_shift/su_mean         0.000
_refine_ls_structure_factor_coef Fsqd
_refine_ls_weighting_details
'w=1/[\s^2^(Fo^2^)+(0.0314P)^2^+0.3487P] where P=(Fo^2^+2Fc^2^)/3'
_refine_ls_weighting_scheme      calc
_refine_ls_wR_factor_gt          0.0717
_refine_ls_wR_factor_ref         0.0737
_reflns_number_gt                3138
_reflns_number_total             3475
_reflns_threshold_expression     'I > 2\s(I)'
_cod_data_source_file            uk3160sup1.cif
_cod_data_source_block           2a
_cod_database_code               2021346
_shelx_space_group_comment
;
The symmetry employed for this shelxl refinement is uniquely defined
by the following loop, which should always be used as a source of
symmetry information in preference to the above space-group names.
They are only intended as comments.
;
_shelx_estimated_absorpt_t_min   0.859
_shelx_estimated_absorpt_t_max   0.948
_shelx_hkl_file
;
  -1   0   0  510.85   13.80
  -1   0   0  503.05   13.70
   1   0   0  509.85   13.80
   1   0   0  486.25   13.70
  -2   0   0  106.39    3.50
  -2   0   0  104.49    3.30
   2   0   0  106.19    3.20
   2   0   0  103.89    3.50
  -3   0   0  239.38    7.40
  -3   0   0  254.77    7.60
  -3   0   0  249.97    7.30
   3   0   0  246.18    7.20
   3   0   0  244.58    7.00
   3   0   0  244.58    7.70
  -4   0   0    0.30    1.10
  -4   0   0    0.90    1.00
  -4   0   0    0.60    1.00
   4   0   0    0.80    0.60
   4   0   0    0.40    0.70
  -5   0   0  250.67    8.40
  -5   0   0  263.37    8.80
   5   0   0  255.47    7.50
   5   0   0  267.57    7.90
  -6   0   0  549.95   17.30
   6   0   0  583.54   16.30
   6   0   0  559.74   16.70
   6   0   0  561.74   15.80
  -7   0   0    8.40    3.20
   7   0   0    8.70    2.00
   7   0   0    9.40    2.50
   7  -1   0  373.86   11.90
   7  -1   0  365.76   11.30
  -7   1   0  345.67   12.30
   6  -1   0    0.60    1.50
   6  -1   0    0.70    1.30
   6  -1   0    0.20    1.30
   5  -1   0    4.90    1.20
   5  -1   0    3.50    1.20
  -5   1   0    5.90    1.80
  -5   1   0    3.30    1.50
   4  -1   0   68.29    2.80
  -4   1   0   67.99    3.10
  -4   1   0   70.39    3.20
  -4   1   0   65.09    3.10
   3  -1   0  198.78    6.40
   3  -1   0  212.78    6.20
  -3   1   0  197.98    6.30
  -3   1   0  200.68    6.30
  -3   1   0  215.18    6.30
   2  -1   0 3661.03   96.89
   2  -1   0 3529.15   97.69
   2  -1   0 3603.74   97.39
  -2   1   0 3552.04   97.59
  -2   1   0 3412.06   97.19
  -2   1   0 3752.02   97.79
   1  -1   0 3507.75   94.79
   1  -1   0 3311.77   94.29
   1  -1   0 3577.44   94.09
  -1   1   0 3532.85   94.39
  -1   1   0 3549.45   94.09
  -1   1   0 3437.86   94.89
   0  -1   0  440.26   12.20
   0  -1   0  446.36   12.30
   0  -1   0  453.65   12.30
   0  -1   0  476.05   12.30
   0  -1   0  438.56   12.30
   0  -1   0  467.35   12.30
   0  -1   0  452.55   12.20
   0   1   0  433.36   12.30
   0   1   0  463.35   12.20
   0   1   0  456.85   12.30
   0   1   0  431.36   12.20
   0   1   0  453.25   12.30
  -1  -1   0 1713.33   47.50
  -1  -1   0 1709.23   47.40
  -1  -1   0 1743.93   47.10
  -1  -1   0 1719.23   47.60
   1   1   0 1695.83   47.60
   1   1   0 1747.23   47.40
   1   1   0 1900.21   47.80
  -2  -1   0    0.30    0.40
  -2  -1   0   -0.30    0.60
   2   1   0    0.30    0.40
   2   1   0    0.90    0.70
  -3  -1   0   88.69    3.10
  -3  -1   0   84.39    3.60
   3   1   0   90.59    2.90
   3   1   0   90.59    3.20
  -4  -1   0  566.14   17.00
  -4  -1   0  551.64   16.80
  -4  -1   0  593.14   16.40
   4   1   0  586.64   16.20
   4   1   0  597.04   16.60
  -5  -1   0   89.59    4.30
  -5  -1   0   98.49    4.90
   5   1   0  101.99    3.70
   5   1   0   94.99    4.10
  -6  -1   0    1.90    2.30
   6   1   0    1.10    1.60
   6   1   0    1.10    1.80
   6   1   0   -0.80    1.40
  -7  -1   0   35.10    4.40
   7   1   0   36.70    3.50
   7   1   0   49.99    4.80
   7  -2   0   14.20    2.40
   7  -2   0   15.40    2.40
  -7   2   0   17.90    2.90
   6  -2   0  232.18    7.60
   6  -2   0  208.48    7.60
  -6   2   0  228.88    7.90
   5  -2   0  433.86   12.60
  -5   2   0  432.46   12.60
  -5   2   0  398.06   13.00
   4  -2   0  513.45   14.60
  -4   2   0  498.45   14.80
  -4   2   0  502.15   14.60
  -4   2   0  512.85   14.50
   3  -2   0  276.07    8.20
   3  -2   0  285.27    8.10
  -3   2   0  270.67    7.90
  -3   2   0  272.87    8.00
  -3   2   0  257.87    8.20
   2  -2   0  267.47    7.80
   2  -2   0  276.37    7.60
   2  -2   0  260.47    7.40
  -2   2   0  272.87    7.50
  -2   2   0  260.17    7.70
  -2   2   0  265.07    7.90
  -2   2   0  255.57    7.40
   1  -2   0  154.58    4.70
   1  -2   0  158.28    4.50
  -1   2   0  161.38    4.50
  -1   2   0  159.08    4.50
  -1   2   0  159.48    4.80
   0  -2   0   30.70    1.20
   0  -2   0   28.50    1.20
   0  -2   0   29.30    1.20
   0  -2   0   29.00    1.20
   0  -2   0   30.20    1.00
   0  -2   0   30.20    1.10
   0  -2   0   26.10    1.30
   0  -2   0   30.30    1.10
   0   2   0   30.20    1.20
   0   2   0   28.80    1.20
   0   2   0   29.00    1.00
   0   2   0   31.30    1.10
   0   2   0   28.10    1.20
   0   2   0   26.10    1.20
  -1  -2   0    9.00    0.80
  -1  -2   0    8.80    1.00
  -1  -2   0    8.10    0.80
  -1  -2   0    7.30    0.60
  -1  -2   0    7.80    0.60
   1   2   0    7.80    0.70
   1   2   0    8.40    0.70
   1   2   0    7.90    0.80
  -2  -2   0 1721.63   47.70
  -2  -2   0 1808.62   48.10
  -2  -2   0 1747.73   47.50
  -2  -2   0 1814.02   47.70
  -2  -2   0 1810.92   48.00
  -2  -2   0 1712.43   47.50
   2   2   0 1690.03   47.70
   2   2   0 1743.63   47.70
  -3  -2   0   21.00    2.10
  -3  -2   0   23.90    2.40
  -3  -2   0   19.50    1.40
   3   2   0   21.40    1.60
   3   2   0   20.30    1.60
  -4  -2   0  330.67   10.90
  -4  -2   0  349.87   10.20
   4   2   0  361.06   10.50
   4   2   0  335.97   10.40
  -5  -2   0  147.19    5.70
  -5  -2   0  161.38    6.60
   5   2   0  147.49    5.70
  -6  -2   0    2.00    2.90
   6   2   0    2.50    2.10
   6   2   0    3.80    2.00
  -7  -2   0    6.10    4.30
   7   2   0    7.60    3.10
   7   2   0    7.00    3.00
   7  -3   0   18.10    2.90
   7  -3   0   13.40    2.40
  -7   3   0   22.30    2.90
  -7   3   0   18.60    2.60
   6  -3   0   88.39    4.90
  -6   3   0   91.09    4.30
  -6   3   0   83.99    6.00
   5  -3   0  262.27    8.30
  -5   3   0  245.28    8.10
  -5   3   0  252.67    7.90
   4  -3   0   64.39    2.90
   4  -3   0   63.99    3.10
  -4   3   0   61.69    3.50
  -4   3   0   62.29    2.80
  -4   3   0   64.09    2.90
  -4   3   0   60.99    2.50
   3  -3   0  300.67    8.90
   3  -3   0  298.97    8.50
  -3   3   0  285.97    8.40
  -3   3   0  278.07    8.70
  -3   3   0  296.37    8.20
  -3   3   0  283.17    8.90
   2  -3   0   38.50    1.50
   2  -3   0   33.10    1.90
  -2   3   0   39.20    1.80
  -2   3   0   39.80    2.10
  -2   3   0   36.20    1.60
   1  -3   0  155.88    5.20
   1  -3   0  178.48    5.00
   1  -3   0  154.28    5.00
   1  -3   0  171.48    4.70
   1  -3   0  165.88    5.40
   1  -3   0  176.68    5.00
  -1   3   0  170.98    5.20
  -1   3   0  182.88    5.10
  -1   3   0  173.18    5.30
  -1   3   0  173.98    4.90
  -1   3   0  179.78    5.30
   0  -3   0 1285.07   34.00
   0  -3   0 1207.68   33.90
   0  -3   0 1275.57   34.20
   0  -3   0 1359.46   34.20
   0  -3   0 1221.28   34.20
   0  -3   0 1226.18   34.10
   0  -3   0 1246.38   34.00
   0  -3   0 1259.47   34.20
   0   3   0 1242.28   34.20
   0   3   0 1200.08   34.10
   0   3   0 1236.98   34.20
   0   3   0 1269.67   34.20
  -1  -3   0  679.23   18.60
  -1  -3   0  690.13   18.90
  -1  -3   0  707.03   18.70
  -1  -3   0  685.13   18.70
  -1  -3   0  661.43   18.50
  -1  -3   0  685.93   18.80
  -1  -3   0  689.43   18.90
   1   3   0  661.53   18.80
   1   3   0  675.83   18.60
   1   3   0  695.43   18.70
   1   3   0  586.24   18.70
  -2  -3   0  298.07    9.20
  -2  -3   0  291.87    8.50
  -2  -3   0  299.87    8.50
  -2  -3   0  296.27    8.20
  -2  -3   0  304.87    8.90
  -2  -3   0  292.67    9.10
  -2  -3   0  301.87    8.70
   2   3   0  293.57    8.70
   2   3   0  292.07    8.80
  -3  -3   0   13.80    1.40
  -3  -3   0   13.80    2.20
  -3  -3   0   13.80    1.40
  -3  -3   0   13.60    1.80
   3   3   0   16.20    1.50
   3   3   0   15.40    1.60
  -4  -3   0    8.70    1.40
  -4  -3   0    6.40    1.20
  -4  -3   0    7.60    2.00
   4   3   0    4.50    1.20
   4   3   0    5.10    1.50
  -5  -3   0    9.50    2.50
  -5  -3   0   10.50    2.10
  -5  -3   0   12.60    1.70
   5   3   0   13.60    2.10
   5   3   0    9.80    2.10
  -6  -3   0   64.19    6.10
   6   3   0   46.20    4.30
   6   3   0   53.89    4.90
   7  -4   0  276.77   10.30
  -7   4   0  303.27    9.80
  -7   4   0  312.87   10.60
   6  -4   0    7.60    2.10
  -6   4   0   12.00    2.10
  -6   4   0    6.90    1.60
   5  -4   0    1.80    1.50
  -5   4   0    0.10    0.90
  -5   4   0    1.60    1.40
   4  -4   0   32.90    2.10
   4  -4   0   30.20    2.60
  -4   4   0   27.30    1.60
  -4   4   0   29.70    2.30
  -4   4   0   28.20    2.00
   3  -4   0   27.20    2.20
   3  -4   0   25.60    1.50
  -3   4   0   24.40    2.30
  -3   4   0   24.80    0.90
  -3   4   0   26.30    1.90
  -3   4   0   26.30    1.50
   2  -4   0  492.35   13.30
   2  -4   0  468.35   13.90
  -2   4   0  476.65   13.90
  -2   4   0  476.75   13.70
  -2   4   0  493.55   13.20
  -2   4   0  458.75   13.70
  -2   4   0  461.45   13.30
   1  -4   0 1184.88   32.10
   1  -4   0 1178.58   32.00
   1  -4   0 1222.88   32.20
   1  -4   0 1138.69   31.80
   1  -4   0 1205.98   32.70
   1  -4   0 1170.28   32.40
   1  -4   0 1163.08   32.40
  -1   4   0 1152.78   32.40
  -1   4   0 1173.98   32.00
  -1   4   0 1227.58   32.30
  -1   4   0 1150.18   32.40
   0  -4   0  160.68    4.90
   0  -4   0  147.69    5.00
   0  -4   0  158.88    5.00
   0  -4   0  158.48    4.80
   0  -4   0  154.18    4.70
   0  -4   0  167.38    5.20
   0  -4   0  154.18    5.00
   0  -4   0  154.38    5.10
   0   4   0  160.58    5.10
   0   4   0  147.59    4.90
   0   4   0  152.18    4.80
   0   4   0  156.78    5.10
   0   4   0  163.28    5.10
  -1  -4   0    0.40    0.50
  -1  -4   0   -0.30    0.60
  -1  -4   0    0.20    0.80
  -1  -4   0    1.60    0.80
  -1  -4   0   -0.40    0.60
  -1  -4   0    0.10    1.00
  -1  -4   0    0.40    0.70
  -1  -4   0   -1.10    0.80
   1   4   0   -0.20    0.70
   1   4   0   -0.60    0.50
   1   4   0    0.20    0.60
   1   4   0    0.30    0.60
  -2  -4   0  133.49    5.30
  -2  -4   0  130.09    4.50
  -2  -4   0  121.69    4.80
  -2  -4   0  132.39    4.30
  -2  -4   0  121.79    3.90
   2   4   0  132.79    4.60
   2   4   0  121.29    4.40
  -3  -4   0  155.98    5.40
  -3  -4   0  177.18    6.40
  -3  -4   0  164.48    5.30
   3   4   0  164.88    5.90
   3   4   0  165.88    5.70
  -4  -4   0   57.39    3.20
  -4  -4   0   66.69    3.20
  -4  -4   0   62.39    4.40
   4   4   0   64.09    3.80
  -5  -4   0   34.70    3.90
   5   4   0   33.60    3.60
   5   4   0   29.20    3.00
  -6  -4   0    7.70    3.80
   6   4   0    3.20    3.10
   6   4   0   10.20    3.00
   7  -5   0    7.00    2.90
  -7   5   0    6.80    3.00
   6  -5   0   24.00    3.10
  -6   5   0   19.60    2.10
  -6   5   0   19.80    2.50
   5  -5   0    5.00    1.90
   5  -5   0    9.40    1.60
  -5   5   0    7.00    1.80
  -5   5   0    5.10    0.90
   4  -5   0  106.89    4.80
   4  -5   0  105.49    4.10
  -4   5   0  106.69    3.90
  -4   5   0  108.39    4.00
  -4   5   0  112.59    4.60
   3  -5   0  287.67    8.80
   3  -5   0  305.17    9.70
  -3   5   0  308.87    8.90
  -3   5   0  301.47    9.30
  -3   5   0  304.47    8.70
  -3   5   0  291.57    8.40
   2  -5   0  142.99    5.30
   2  -5   0  165.98    5.70
   2  -5   0  161.58    4.80
   2  -5   0  160.68    5.00
   2  -5   0  149.79    5.50
  -2   5   0  152.98    5.30
  -2   5   0  151.78    5.30
  -2   5   0  141.09    5.60
  -2   5   0  167.78    5.10
  -2   5   0  160.78    4.80
   1  -5   0   37.60    2.40
   1  -5   0   36.50    2.30
   1  -5   0   40.30    2.00
   1  -5   0   38.00    2.30
   1  -5   0   39.30    1.90
   1  -5   0   37.50    1.70
   1  -5   0   36.40    1.50
  -1   5   0   35.80    2.10
  -1   5   0   36.50    2.20
  -1   5   0   37.50    2.10
  -1   5   0   36.30    1.70
   0  -5   0    5.90    1.20
   0  -5   0    5.70    1.30
   0  -5   0    3.60    1.20
   0  -5   0    6.60    1.00
   0  -5   0    6.30    1.20
   0  -5   0    7.40    1.00
   0  -5   0    8.00    0.80
   0  -5   0    8.10    1.30
   0   5   0    6.00    1.00
   0   5   0    8.50    1.00
   0   5   0    6.90    1.30
   0   5   0    6.70    1.00
  -1  -5   0   47.90    2.80
  -1  -5   0   54.89    2.70
  -1  -5   0   58.19    2.90
  -1  -5   0   53.99    3.30
  -1  -5   0   54.89    2.60
  -1  -5   0   55.89    2.80
  -1  -5   0   56.39    2.50
  -1  -5   0   58.39    2.40
   1   5   0   55.79    2.70
   1   5   0   52.59    2.50
   1   5   0   58.29    2.90
   1   5   0   59.39    2.50
  -2  -5   0   38.30    1.70
  -2  -5   0   35.70    2.10
  -2  -5   0   37.20    2.80
  -2  -5   0   32.00    2.50
   2   5   0   35.40    2.30
   2   5   0   36.50    2.70
  -3  -5   0   -0.30    1.20
  -3  -5   0   -0.50    1.40
  -3  -5   0    0.10    1.10
  -3  -5   0    0.30    1.90
   3   5   0    0.80    1.60
   3   5   0    0.50    1.30
  -4  -5   0  167.08    7.10
   4   5   0  160.18    6.70
   4   5   0  160.48    6.30
  -5  -5   0   13.30    3.60
   5   5   0   17.10    3.30
   5   5   0   19.80    3.00
   7  -6   0   -1.20    3.20
  -7   6   0    1.20    2.60
  -7   6   0    4.60    3.00
   6  -6   0    4.40    2.70
  -6   6   0    2.40    2.40
  -6   6   0    5.40    2.20
   5  -6   0  124.29    6.00
   5  -6   0  122.29    5.00
  -5   6   0  125.99    4.80
  -5   6   0  121.39    5.70
  -5   6   0  119.19    4.80
   4  -6   0   45.80    3.70
   4  -6   0   52.69    2.90
  -4   6   0   45.20    2.80
  -4   6   0   49.00    2.70
  -4   6   0   50.79    3.60
   3  -6   0  101.49    4.80
   3  -6   0   97.69    3.70
  -3   6   0  102.99    4.40
  -3   6   0  101.29    3.70
  -3   6   0   98.39    4.40
  -3   6   0  105.49    3.90
   2  -6   0   11.00    1.10
   2  -6   0    9.60    1.80
   2  -6   0   13.10    1.50
  -2   6   0   13.40    1.80
  -2   6   0   12.10    1.60
  -2   6   0   13.00    1.30
  -2   6   0   11.90    1.50
   1  -6   0   99.39    3.40
   1  -6   0   95.39    3.10
   1  -6   0   98.89    3.80
   1  -6   0   97.19    3.70
   1  -6   0   99.49    4.40
  -1   6   0   93.99    4.00
  -1   6   0   98.09    4.00
  -1   6   0   95.99    4.00
   0  -6   0  238.28    7.80
   0  -6   0  227.18    7.60
   0  -6   0  229.08    7.10
   0  -6   0  231.98    6.90
   0  -6   0  228.88    8.10
   0  -6   0  213.58    7.40
   0   6   0  233.98    7.70
   0   6   0  236.28    7.50
   0   6   0  231.68    7.30
  -1  -6   0   19.30    3.10
  -1  -6   0   20.50    1.90
  -1  -6   0   25.90    2.60
  -1  -6   0   22.60    2.20
  -1  -6   0   22.40    1.80
   1   6   0   21.80    2.10
   1   6   0   23.80    2.00
   1   6   0   25.30    2.70
   1   6   0   20.60    2.20
  -2  -6   0  390.36   11.20
  -2  -6   0  396.46   12.30
  -2  -6   0  390.66   12.10
  -2  -6   0  388.86   11.60
   2   6   0  393.46   12.30
   2   6   0  390.66   11.90
  -3  -6   0    5.10    1.60
  -3  -6   0    3.10    2.30
   3   6   0    2.50    1.80
   3   6   0    3.30    2.20
  -4  -6   0    3.60    2.00
  -4  -6   0    5.40    2.90
   4   6   0    8.20    2.30
   4   6   0    9.40    2.90
   6  -7   0   39.90    4.30
   6  -7   0   47.00    4.40
  -6   7   0   52.79    5.50
  -6   7   0   49.20    4.70
   5  -7   0  172.28    6.40
   5  -7   0  167.78    7.70
  -5   7   0  188.88    7.50
  -5   7   0  169.08    6.30
   4  -7   0   40.50    4.20
   4  -7   0   43.80    2.90
  -4   7   0   37.60    3.70
  -4   7   0   44.30    3.20
  -4   7   0   39.50    3.50
   3  -7   0    7.00    1.30
   3  -7   0    4.70    2.20
  -3   7   0    5.50    1.70
  -3   7   0    5.10    1.40
  -3   7   0    2.50    1.70
  -3   7   0    4.20    1.80
   2  -7   0   64.79    2.80
   2  -7   0   52.39    4.70
  -2   7   0   64.89    3.00
  -2   7   0   64.39    3.70
  -2   7   0   63.29    4.60
  -2   7   0   61.69    3.50
   1  -7   0    7.60    2.00
   1  -7   0    6.20    1.80
   1  -7   0    8.40    1.20
   1  -7   0    7.70    0.90
   1  -7   0    8.60    1.70
  -1   7   0    5.70    1.70
  -1   7   0    3.50    1.70
  -1   7   0    4.10    1.40
   0  -7   0  280.37    8.50
   0  -7   0  274.57    9.50
   0  -7   0  282.27    9.30
   0  -7   0  278.97    8.50
   0   7   0  286.87    9.00
   0   7   0  279.07    9.20
  -1  -7   0   25.70    2.90
  -1  -7   0   27.20    2.60
  -1  -7   0   27.90    2.40
  -1  -7   0   26.50    2.80
   1   7   0   31.60    2.70
   1   7   0   26.20    2.80
   1   7   0   33.90    2.90
   1   7   0   25.90    2.70
  -2  -7   0   42.50    2.50
  -2  -7   0   49.99    4.00
  -2  -7   0   49.70    4.00
  -2  -7   0   48.90    3.20
   2   7   0   47.80    3.50
   2   7   0   43.90    4.30
  -3  -7   0   56.69    3.80
  -3  -7   0   51.09    5.10
  -3  -7   0   47.40    4.60
   3   7   0   44.20    5.00
   3   7   0   45.30    4.30
   6  -8   0   49.90    6.30
   6  -8   0   38.90    4.80
   6  -8   0   62.19    4.90
  -6   8   0   54.59    5.60
  -6   8   0   59.29    5.80
   5  -8   0    0.90    2.00
   5  -8   0    2.20    3.30
  -5   8   0    0.40    2.60
  -5   8   0    4.90    2.80
   4  -8   0    4.70    1.70
   4  -8   0    4.60    2.70
  -4   8   0    9.80    2.40
  -4   8   0    4.80    2.20
  -4   8   0    6.70    2.50
   3  -8   0  148.09    5.30
   3  -8   0  144.49    6.90
  -3   8   0  144.39    6.40
  -3   8   0  147.99    5.90
  -3   8   0  142.79    6.40
   2  -8   0  142.89    6.70
   2  -8   0  144.19    5.00
   2  -8   0  135.99    6.50
  -2   8   0  143.19    6.10
  -2   8   0  149.88    6.20
  -2   8   0  149.88    6.00
   1  -8   0   24.50    2.80
   1  -8   0   26.50    2.20
   1  -8   0   29.40    3.30
  -1   8   0   20.70    2.40
  -1   8   0   29.40    3.00
  -1   8   0   24.10    2.60
   0  -8   0   22.10    2.50
   0  -8   0   24.10    3.10
   0  -8   0   23.10    2.30
   0   8   0   17.50    2.60
   0   8   0   20.70    2.40
  -1  -8   0    3.30    2.50
  -1  -8   0    5.00    2.00
  -1  -8   0    8.70    1.70
  -1  -8   0    6.20    1.90
   1   8   0    5.30    2.10
  -2  -8   0    9.50    3.20
  -2  -8   0    9.50    2.00
  -2  -8   0    8.40    2.70
   2   8   0    7.60    2.40
   2   8   0   15.00    3.40
   4  -9   0    5.80    3.30
   4  -9   0    0.80    3.40
  -4   9   0    2.70    2.90
  -4   9   0    1.70    3.00
   3  -9   0  338.17   10.30
   3  -9   0  322.77   12.20
   3  -9   0  323.57   12.10
  -3   9   0  332.07   11.60
  -3   9   0  318.47   11.50
   2  -9   0   49.50    5.70
   2  -9   0   65.99    5.80
   2  -9   0   67.79    3.60
  -2   9   0   68.59    4.90
  -2   9   0   64.59    4.90
  -2   9   0   66.19    5.20
   1  -9   0    4.40    3.10
   1  -9   0    2.70    2.60
   1  -9   0    2.00    1.70
  -1   9   0    4.80    2.30
  -1   9   0    2.20    2.10
   0  -9   0   12.80    2.80
   0  -9   0   17.70    2.20
   0  -9   0   14.10    3.60
   0   9   0   17.00    3.00
   0   9   0   16.50    2.70
  -1  -9   0   13.20    3.80
  -1  -9   0   22.30    2.70
   1   9   0   15.20    3.00
   1   9  -1   57.59    5.00
  -1  -9   1   66.69    6.20
  -1  -9   1   58.39    3.80
   0   9  -1   38.40    3.70
   0   9  -1   43.50    4.20
   0  -9   1   40.60    3.10
   0  -9   1   41.80    4.20
   0  -9   1   39.80    4.60
  -1   9  -1  108.29    5.80
  -1   9  -1  130.69    6.60
  -1   9  -1  108.39    5.70
   1  -9   1  113.29    4.50
   1  -9   1  111.69    6.70
   1  -9   1  112.19    6.40
  -2   9  -1   13.80    3.10
  -2   9  -1   11.70    2.60
  -2   9  -1   10.20    2.50
   2  -9   1   16.30    3.30
   2  -9   1   11.30    1.80
   2  -9   1   10.20    3.10
  -3   9  -1  146.39    7.00
  -3   9  -1  140.99    7.10
   3  -9   1  145.39    7.50
   3  -9   1  146.19    7.80
  -4   9  -1   -1.20    3.10
  -4   9  -1    4.60    3.00
   4  -9   1   -0.90    3.30
   4  -9   1    0.80    3.30
   2   8  -1   26.80    3.60
   2   8  -1   28.50    3.00
  -2  -8   1   30.70    3.30
  -2  -8   1   28.30    3.30
  -2  -8   1   26.70    3.40
   1   8  -1  230.38    8.90
  -1  -8   1  254.87    9.30
  -1  -8   1  260.97    8.70
  -1  -8   1  271.07    8.60
  -1  -8   1  259.17    8.20
   0   8  -1    2.90    1.90
   0   8  -1    4.80    2.00
   0  -8   1    2.80    1.20
   0  -8   1    2.30    1.50
   0  -8   1    0.40    1.90
   0  -8   1    1.40    2.20
  -1   8  -1  256.97    8.80
  -1   8  -1  264.77    9.00
  -1   8  -1  267.47    9.10
   1  -8   1  250.57    9.20
   1  -8   1  258.17    7.90
   1  -8   1  252.57    9.40
  -2   8  -1   35.60    3.60
  -2   8  -1   36.80    3.70
  -2   8  -1   39.00    3.90
   2  -8   1   38.10    4.10
   2  -8   1   39.20    2.50
   2  -8   1   35.10    4.10
  -3   8  -1    8.00    2.20
  -3   8  -1    9.10    2.20
  -3   8  -1    7.60    2.30
   3  -8   1    9.00    2.70
   3  -8   1    5.40    1.50
   3  -8   1    2.40    2.50
  -4   8  -1    2.40    2.20
  -4   8  -1    3.30    2.20
  -4   8  -1    0.20    2.50
   4  -8   1    2.60    2.80
   4  -8   1   -1.60    1.50
   4  -8   1    2.80    2.60
  -5   8  -1  113.09    6.60
  -5   8  -1  110.09    6.30
   5  -8   1  111.09    6.90
   5  -8   1  106.49    7.10
   5  -8   1  105.39    5.10
  -6   8  -1   94.39    6.50
  -6   8  -1  109.49    9.70
   6  -8   1   93.59    7.50
   3   7  -1   48.40    5.00
   3   7  -1   53.59    4.40
  -3  -7   1   56.39    5.20
  -3  -7   1   47.30    3.70
  -3  -7   1   48.50    4.30
   2   7  -1    6.00    2.40
   2   7  -1    5.40    1.70
  -2  -7   1    5.20    1.20
  -2  -7   1    4.00    2.20
  -2  -7   1    3.50    2.10
  -2  -7   1    3.20    1.40
   1   7  -1  330.67   10.40
   1   7  -1  329.87   10.30
   1   7  -1  336.87   10.70
   1   7  -1  334.27   11.00
  -1  -7   1  333.97   10.80
  -1  -7   1  335.07   10.00
  -1  -7   1  331.57   10.50
  -1  -7   1  337.67   10.30
   0   7  -1  161.28    5.70
   0   7  -1  165.68    6.40
   0   7  -1  146.09    6.40
   0  -7   1  154.68    6.00
   0  -7   1  163.38    5.20
   0  -7   1  156.68    6.30
   0  -7   1  157.78    5.40
  -1   7  -1    2.20    1.40
  -1   7  -1    0.50    1.30
  -1   7  -1   -0.40    1.60
   1  -7   1    0.80    0.80
   1  -7   1    0.10    1.60
   1  -7   1    1.40    1.50
   1  -7   1    0.40    1.60
   1  -7   1    0.90    0.80
  -2   7  -1    4.80    1.70
  -2   7  -1    1.70    1.20
  -2   7  -1    2.70    1.60
  -2   7  -1    2.70    1.60
   2  -7   1    3.50    1.00
   2  -7   1   -0.10    1.70
  -3   7  -1  187.38    6.60
  -3   7  -1  184.28    6.90
  -3   7  -1  172.18    6.90
  -3   7  -1  184.08    5.90
   3  -7   1  185.88    7.30
   3  -7   1  192.78    6.00
  -4   7  -1    1.50    1.80
  -4   7  -1    0.40    1.60
  -4   7  -1   -0.80    1.50
  -4   7  -1    2.80    2.00
   4  -7   1    0.60    1.30
   4  -7   1    1.60    2.30
  -5   7  -1  132.29    5.50
  -5   7  -1  133.09    6.30
   5  -7   1  123.59    6.70
   5  -7   1  127.69    5.30
  -6   7  -1   50.29    5.20
   6  -7   1   55.29    5.00
   6  -7   1   52.29    5.80
   4   6  -1   39.60    4.60
   4   6  -1   34.50    3.20
  -4  -6   1   35.00    4.00
  -4  -6   1   41.40    3.70
   3   6  -1   34.70    3.20
   3   6  -1   33.30    3.20
  -3  -6   1   41.10    2.90
  -3  -6   1   37.80    3.40
  -3  -6   1   33.50    3.30
   2   6  -1    1.00    1.40
  -2  -6   1    0.00    1.50
  -2  -6   1   -0.70    1.50
  -2  -6   1    0.20    1.00
  -2  -6   1    1.00    0.80
   1   6  -1   66.49    3.60
   1   6  -1   71.09    3.40
   1   6  -1   69.39    3.30
   1   6  -1   65.49    3.10
  -1  -6   1   71.09    3.60
  -1  -6   1   70.69    3.60
  -1  -6   1   73.09    3.20
  -1  -6   1   72.99    2.90
   0   6  -1  100.29    4.00
   0   6  -1  108.09    4.50
   0   6  -1  105.19    4.20
   0  -6   1  106.09    3.60
   0  -6   1  106.59    4.30
   0  -6   1  103.39    3.90
   0  -6   1   94.29    4.30
   0  -6   1  106.19    4.40
  -1   6  -1  858.21   24.00
  -1   6  -1  850.11   24.00
  -1   6  -1  858.11   23.90
   1  -6   1  883.01   24.40
   1  -6   1  887.21   24.30
   1  -6   1  833.42   24.20
   1  -6   1  749.33   23.50
   1  -6   1  864.21   23.30
   1  -6   1  846.02   23.70
  -2   6  -1   36.00    1.90
  -2   6  -1   30.10    2.50
  -2   6  -1   37.50    2.50
  -2   6  -1   35.30    2.50
   2  -6   1   31.00    2.90
   2  -6   1   35.10    1.80
  -3   6  -1  232.68    7.30
  -3   6  -1  225.58    6.90
  -3   6  -1  227.08    7.70
  -3   6  -1  220.88    7.70
   3  -6   1  236.18    7.10
   3  -6   1  227.88    8.10
  -4   6  -1   32.50    2.40
  -4   6  -1   34.70    2.50
  -4   6  -1   39.70    3.20
   4  -6   1   32.70    3.50
   4  -6   1   32.40    2.40
  -5   6  -1   41.20    3.20
  -5   6  -1   46.60    3.20
  -5   6  -1   46.20    3.90
   5  -6   1   45.40    4.30
   5  -6   1   40.40    3.10
  -6   6  -1   98.89    5.60
   6  -6   1   89.89    5.80
  -7   6  -1   17.30    3.40
   7  -6   1   16.50    3.80
   7  -6   1   17.10    3.60
   5   5  -1   65.19    5.20
   5   5  -1   57.19    4.70
  -5  -5   1   61.09    6.30
   4   5  -1    2.10    1.80
   4   5  -1    1.50    2.00
  -4  -5   1    1.70    2.30
   3   5  -1   76.49    3.70
   3   5  -1   82.69    4.10
  -3  -5   1   74.59    2.40
  -3  -5   1   72.09    3.70
  -3  -5   1   82.09    4.40
  -3  -5   1   77.09    3.20
   2   5  -1   13.20    1.70
   2   5  -1    8.00    1.30
  -2  -5   1   11.20    1.60
  -2  -5   1    8.60    1.40
  -2  -5   1   11.00    1.10
  -2  -5   1    8.60    1.70
  -2  -5   1   10.60    1.20
   1   5  -1   24.00    1.90
   1   5  -1   25.60    1.80
   1   5  -1   21.70    2.00
   1   5  -1   22.90    1.70
  -1  -5   1   21.60    2.00
  -1  -5   1   24.50    2.10
  -1  -5   1   21.40    1.70
  -1  -5   1   22.10    2.00
  -1  -5   1   22.60    1.50
  -1  -5   1   19.60    2.00
  -1  -5   1   21.70    2.20
  -1  -5   1   22.90    2.60
   0   5  -1    0.00    0.80
   0   5  -1   -0.10    0.70
   0   5  -1   -1.60    0.90
   0   5  -1    0.60    0.60
   0  -5   1    0.60    0.80
   0  -5   1    0.30    0.90
   0  -5   1   -0.40    0.80
   0  -5   1    0.10    1.10
   0  -5   1   -0.60    0.90
   0  -5   1   -0.70    0.80
   0  -5   1    1.00    1.00
   0  -5   1    2.30    0.60
   0  -5   1    1.20    1.00
  -1   5  -1  629.94   17.10
  -1   5  -1  595.14   17.70
  -1   5  -1  611.54   17.60
  -1   5  -1  621.14   17.60
   1  -5   1  619.74   17.60
   1  -5   1  615.84   17.00
   1  -5   1  610.24   17.70
   1  -5   1  609.44   17.10
   1  -5   1  636.64   17.40
   1  -5   1  633.14   17.40
   1  -5   1  634.44   17.90
  -2   5  -1  402.16   12.50
  -2   5  -1  441.96   12.30
  -2   5  -1  423.76   12.80
  -2   5  -1  424.86   11.90
  -2   5  -1  415.46   12.50
   2  -5   1  433.66   12.10
   2  -5   1  417.96   12.70
   2  -5   1  425.56   11.90
  -3   5  -1  110.39    4.40
  -3   5  -1  110.59    3.70
  -3   5  -1  117.89    4.00
  -3   5  -1  107.49    3.60
   3  -5   1  114.49    3.90
   3  -5   1  113.39    4.70
  -4   5  -1  126.89    4.90
  -4   5  -1  114.89    4.20
  -4   5  -1  118.29    3.50
   4  -5   1  118.69    5.10
   4  -5   1  130.99    4.50
  -5   5  -1   31.20    1.80
  -5   5  -1   34.50    3.10
   5  -5   1   34.40    3.40
   5  -5   1   32.10    2.90
  -6   5  -1   24.00    2.10
  -6   5  -1   22.00    2.60
   6  -5   1   22.90    3.00
  -7   5  -1   58.79    5.10
   7  -5   1   58.49    5.70
   7  -5   1   51.09    5.10
   6   4  -1   84.49    5.70
   6   4  -1   83.99    6.00
  -6  -4   1   97.09    7.60
   5   4  -1  274.87    9.10
   5   4  -1  254.87    9.20
  -5  -4   1  253.17    9.90
   4   4  -1    2.10    1.70
  -4  -4   1   -1.10    1.90
  -4  -4   1    0.70    1.50
  -4  -4   1   -0.50    1.20
   3   4  -1   30.30    2.50
   3   4  -1   31.90    2.30
  -3  -4   1   30.40    2.20
  -3  -4   1   27.40    1.80
  -3  -4   1   37.30    3.10
   2   4  -1   85.59    3.50
   2   4  -1   85.79    3.30
  -2  -4   1   80.79    3.40
  -2  -4   1   86.89    4.10
  -2  -4   1   85.69    3.40
  -2  -4   1   85.59    3.90
  -2  -4   1   92.99    2.80
  -2  -4   1   86.09    3.30
   1   4  -1  538.25   15.40
   1   4  -1  504.85   15.10
   1   4  -1  527.45   15.00
   1   4  -1  528.15   14.90
   1   4  -1  530.65   15.20
  -1  -4   1  539.15   14.90
  -1  -4   1  534.65   15.10
  -1  -4   1  546.45   15.30
  -1  -4   1  533.55   15.00
  -1  -4   1  539.05   15.10
  -1  -4   1  531.85   15.30
  -1  -4   1  514.95   15.00
  -1  -4   1  559.44   15.30
  -1  -4   1  521.05   14.80
   0   4  -1  326.47    9.40
   0   4  -1  325.07    9.30
   0   4  -1  306.67    9.50
   0   4  -1  337.37    9.60
   0   4  -1  323.27    9.50
   0  -4   1  310.77    9.40
   0  -4   1  328.97    9.30
   0  -4   1  320.07    9.50
   0  -4   1  325.57    9.40
   0  -4   1  318.17    9.50
   0  -4   1  325.97    9.10
   0  -4   1  322.97    9.60
   0  -4   1  334.77    9.30
  -1   4  -1  546.15   15.90
  -1   4  -1  581.84   15.60
  -1   4  -1  581.74   16.00
  -1   4  -1  581.34   16.20
  -1   4  -1  566.34   16.10
   1  -4   1  571.74   15.50
   1  -4   1  563.74   16.00
   1  -4   1  542.15   16.20
   1  -4   1  575.44   16.00
   1  -4   1  564.74   15.80
   1  -4   1  583.94   15.80
   1  -4   1  557.34   15.60
  -2   4  -1    2.10    0.70
  -2   4  -1    0.70    0.90
  -2   4  -1    2.30    0.80
  -2   4  -1    1.80    0.50
   2  -4   1    0.90    0.90
   2  -4   1    1.60    0.90
   2  -4   1    1.30    0.50
  -3   4  -1    9.10    1.30
  -3   4  -1    6.90    0.60
  -3   4  -1    5.60    1.30
  -3   4  -1    7.40    0.90
   3  -4   1    9.00    1.00
   3  -4   1    9.50    1.40
  -4   4  -1    7.70    0.80
  -4   4  -1    5.70    1.30
  -4   4  -1    7.20    1.20
   4  -4   1    5.10    1.50
   4  -4   1    6.10    1.10
  -5   4  -1  281.77    8.50
  -5   4  -1  296.97    9.30
   5  -4   1  279.57    9.40
  -6   4  -1  102.09    4.90
  -6   4  -1   97.09    4.10
   6  -4   1   99.79    5.00
  -7   4  -1  183.48    6.80
  -7   4  -1  184.68    7.50
   7  -4   1  181.78    7.40
   7  -4   1  168.58    7.70
   6   3  -1   17.00    2.50
   6   3  -1   12.60    2.70
  -6  -3   1   18.20    3.70
   5   3  -1   12.40    2.10
   5   3  -1   16.60    2.10
  -5  -3   1   13.00    2.40
  -5  -3   1   12.90    2.60
   4   3  -1    1.70    1.30
   4   3  -1   -0.40    1.10
  -4  -3   1    0.70    1.00
  -4  -3   1   -0.80    1.10
  -4  -3   1   -1.50    1.70
   3   3  -1 1002.00   28.90
   3   3  -1 1070.39   29.00
  -3  -3   1 1041.00   28.50
  -3  -3   1 1060.99   29.50
  -3  -3   1 1008.90   29.50
  -3  -3   1 1079.69   28.70
   2   3  -1 1089.39   30.10
   2   3  -1 1097.09   30.10
  -2  -3   1 1037.80   29.80
  -2  -3   1 1079.79   30.00
  -2  -3   1 1124.59   29.90
  -2  -3   1 1111.79   30.50
  -2  -3   1 1128.89   30.20
  -2  -3   1 1112.29   30.50
  -2  -3   1 1057.59   29.50
   1   3  -1   43.20    1.90
   1   3  -1   43.40    1.80
   1   3  -1   40.20    1.80
   1   3  -1   42.40    2.10
   1   3  -1   45.10    1.80
  -1  -3   1   39.80    2.00
  -1  -3   1   44.50    1.80
  -1  -3   1   48.40    1.90
  -1  -3   1   44.70    2.10
  -1  -3   1   46.30    1.80
  -1  -3   1   44.20    2.10
  -1  -3   1   44.90    2.00
   0   3  -1  626.64   16.80
   0   3  -1  626.14   16.60
   0   3  -1  586.24   16.70
   0   3  -1  594.94   16.70
   0   3  -1  592.44   16.70
   0  -3   1  604.54   16.40
   0  -3   1  621.74   16.80
   0  -3   1  609.54   16.70
   0  -3   1  569.84   16.70
   0  -3   1  613.34   16.60
   0  -3   1  584.84   16.70
   0  -3   1  568.14   17.00
   0  -3   1  621.44   16.80
   0  -3   1  606.44   16.60
  -1   3  -1   62.49    2.50
  -1   3  -1   60.39    2.20
  -1   3  -1   61.69    2.30
  -1   3  -1   63.39    2.00
  -1   3  -1   61.19    2.40
   1  -3   1   65.79    2.20
   1  -3   1   63.49    2.00
   1  -3   1   64.89    2.50
   1  -3   1   63.89    2.40
   1  -3   1   64.89    1.90
  -2   3  -1  147.29    4.80
  -2   3  -1  154.48    4.30
  -2   3  -1  158.58    4.50
  -2   3  -1  158.78    5.10
   2  -3   1  158.38    4.60
   2  -3   1  155.68    4.40
   2  -3   1  144.99    5.00
  -3   3  -1 1488.05   40.50
  -3   3  -1 1505.05   40.20
  -3   3  -1 1489.65   40.80
  -3   3  -1 1462.35   40.00
   3  -3   1 1429.96   40.30
   3  -3   1 1474.55   40.70
   3  -3   1 1495.25   40.20
  -4   3  -1  106.09    4.00
  -4   3  -1  114.59    4.10
  -4   3  -1  106.79    4.70
  -4   3  -1  110.89    3.70
   4  -3   1  108.89    4.20
  -5   3  -1   69.09    3.30
  -5   3  -1   65.19    3.10
   5  -3   1   63.39    3.50
  -6   3  -1   22.20    2.30
  -6   3  -1   17.00    2.10
   6  -3   1   25.20    2.50
  -7   3  -1    4.90    2.10
  -7   3  -1    3.20    2.30
   7  -3   1    4.50    2.40
   7  -3   1    2.80    2.20
   7   2  -1    3.30    2.70
   7   2  -1    7.70    3.00
  -7  -2   1    4.90    3.90
   6   2  -1   36.00    3.00
   6   2  -1   28.30    2.90
  -6  -2   1   22.80    3.30
   5   2  -1   60.09    3.60
   5   2  -1   58.09    4.60
  -5  -2   1   62.69    4.20
  -5  -2   1   57.29    3.50
   4   2  -1  358.06   10.90
   4   2  -1  366.66   10.90
  -4  -2   1  367.86   11.50
  -4  -2   1  367.66   10.60
   3   2  -1   -0.40    0.60
   3   2  -1    1.40    0.80
  -3  -2   1   -1.30    0.90
  -3  -2   1    0.90    0.60
  -3  -2   1   -0.20    1.30
  -3  -2   1    0.00    0.90
   2   2  -1    0.10    0.50
   2   2  -1    0.00    0.50
  -2  -2   1   -1.20    0.80
  -2  -2   1    0.20    0.50
  -2  -2   1   -0.70    0.50
  -2  -2   1    0.50    0.80
  -2  -2   1    0.20    0.20
  -2  -2   1   -0.50    0.30
   1   2  -1 2083.79   55.99
   1   2  -1 1805.82   56.09
   1   2  -1 2094.19   56.19
  -1  -2   1 2111.69   56.09
  -1  -2   1 1991.00   55.69
  -1  -2   1 2156.28   55.99
  -1  -2   1 1975.60   56.19
  -1  -2   1 2185.68   55.99
  -1  -2   1 2115.39   55.89
  -1  -2   1 2097.29   55.79
   0   2  -1 1075.49   28.10
   0   2  -1 1002.40   28.00
   0   2  -1 1044.00   28.00
   0   2  -1 1022.00   28.10
   0   2  -1 1062.99   28.00
   0   2  -1 1016.70   28.00
   0  -2   1  962.50   28.00
   0  -2   1 1068.99   28.10
   0  -2   1 1000.30   28.00
   0  -2   1  980.40   28.10
   0  -2   1 1083.79   28.10
   0  -2   1 1027.40   28.10
   0  -2   1 1040.50   28.10
   0  -2   1 1047.30   28.00
  -1   2  -1 1166.78   35.80
  -1   2  -1 1335.37   35.70
  -1   2  -1 1337.47   35.50
  -1   2  -1 1326.27   35.80
  -1   2  -1 1306.77   35.50
   1  -2   1 1347.87   35.50
   1  -2   1 1387.46   35.80
   1  -2   1 1308.27   35.70
  -2   2  -1  635.84   17.40
  -2   2  -1  630.04   17.00
  -2   2  -1  606.34   16.90
  -2   2  -1  633.04   17.20
   2  -2   1  621.24   17.00
   2  -2   1  626.84   17.30
   2  -2   1  575.14   17.20
  -3   2  -1 1317.87   35.60
  -3   2  -1 1294.87   35.20
  -3   2  -1 1248.68   35.30
  -3   2  -1 1315.67   35.30
   3  -2   1 1302.07   35.50
   3  -2   1 1271.57   35.40
  -4   2  -1  306.27    9.00
  -4   2  -1  303.77    9.40
  -4   2  -1  297.87    9.10
   4  -2   1  291.57    9.20
   4  -2   1  299.57    9.10
  -5   2  -1  435.36   12.90
   5  -2   1  430.56   12.90
  -6   2  -1  130.59    5.50
   6  -2   1  120.59    5.40
   6  -2   1  128.79    5.20
   6  -2   1  133.09    5.30
  -7   2  -1   -1.50    2.20
  -7   2  -1    2.00    1.90
   7  -2   1   -0.50    2.00
   7  -2   1    0.70    2.50
   7   1  -1   50.59    4.90
   7   1  -1   43.20    4.70
  -7  -1   1   50.59    4.80
   6   1  -1  142.59    5.70
   6   1  -1  142.29    5.10
   6   1  -1  131.49    5.60
  -6  -1   1  138.39    6.70
   5   1  -1  163.38    5.10
   5   1  -1  151.88    5.60
   5   1  -1  160.18    5.60
  -5  -1   1  147.39    5.60
  -5  -1   1  153.78    6.30
   4   1  -1  272.17    7.90
   4   1  -1  260.47    7.10
   4   1  -1  255.27    7.50
  -4  -1   1  256.57    7.80
  -4  -1   1  240.38    8.20
  -4  -1   1  250.67    8.40
   3   1  -1  431.76   13.10
   3   1  -1  472.05   12.60
   3   1  -1  477.35   12.90
  -3  -1   1  478.65   13.70
   2   1  -1  123.79    3.60
   2   1  -1  118.99    3.90
   2   1  -1  122.79    3.80
   2   1  -1  124.49    3.50
  -2  -1   1  127.09    4.20
  -2  -1   1  127.39    3.60
  -2  -1   1  130.09    3.70
   1   1  -1 7769.22  245.08
   1   1  -1 9427.56  245.48
  -1  -1   1 9900.21  245.48
  -1  -1   1 9760.72  246.08
  -1  -1   1 9999.00  246.18
  -1  -1   1 7706.33  244.98
  -1  -1   1 9153.28  245.38
   0   1  -1    9.60    0.80
   0   1  -1   11.10    0.80
   0   1  -1   10.30    0.80
   0   1  -1   10.30    0.80
   0   1  -1    9.20    0.80
   0   1  -1    7.20    0.80
   0  -1   1   11.00    0.80
   0  -1   1   10.50    0.80
   0  -1   1   10.30    0.80
   0  -1   1   11.40    0.80
   0  -1   1   10.50    0.80
   0  -1   1    8.80    0.80
   0  -1   1   10.50    0.70
  -1   1  -1  425.86   11.80
  -1   1  -1  438.16   11.80
  -1   1  -1  418.26   11.70
   1  -1   1  428.06   11.80
   1  -1   1  441.46   11.90
   1  -1   1  429.66   11.70
   1  -1   1  430.66   11.80
  -2   1  -1  425.46   11.90
  -2   1  -1  414.96   11.90
   2  -1   1  425.36   11.90
   2  -1   1  434.96   11.90
  -3   1  -1  367.06   10.50
  -3   1  -1  365.56   10.60
  -3   1  -1  364.76   10.60
   3  -1   1  349.57   10.50
   3  -1   1  371.86   10.70
  -4   1  -1  145.19    5.00
  -4   1  -1  145.59    5.10
  -4   1  -1  137.59    5.10
   4  -1   1  135.29    5.30
   4  -1   1  151.18    4.80
  -5   1  -1  880.31   25.50
  -5   1  -1  944.71   25.60
   5  -1   1  869.01   24.90
   5  -1   1  924.01   25.10
   5  -1   1  871.71   24.90
  -6   1  -1   16.90    2.50
   6  -1   1   14.90    1.90
   6  -1   1   17.90    1.70
  -7   1  -1  127.89    6.40
   7  -1   1  121.99    5.50
   7  -1   1  127.19    5.90
   7   0  -1    2.20    2.20
  -7   0   1    4.50    3.10
   6   0  -1  148.49    5.80
   6   0  -1  147.79    5.00
   6   0  -1  151.08    5.30
  -6   0   1  155.08    6.70
   5   0  -1    5.00    1.10
   5   0  -1    5.30    0.80
  -5   0   1    4.00    1.60
  -5   0   1    3.50    1.60
   4   0  -1   88.79    2.90
   4   0  -1   86.89    3.10
  -4   0   1   83.59    3.40
  -4   0   1   90.29    3.90
  -4   0   1   87.19    3.70
   3   0  -1  405.26   11.40
   3   0  -1  411.96   11.50
  -3   0   1  409.56   12.00
  -3   0   1  423.66   11.70
  -3   0   1  405.66   11.80
   2   0  -1 2524.35   70.49
   2   0  -1 2707.33   70.89
  -2   0   1 2629.34   70.69
  -2   0   1 2560.34   70.49
   1   0  -1  397.56   11.00
   1   0  -1  405.96   11.00
  -1   0   1  406.36   11.10
  -1   0   1  400.56   11.10
  -1   0   1  399.36   11.00
  -1   0  -1  488.15   12.80
  -1   0  -1  455.65   12.90
   1   0   1  471.45   12.90
   1   0   1  461.95   12.80
   1   0   1  461.15   12.70
  -2   0  -1  511.85   14.80
  -2   0  -1  538.05   14.70
   2   0   1  537.05   14.60
  -3   0  -1  550.94   15.50
  -3   0  -1  545.05   15.30
   3   0   1  545.75   15.20
   3   0   1  535.25   15.60
  -4   0  -1   58.99    3.00
  -4   0  -1   65.59    3.20
  -4   0  -1   62.69    3.20
   4   0   1   60.79    2.30
   4   0   1   62.19    2.30
   4   0   1   68.19    2.60
   4   0   1   60.89    3.70
  -5   0  -1  179.78    6.80
  -5   0  -1  202.18    7.10
   5   0   1  194.38    5.80
   5   0   1  203.58    6.60
   5   0   1  200.88    6.30
  -6   0  -1    7.00    2.30
   6   0   1    7.40    1.60
   6   0   1    9.20    1.90
   6   0   1    8.10    1.20
  -7   0  -1   47.30    5.30
   7   0   1   55.69    4.80
   7   0   1   56.99    4.00
   7  -1  -1  199.98    7.10
  -7   1   1  198.38    8.20
   6  -1  -1  147.49    5.20
   6  -1  -1  135.19    5.00
  -6   1   1  140.79    6.20
   5  -1  -1  230.98    7.10
   5  -1  -1  220.48    7.00
  -5   1   1  219.88    7.60
  -5   1   1  223.18    7.60
   4  -1  -1 1261.47   34.50
   4  -1  -1 1248.28   34.60
  -4   1   1 1283.07   34.80
  -4   1   1 1238.08   34.80
  -4   1   1 1266.77   34.90
   3  -1  -1   98.69    3.30
  -3   1   1   99.59    3.50
  -3   1   1   93.79    3.50
  -3   1   1  100.39    3.40
   2  -1  -1    0.80    0.50
   2  -1  -1    0.20    0.30
  -2   1   1    0.90    0.40
  -2   1   1    1.50    0.50
  -2   1   1    0.70    0.40
   1  -1  -1  254.37    7.20
   1  -1  -1  246.68    7.00
  -1   1   1  258.87    7.20
   0  -1  -1  115.79    3.20
   0  -1  -1  114.49    3.20
   0  -1  -1  112.09    3.20
   0  -1  -1  114.59    3.30
   0  -1  -1  113.49    3.20
   0  -1  -1  112.59    3.20
   0  -1  -1  107.99    3.30
   0   1   1  110.69    3.20
   0   1   1  116.59    3.20
   0   1   1  112.89    3.20
   0   1   1  116.99    3.30
   0   1   1  115.59    3.30
   0   1   1  111.59    3.20
  -1  -1  -1   99.49    2.90
  -1  -1  -1   99.79    3.20
  -1  -1  -1  102.79    3.10
   1   1   1   97.49    3.20
   1   1   1  107.99    3.10
  -2  -1  -1   35.60    1.80
  -2  -1  -1   38.80    1.50
   2   1   1   38.00    1.60
   2   1   1   36.50    1.90
   2   1   1   37.20    1.40
  -3  -1  -1 1648.83   43.80
  -3  -1  -1 1561.34   44.20
   3   1   1 1692.93   44.40
   3   1   1 1561.04   43.60
   3   1   1 1573.44   43.80
  -4  -1  -1   87.19    3.50
  -4  -1  -1   86.59    4.00
   4   1   1   85.39    3.50
   4   1   1   88.29    3.20
  -5  -1  -1   -0.50    2.00
  -5  -1  -1    1.50    1.80
   5   1   1    1.30    1.10
   5   1   1   -0.30    1.80
  -6  -1  -1   25.30    3.40
   6   1   1   24.50    2.60
   6   1   1   22.80    2.20
   6   1   1   28.20    3.30
  -7  -1  -1   23.60    3.70
   7   1   1   30.20    3.60
   7   1   1   21.80    3.00
   7  -2  -1  189.58    7.00
  -7   2   1  188.38    7.80
   6  -2  -1  346.07   11.40
   6  -2  -1  378.26   11.50
  -6   2   1  393.56   11.90
   5  -2  -1    6.50    1.30
   5  -2  -1    9.90    1.70
  -5   2   1    8.80    1.60
  -5   2   1    9.00    2.10
   4  -2  -1   57.49    2.60
  -4   2   1   56.69    2.60
  -4   2   1   54.99    3.00
  -4   2   1   53.19    2.70
   3  -2  -1  732.63   20.40
   3  -2  -1  728.53   20.20
  -3   2   1  699.23   20.10
  -3   2   1  730.83   20.40
  -3   2   1  745.83   20.10
   2  -2  -1  435.76   11.30
   2  -2  -1  408.66   11.50
  -2   2   1  386.56   11.50
  -2   2   1  407.56   11.10
  -2   2   1  371.66   11.30
   1  -2  -1  547.05   14.70
   1  -2  -1  501.35   15.20
  -1   2   1  540.75   14.60
  -1   2   1  549.25   15.00
  -1   2   1  553.54   14.70
   0  -2  -1  158.28    4.40
   0  -2  -1  151.88    4.40
   0  -2  -1  148.79    4.50
   0  -2  -1  150.08    4.40
   0  -2  -1  150.68    4.40
   0   2   1  157.28    4.40
   0   2   1  153.78    4.50
   0   2   1  152.68    4.50
   0   2   1  150.18    4.40
   0   2   1  155.48    4.50
   0   2   1  155.18    4.40
  -1  -2  -1  327.77    9.40
  -1  -2  -1  332.67    9.50
  -1  -2  -1  330.47    9.20
  -1  -2  -1  332.07    9.40
   1   2   1  340.67    9.30
   1   2   1  326.87    9.40
   1   2   1  334.47    9.40
  -2  -2  -1  479.95   12.70
  -2  -2  -1  456.15   12.80
  -2  -2  -1  477.65   13.00
  -2  -2  -1  445.36   13.30
  -2  -2  -1  451.65   13.00
   2   2   1  426.46   13.00
   2   2   1  476.65   13.40
   2   2   1  462.75   13.00
  -3  -2  -1   86.79    3.70
  -3  -2  -1   93.19    3.20
   3   2   1   90.59    4.10
   3   2   1   88.09    3.30
   3   2   1   85.79    3.40
  -4  -2  -1   -1.40    1.10
  -4  -2  -1    0.80    1.50
   4   2   1    0.00    1.00
   4   2   1    0.00    0.90
  -5  -2  -1  117.39    5.30
  -5  -2  -1  128.69    5.70
   5   2   1  131.29    5.20
   5   2   1  111.99    5.70
  -6  -2  -1    8.40    2.90
   6   2   1    8.60    2.40
   6   2   1    7.40    2.20
   7   2   1   61.69    5.50
   7   2   1   63.79    6.10
   7  -3  -1    4.40    2.20
  -7   3   1   -2.00    2.10
  -7   3   1   -0.70    2.10
   6  -3  -1    2.20    1.70
  -6   3   1    2.50    1.70
   5  -3  -1  121.09    4.90
  -5   3   1  122.99    4.50
   4  -3  -1   58.79    2.70
   4  -3  -1   51.99    2.90
  -4   3   1   51.59    2.30
  -4   3   1   53.89    2.60
  -4   3   1   49.80    3.20
   3  -3  -1   48.20    2.40
   3  -3  -1   48.50    2.10
  -3   3   1   49.10    2.30
  -3   3   1   46.30    1.80
  -3   3   1   46.90    2.00
  -3   3   1   46.30    2.50
   2  -3  -1 4296.97  123.09
   2  -3  -1 4487.75  124.09
  -2   3   1 4938.41  123.09
  -2   3   1 4565.84  123.29
  -2   3   1 4656.73  123.59
  -2   3   1 4383.36  123.19
  -2   3   1 4554.94  123.49
   1  -3  -1  396.06   10.90
   1  -3  -1  383.06   10.90
   1  -3  -1  377.06   10.60
   1  -3  -1  377.36   11.10
   1  -3  -1  399.86   10.70
   1  -3  -1  386.46   10.70
   1  -3  -1  374.56   10.40
  -1   3   1  382.86   10.70
  -1   3   1  375.66   10.90
  -1   3   1  371.06   10.60
  -1   3   1  394.66   10.90
   0  -3  -1   26.90    1.20
   0  -3  -1   24.40    1.10
   0  -3  -1   22.80    1.40
   0  -3  -1   25.10    1.30
   0  -3  -1   25.50    1.30
   0  -3  -1   22.50    1.40
   0  -3  -1   25.60    1.20
   0   3   1   23.70    1.10
   0   3   1   23.10    1.20
   0   3   1   22.90    1.30
   0   3   1   24.00    1.10
   0   3   1   24.40    1.40
   0   3   1   23.30    1.30
   0   3   1   24.20    1.30
  -1  -3  -1  884.31   24.10
  -1  -3  -1  845.82   23.90
  -1  -3  -1  910.31   23.90
  -1  -3  -1  873.01   24.00
  -1  -3  -1  898.71   24.20
  -1  -3  -1  857.21   24.10
   1   3   1  869.21   24.10
   1   3   1  836.32   24.00
   1   3   1  848.82   23.80
   1   3   1  866.71   23.90
   1   3   1  901.91   24.30
  -2  -3  -1   50.99    2.30
  -2  -3  -1   48.80    2.60
  -2  -3  -1   49.00    1.90
  -2  -3  -1   49.30    1.50
  -2  -3  -1   49.50    1.60
  -2  -3  -1   47.50    2.00
  -2  -3  -1   47.30    2.70
   2   3   1   52.29    2.40
   2   3   1   43.70    2.90
   2   3   1   47.20    2.10
  -3  -3  -1  226.08    6.80
  -3  -3  -1  229.88    6.70
  -3  -3  -1  236.88    8.70
  -3  -3  -1  224.98    7.60
   3   3   1  225.78    7.20
   3   3   1  217.08    7.10
  -4  -3  -1   49.50    3.80
  -4  -3  -1   54.29    2.50
  -4  -3  -1   49.60    2.90
   4   3   1   56.49    3.40
   4   3   1   51.49    2.90
  -5  -3  -1  112.89    6.00
   5   3   1  111.39    4.90
   5   3   1  112.99    5.30
  -6  -3  -1    0.80    3.30
   6   3   1   -1.60    2.70
   6   3   1   -0.40    2.00
   7  -4  -1   19.60    2.90
  -7   4   1   18.80    2.90
  -7   4   1   24.00    2.70
   6  -4  -1   23.60    2.80
  -6   4   1   17.10    2.20
  -6   4   1   19.20    2.00
   5  -4  -1    6.90    1.90
   5  -4  -1    7.30    1.50
  -5   4   1    7.80    1.20
  -5   4   1    8.10    1.80
   4  -4  -1  389.86   12.20
   4  -4  -1  410.86   11.80
  -4   4   1  391.86   11.60
  -4   4   1  403.66   12.00
  -4   4   1  398.06   11.20
   3  -4  -1   11.90    1.50
   3  -4  -1   10.30    1.10
  -3   4   1   12.40    1.30
  -3   4   1   12.30    1.40
  -3   4   1   12.60    1.10
  -3   4   1    6.60    1.30
   2  -4  -1  155.88    5.40
   2  -4  -1  156.28    4.80
  -2   4   1  162.88    5.20
  -2   4   1  155.88    5.40
  -2   4   1  155.28    5.10
  -2   4   1  157.28    4.80
  -2   4   1  155.88    4.80
   1  -4  -1 1120.49   31.10
   1  -4  -1 1222.18   30.90
   1  -4  -1 1094.59   30.50
   1  -4  -1 1115.99   31.40
   1  -4  -1 1143.99   31.20
   1  -4  -1 1134.79   30.80
   1  -4  -1 1163.68   30.80
  -1   4   1 1144.29   30.90
  -1   4   1 1115.19   31.10
  -1   4   1 1134.79   30.80
  -1   4   1 1055.29   31.10
   0  -4  -1   14.70    1.10
   0  -4  -1   14.30    1.00
   0  -4  -1   16.40    1.60
   0  -4  -1   14.00    1.40
   0  -4  -1   12.60    1.40
   0  -4  -1   14.60    1.10
   0  -4  -1   12.80    1.20
   0  -4  -1   12.30    1.20
   0   4   1   13.60    1.20
   0   4   1   14.40    1.40
   0   4   1   14.90    1.30
   0   4   1   15.50    1.40
   0   4   1   13.70    1.00
  -1  -4  -1   18.50    1.60
  -1  -4  -1   19.10    1.80
  -1  -4  -1   18.20    1.50
  -1  -4  -1   19.50    1.80
  -1  -4  -1   21.10    1.50
  -1  -4  -1   21.00    1.30
  -1  -4  -1   23.30    1.70
   1   4   1   19.10    1.40
   1   4   1   19.80    1.70
   1   4   1   19.80    1.30
   1   4   1   19.70    1.50
  -2  -4  -1   40.90    2.70
  -2  -4  -1   39.80    2.10
  -2  -4  -1   39.70    3.10
  -2  -4  -1   38.30    2.10
  -2  -4  -1   39.90    2.40
  -2  -4  -1   43.20    1.60
   2   4   1   42.60    2.50
   2   4   1   41.60    2.20
  -3  -4  -1  305.37    9.30
  -3  -4  -1  328.07   10.20
  -3  -4  -1  310.87    9.30
   3   4   1  328.97   10.00
   3   4   1  304.97    9.60
  -4  -4  -1    6.70    1.30
  -4  -4  -1   10.90    1.80
  -4  -4  -1   11.50    2.30
   4   4   1    8.90    2.10
  -5  -4  -1  102.79    6.40
   5   4   1  111.09    5.70
   5   4   1  108.19    5.20
  -6  -4  -1   20.80    6.00
   6   4   1   29.40    3.60
   6   4   1   19.00    3.70
   7  -5  -1   30.80    3.60
  -7   5   1   23.70    3.30
   6  -5  -1  115.89    5.80
  -6   5   1  125.39    5.80
  -6   5   1  113.39    4.10
   5  -5  -1    8.20    2.10
   5  -5  -1    8.80    1.80
  -5   5   1   11.50    2.00
  -5   5   1   11.00    1.50
   4  -5  -1  425.36   12.30
   4  -5  -1  416.66   12.90
  -4   5   1  419.96   12.00
  -4   5   1  417.36   12.00
  -4   5   1  393.26   12.00
  -4   5   1  419.16   12.70
   3  -5  -1  337.67   10.60
   3  -5  -1  341.17    9.90
  -3   5   1  331.87   10.30
  -3   5   1  332.27    9.40
  -3   5   1  334.47    9.70
  -3   5   1  339.67    9.70
   2  -5  -1  102.29    4.20
   2  -5  -1   98.19    3.40
   2  -5  -1   95.39    4.00
   2  -5  -1  105.69    3.50
  -2   5   1   97.69    3.80
  -2   5   1   96.69    3.80
  -2   5   1  100.59    3.40
  -2   5   1   98.09    3.50
   1  -5  -1   27.50    2.00
   1  -5  -1   25.90    2.10
   1  -5  -1   27.60    1.50
   1  -5  -1   27.80    1.70
   1  -5  -1   26.40    2.20
   1  -5  -1   26.40    1.60
   1  -5  -1   28.60    1.20
  -1   5   1   29.70    1.60
  -1   5   1   28.30    1.90
  -1   5   1   27.10    1.90
  -1   5   1   29.00    1.90
   0  -5  -1    0.20    0.90
   0  -5  -1   -0.10    0.60
   0  -5  -1   -0.20    0.70
   0  -5  -1    0.20    1.10
   0  -5  -1   -0.20    1.00
   0  -5  -1    0.10    0.80
   0  -5  -1    0.80    0.90
   0  -5  -1    1.20    1.10
   0   5   1   -0.30    1.00
   0   5   1   -0.30    0.60
   0   5   1    0.60    0.90
   0   5   1    0.10    0.80
   0   5   1    1.20    0.80
  -1  -5  -1  383.76   10.90
  -1  -5  -1  368.96   11.00
  -1  -5  -1  372.06   11.00
  -1  -5  -1  380.46   11.20
  -1  -5  -1  441.96   12.90
  -1  -5  -1  356.46   11.00
  -1  -5  -1  357.86   11.40
   1   5   1  364.86   11.20
   1   5   1  374.26   11.00
   1   5   1  360.36   11.30
   1   5   1  384.76   10.90
  -2  -5  -1   66.69    2.40
  -2  -5  -1   63.69    2.80
  -2  -5  -1   58.69    3.00
  -2  -5  -1   59.49    3.40
   2   5   1   63.19    3.00
   2   5   1   59.39    3.40
  -3  -5  -1   38.50    2.60
  -3  -5  -1   34.90    2.70
  -3  -5  -1   34.50    2.70
   3   5   1   36.70    3.30
   3   5   1   32.80    2.80
  -4  -5  -1   -0.60    2.20
   4   5   1    0.70    1.70
   4   5   1    5.50    2.20
  -5  -5  -1   58.29    6.10
   5   5   1   67.59    5.70
   5   5   1   63.79    4.90
   7  -6  -1   19.80    4.00
  -7   6   1   19.10    3.40
  -7   6   1   22.70    3.20
   6  -6  -1  206.18    7.80
   6  -6  -1  210.98    8.70
  -6   6   1  222.08    8.50
  -6   6   1  209.28    7.60
   5  -6  -1   90.59    5.20
   5  -6  -1   96.69    4.40
  -5   6   1   95.19    3.90
  -5   6   1   92.29    4.90
  -5   6   1   86.39    3.90
   4  -6  -1  111.69    5.40
   4  -6  -1  111.39    4.40
  -4   6   1  108.89    4.20
  -4   6   1  114.59    4.90
  -4   6   1  114.39    5.10
   3  -6  -1   92.39    3.50
   3  -6  -1   87.19    4.50
  -3   6   1   87.59    4.10
  -3   6   1   89.09    3.50
  -3   6   1   88.29    4.10
  -3   6   1   91.39    3.50
   2  -6  -1   -0.40    0.70
   2  -6  -1    3.10    1.70
   2  -6  -1    0.70    1.00
  -2   6   1    0.80    1.00
  -2   6   1    0.90    1.00
  -2   6   1    2.40    1.20
  -2   6   1    0.60    1.10
   1  -6  -1   11.30    1.00
   1  -6  -1   14.50    1.50
   1  -6  -1    7.40    1.70
   1  -6  -1   11.00    1.40
   1  -6  -1   13.00    1.20
  -1   6   1   10.70    1.50
  -1   6   1    9.60    1.50
  -1   6   1   13.80    1.40
  -1   6   1   16.00    1.60
   0  -6  -1  555.64   15.80
   0  -6  -1  518.65   16.10
   0  -6  -1  588.44   16.60
   0  -6  -1  529.05   16.10
   0  -6  -1  570.84   15.80
   0  -6  -1  541.95   15.90
   0   6   1  580.74   16.30
   0   6   1  584.74   16.10
  -1  -6  -1  159.38    6.10
  -1  -6  -1  183.18    5.70
  -1  -6  -1  180.68    6.10
  -1  -6  -1  177.08    5.90
  -1  -6  -1  178.88    6.40
   1   6   1  170.08    6.40
   1   6   1  175.08    5.80
   1   6   1  175.48    5.80
   1   6   1  170.88    6.10
  -2  -6  -1   10.60    2.00
  -2  -6  -1    6.50    1.90
  -2  -6  -1    8.10    2.10
  -2  -6  -1   12.30    1.60
  -2  -6  -1    9.20    1.50
  -2  -6  -1   11.60    1.20
   2   6   1   12.70    2.20
   2   6   1   11.60    1.70
  -3  -6  -1   -3.00    2.10
  -3  -6  -1    2.90    1.60
   3   6   1    1.50    1.70
   3   6   1    3.20    2.10
  -4  -6  -1    2.80    2.90
  -4  -6  -1    2.90    2.00
   4   6   1    2.80    2.90
   4   6   1    1.90    2.20
   6  -7  -1   63.89    4.70
   6  -7  -1   69.49    6.10
  -6   7   1   68.19    5.90
   5  -7  -1    9.10    2.70
  -5   7   1    9.90    2.70
  -5   7   1   14.10    2.00
  -5   7   1    7.30    2.10
   4  -7  -1   19.50    3.10
   4  -7  -1   16.90    1.90
  -4   7   1   13.50    2.40
  -4   7   1   17.20    2.40
  -4   7   1   18.50    1.90
   3  -7  -1   93.29    3.80
   3  -7  -1   92.29    5.10
  -3   7   1   94.59    4.70
  -3   7   1   90.79    4.60
  -3   7   1   93.19    4.00
  -3   7   1   91.99    4.30
   2  -7  -1  317.77   13.20
   2  -7  -1  329.47    9.70
  -2   7   1  310.37    9.70
  -2   7   1  325.07   10.50
  -2   7   1  340.87   10.00
   1  -7  -1    2.70    1.60
   1  -7  -1    4.30    0.80
   1  -7  -1    6.50    1.90
   1  -7  -1    4.90    1.10
  -1   7   1    2.00    1.30
  -1   7   1    3.70    1.70
  -1   7   1    6.60    1.60
   0  -7  -1  709.73   21.00
   0  -7  -1  722.83   20.30
   0  -7  -1  725.93   20.30
   0  -7  -1  720.73   21.30
   0   7   1  708.73   20.90
   0   7   1  748.13   20.70
  -1  -7  -1   43.60    3.00
  -1  -7  -1   41.80    3.10
  -1  -7  -1   41.60    2.70
  -1  -7  -1   40.30    4.00
   1   7   1   40.90    3.00
   1   7   1   41.90    3.90
   1   7   1   40.70    3.20
   1   7   1   45.10    3.00
  -2  -7  -1    0.80    1.50
  -2  -7  -1    3.30    2.40
  -2  -7  -1    0.60    1.10
  -2  -7  -1   -2.60    1.90
   2   7   1   -0.80    2.20
   2   7   1   -2.00    1.60
  -3  -7  -1   47.60    5.00
  -3  -7  -1   53.49    5.00
  -3  -7  -1   59.99    4.20
   3   7   1   59.69    5.30
   3   7   1   57.69    4.60
   6  -8  -1   14.00    3.20
   6  -8  -1    9.70    4.70
  -6   8   1   15.10    3.50
  -6   8   1   10.90    4.20
   5  -8  -1   -0.60    2.20
   5  -8  -1    2.30    3.30
  -5   8   1    0.40    2.30
  -5   8   1   -0.90    2.90
   4  -8  -1  551.34   17.30
   4  -8  -1  531.95   15.70
  -4   8   1  505.75   16.60
  -4   8   1  537.25   16.60
   3  -8  -1   -1.20    2.30
   3  -8  -1    3.10    1.40
  -3   8   1    4.20    2.00
  -3   8   1    4.10    2.40
  -3   8   1    4.20    1.90
   2  -8  -1   77.79    5.10
   2  -8  -1   80.09    3.60
  -2   8   1   79.09    4.60
  -2   8   1   83.19    4.40
  -2   8   1   90.39    4.70
   1  -8  -1  109.79    5.70
   1  -8  -1  105.19    5.80
   1  -8  -1  106.39    4.20
  -1   8   1  107.39    4.90
  -1   8   1   94.79    5.00
   0  -8  -1   -1.80    2.40
   0  -8  -1    3.60    1.60
   0  -8  -1   -0.40    3.50
   0  -8  -1    3.60    1.40
   0   8   1    3.00    1.80
   0   8   1    2.80    1.80
  -1  -8  -1   -0.60    2.50
  -1  -8  -1    0.60    1.80
  -1  -8  -1    4.10    1.90
  -1  -8  -1    1.40    1.60
   1   8   1    1.90    1.70
  -2  -8  -1  216.88    7.40
  -2  -8  -1  193.08    7.90
  -2  -8  -1  204.48    8.60
   2   8   1  189.18    7.60
   2   8   1  198.68    8.90
   4  -9  -1    0.40    3.50
   4  -9  -1    6.30    2.20
  -4   9   1    6.00    3.10
  -4   9   1    4.20    3.10
   3  -9  -1   71.59    6.20
   3  -9  -1   73.59    6.30
   3  -9  -1   78.79    4.30
  -3   9   1   69.69    5.30
  -3   9   1   80.59    5.40
   2  -9  -1   44.10    4.50
   2  -9  -1   48.60    3.30
   2  -9  -1   37.90    4.00
  -2   9   1   45.70    4.70
  -2   9   1   44.00    4.40
   1  -9  -1  158.98    5.80
   1  -9  -1  156.98    7.50
   1  -9  -1  141.09    7.80
  -1   9   1  142.19    6.80
  -1   9   1  146.49    6.50
   0  -9  -1  210.38    9.20
   0  -9  -1  205.08    8.30
   0  -9  -1  207.48    7.20
   0   9   1  199.08    8.40
   0   9   1  203.58    7.90
   1   9  -2   16.50    2.90
  -1  -9   2   22.90    3.50
   0   9  -2  132.09    6.20
   0   9  -2  128.09    6.60
   0  -9   2  123.09    5.70
   0  -9   2  134.19    6.30
   0  -9   2  126.59    6.90
  -1   9  -2    3.50    2.30
  -1   9  -2    3.70    2.40
  -1   9  -2    5.50    3.10
   1  -9   2    2.00    2.80
   1  -9   2   -0.10    2.50
  -2   9  -2  118.29    6.40
  -2   9  -2  116.59    6.00
  -2   9  -2  115.39    6.10
   2  -9   2  113.49    6.70
   2  -9   2  110.49    6.60
  -3   9  -2   55.19    5.20
  -3   9  -2   50.39    5.10
   3  -9   2   69.49    5.90
   3  -9   2   53.29    6.10
  -4   9  -2   46.50    5.40
  -4   9  -2   35.30    3.90
   4  -9   2   43.70    4.80
   4  -9   2   43.00    4.70
   2   8  -2   47.30    5.30
   2   8  -2   55.29    4.40
  -2  -8   2   45.80    4.90
  -2  -8   2   46.00    3.50
  -2  -8   2   46.50    5.40
   1   8  -2   48.10    4.00
  -1  -8   2   52.99    3.00
  -1  -8   2   48.80    3.40
  -1  -8   2   51.49    4.00
   0   8  -2   37.00    3.60
   0   8  -2   35.20    3.50
   0   8  -2   40.90    3.70
   0  -8   2   38.70    3.10
   0  -8   2   31.40    3.30
   0  -8   2   43.40    3.70
   0  -8   2   36.60    2.50
  -1   8  -2    0.70    2.30
  -1   8  -2   -0.60    1.60
  -1   8  -2   -2.10    1.70
   1  -8   2   -1.00    1.10
   1  -8   2    1.60    2.10
   1  -8   2    0.30    1.10
   1  -8   2    1.00    2.20
  -2   8  -2    3.00    1.90
  -2   8  -2   -0.70    2.10
  -2   8  -2   -2.60    1.80
   2  -8   2    0.40    2.10
   2  -8   2    2.90    2.10
   2  -8   2   -0.30    1.20
  -3   8  -2   20.40    2.70
  -3   8  -2   14.30    2.40
  -3   8  -2   16.10    2.40
   3  -8   2   19.00    1.80
   3  -8   2   16.60    3.00
   3  -8   2   16.00    2.80
  -4   8  -2  245.28    9.40
  -4   8  -2  259.47    9.00
  -4   8  -2  266.47    9.50
   4  -8   2  258.87    9.90
   4  -8   2  252.57   10.10
   4  -8   2  257.97    8.30
  -5   8  -2   40.20    4.10
  -5   8  -2   35.10    3.50
  -5   8  -2   23.30    3.30
   5  -8   2   33.10    4.40
   5  -8   2   23.50    3.70
   5  -8   2   34.50    2.90
   3   7  -2  146.19    6.50
   3   7  -2  150.58    7.00
  -3  -7   2  158.98    8.20
  -3  -7   2  148.29    5.80
  -3  -7   2  146.39    7.30
   2   7  -2  108.89    5.50
   2   7  -2  103.09    4.80
  -2  -7   2  105.29    3.90
  -2  -7   2  102.99    5.10
  -2  -7   2   99.99    5.50
  -2  -7   2  106.49    4.70
   1   7  -2    0.70    1.40
   1   7  -2    0.80    1.60
  -1  -7   2    2.40    1.20
  -1  -7   2    1.50    1.60
  -1  -7   2    1.40    1.30
  -1  -7   2    3.40    1.90
   0   7  -2   16.20    2.50
   0   7  -2   14.80    2.40
   0  -7   2   19.00    1.70
   0  -7   2   22.40    2.30
   0  -7   2   19.50    2.30
   0  -7   2   23.80    2.80
  -1   7  -2   18.20    2.10
  -1   7  -2   20.60    2.40
   1  -7   2   19.80    1.60
   1  -7   2   20.00    1.70
   1  -7   2   19.60    2.20
   1  -7   2   17.70    2.30
  -2   7  -2    1.20    1.10
  -2   7  -2   -0.60    1.50
  -2   7  -2    2.30    1.60
  -2   7  -2    0.80    1.60
   2  -7   2    1.50    0.90
   2  -7   2   -1.60    1.90
   2  -7   2   -1.20    1.50
  -3   7  -2    1.60    1.70
  -3   7  -2    0.80    1.20
  -3   7  -2    0.90    1.50
  -3   7  -2    0.70    1.60
   3  -7   2    0.70    1.00
   3  -7   2   -2.30    1.70
   3  -7   2    0.10    1.80
  -4   7  -2  283.47    9.10
  -4   7  -2  280.77    9.60
  -4   7  -2  275.07    9.60
   4  -7   2  267.07   10.00
   4  -7   2  285.27    9.90
   4  -7   2  270.27    8.60
  -5   7  -2   42.40    3.80
  -5   7  -2   53.99    4.60
   5  -7   2   39.00    3.90
   5  -7   2   47.80    3.50
   5  -7   2   50.29    4.40
  -6   7  -2    1.80    2.40
  -6   7  -2    3.50    2.80
   6  -7   2    0.80    2.90
   6  -7   2   -3.50    3.00
   4   6  -2   25.90    2.90
   4   6  -2   25.60    3.20
  -4  -6   2   34.00    3.50
  -4  -6   2   26.70    3.50
   3   6  -2   11.20    1.90
   3   6  -2   14.70    2.40
  -3  -6   2    8.60    2.50
  -3  -6   2   11.10    1.20
  -3  -6   2    7.40    1.80
  -3  -6   2    7.70    1.70
   2   6  -2   62.39    3.80
   2   6  -2   57.19    3.30
  -2  -6   2   63.99    2.60
  -2  -6   2   64.99    3.00
  -2  -6   2   62.99    3.40
  -2  -6   2   63.69    4.00
   1   6  -2   38.20    2.60
   1   6  -2   32.00    2.30
   1   6  -2   34.10    3.20
   1   6  -2   38.60    2.80
   1   6  -2   34.30    2.40
  -1  -6   2   32.80    2.40
  -1  -6   2   33.40    2.80
  -1  -6   2   32.70    2.70
  -1  -6   2   32.90    1.90
  -1  -6   2   31.20    2.30
   0   6  -2    0.30    1.10
   0   6  -2    1.00    1.10
   0   6  -2   -0.50    1.40
   0  -6   2   -0.40    1.10
   0  -6   2   -0.40    1.40
   0  -6   2    0.40    1.00
   0  -6   2    0.10    0.60
   0  -6   2   -0.40    1.20
  -1   6  -2   43.20    2.60
  -1   6  -2   43.30    2.60
  -1   6  -2   44.60    2.90
   1  -6   2   34.90    2.90
   1  -6   2   41.20    1.80
   1  -6   2   40.00    2.80
   1  -6   2   42.70    2.00
   1  -6   2   37.70    1.70
   1  -6   2   38.20    2.90
   1  -6   2   39.60    2.70
  -2   6  -2  111.29    4.50
  -2   6  -2  107.79    4.40
  -2   6  -2  113.89    3.60
  -2   6  -2  107.29    4.40
   2  -6   2  109.19    3.70
   2  -6   2  115.09    4.80
   2  -6   2  108.49    4.80
  -3   6  -2   -0.80    1.20
  -3   6  -2    0.20    1.20
  -3   6  -2    0.00    1.20
  -3   6  -2    0.00    0.80
   3  -6   2   -0.90    1.50
   3  -6   2    0.00    0.80
  -4   6  -2    7.80    1.30
  -4   6  -2    8.00    1.50
  -4   6  -2    9.60    1.90
   4  -6   2    8.50    1.30
   4  -6   2    6.40    2.00
  -5   6  -2    5.10    1.80
  -5   6  -2    4.80    2.00
   5  -6   2    3.70    2.20
   5  -6   2    6.80    2.20
  -6   6  -2   28.40    3.30
   6  -6   2   22.40    3.20
   6  -6   2   23.80    3.60
  -7   6  -2   75.69    6.40
   7  -6   2   75.79    6.10
   7  -6   2   78.49    6.60
   5   5  -2    5.00    2.80
   5   5  -2    2.60    2.30
  -5  -5   2    5.80    3.30
   4   5  -2   22.60    2.50
   4   5  -2   20.90    2.60
  -4  -5   2   18.60    3.00
   3   5  -2    9.50    1.70
   3   5  -2    8.60    1.70
  -3  -5   2    8.50    0.80
  -3  -5   2   10.70    2.00
  -3  -5   2    8.20    1.10
   2   5  -2   30.90    2.50
   2   5  -2   34.20    2.20
  -2  -5   2   30.30    2.00
  -2  -5   2   33.90    1.60
  -2  -5   2   34.90    2.90
  -2  -5   2   34.10    2.60
  -2  -5   2   36.50    2.30
   1   5  -2  195.98    6.20
   1   5  -2  202.08    6.40
   1   5  -2  203.78    6.50
   1   5  -2  197.98    6.20
   1   5  -2  204.68    6.80
  -1  -5   2  185.68    6.40
  -1  -5   2  199.48    6.40
  -1  -5   2  185.08    6.70
  -1  -5   2  197.18    6.20
  -1  -5   2  200.88    6.60
  -1  -5   2  195.08    5.90
  -1  -5   2  190.78    6.30
   0   5  -2  417.46   12.10
   0   5  -2  395.56   11.90
   0   5  -2  420.66   11.90
   0  -5   2  398.06   11.80
   0  -5   2  409.56   12.00
   0  -5   2  414.76   11.80
   0  -5   2  416.26   12.00
   0  -5   2  362.96   11.90
   0  -5   2  410.56   12.00
   0  -5   2  414.46   11.40
   0  -5   2  398.26   11.90
   0  -5   2  415.06   11.80
  -1   5  -2  199.88    6.60
  -1   5  -2  205.78    6.60
  -1   5  -2  204.58    6.00
  -1   5  -2  197.28    6.70
  -1   5  -2  206.98    6.60
   1  -5   2  211.78    6.00
   1  -5   2  206.18    5.90
   1  -5   2  207.28    6.10
   1  -5   2  203.38    6.60
   1  -5   2  209.18    6.60
   1  -5   2  206.78    6.40
   1  -5   2  196.38    6.80
   1  -5   2  210.98    6.40
   1  -5   2  212.18    6.80
  -2   5  -2  688.23   20.30
  -2   5  -2  719.13   20.10
  -2   5  -2  712.43   19.90
  -2   5  -2  705.63   19.40
  -2   5  -2  701.43   20.10
   2  -5   2  694.23   19.80
   2  -5   2  702.03   19.50
   2  -5   2  730.23   20.30
  -3   5  -2   16.50    1.30
  -3   5  -2   16.40    1.70
  -3   5  -2   16.40    1.80
   3  -5   2   15.50    1.80
   3  -5   2   14.00    1.50
  -4   5  -2  151.58    5.10
  -4   5  -2  154.58    5.80
  -4   5  -2  154.98    4.60
   4  -5   2  165.18    5.30
  -5   5  -2   15.80    2.20
  -5   5  -2   16.80    1.60
   5  -5   2   16.10    2.40
  -6   5  -2  244.08    7.50
  -6   5  -2  244.78    8.80
   6  -5   2  234.88    9.10
   6  -5   2  243.98    8.90
  -7   5  -2    4.60    2.90
   7  -5   2    0.10    2.90
   7  -5   2    3.40    2.80
   6   4  -2    6.70    2.90
   6   4  -2    2.10    2.50
  -6  -4   2    5.70    3.90
   5   4  -2   -2.10    1.60
   5   4  -2    1.60    2.10
  -5  -4   2    3.60    2.90
   4   4  -2  246.98    8.80
  -4  -4   2  246.08    7.50
  -4  -4   2  249.68    9.10
   3   4  -2  329.87   10.20
   3   4  -2  343.97   10.30
  -3  -4   2  336.27    9.30
  -3  -4   2  334.37    9.60
  -3  -4   2  325.67   10.00
  -3  -4   2  345.47   10.90
   2   4  -2  388.86   11.30
   2   4  -2  388.66   11.40
  -2  -4   2  425.96   12.50
  -2  -4   2  395.86   10.80
  -2  -4   2  385.46   11.80
  -2  -4   2  350.66   11.30
  -2  -4   2  369.46   11.80
  -2  -4   2  394.56   11.30
  -2  -4   2  381.86   11.20
   1   4  -2   30.40    2.20
   1   4  -2   27.40    1.60
   1   4  -2   28.20    1.70
   1   4  -2   31.40    1.70
   1   4  -2   31.00    1.80
  -1  -4   2   30.80    1.40
  -1  -4   2   28.50    2.00
  -1  -4   2   29.50    2.20
  -1  -4   2   29.80    1.70
  -1  -4   2   29.10    2.00
  -1  -4   2   29.60    1.80
  -1  -4   2   26.90    1.70
  -1  -4   2   29.30    1.50
  -1  -4   2   28.20    1.80
   0   4  -2  467.85   13.30
   0   4  -2  475.25   13.40
   0   4  -2  470.25   13.60
   0   4  -2  451.55   13.40
   0  -4   2  489.55   13.30
   0  -4   2  480.95   13.40
   0  -4   2  459.95   13.00
   0  -4   2  472.25   13.50
   0  -4   2  468.95   13.50
   0  -4   2  473.85   13.50
   0  -4   2  470.65   13.50
   0  -4   2  478.55   13.50
   0  -4   2  480.45   13.40
  -1   4  -2   46.10    2.10
  -1   4  -2   44.70    2.10
  -1   4  -2   45.90    1.60
  -1   4  -2   46.70    2.10
  -1   4  -2   46.30    2.30
   1  -4   2   44.10    1.60
   1  -4   2   46.20    1.90
   1  -4   2   46.80    1.60
   1  -4   2   40.70    2.10
   1  -4   2   47.10    2.00
   1  -4   2   42.20    2.20
   1  -4   2   44.50    2.20
   1  -4   2   42.40    2.10
  -2   4  -2  548.05   15.00
  -2   4  -2  522.05   15.20
  -2   4  -2  537.65   15.40
  -2   4  -2  548.55   14.60
   2  -4   2  507.05   15.30
   2  -4   2  530.45   14.50
   2  -4   2  552.14   14.70
   2  -4   2  506.75   15.20
  -3   4  -2    7.00    0.80
  -3   4  -2    6.50    0.60
  -3   4  -2    8.70    1.60
  -3   4  -2    4.80    1.10
   3  -4   2    6.50    0.80
   3  -4   2    7.90    0.90
   3  -4   2    4.30    1.10
  -4   4  -2  252.87    8.10
  -4   4  -2  246.88    7.70
  -4   4  -2  259.37    7.30
   4  -4   2  257.77    8.30
   4  -4   2  247.88    7.60
  -5   4  -2   72.09    3.00
  -5   4  -2   72.39    3.60
   5  -4   2   68.19    4.00
  -6   4  -2   -0.30    1.30
  -6   4  -2    0.80    1.70
   6  -4   2    0.50    1.80
   6  -4   2    0.70    1.90
  -7   4  -2    1.90    2.20
  -7   4  -2    2.90    2.40
   7  -4   2    2.70    2.40
   7  -4   2    1.00    2.60
   6   3  -2    4.20    2.40
   6   3  -2   -2.80    2.00
  -6  -3   2   -2.40    3.10
   5   3  -2   16.00    2.10
   5   3  -2   22.30    2.50
  -5  -3   2   15.70    2.70
   4   3  -2    1.80    1.30
   4   3  -2   -0.90    1.10
  -4  -3   2    0.70    1.80
  -4  -3   2    0.90    1.00
  -4  -3   2   -0.10    1.10
   3   3  -2  180.08    5.70
   3   3  -2  174.38    5.70
  -3  -3   2  157.88    6.40
  -3  -3   2  172.78    5.10
  -3  -3   2  174.08    4.90
  -3  -3   2  178.08    5.50
  -3  -3   2  168.08    6.30
   2   3  -2  839.02   24.10
   2   3  -2  854.11   24.10
  -2  -3   2  910.61   24.10
  -2  -3   2  872.81   24.50
  -2  -3   2  904.71   24.20
  -2  -3   2  858.61   23.70
  -2  -3   2  882.81   24.00
  -2  -3   2  838.12   23.60
  -2  -3   2  865.41   24.00
  -2  -3   2  876.81   24.50
   1   3  -2    7.00    1.00
   1   3  -2    8.50    0.90
   1   3  -2    8.40    0.90
   1   3  -2    8.10    0.90
  -1  -3   2    7.30    0.80
  -1  -3   2    6.40    1.00
  -1  -3   2    7.60    0.80
  -1  -3   2    9.90    1.10
  -1  -3   2    6.60    0.80
  -1  -3   2    9.60    0.90
  -1  -3   2    6.20    0.70
  -1  -3   2   10.30    1.00
   0   3  -2   21.00    1.30
   0   3  -2   19.20    1.20
   0   3  -2   21.70    1.20
   0   3  -2   20.00    1.10
   0   3  -2   19.70    1.20
   0  -3   2   22.40    1.30
   0  -3   2   20.80    1.30
   0  -3   2   22.00    0.90
   0  -3   2   20.70    1.30
   0  -3   2   22.50    1.20
   0  -3   2   19.40    1.20
  -1   3  -2   37.70    1.70
  -1   3  -2   37.10    1.20
  -1   3  -2   33.30    1.60
  -1   3  -2   38.20    1.70
  -1   3  -2   35.60    1.80
   1  -3   2   36.60    1.20
   1  -3   2   36.70    1.30
   1  -3   2   35.70    1.80
   1  -3   2   36.90    1.80
  -2   3  -2 1349.86   37.50
  -2   3  -2 1431.36   37.60
  -2   3  -2 1370.26   38.00
  -2   3  -2 1459.65   38.20
   2  -3   2 1363.46   38.10
   2  -3   2 1384.96   38.00
   2  -3   2 1365.96   37.50
  -3   3  -2   15.00    1.00
  -3   3  -2   17.20    2.00
  -3   3  -2   13.50    1.20
  -3   3  -2   16.30    1.50
   3  -3   2   15.10    1.40
   3  -3   2   17.80    1.30
   3  -3   2   14.70    1.60
  -4   3  -2  394.16   11.30
  -4   3  -2  359.86   11.10
  -4   3  -2  384.36   10.90
   4  -3   2  370.06   11.20
   4  -3   2  388.66   11.50
  -5   3  -2   -0.20    1.10
  -5   3  -2    1.30    1.10
   5  -3   2   -0.50    1.40
   5  -3   2    0.10    1.70
   5  -3   2    0.80    1.30
  -6   3  -2   12.10    2.00
  -6   3  -2   13.00    1.90
   6  -3   2   12.20    2.10
   6  -3   2   14.60    2.20
  -7   3  -2    7.00    2.20
  -7   3  -2    7.50    2.40
   7  -3   2    5.30    2.30
   7  -3   2    6.30    2.40
   7   2  -2   44.40    5.00
   7   2  -2   38.20    3.70
  -7  -2   2   48.30    5.30
   6   2  -2   96.99    5.00
   6   2  -2   88.09    4.70
  -6  -2   2   90.89    6.10
   5   2  -2  191.38    7.10
   5   2  -2  207.08    7.50
  -5  -2   2  224.88    8.10
  -5  -2   2  210.28    6.90
   4   2  -2  292.17    8.90
   4   2  -2  283.97    8.90
  -4  -2   2  289.97    9.50
  -4  -2   2  296.67    8.60
   3   2  -2    5.30    0.90
   3   2  -2    5.10    0.50
   3   2  -2    3.80    0.80
  -3  -2   2    4.70    1.40
  -3  -2   2    5.40    1.00
  -3  -2   2    6.10    0.70
  -3  -2   2    4.10    1.20
  -3  -2   2    5.30    0.50
   2   2  -2   76.29    2.60
   2   2  -2   73.99    2.70
   2   2  -2   73.89    2.40
  -2  -2   2   71.29    3.00
  -2  -2   2   75.19    2.60
  -2  -2   2   73.49    2.20
  -2  -2   2   72.39    3.10
  -2  -2   2   77.89    2.30
   1   2  -2   37.50    1.50
   1   2  -2   34.40    1.70
   1   2  -2   29.90    1.50
   1   2  -2   35.20    1.40
  -1  -2   2   36.00    1.30
  -1  -2   2   39.90    1.50
  -1  -2   2   36.00    1.40
  -1  -2   2   38.20    1.50
  -1  -2   2   38.20    1.50
  -1  -2   2   35.20    1.70
   0   2  -2 8546.04  223.78
   0   2  -2 7900.81  223.08
   0   2  -2 8341.87  222.98
   0   2  -2 8172.68  222.98
   0  -2   2 8484.25  223.58
   0  -2   2 8760.32  223.48
   0  -2   2 8033.80  223.18
   0  -2   2 8511.75  223.08
   0  -2   2 7972.70  221.98
   0  -2   2 7872.31  222.68
   0  -2   2 8233.48  223.08
  -1   2  -2  897.61   24.20
  -1   2  -2  898.61   24.40
  -1   2  -2  953.60   24.60
  -1   2  -2  912.61   24.20
  -1   2  -2  892.61   24.40
   1  -2   2  892.31   24.20
   1  -2   2  868.51   24.60
   1  -2   2  889.11   24.40
   1  -2   2  845.22   24.50
   1  -2   2  890.71   24.20
  -2   2  -2  195.38    6.00
  -2   2  -2  191.78    5.50
  -2   2  -2  190.48    5.80
  -2   2  -2  197.18    5.60
   2  -2   2  197.88    5.60
   2  -2   2  187.98    5.90
  -3   2  -2   23.30    1.40
  -3   2  -2   19.40    1.70
  -3   2  -2   23.80    1.50
  -3   2  -2   22.60    1.30
   3  -2   2   22.00    1.60
   3  -2   2   21.60    1.60
  -4   2  -2  215.78    6.90
  -4   2  -2  231.08    6.80
  -4   2  -2  216.08    7.20
  -4   2  -2  218.08    6.80
   4  -2   2  208.48    7.10
   4  -2   2  219.58    7.00
  -5   2  -2   30.50    2.60
  -5   2  -2   32.60    2.30
   5  -2   2   32.30    2.50
   5  -2   2   26.50    2.40
   5  -2   2   24.80    2.70
  -6   2  -2  800.62   22.20
  -6   2  -2  802.92   22.00
   6  -2   2  668.43   21.80
   6  -2   2  799.42   22.10
   6  -2   2  767.02   21.80
  -7   2  -2    9.80    2.20
  -7   2  -2   15.00    2.80
   7  -2   2   11.10    2.30
   7   1  -2  203.18    7.90
   7   1  -2  193.28    7.80
  -7  -1   2  194.18    9.10
   6   1  -2    3.20    1.40
   6   1  -2    2.00    1.70
   6   1  -2    3.60    1.70
  -6  -1   2    1.50    2.40
   5   1  -2  214.18    6.90
   5   1  -2  200.58    6.80
   5   1  -2  209.98    6.30
   5   1  -2  198.88    5.80
  -5  -1   2  201.68    7.60
  -5  -1   2  198.98    6.70
   4   1  -2   19.10    1.70
   4   1  -2   20.20    1.00
   4   1  -2   19.20    1.30
  -4  -1   2   18.80    2.20
  -4  -1   2   19.80    2.10
  -4  -1   2   18.80    1.60
  -4  -1   2   21.70    2.10
   3   1  -2  891.21   24.80
   3   1  -2  864.71   24.40
   3   1  -2  898.21   24.90
  -3  -1   2  900.91   25.30
  -3  -1   2  909.81   24.60
  -3  -1   2  937.31   25.30
  -3  -1   2  906.01   25.00
   2   1  -2  404.36   10.90
   2   1  -2  382.06   10.90
   2   1  -2  373.76   10.70
   2   1  -2  373.06   10.60
  -2  -1   2  396.16   10.70
  -2  -1   2  385.56   11.20
  -2  -1   2  397.26   10.70
  -2  -1   2  382.66   11.20
  -2  -1   2  401.36   11.00
   1   1  -2 5566.34  148.69
   1   1  -2 5315.67  148.59
   1   1  -2 5355.16  148.29
   1   1  -2 5745.03  149.19
  -1  -1   2 5684.53  149.09
  -1  -1   2 5653.63  148.69
  -1  -1   2 5770.62  148.69
  -1  -1   2 5303.67  147.79
  -1  -1   2 5289.97  148.19
  -1  -1   2 5327.97  148.39
   0   1  -2   10.20    0.50
   0   1  -2   10.80    0.50
   0   1  -2   10.50    0.50
   0   1  -2    9.30    0.50
   0   1  -2   11.30    0.50
   0   1  -2   10.10    0.60
   0  -1   2   11.00    0.40
   0  -1   2   10.70    0.50
   0  -1   2   10.50    0.50
   0  -1   2   10.00    0.50
   0  -1   2   11.00    0.30
   0  -1   2   10.20    0.50
   0  -1   2   10.90    0.50
  -1   1  -2 1259.77   34.60
  -1   1  -2 1315.27   34.90
  -1   1  -2 1291.57   34.70
  -1   1  -2 1294.17   34.70
   1  -1   2 1230.18   34.60
   1  -1   2 1303.97   34.80
   1  -1   2 1318.47   34.70
   1  -1   2 1230.28   34.70
  -2   1  -2   68.39    2.30
  -2   1  -2   71.49    2.40
  -2   1  -2   67.89    2.40
  -2   1  -2   66.19    2.50
   2  -1   2   66.89    2.40
   2  -1   2   71.69    2.50
   2  -1   2   72.89    2.40
  -3   1  -2    7.30    0.90
  -3   1  -2    6.20    0.80
  -3   1  -2    5.70    0.90
   3  -1   2    9.70    1.20
   3  -1   2    7.70    0.90
   3  -1   2    7.80    0.90
  -4   1  -2  332.77   10.10
  -4   1  -2  345.07   10.10
  -4   1  -2  337.27   10.20
   4  -1   2  322.47    9.70
   4  -1   2  347.37    9.90
   4  -1   2  329.67   10.40
  -5   1  -2  368.86   11.30
   5  -1   2  362.96   10.90
   5  -1   2  357.16   10.60
  -6   1  -2   93.49    4.80
   6  -1   2   83.29    4.70
   6  -1   2   94.19    3.70
  -7   1  -2  232.78    9.10
   7  -1   2  247.78    8.20
   7  -1   2  222.28    8.60
   7   0  -2   39.90    3.30
   7   0  -2   41.10    4.20
   7   0  -2   41.20    4.20
  -7   0   2   47.00    4.40
   6   0  -2   31.30    2.40
   6   0  -2   31.20    2.90
  -6   0   2   29.40    2.90
  -6   0   2   34.20    3.40
   5   0  -2  784.82   21.40
   5   0  -2  780.42   21.70
  -5   0   2  758.42   22.10
  -5   0   2  796.62   22.70
   4   0  -2    3.10    0.70
  -4   0   2    1.80    1.20
  -4   0   2    2.40    1.30
  -4   0   2    3.30    1.00
   3   0  -2   81.49    2.60
   3   0  -2   81.39    2.60
  -3   0   2   78.89    3.20
  -3   0   2   74.69    3.00
  -3   0   2   75.79    2.70
   2   0  -2 2375.16   63.99
   2   0  -2 2354.46   63.99
   2   0  -2 2411.76   64.29
  -2   0   2 2323.67   64.19
  -2   0   2 2367.96   63.89
   1   0  -2 1486.45   42.80
   1   0  -2 1522.25   42.90
   1   0  -2 1650.63   43.20
   1   0  -2 1567.74   43.20
   1   0  -2 1648.73   43.10
  -1   0   2 1541.75   42.90
  -1   0   2 1629.04   43.20
  -1   0   2 1634.54   43.30
  -1   0   2 1582.94   43.00
   0   0  -2 1204.68   30.90
   0   0  -2 1120.79   30.70
   0   0  -2 1040.40   30.70
   0   0  -2 1153.78   30.70
   0   0  -2 1174.58   30.80
   0   0   2 1086.79   30.70
   0   0   2 1123.49   30.70
   0   0   2 1155.18   30.80
   0   0   2 1131.49   30.60
  -1   0  -2 2001.60   56.29
  -1   0  -2 2039.30   56.29
  -1   0  -2 2117.69   56.79
   1   0   2 2128.39   56.69
   1   0   2 2135.89   56.59
   1   0   2 2089.09   56.29
   1   0   2 2039.50   56.09
  -2   0  -2 1018.20   27.10
  -2   0  -2  891.51   27.20
   2   0   2  974.80   26.70
   2   0   2 1013.30   26.90
   2   0   2 1043.90   27.20
  -3   0  -2  149.09    4.80
  -3   0  -2  146.49    4.90
   3   0   2  141.19    5.10
   3   0   2  147.69    4.30
   3   0   2  153.88    4.60
  -4   0  -2   68.09    3.20
  -4   0  -2   68.39    3.20
  -4   0  -2   59.29    3.20
   4   0   2   61.99    3.70
   4   0   2   66.99    2.70
   4   0   2   66.19    2.30
  -5   0  -2   31.10    3.00
   5   0   2   33.20    1.60
   5   0   2   35.10    2.50
   5   0   2   36.30    2.30
   5   0   2   33.60    1.80
  -6   0  -2   41.00    4.00
   6   0   2   43.60    3.50
   6   0   2   41.60    3.00
  -7   0  -2   12.00    3.30
   7   0   2   11.30    2.80
   7   0   2   12.10    2.30
  -7   1   2    8.70    2.90
   6  -1  -2  151.78    5.30
   6  -1  -2  160.78    5.50
  -6   1   2  155.38    6.50
   5  -1  -2    4.50    1.20
   5  -1  -2    2.80    1.00
  -5   1   2    2.60    1.50
  -5   1   2    4.00    1.50
   4  -1  -2  332.97    9.70
   4  -1  -2  336.47    9.70
  -4   1   2  320.57    9.90
  -4   1   2  329.97    9.90
  -4   1   2  339.77   10.10
   3  -1  -2 1646.84   44.70
   3  -1  -2 1618.24   44.60
   3  -1  -2 1652.63   44.80
  -3   1   2 1627.54   44.70
  -3   1   2 1672.33   44.80
  -3   1   2 1629.04   44.70
   2  -1  -2  506.55   13.50
   2  -1  -2  459.05   13.50
   2  -1  -2  474.15   13.50
  -2   1   2  498.35   13.50
   1  -1  -2  176.88    4.90
   1  -1  -2  170.08    5.00
   1  -1  -2  163.58    5.00
  -1   1   2  179.38    4.90
  -1   1   2  177.58    5.00
   0  -1  -2  528.55   14.10
   0  -1  -2  520.15   14.10
   0  -1  -2  510.55   14.10
   0  -1  -2  520.55   14.10
   0  -1  -2  504.25   14.10
   0   1   2  504.55   14.10
   0   1   2  522.75   14.00
   0   1   2  524.85   14.10
   0   1   2  520.65   14.10
   0   1   2  507.45   14.10
   0   1   2  528.65   14.00
   0   1   2  514.35   14.10
  -1  -1  -2 7067.39  189.48
  -1  -1  -2 6907.51  188.18
  -1  -1  -2 6651.03  189.08
   1   1   2 7430.46  188.98
   1   1   2 6954.30  188.28
   1   1   2 7000.00  189.38
  -2  -1  -2 1464.75   39.70
  -2  -1  -2 1479.15   39.40
   2   1   2 1457.65   39.40
   2   1   2 1503.35   39.80
   2   1   2 1359.36   39.50
  -3  -1  -2  351.76   10.20
  -3  -1  -2  353.06   10.60
   3   1   2  365.16   10.30
   3   1   2  349.17   10.80
   3   1   2  355.06   10.20
  -4  -1  -2   13.80    1.60
  -4  -1  -2   15.30    1.80
   4   1   2   14.70    1.70
   4   1   2   18.50    1.60
  -5  -1  -2   31.40    3.20
   5   1   2   26.90    2.30
   5   1   2   27.60    2.50
  -6  -1  -2   38.50    3.70
   6   1   2   37.50    3.70
  -7  -1  -2   30.10    3.80
   7   1   2   40.30    4.60
   7   1   2   25.00    3.20
   8  -2  -2   38.00    3.60
  -8   2   2   33.00    4.50
   7  -2  -2    7.90    2.10
  -7   2   2    6.80    2.60
   6  -2  -2   56.09    3.30
   6  -2  -2   47.70    3.60
  -6   2   2   53.29    3.90
   5  -2  -2  704.93   19.60
   5  -2  -2  653.43   19.50
  -5   2   2  685.23   19.90
  -5   2   2  699.33   19.80
   4  -2  -2   33.20    2.10
   4  -2  -2   28.40    2.10
   4  -2  -2   28.50    2.20
  -4   2   2   32.10    2.40
  -4   2   2   32.20    2.10
  -4   2   2   32.20    2.20
   3  -2  -2  798.72   23.30
   3  -2  -2  819.22   23.20
  -3   2   2  862.71   23.10
  -3   2   2  869.11   23.40
  -3   2   2  843.32   23.20
   2  -2  -2  313.97    9.50
   2  -2  -2  339.07    9.70
  -2   2   2  340.47    9.40
  -2   2   2  344.37    9.50
   1  -2  -2 1383.46   37.10
   1  -2  -2 1337.57   36.80
  -1   2   2 1428.56   36.80
  -1   2   2 1378.86   36.80
  -1   2   2 1301.07   36.80
  -1   2   2 1346.87   37.00
   0  -2  -2  596.14   15.90
   0  -2  -2  587.24   16.10
   0  -2  -2  558.94   16.30
   0  -2  -2  552.44   16.10
   0  -2  -2  614.74   16.20
   0  -2  -2  586.44   16.00
   0  -2  -2  583.44   16.00
   0   2   2  587.04   16.10
   0   2   2  595.04   15.90
   0   2   2  597.44   16.10
   0   2   2  566.94   16.00
   0   2   2  585.44   16.20
   0   2   2  607.34   16.10
  -1  -2  -2  555.04   15.80
  -1  -2  -2  563.94   15.70
  -1  -2  -2  610.34   15.80
  -1  -2  -2  558.44   15.50
  -1  -2  -2  555.44   15.50
   1   2   2  557.54   15.60
   1   2   2  573.34   15.50
   1   2   2  565.74   15.80
   1   2   2  575.64   16.00
  -2  -2  -2   49.99    1.70
  -2  -2  -2   49.30    2.40
  -2  -2  -2   53.49    2.10
   2   2   2   51.19    2.60
   2   2   2   50.99    2.00
   2   2   2   50.89    2.20
  -3  -2  -2  145.09    4.90
  -3  -2  -2  141.89    4.60
  -3  -2  -2  145.59    5.20
   3   2   2  137.39    4.80
   3   2   2  143.89    4.70
   3   2   2  142.89    5.60
  -4  -2  -2    1.30    1.50
  -4  -2  -2    2.00    1.30
   4   2   2    1.00    1.00
   4   2   2    1.50    1.20
  -5  -2  -2   30.10    3.00
   5   2   2   29.40    2.80
   5   2   2   27.40    3.00
  -6  -2  -2   38.20    3.80
   6   2   2   43.00    4.20
   6   2   2   29.50    2.90
   8  -3  -2    8.50    2.90
  -8   3   2    7.80    3.30
  -8   3   2    9.70    3.60
   7  -3  -2   68.49    4.50
   6  -3  -2   56.39    3.50
  -6   3   2   53.49    3.60
   5  -3  -2   82.99    3.90
   5  -3  -2   75.69    4.20
   5  -3  -2   80.79    3.90
  -5   3   2   80.69    3.50
   4  -3  -2  136.89    5.00
   4  -3  -2  130.19    4.80
  -4   3   2  146.19    5.30
  -4   3   2  137.59    4.80
  -4   3   2  137.89    4.60
   3  -3  -2  254.87    8.00
   3  -3  -2  252.67    7.70
  -3   3   2  261.57    7.40
  -3   3   2  261.77    7.60
   2  -3  -2  142.99    4.40
  -2   3   2  141.39    4.30
  -2   3   2  145.89    4.60
  -2   3   2  145.19    4.10
  -2   3   2  138.79    4.20
  -2   3   2  138.39    4.70
   1  -3  -2  263.27    7.20
   1  -3  -2  270.27    7.40
   1  -3  -2  259.17    7.70
   1  -3  -2  262.77    7.30
   1  -3  -2  255.07    7.30
   1  -3  -2  261.67    7.80
  -1   3   2  263.67    7.20
  -1   3   2  263.37    7.60
  -1   3   2  256.97    7.40
  -1   3   2  250.97    7.30
  -1   3   2  266.57    7.70
   0  -3  -2    0.10    0.40
   0  -3  -2   -0.20    0.30
   0  -3  -2   -0.10    0.50
   0  -3  -2   -0.40    0.50
   0  -3  -2   -1.60    0.50
   0  -3  -2   -0.60    0.30
   0  -3  -2   -1.00    0.40
   0   3   2   -0.20    0.50
   0   3   2   -0.60    0.50
   0   3   2   -0.50    0.30
   0   3   2   -0.90    0.60
   0   3   2    0.00    0.40
   0   3   2   -0.10    0.40
   0   3   2   -0.50    0.40
  -1  -3  -2    2.80    0.50
  -1  -3  -2    3.70    0.70
  -1  -3  -2    4.60    0.80
  -1  -3  -2    3.30    0.70
  -1  -3  -2    3.60    0.60
  -1  -3  -2    2.80    0.90
   1   3   2    3.80    0.70
   1   3   2    3.00    0.90
   1   3   2    3.70    0.50
   1   3   2    3.80    0.60
   1   3   2    2.30    0.50
  -2  -3  -2    0.80    0.80
  -2  -3  -2    2.10    0.80
  -2  -3  -2    0.60    1.20
  -2  -3  -2    2.50    0.30
  -2  -3  -2    1.80    1.00
  -2  -3  -2    0.90    0.60
  -2  -3  -2    0.20    0.30
   2   3   2    1.50    0.70
   2   3   2    0.80    0.80
   2   3   2    1.80    1.30
  -3  -3  -2   25.90    2.50
  -3  -3  -2   25.10    1.90
  -3  -3  -2   24.90    1.50
   3   3   2   27.70    2.20
   3   3   2   29.70    2.00
  -4  -3  -2   70.89    3.60
  -4  -3  -2   76.99    3.00
   4   3   2   76.49    3.60
  -5  -3  -2   33.50    3.50
   5   3   2   33.20    3.20
   5   3   2   35.40    3.80
  -6  -3  -2   60.39    5.80
   6   3   2   49.30    4.60
   6   3   2   63.99    5.40
   7  -4  -2    0.60    2.10
  -7   4   2    2.30    2.10
  -7   4   2   -0.10    2.40
   6  -4  -2   63.89    4.30
  -6   4   2   64.79    3.50
  -6   4   2   61.39    4.20
   5  -4  -2  127.09    5.00
   5  -4  -2  129.49    5.40
  -5   4   2  132.99    5.20
  -5   4   2  129.29    4.50
   4  -4  -2   14.60    1.50
   4  -4  -2   16.90    1.90
  -4   4   2   15.40    1.50
  -4   4   2   17.40    1.70
  -4   4   2   15.90    1.70
  -4   4   2   16.70    1.30
  -4   4   2   14.30    2.30
   3  -4  -2  413.46   12.10
   3  -4  -2  401.06   11.50
  -3   4   2  380.96   12.00
  -3   4   2  399.06   11.30
  -3   4   2  390.86   11.40
  -3   4   2  396.76   11.80
  -3   4   2  411.06   11.20
   2  -4  -2   13.50    1.50
   2  -4  -2   13.60    1.10
  -2   4   2   12.90    1.30
  -2   4   2   10.00    1.30
  -2   4   2   15.50    1.10
  -2   4   2   10.10    1.10
  -2   4   2   13.70    1.00
   1  -4  -2   21.30    1.20
   1  -4  -2   22.50    1.10
   1  -4  -2   19.50    1.20
   1  -4  -2   19.10    1.60
   1  -4  -2   21.30    1.80
   1  -4  -2   20.00    1.40
   1  -4  -2   20.60    0.90
  -1   4   2   22.70    1.30
  -1   4   2   19.40    1.40
  -1   4   2   23.20    1.50
   0  -4  -2    4.90    0.70
   0  -4  -2    3.70    0.60
   0  -4  -2    5.70    0.80
   0  -4  -2    5.10    0.90
   0  -4  -2    6.20    1.10
   0  -4  -2    5.00    1.00
   0  -4  -2    3.90    0.70
   0   4   2    4.40    0.90
   0   4   2    5.40    0.80
   0   4   2    4.20    0.90
   0   4   2    4.40    0.60
   0   4   2    4.10    0.80
  -1  -4  -2   68.09    2.60
  -1  -4  -2   63.49    3.10
  -1  -4  -2   66.89    2.60
  -1  -4  -2   64.99    2.80
  -1  -4  -2   68.29    3.10
  -1  -4  -2   70.09    2.80
  -1  -4  -2   67.19    2.60
   1   4   2   62.29    2.70
   1   4   2   71.59    2.60
   1   4   2   68.59    3.00
   1   4   2   71.59    2.50
   1   4   2   63.59    3.20
  -2  -4  -2    5.60    0.70
  -2  -4  -2    5.60    0.70
  -2  -4  -2    6.10    1.00
  -2  -4  -2    5.50    1.60
  -2  -4  -2    6.00    1.00
  -2  -4  -2    6.10    1.30
   2   4   2    6.30    1.10
   2   4   2    4.10    1.80
   2   4   2    4.80    1.20
  -3  -4  -2  169.08    5.60
  -3  -4  -2  165.88    5.40
  -3  -4  -2  174.28    6.40
   3   4   2  172.58    5.90
   3   4   2  173.68    6.20
  -4  -4  -2  110.29    5.60
  -4  -4  -2  116.19    4.20
   4   4   2  117.49    5.30
  -5  -4  -2    4.30    2.90
   5   4   2   -1.20    2.00
   5   4   2    1.70    2.40
   7  -5  -2   52.69    5.20
  -7   5   2   40.70    4.60
  -7   5   2   41.40    4.60
   6  -5  -2   -1.10    1.90
   6  -5  -2    0.00    2.20
  -6   5   2    5.60    2.20
  -6   5   2    1.10    2.00
  -6   5   2    1.30    1.10
   5  -5  -2  258.47    9.00
   5  -5  -2  267.67    8.50
  -5   5   2  258.07    8.80
  -5   5   2  234.28    8.50
   4  -5  -2    2.20    1.60
   4  -5  -2    0.20    1.00
  -4   5   2    2.00    1.00
  -4   5   2    1.70    1.20
  -4   5   2    1.40    0.90
  -4   5   2   -0.20    1.20
   3  -5  -2   44.30    3.00
   3  -5  -2   48.80    2.30
  -3   5   2   47.80    2.70
  -3   5   2   47.40    2.60
  -3   5   2   49.40    2.30
  -3   5   2   47.40    2.10
  -3   5   2   43.80    1.90
   2  -5  -2    7.40    1.40
   2  -5  -2   13.30    1.80
   2  -5  -2    9.80    1.00
   2  -5  -2    8.90    1.00
  -2   5   2   10.50    1.10
  -2   5   2   10.20    1.10
  -2   5   2   10.50    1.40
  -2   5   2   11.20    1.40
   1  -5  -2  349.77    9.70
   1  -5  -2  350.86    9.70
   1  -5  -2  339.97    9.70
   1  -5  -2  333.67    9.40
   1  -5  -2  321.47   10.00
   1  -5  -2  327.47   10.20
   1  -5  -2  325.27   10.40
  -1   5   2  339.17    9.90
  -1   5   2  340.67   10.10
  -1   5   2  353.66   10.20
  -1   5   2  337.07    9.80
   0  -5  -2  128.39    4.10
   0  -5  -2  120.99    4.40
   0  -5  -2  111.09    4.30
   0  -5  -2  125.69    4.70
   0  -5  -2  124.09    4.60
   0  -5  -2  127.29    4.10
   0  -5  -2  122.29    4.10
   0   5   2  123.29    4.10
   0   5   2  119.89    4.40
   0   5   2  126.19    4.20
   0   5   2  127.59    4.70
  -1  -5  -2  246.08    8.10
  -1  -5  -2  228.68    7.60
  -1  -5  -2  252.47    7.80
  -1  -5  -2  259.07    7.70
  -1  -5  -2  255.97    7.60
   1   5   2  255.67    7.50
   1   5   2  256.97    8.10
   1   5   2  248.28    7.60
   1   5   2  251.87    7.80
  -2  -5  -2   88.59    3.60
  -2  -5  -2   97.09    3.70
  -2  -5  -2   94.59    3.20
  -2  -5  -2   94.69    4.20
   2   5   2   93.49    4.30
   2   5   2   94.09    3.70
  -3  -5  -2  139.99    5.10
  -3  -5  -2  128.59    4.80
  -3  -5  -2  138.59    5.70
   3   5   2  139.89    5.80
   3   5   2  135.79    5.20
  -4  -5  -2   -0.90    2.30
  -4  -5  -2   -1.10    1.70
   4   5   2    1.00    1.90
   4   5   2    0.70    2.20
  -5  -5  -2   -0.60    2.40
  -5  -5  -2    1.10    3.40
   5   5   2    4.70    2.90
   5   5   2    1.90    2.40
   7  -6  -2   74.49    6.40
  -7   6   2   97.29    6.70
  -7   6   2   86.29    5.30
   6  -6  -2    3.10    2.80
   6  -6  -2    3.10    2.20
  -6   6   2    4.80    2.60
  -6   6   2    1.00    1.90
   5  -6  -2  101.69    5.40
   5  -6  -2   86.69    4.40
  -5   6   2   92.19    5.10
  -5   6   2   94.19    3.80
  -5   6   2   86.49    3.90
   4  -6  -2  121.19    4.60
   4  -6  -2  122.29    5.60
  -4   6   2  107.19    4.10
  -4   6   2  114.59    5.10
  -4   6   2  118.79    5.00
   3  -6  -2  171.48    5.60
   3  -6  -2  172.88    6.70
   3  -6  -2  179.98    5.80
  -3   6   2  164.48    5.50
  -3   6   2  172.68    5.70
  -3   6   2  179.68    6.30
  -3   6   2  173.58    6.30
   2  -6  -2   16.90    1.70
   2  -6  -2   15.20    2.20
   2  -6  -2   11.10    1.20
  -2   6   2   14.60    1.50
  -2   6   2   16.80    1.90
  -2   6   2   15.60    1.40
  -2   6   2   16.80    1.90
   1  -6  -2  564.94   15.40
   1  -6  -2  554.14   15.40
   1  -6  -2  544.85   16.30
   1  -6  -2  570.84   15.50
   1  -6  -2  512.95   15.90
  -1   6   2  524.15   15.60
  -1   6   2  534.45   15.50
  -1   6   2  547.25   15.90
  -1   6   2  551.74   15.80
   0  -6  -2  196.08    6.80
   0  -6  -2  193.68    6.00
   0  -6  -2  173.48    6.30
   0  -6  -2  190.08    5.90
   0  -6  -2  193.98    6.20
   0  -6  -2  182.88    6.40
   0   6   2  188.88    6.40
   0   6   2  195.58    6.30
  -1  -6  -2   72.99    3.40
  -1  -6  -2   74.49    3.40
  -1  -6  -2   75.99    3.20
  -1  -6  -2   78.99    4.00
  -1  -6  -2   74.09    3.60
   1   6   2   73.59    3.20
   1   6   2   72.89    3.20
   1   6   2   75.19    4.10
   1   6   2   71.89    3.50
  -2  -6  -2    5.80    1.70
  -2  -6  -2    3.10    1.80
  -2  -6  -2    2.50    1.30
  -2  -6  -2    3.70    1.00
  -2  -6  -2    3.70    1.20
   2   6   2    4.30    1.50
   2   6   2    5.70    2.00
  -3  -6  -2    9.10    1.80
  -3  -6  -2   11.80    2.60
   3   6   2    9.10    2.00
   3   6   2    8.30    2.50
  -4  -6  -2   27.00    3.60
  -4  -6  -2   18.80    2.60
   4   6   2   22.00    2.90
   4   6   2   32.00    3.90
   6  -7  -2    1.10    2.30
   6  -7  -2   -0.80    3.30
  -6   7   2    3.70    3.10
   5  -7  -2  236.88    9.40
   5  -7  -2  242.68    8.30
  -5   7   2  227.18    7.70
  -5   7   2  237.48    8.80
  -5   7   2  250.97    9.10
   4  -7  -2  117.19    4.80
   4  -7  -2  110.29    5.90
  -4   7   2  115.39    5.40
  -4   7   2  112.59    4.40
  -4   7   2  110.79    5.50
   3  -7  -2  122.39    4.60
   3  -7  -2  116.89    5.80
  -3   7   2  116.79    5.20
  -3   7   2  117.49    4.40
  -3   7   2  118.09    5.30
   2  -7  -2   49.99    2.60
   2  -7  -2   50.69    4.00
  -2   7   2   47.80    3.00
  -2   7   2   50.19    3.40
  -2   7   2   47.30    4.20
   1  -7  -2   50.39    3.20
   1  -7  -2   52.19    5.90
   1  -7  -2   56.19    2.10
   1  -7  -2   57.09    2.80
  -1   7   2   54.09    3.70
  -1   7   2   51.19    3.30
   0  -7  -2   -0.70    1.00
   0  -7  -2   -0.70    1.90
   0  -7  -2    2.80    1.20
   0  -7  -2    0.60    2.00
   0   7   2    0.90    1.40
   0   7   2   -0.10    1.30
  -1  -7  -2  455.25   13.40
  -1  -7  -2  459.85   13.40
  -1  -7  -2  443.86   13.20
   1   7   2  443.06   13.30
   1   7   2  451.05   13.30
   1   7   2  449.36   14.20
   1   7   2  429.26   13.60
  -2  -7  -2   36.10    4.20
  -2  -7  -2   39.90    3.80
  -2  -7  -2   43.20    3.20
   2   7   2   36.60    3.40
   2   7   2   31.20    3.30
  -3  -7  -2   93.69    5.90
  -3  -7  -2   92.49    5.70
  -3  -7  -2   92.09    4.90
   3   7   2   90.39    5.20
   3   7   2   84.89    6.30
   6  -8  -2  195.58    8.20
  -6   8   2  177.08    8.60
  -6   8   2  212.38   11.40
   5  -8  -2   40.00    4.20
   5  -8  -2   42.20    4.60
  -5   8   2   43.70    4.10
  -5   8   2   43.40    4.90
   4  -8  -2    9.30    1.90
   4  -8  -2    7.10    3.40
  -4   8   2    5.80    2.60
  -4   8   2   10.50    2.40
   3  -8  -2  201.58    6.90
   3  -8  -2  201.08    8.60
  -3   8   2  205.48    7.90
  -3   8   2  205.18    6.90
  -3   8   2  204.38    7.80
   2  -8  -2   37.70    2.80
   2  -8  -2   31.80    3.40
  -2   8   2   34.30    3.60
  -2   8   2   29.40    3.40
   1  -8  -2   88.19    5.40
   1  -8  -2   81.69    4.20
  -1   8   2   80.39    4.50
  -1   8   2   80.49    4.40
   0  -8  -2   17.40    1.70
   0  -8  -2   16.40    1.90
   0  -8  -2   20.80    3.30
   0   8   2   13.90    2.30
   0   8   2   14.70    2.20
  -1  -8  -2    7.80    2.90
  -1  -8  -2    3.00    1.90
  -1  -8  -2    8.00    1.90
  -1  -8  -2   10.60    2.00
   1   8   2    7.50    2.10
  -2  -8  -2   66.49    4.30
  -2  -8  -2   57.89    5.90
  -2  -8  -2   54.99    4.80
   2   8   2   58.09    4.60
   2   8   2   59.19    5.90
   4  -9  -2    5.90    2.30
   4  -9  -2    9.50    4.00
  -4   9   2    5.30    3.00
  -4   9   2    6.50    3.20
   3  -9  -2   15.20    3.60
   3  -9  -2   20.10    2.40
  -3   9   2   20.10    3.20
  -3   9   2   16.20    3.00
   2  -9  -2   43.50    4.40
   2  -9  -2   51.89    3.50
   2  -9  -2   47.10    4.70
  -2   9   2   48.60    4.80
  -2   9   2   48.70    4.50
   1  -9  -2  206.78    9.50
   1  -9  -2  225.98    7.50
   1  -9  -2  206.48    8.90
  -1   9   2  209.58    8.30
  -1   9   2  211.88    8.00
   0  -9  -2   21.20    4.10
   0  -9  -2   21.10    3.20
   0  -9  -2   21.50    2.50
   0   9   2   19.90    3.30
   0   9   2   26.50    3.10
   1   9  -3   77.29    5.50
  -1  -9   3   86.89    4.90
   0   9  -3    4.20    2.60
   0   9  -3    0.60    2.40
   0  -9   3    0.10    2.50
   0  -9   3    2.00    2.30
  -1   9  -3   37.60    4.20
  -1   9  -3   32.30    3.30
  -1   9  -3   30.50    3.20
   1  -9   3   39.40    3.80
   1  -9   3   47.00    4.90
  -2   9  -3   -2.30    2.90
  -2   9  -3   -1.50    2.20
  -2   9  -3   -0.50    2.20
   2  -9   3   -0.50    2.70
   2  -9   3   -0.20    2.70
  -3   9  -3   58.09    5.50
  -3   9  -3   61.79    5.30
  -3   9  -3   71.09    5.60
   3  -9   3   61.69    5.50
   3  -9   3   61.19    5.80
  -4   9  -3    0.30    3.00
  -4   9  -3   -1.10    2.80
   4  -9   3    5.00    3.10
   4  -9   3    1.10    3.30
   2   8  -3    8.20    2.40
  -2  -8   3    9.90    1.90
  -2  -8   3    8.40    2.90
   1   8  -3   49.30    3.90
  -1  -8   3   44.40    4.20
  -1  -8   3   36.50    4.10
  -1  -8   3   37.80    3.30
  -1  -8   3   43.10    2.80
   0   8  -3    2.30    1.90
   0   8  -3    0.80    1.80
   0   8  -3    5.10    2.60
   0  -8   3    3.00    1.80
   0  -8   3    2.90    1.20
   0  -8   3   -1.10    2.40
   0  -8   3    2.10    1.70
  -1   8  -3    0.20    1.80
  -1   8  -3   -1.20    1.70
  -1   8  -3    0.50    2.50
   1  -8   3   -0.30    1.10
   1  -8   3    3.80    1.10
   1  -8   3    0.10    2.00
   1  -8   3    0.60    2.00
  -2   8  -3   94.09    5.30
  -2   8  -3   89.19    4.90
  -2   8  -3   87.59    4.90
   2  -8   3   92.59    5.30
   2  -8   3   87.99    3.50
   2  -8   3   93.69    5.20
  -3   8  -3  112.29    5.60
  -3   8  -3  102.69    5.50
  -3   8  -3  102.59    5.40
   3  -8   3  105.19    5.70
   3  -8   3  104.19    6.00
   3  -8   3  109.29    4.10
  -4   8  -3   11.60    2.60
  -4   8  -3    9.90    2.80
  -4   8  -3   10.80    2.50
   4  -8   3    9.30    3.00
   4  -8   3    9.90    3.00
   4  -8   3   13.00    1.90
  -5   8  -3   18.20    3.20
  -5   8  -3   17.40    3.00
  -5   8  -3   10.50    3.20
   5  -8   3   18.40    3.80
   5  -8   3   16.10    3.50
   4   7  -3    7.70    3.50
   4   7  -3    4.80    2.90
  -4  -7   3    4.10    3.80
  -4  -7   3    8.90    2.30
   3   7  -3   66.69    5.00
   3   7  -3   58.79    4.50
  -3  -7   3   64.49    5.60
  -3  -7   3   60.09    3.60
  -3  -7   3   64.89    4.50
   2   7  -3    6.80    2.30
   2   7  -3    3.60    1.70
  -2  -7   3    5.10    2.00
  -2  -7   3    3.90    1.20
  -2  -7   3    3.30    1.40
  -2  -7   3    5.60    2.40
  -2  -7   3    5.90    2.00
   1   7  -3    5.40    2.40
   1   7  -3    7.70    1.60
   1   7  -3    4.50    1.70
  -1  -7   3    8.50    2.00
  -1  -7   3    5.80    1.80
  -1  -7   3    4.80    1.10
  -1  -7   3    5.60    1.40
   0   7  -3   87.29    4.80
   0   7  -3   86.39    4.20
   0  -7   3   83.39    4.20
   0  -7   3   84.19    4.40
   0  -7   3   89.39    3.90
   0  -7   3   87.29    3.20
  -1   7  -3  108.99    4.50
  -1   7  -3  103.69    4.90
  -1   7  -3   99.59    4.50
   1  -7   3  101.39    3.50
   1  -7   3  101.69    3.40
   1  -7   3   95.39    4.70
   1  -7   3  101.69    4.70
   1  -7   3  100.79    3.70
  -2   7  -3   87.59    4.20
  -2   7  -3   85.09    4.30
  -2   7  -3   79.69    4.20
   2  -7   3   81.19    4.60
   2  -7   3   86.49    3.10
   2  -7   3   81.39    4.40
  -3   7  -3  196.88    7.00
  -3   7  -3  193.78    7.10
  -3   7  -3  189.38    6.00
  -3   7  -3  192.38    7.20
   3  -7   3  204.38    6.10
   3  -7   3  188.58    7.50
   3  -7   3  192.98    7.50
  -4   7  -3    4.70    2.10
  -4   7  -3    2.30    1.90
  -4   7  -3   -0.30    1.60
   4  -7   3    2.40    2.40
   4  -7   3    4.20    2.20
   4  -7   3    4.40    1.40
  -5   7  -3   28.40    3.40
  -5   7  -3   27.90    2.80
   5  -7   3   25.20    3.60
   5  -7   3   28.60    3.40
  -6   7  -3    0.40    2.50
  -6   7  -3    0.60    2.80
   6  -7   3   -4.80    3.00
   6  -7   3   -1.80    3.00
   4   6  -3   44.50    4.10
   4   6  -3   44.00    4.50
  -4  -6   3   47.10    4.40
   3   6  -3   25.30    2.70
   3   6  -3   28.20    3.10
  -3  -6   3   21.20    2.90
  -3  -6   3   24.90    2.30
  -3  -6   3   25.80    1.60
  -3  -6   3   27.70    2.80
   2   6  -3    0.90    1.30
   2   6  -3    1.90    1.50
  -2  -6   3   -0.30    0.80
  -2  -6   3   -0.20    1.20
  -2  -6   3   -0.30    1.00
  -2  -6   3    4.00    1.90
  -2  -6   3   -0.40    1.30
   1   6  -3  170.08    6.00
   1   6  -3  173.98    6.20
   1   6  -3  186.38    6.40
   1   6  -3  180.78    6.80
  -1  -6   3  180.78    6.20
  -1  -6   3  178.28    5.90
  -1  -6   3  178.48    5.60
  -1  -6   3  181.78    6.50
  -1  -6   3  180.18    5.70
   0   6  -3  556.94   16.10
   0   6  -3  539.95   15.80
   0   6  -3  546.65   15.70
   0  -6   3  550.64   15.80
   0  -6   3  488.35   15.80
   0  -6   3  570.74   15.70
   0  -6   3  550.54   15.10
   0  -6   3  503.45   15.60
   0  -6   3  574.64   16.00
  -1   6  -3 1293.87   36.30
  -1   6  -3 1272.07   36.20
  -1   6  -3 1314.97   36.10
   1  -6   3 1330.47   35.60
   1  -6   3 1297.77   36.10
   1  -6   3 1320.67   36.40
   1  -6   3 1369.26   36.40
   1  -6   3 1212.88   35.70
   1  -6   3 1309.97   35.40
   1  -6   3 1302.07   36.00
  -2   6  -3    0.60    0.70
  -2   6  -3    4.30    1.30
  -2   6  -3    1.10    1.20
  -2   6  -3   -0.90    1.10
   2  -6   3    1.20    1.50
   2  -6   3    0.40    1.40
   2  -6   3    1.00    0.70
   2  -6   3   -0.40    0.40
   2  -6   3    0.20    0.50
  -3   6  -3   52.19    3.00
  -3   6  -3   49.99    3.20
  -3   6  -3   52.89    3.20
  -3   6  -3   46.90    2.20
   3  -6   3   48.20    3.50
   3  -6   3   51.39    2.30
   3  -6   3   52.59    3.50
  -4   6  -3   43.70    3.00
  -4   6  -3   42.50    2.40
  -4   6  -3   47.80    3.40
   4  -6   3   42.80    3.70
   4  -6   3   47.10    2.60
   4  -6   3   43.40    3.90
  -5   6  -3   55.99    3.60
  -5   6  -3   51.29    3.90
   5  -6   3   54.19    4.30
   5  -6   3   53.09    4.60
  -6   6  -3    6.60    2.40
   6  -6   3    5.30    2.90
   6  -6   3    8.30    3.00
  -7   6  -3  232.28    9.30
   7  -6   3  206.18    9.40
   7  -6   3  227.78    9.80
   5   5  -3    8.00    2.70
   5   5  -3   10.00    2.60
  -5  -5   3    3.10    3.20
   4   5  -3   15.70    2.50
   4   5  -3   13.20    2.10
  -4  -5   3    9.50    2.70
  -4  -5   3   14.20    1.70
   3   5  -3  171.68    6.20
   3   5  -3  165.58    6.00
  -3  -5   3  166.88    5.50
  -3  -5   3  160.78    5.10
  -3  -5   3  167.88    4.90
  -3  -5   3  164.98    6.70
   2   5  -3  220.38    7.20
   2   5  -3  225.58    7.40
  -2  -5   3  225.28    7.80
  -2  -5   3  232.78    6.70
  -2  -5   3  233.38    7.10
  -2  -5   3  209.48    7.10
  -2  -5   3  231.48    7.90
   1   5  -3    8.70    1.70
   1   5  -3    6.50    1.00
   1   5  -3    7.80    1.20
   1   5  -3    8.30    1.20
   1   5  -3    7.00    1.20
  -1  -5   3    7.60    1.20
  -1  -5   3    5.90    1.60
  -1  -5   3    5.90    1.40
  -1  -5   3    7.20    0.90
  -1  -5   3    9.10    1.50
  -1  -5   3    5.40    1.10
  -1  -5   3   11.40    1.10
  -1  -5   3    9.60    1.30
   0   5  -3   33.80    2.40
   0   5  -3   35.20    2.00
   0   5  -3   34.30    2.10
   0  -5   3   32.30    2.40
   0  -5   3   31.90    2.00
   0  -5   3   33.60    1.40
   0  -5   3   30.70    2.10
   0  -5   3   31.70    2.10
   0  -5   3   30.70    2.10
   0  -5   3   37.40    2.40
   0  -5   3   30.90    2.30
   0  -5   3   34.00    2.10
  -1   5  -3   70.09    3.20
  -1   5  -3   68.09    2.90
  -1   5  -3   66.99    3.00
  -1   5  -3   64.49    2.90
   1  -5   3   69.19    2.20
   1  -5   3   57.39    3.00
   1  -5   3   64.79    2.90
   1  -5   3   66.89    2.30
   1  -5   3   69.49    2.80
   1  -5   3   60.09    3.10
   1  -5   3   70.69    2.90
   1  -5   3   67.59    3.10
  -2   5  -3  289.47    9.30
  -2   5  -3  279.97    8.80
  -2   5  -3  291.87    9.00
  -2   5  -3  294.57    9.00
   2  -5   3  308.87    9.20
   2  -5   3  286.27    9.20
   2  -5   3  270.47    9.00
   2  -5   3  295.67    8.10
   2  -5   3  299.87    8.30
  -3   5  -3  317.37    9.40
  -3   5  -3  313.87    9.60
  -3   5  -3  303.37    8.80
   3  -5   3  301.07    9.90
   3  -5   3  295.47    8.70
   3  -5   3  317.07    9.90
   3  -5   3  321.07    9.00
  -4   5  -3   22.50    1.80
  -4   5  -3   22.80    2.40
  -4   5  -3   22.80    1.50
   4  -5   3   26.60    2.90
   4  -5   3   18.10    2.10
   4  -5   3   23.50    1.90
  -5   5  -3   84.79    3.10
  -5   5  -3   91.69    5.30
  -5   5  -3   87.49    4.30
   5  -5   3   80.99    4.70
   5  -5   3   80.29    5.60
  -6   5  -3   17.60    1.80
  -6   5  -3   14.10    2.40
   6  -5   3   13.70    2.70
   6  -5   3   17.80    2.90
  -7   5  -3   14.50    3.20
   7  -5   3   13.80    3.20
   7  -5   3   14.80    3.20
   6   4  -3   57.89    5.00
   6   4  -3   62.69    5.20
  -6  -4   3   71.49    7.00
   5   4  -3  133.79    5.80
   5   4  -3  141.99    6.00
  -5  -4   3  136.79    7.10
   4   4  -3  417.36   14.70
   4   4  -3  497.75   14.10
  -4  -4   3  470.35   13.20
  -4  -4   3  477.45   14.90
   3   4  -3    1.50    1.20
   3   4  -3    2.00    1.10
  -3  -4   3    2.40    0.70
  -3  -4   3    1.50    0.50
  -3  -4   3    2.60    1.60
  -3  -4   3    1.30    1.20
   2   4  -3   40.40    2.20
   2   4  -3   39.50    2.20
  -2  -4   3   39.50    2.30
  -2  -4   3   43.90    1.70
  -2  -4   3   53.19    3.50
  -2  -4   3   41.40    2.90
  -2  -4   3   44.50    3.10
  -2  -4   3   38.50    2.00
  -2  -4   3   40.80    2.60
  -2  -4   3   39.40    2.10
   1   4  -3  269.07    8.10
   1   4  -3  268.17    8.00
   1   4  -3  269.27    8.10
   1   4  -3  270.57    8.50
  -1  -4   3  274.47    8.20
  -1  -4   3  273.27    8.00
  -1  -4   3  260.57    7.90
  -1  -4   3  270.47    8.10
  -1  -4   3  269.67    8.40
  -1  -4   3  274.87    8.40
  -1  -4   3  268.57    7.90
  -1  -4   3  279.37    8.00
  -1  -4   3  266.87    7.70
   0   4  -3  168.58    5.50
   0   4  -3  171.08    5.30
   0   4  -3  162.58    5.20
   0   4  -3  170.48    5.30
   0  -4   3  163.88    5.40
   0  -4   3  166.28    5.40
   0  -4   3  172.98    5.40
   0  -4   3  159.78    5.20
   0  -4   3  168.08    5.40
   0  -4   3  172.38    5.40
   0  -4   3  170.78    5.20
  -1   4  -3  155.08    5.20
  -1   4  -3  160.88    5.40
  -1   4  -3  163.78    4.60
  -1   4  -3  158.98    5.20
  -1   4  -3  155.48    5.20
   1  -4   3  178.48    5.10
   1  -4   3  162.98    4.70
   1  -4   3  160.88    5.30
   1  -4   3  166.98    5.50
   1  -4   3  172.88    4.70
   1  -4   3  162.38    5.20
   1  -4   3  167.58    5.20
   1  -4   3  153.48    5.30
  -2   4  -3  712.83   20.60
  -2   4  -3  714.43   20.90
  -2   4  -3  724.23   20.50
  -2   4  -3  752.52   20.00
   2  -4   3  754.62   20.70
   2  -4   3  740.83   20.80
   2  -4   3  738.73   20.00
   2  -4   3  737.63   20.90
  -3   4  -3  339.47   10.90
  -3   4  -3  346.27   10.50
  -3   4  -3  352.86   10.00
   3  -4   3  367.36   10.10
   3  -4   3  342.67   10.80
   3  -4   3  359.36   10.80
   3  -4   3  358.26   10.00
  -4   4  -3   -1.40    1.00
  -4   4  -3    0.20    0.60
  -4   4  -3   -1.40    0.90
   4  -4   3   -0.40    1.10
   4  -4   3    1.20    1.30
   4  -4   3    4.90    1.20
  -5   4  -3  801.02   22.40
  -5   4  -3  810.52   21.80
   5  -4   3  771.62   22.70
   5  -4   3  759.92   22.30
   5  -4   3  769.42   24.00
  -6   4  -3   -0.40    1.80
  -6   4  -3    0.50    1.40
   6  -4   3   -1.20    2.00
   6  -4   3    0.50    1.90
  -7   4  -3   16.20    2.40
  -7   4  -3   21.90    2.90
   7  -4   3   21.00    3.10
   7  -4   3   21.10    3.10
   6   3  -3   25.10    2.90
   6   3  -3   23.40    3.10
  -6  -3   3   28.10    4.10
   5   3  -3   27.20    3.00
   5   3  -3   29.40    3.20
  -5  -3   3   34.70    3.60
   4   3  -3  486.55   13.80
   4   3  -3  461.65   13.80
  -4  -3   3  451.25   13.60
  -4  -3   3  480.45   14.70
  -4  -3   3  460.45   13.20
   3   3  -3   38.80    2.20
   3   3  -3   40.10    1.90
   3   3  -3   39.40    2.20
  -3  -3   3   47.40    3.10
  -3  -3   3   39.90    1.60
  -3  -3   3   36.90    2.10
  -3  -3   3   39.00    1.50
  -3  -3   3   43.20    3.50
   2   3  -3  304.87    8.70
   2   3  -3  293.57    8.80
   2   3  -3  297.47    9.20
   2   3  -3  291.97    8.60
  -2  -3   3  292.47    9.20
  -2  -3   3  292.87    8.70
  -2  -3   3  289.87    8.30
  -2  -3   3  293.27    8.60
  -2  -3   3  305.37    8.80
  -2  -3   3  310.17    8.80
  -2  -3   3  308.47    8.40
  -2  -3   3  297.67    9.20
   1   3  -3 1930.21   53.29
   1   3  -3 1905.11   53.29
   1   3  -3 1960.20   53.19
   1   3  -3 1864.11   53.19
   1   3  -3 1983.00   53.59
  -1  -3   3 1982.50   53.29
  -1  -3   3 1863.11   53.09
  -1  -3   3 1996.90   53.29
  -1  -3   3 2020.70   53.09
  -1  -3   3 2030.40   53.49
  -1  -3   3 2054.79   53.29
  -1  -3   3 1972.80   53.09
   0   3  -3  535.25   14.60
   0   3  -3  527.25   14.60
   0   3  -3  521.05   14.60
   0   3  -3  513.45   14.60
   0  -3   3  527.85   14.50
   0  -3   3  536.75   14.60
   0  -3   3  514.15   14.70
   0  -3   3  525.05   14.70
   0  -3   3  511.05   14.70
   0  -3   3  512.75   14.20
   0  -3   3  536.55   14.70
   0  -3   3  528.35   14.70
  -1   3  -3   22.70    1.30
  -1   3  -3   24.70    1.50
  -1   3  -3   25.10    1.40
  -1   3  -3   24.60    1.40
  -1   3  -3   23.40    0.80
   1  -3   3   23.80    1.00
   1  -3   3   24.80    1.50
   1  -3   3   23.40    0.90
  -2   3  -3  113.99    3.80
  -2   3  -3  116.39    3.40
  -2   3  -3  122.79    3.50
  -2   3  -3  105.09    4.10
   2  -3   3  120.39    3.50
   2  -3   3  111.39    4.00
   2  -3   3  112.29    3.90
   2  -3   3  116.19    3.50
   2  -3   3  114.39    4.00
  -3   3  -3  540.35   15.10
  -3   3  -3  551.34   15.80
  -3   3  -3  543.15   15.00
  -3   3  -3  547.15   15.40
   3  -3   3  529.75   15.60
   3  -3   3  555.84   15.60
   3  -3   3  527.85   15.20
  -4   3  -3  514.55   14.20
  -4   3  -3  491.15   13.80
  -4   3  -3  465.85   14.80
  -4   3  -3  471.85   14.00
   4  -3   3  491.35   14.20
   4  -3   3  498.85   14.40
   4  -3   3  490.85   14.40
  -5   3  -3  468.25   13.70
  -5   3  -3  483.35   13.50
   5  -3   3  441.66   13.90
   5  -3   3  466.85   13.90
   5  -3   3  451.65   13.80
  -6   3  -3   54.79    3.60
  -6   3  -3   56.19    3.50
   6  -3   3   51.19    3.80
   6  -3   3   52.89    3.80
  -7   3  -3   53.09    4.30
  -7   3  -3   48.50    4.10
   7  -3   3   50.89    4.20
   7  -3   3   55.39    4.40
   7   2  -3    7.00    2.90
   7   2  -3    3.40    2.50
  -7  -2   3    0.90    3.70
   6   2  -3  428.36   13.20
   6   2  -3  411.96   13.20
  -6  -2   3  424.76   14.30
   5   2  -3   95.99    4.50
   5   2  -3  103.79    4.30
  -5  -2   3  103.59    4.00
  -5  -2   3  103.99    5.50
   4   2  -3    6.60    1.20
   4   2  -3    4.00    1.10
   4   2  -3    4.80    0.60
  -4  -2   3    4.40    1.00
  -4  -2   3    1.40    1.60
   3   2  -3   28.40    1.20
   3   2  -3   27.90    1.70
   3   2  -3   27.20    1.60
  -3  -2   3   27.70    1.30
  -3  -2   3   27.50    1.30
  -3  -2   3   23.10    2.00
  -3  -2   3   30.50    1.90
  -3  -2   3   27.30    2.50
  -3  -2   3   25.00    2.40
   2   2  -3 1238.08   34.10
   2   2  -3 1210.18   34.20
   2   2  -3 1252.77   34.40
  -2  -2   3 1322.67   34.70
  -2  -2   3 1288.37   34.40
  -2  -2   3 1222.18   34.00
  -2  -2   3 1215.88   33.90
  -2  -2   3 1305.67   34.30
   1   2  -3  313.97    9.10
   1   2  -3  304.97    8.80
   1   2  -3  307.37    8.80
   1   2  -3  311.97    8.80
   1   2  -3  306.87    8.80
  -1  -2   3  318.37    8.90
  -1  -2   3  303.87    8.70
  -1  -2   3  322.17    8.90
  -1  -2   3  317.17    9.10
  -1  -2   3  311.37    8.90
  -1  -2   3  323.67    8.90
  -1  -2   3  313.77    8.60
  -1  -2   3  308.47    8.70
   0   2  -3 2703.53   74.09
   0   2  -3 2696.43   73.89
   0   2  -3 2605.64   73.69
   0   2  -3 2641.14   73.89
   0   2  -3 2848.52   74.49
   0   2  -3 2685.33   73.89
   0  -2   3 2687.63   74.59
   0  -2   3 2661.83   73.89
   0  -2   3 2638.84   73.89
   0  -2   3 2859.71   74.19
   0  -2   3 2830.92   74.09
   0  -2   3 2654.03   73.29
   0  -2   3 2846.52   74.19
  -1   2  -3  415.16   11.70
  -1   2  -3  431.56   11.80
  -1   2  -3  408.16   11.50
  -1   2  -3  419.16   11.70
  -1   2  -3  403.36   11.40
   1  -2   3  418.16   11.70
   1  -2   3  423.86   11.50
   1  -2   3  424.26   11.80
   1  -2   3  429.86   11.80
  -2   2  -3  338.07    9.80
  -2   2  -3  334.47    9.60
  -2   2  -3  347.27    9.40
   2  -2   3  329.07    9.70
   2  -2   3  334.87    9.50
   2  -2   3  325.07    9.50
   2  -2   3  338.47    9.70
  -3   2  -3   13.60    1.10
  -3   2  -3   15.30    1.50
  -3   2  -3   15.00    1.30
  -3   2  -3   13.20    1.30
   3  -2   3   14.80    1.50
   3  -2   3   12.30    1.40
   3  -2   3   14.10    1.40
  -4   2  -3 1149.48   30.80
  -4   2  -3 1104.59   30.90
  -4   2  -3 1030.90   31.20
  -4   2  -3 1137.69   30.80
   4  -2   3 1151.48   31.00
   4  -2   3 1105.29   31.10
   4  -2   3 1127.09   30.90
  -5   2  -3   93.79    4.10
  -5   2  -3   99.49    3.90
   5  -2   3   95.79    3.90
   5  -2   3   85.19    5.10
   5  -2   3   96.39    4.10
  -6   2  -3    6.70    2.30
  -6   2  -3    6.00    1.60
   6  -2   3    4.10    1.60
   6  -2   3    8.80    1.90
  -7   2  -3   22.00    3.00
  -7   2  -3   19.50    2.40
   7  -2   3   19.60    2.70
   7   1  -3   13.50    2.60
   7   1  -3   15.00    2.70
  -7  -1   3   18.60    4.00
   6   1  -3  104.69    4.70
   6   1  -3   97.19    4.70
   6   1  -3   98.09    3.90
  -6  -1   3  104.39    5.90
   5   1  -3    0.10    0.80
   5   1  -3    1.60    1.20
   5   1  -3    1.00    0.60
   5   1  -3    2.60    1.20
  -5  -1   3    1.00    1.30
  -5  -1   3   -2.20    1.70
   4   1  -3   54.29    2.10
   4   1  -3   59.79    2.60
   4   1  -3   62.19    2.00
   4   1  -3   56.79    2.60
  -4  -1   3   62.39    2.50
  -4  -1   3   55.69    3.50
  -4  -1   3   60.99    3.40
  -4  -1   3   55.19    3.20
   3   1  -3   16.30    0.80
   3   1  -3   13.90    1.20
   3   1  -3   18.00    1.20
   3   1  -3   15.30    0.80
  -3  -1   3   11.50    1.40
  -3  -1   3   12.50    1.30
  -3  -1   3   16.40    1.10
  -3  -1   3   17.60    1.90
  -3  -1   3   16.40    1.10
   2   1  -3  436.16   12.10
   2   1  -3  424.36   11.90
   2   1  -3  425.56   12.00
   2   1  -3  419.86   11.80
  -2  -1   3  442.46   11.90
  -2  -1   3  433.06   11.80
  -2  -1   3  441.46   12.40
  -2  -1   3  439.76   12.20
   1   1  -3   84.59    2.30
   1   1  -3   78.49    2.30
   1   1  -3   75.59    2.40
   1   1  -3   73.89    2.60
  -1  -1   3   79.89    2.40
  -1  -1   3   74.89    2.30
  -1  -1   3   79.79    2.40
  -1  -1   3   75.69    2.60
  -1  -1   3   79.99    2.60
  -1  -1   3   74.99    2.40
   0   1  -3 1140.09   30.90
   0   1  -3 1162.38   30.90
   0   1  -3 1082.09   30.80
   0   1  -3 1154.58   30.90
   0  -1   3 1074.99   30.80
   0  -1   3 1193.78   30.80
   0  -1   3 1141.29   30.80
   0  -1   3 1220.38   31.10
   0  -1   3 1159.28   30.90
   0  -1   3 1129.79   30.80
   0  -1   3 1080.59   30.80
  -1   1  -3  111.09    3.40
  -1   1  -3  107.29    3.30
  -1   1  -3  107.09    3.30
  -1   1  -3  113.79    3.40
   1  -1   3  108.29    3.30
   1  -1   3  110.19    3.40
   1  -1   3  112.89    3.40
   1  -1   3  113.59    3.30
   1  -1   3  101.99    3.40
  -2   1  -3   55.69    2.00
  -2   1  -3   59.59    2.20
  -2   1  -3   54.09    2.00
   2  -1   3   52.29    2.10
   2  -1   3   60.29    2.40
  -3   1  -3  241.18    7.40
  -3   1  -3  248.98    7.40
  -3   1  -3  250.27    7.60
  -3   1  -3  255.97    7.20
   3  -1   3  248.78    7.60
   3  -1   3  251.77    7.30
   3  -1   3  240.58    7.40
  -4   1  -3  214.98    7.20
  -4   1  -3  213.78    7.30
  -4   1  -3  231.68    7.20
   4  -1   3  217.38    7.50
   4  -1   3  226.98    6.80
   4  -1   3  235.88    7.00
  -5   1  -3  156.48    5.90
  -5   1  -3  164.18    5.40
   5  -1   3  157.78    5.20
   5  -1   3  162.38    5.60
  -6   1  -3   20.70    2.60
  -6   1  -3   22.50    2.40
   6  -1   3   18.70    2.10
   6  -1   3   20.80    2.40
   6  -1   3   18.10    2.00
  -7   1  -3   33.40    3.60
  -7   1  -3   24.30    2.50
   7  -1   3   24.10    2.70
   7  -1   3   20.30    3.00
   7   0  -3    4.70    2.10
   7   0  -3    5.90    2.30
   7   0  -3    4.90    1.80
  -7   0   3    5.20    3.20
   6   0  -3    7.20    1.70
   6   0  -3    8.40    1.70
   6   0  -3    6.40    1.30
  -6   0   3    5.60    2.10
  -6   0   3    4.30    2.30
   5   0  -3   18.90    1.70
   5   0  -3   20.00    1.50
  -5   0   3   16.90    2.10
  -5   0   3   20.50    1.90
   4   0  -3  553.24   15.40
   4   0  -3  549.74   15.40
  -4   0   3  567.94   16.20
  -4   0   3  574.24   16.30
  -4   0   3  524.75   15.90
  -4   0   3  551.94   15.60
   3   0  -3  407.96   11.50
  -3   0   3  415.66   11.60
  -3   0   3  412.96   11.90
  -3   0   3  404.86   11.80
  -3   0   3  413.46   12.00
   2   0  -3 1016.40   27.20
   2   0  -3  956.80   27.40
   2   0  -3  996.90   27.10
  -2   0   3  982.80   27.30
  -2   0   3 1026.70   27.40
  -2   0   3 1011.10   27.20
  -2   0   3 1014.50   27.40
   1   0  -3  258.47    7.10
   1   0  -3  252.17    7.00
   1   0  -3  243.68    7.00
   1   0  -3  249.97    7.20
   1   0  -3  253.77    7.10
  -1   0   3  258.47    7.10
  -1   0   3  249.18    7.20
  -1   0   3  256.77    7.10
  -1   0   3  243.68    7.10
  -1   0   3  253.57    7.10
   0   0  -3 1708.63   48.80
   0   0  -3 1815.72   49.00
   0   0  -3 1864.81   49.10
   0   0  -3 1809.72   48.80
   0   0  -3 1703.73   48.90
   0   0   3 1846.42   49.00
   0   0   3 1864.81   49.10
   0   0   3 1789.52   48.80
   0   0   3 1831.02   49.10
  -1   0  -3 3562.64   95.99
  -1   0  -3 3490.55   95.89
  -1   0  -3 3474.65   95.39
  -1   0  -3 3615.64   96.19
   1   0   3 3641.34   96.29
   1   0   3 3697.93   96.19
   1   0   3 3463.45   95.39
   1   0   3 3549.84   95.69
   1   0   3 3380.96   95.79
  -2   0  -3  595.94   16.90
  -2   0  -3  619.14   16.90
   2   0   3  593.84   16.60
   2   0   3  603.44   16.80
   2   0   3  606.04   17.00
   2   0   3  631.34   17.10
  -3   0  -3  231.88    7.20
  -3   0  -3  243.08    7.30
   3   0   3  238.18    7.00
   3   0   3  233.38    6.60
   3   0   3  232.68    7.50
   3   0   3  233.88    7.10
  -4   0  -3  159.48    5.70
  -4   0  -3  168.38    5.70
   4   0   3  166.98    5.30
   4   0   3  165.88    4.80
   4   0   3  150.88    6.20
   4   0   3  165.88    5.40
  -5   0  -3    5.00    1.60
   5   0   3    6.00    1.30
   5   0   3    5.50    0.70
   5   0   3    5.80    1.00
  -6   0  -3   43.20    4.10
   6   0   3   47.60    3.70
   6   0   3   45.50    3.20
  -7   0  -3   11.00    3.30
   7   0   3   12.60    2.80
   7   0   3   17.30    2.50
   7  -1  -3   60.49    3.60
  -7   1   3   56.29    5.30
   6  -1  -3  458.15   13.80
   6  -1  -3  496.25   14.10
  -6   1   3  501.85   15.10
  -6   1   3  473.75   14.90
   5  -1  -3    3.00    1.00
   5  -1  -3    2.90    1.10
  -5   1   3    3.30    1.60
  -5   1   3    3.20    1.60
   4  -1  -3   45.90    2.20
   4  -1  -3   47.90    2.30
  -4   1   3   45.70    2.50
  -4   1   3   46.30    2.50
  -4   1   3   49.40    2.70
   3  -1  -3  126.19    4.00
   3  -1  -3  120.39    4.10
   3  -1  -3  121.29    4.00
  -3   1   3  127.49    4.10
  -3   1   3  117.69    4.20
  -3   1   3  122.69    4.10
   2  -1  -3  991.60   26.70
   2  -1  -3  933.71   26.70
   2  -1  -3  969.90   26.70
  -2   1   3  987.50   26.80
  -2   1   3 1000.20   26.70
  -2   1   3  983.60   26.70
   1  -1  -3   12.70    0.60
  -1   1   3   10.30    0.40
  -1   1   3   12.50    0.60
  -1   1   3    9.60    0.80
  -1   1   3   10.20    0.70
  -1   1   3    9.90    0.60
   0  -1  -3   32.50    1.20
   0  -1  -3   33.50    1.20
   0  -1  -3   32.90    1.20
   0  -1  -3   31.40    1.20
   0  -1  -3   30.70    1.20
   0   1   3   30.10    1.20
   0   1   3   32.90    1.10
   0   1   3   33.90    1.30
   0   1   3   33.60    1.20
   0   1   3   35.80    1.40
  -1  -1  -3  612.94   16.80
  -1  -1  -3  600.34   16.80
  -1  -1  -3  591.44   16.50
  -1  -1  -3  610.64   16.90
   1   1   3  636.94   16.90
   1   1   3  582.94   16.60
   1   1   3  613.74   16.90
   1   1   3  626.14   16.80
  -2  -1  -3   38.90    1.70
  -2  -1  -3   36.40    1.80
   2   1   3   39.80    1.60
   2   1   3   38.30    1.20
   2   1   3   42.00    1.70
   2   1   3   35.90    2.00
  -3  -1  -3  134.89    4.80
  -3  -1  -3  129.29    4.50
   3   1   3  147.39    5.10
   3   1   3  131.89    4.60
   3   1   3  144.79    4.40
  -4  -1  -3  246.58    8.00
  -4  -1  -3  256.37    8.30
   4   1   3  255.87    8.00
   4   1   3  259.17    7.80
  -5  -1  -3   66.59    4.10
   5   1   3   67.49    3.30
   5   1   3   68.29    3.60
  -6  -1  -3   61.19    4.90
   6   1   3   62.69    4.20
  -7  -1  -3   17.90    3.50
   7   1   3   11.60    3.10
   7   1   3   11.40    2.90
   8  -2  -3   22.60    3.30
  -8   2   3   34.60    4.50
   7  -2  -3   65.89    4.10
  -7   2   3   64.19    5.20
   6  -2  -3  201.78    6.60
   6  -2  -3  175.28    6.70
  -6   2   3  182.98    7.10
   5  -2  -3  207.68    6.70
   5  -2  -3  193.38    6.70
  -5   2   3  205.08    7.00
  -5   2   3  203.68    7.10
   4  -2  -3  244.38    7.50
   4  -2  -3  247.88    7.50
   4  -2  -3  223.38    7.40
  -4   2   3  245.68    7.40
  -4   2   3  232.18    7.60
  -4   2   3  240.58    7.50
   3  -2  -3  540.15   15.60
   3  -2  -3  546.95   15.60
   3  -2  -3  533.75   15.60
  -3   2   3  568.34   15.50
  -3   2   3  543.95   15.70
  -3   2   3  572.04   15.50
   2  -2  -3  406.46   11.60
   2  -2  -3  414.56   11.40
   2  -2  -3  393.96   11.50
  -2   2   3  398.26   11.30
  -2   2   3  396.96   11.50
  -2   2   3  412.76   11.30
   1  -2  -3   92.59    2.70
   1  -2  -3   92.29    2.90
   1  -2  -3   83.39    3.00
   1  -2  -3   93.19    3.10
  -1   2   3   96.09    2.90
  -1   2   3   91.79    2.70
  -1   2   3   91.69    3.00
  -1   2   3   97.19    2.80
   0  -2  -3  450.55   12.50
   0  -2  -3  450.75   12.20
   0  -2  -3  440.16   12.40
   0  -2  -3  445.96   12.30
   0  -2  -3  435.66   12.40
   0   2   3  435.06   12.20
   0   2   3  433.76   12.30
   0   2   3  444.86   12.40
   0   2   3  452.95   12.50
   0   2   3  452.45   12.30
   0   2   3  458.25   12.40
  -1  -2  -3  120.89    4.10
  -1  -2  -3  135.99    3.80
  -1  -2  -3  133.49    4.10
  -1  -2  -3  126.39    4.20
  -1  -2  -3  136.59    3.90
  -1  -2  -3  129.79    4.10
   1   2   3  142.19    4.00
   1   2   3  135.49    4.20
   1   2   3  138.49    4.30
   1   2   3  130.59    3.80
   1   2   3  139.99    4.40
  -2  -2  -3    6.90    0.90
  -2  -2  -3    6.60    1.00
  -2  -2  -3    7.30    0.90
  -2  -2  -3   11.40    1.10
  -2  -2  -3    7.40    0.60
   2   2   3    6.70    0.80
   2   2   3    7.30    1.30
   2   2   3    6.70    1.00
  -3  -2  -3    6.30    1.30
  -3  -2  -3    8.70    1.30
  -3  -2  -3   10.00    0.90
  -3  -2  -3    6.40    1.00
   3   2   3    9.50    1.80
   3   2   3    7.40    1.10
   3   2   3    8.50    1.20
  -4  -2  -3  242.68    8.10
  -4  -2  -3  259.57    8.60
  -4  -2  -3  256.77    7.40
   4   2   3  265.27    8.20
   4   2   3  250.17    8.10
  -5  -2  -3  238.38    8.50
  -5  -2  -3  218.08    7.00
   5   2   3  225.28    7.80
   5   2   3  244.58    8.10
  -6  -2  -3   -3.30    2.60
   6   2   3   -0.40    1.90
   6   2   3   -1.50    2.10
   8  -3  -3   10.50    3.10
  -8   3   3    9.50    3.60
   7  -3  -3   42.80    4.00
   6  -3  -3   49.20    3.60
  -6   3   3   47.20    3.50
   5  -3  -3   45.20    3.00
   5  -3  -3   46.30    3.00
   5  -3  -3   41.10    3.50
  -5   3   3   45.60    2.80
   4  -3  -3  603.24   16.90
   4  -3  -3  555.84   17.00
   4  -3  -3  618.84   17.10
  -4   3   3  561.64   17.00
  -4   3   3  588.84   16.70
  -4   3   3  598.54   16.60
   3  -3  -3    7.70    1.20
   3  -3  -3    6.70    0.90
  -3   3   3    9.70    1.00
  -3   3   3    9.80    1.10
  -3   3   3    9.80    1.10
  -3   3   3    9.60    1.30
   2  -3  -3 1358.36   37.00
   2  -3  -3 1318.67   37.40
  -2   3   3 1317.27   36.90
  -2   3   3 1364.96   37.20
  -2   3   3 1425.26   36.80
  -2   3   3 1330.77   36.60
  -2   3   3 1431.26   37.40
  -2   3   3 1327.87   36.60
   1  -3  -3  230.88    6.90
   1  -3  -3  223.78    6.70
   1  -3  -3  239.78    6.50
   1  -3  -3  231.78    6.40
   1  -3  -3  233.98    6.50
   1  -3  -3  228.48    7.10
  -1   3   3  228.78    6.50
  -1   3   3  228.58    6.90
  -1   3   3  235.78    6.70
  -1   3   3  225.58    6.50
  -1   3   3  229.58    6.80
   0  -3  -3   59.99    2.40
   0  -3  -3   59.39    2.20
   0  -3  -3   64.69    2.40
   0  -3  -3   64.29    2.20
   0  -3  -3   64.59    2.20
   0  -3  -3   66.39    2.30
   0  -3  -3   50.59    2.50
   0   3   3   63.89    2.10
   0   3   3   62.29    2.20
   0   3   3   62.29    2.30
   0   3   3   64.29    2.50
   0   3   3   65.39    2.30
   0   3   3   63.99    2.40
   0   3   3   65.79    2.30
  -1  -3  -3   37.40    1.80
  -1  -3  -3   36.00    1.70
  -1  -3  -3   38.70    1.90
  -1  -3  -3   37.00    1.60
  -1  -3  -3   38.40    1.50
  -1  -3  -3   36.60    2.00
  -1  -3  -3   38.00    1.90
   1   3   3   35.70    2.10
   1   3   3   37.20    1.60
   1   3   3   37.30    1.90
   1   3   3   37.80    2.10
   1   3   3   36.90    1.70
  -2  -3  -3  577.14   16.70
  -2  -3  -3  601.84   16.50
  -2  -3  -3  575.94   16.10
  -2  -3  -3  584.94   15.80
  -2  -3  -3  591.04   16.30
  -2  -3  -3  595.64   16.60
   2   3   3  555.54   16.90
   2   3   3  583.04   16.60
   2   3   3  575.84   16.40
  -3  -3  -3  110.29    4.00
  -3  -3  -3  104.79    3.50
  -3  -3  -3  110.19    4.50
   3   3   3  106.49    4.20
   3   3   3  106.19    4.00
  -4  -3  -3   85.49    4.60
  -4  -3  -3   84.89    3.10
   4   3   3   88.89    3.90
   4   3   3   92.79    4.20
  -5  -3  -3   50.59    4.50
   5   3   3   48.10    3.60
   5   3   3   50.69    4.10
  -6  -3  -3    2.20    3.00
   6   3   3    2.00    2.90
   6   3   3    6.80    2.50
   7  -4  -3   26.90    3.00
  -7   4   3   19.10    2.90
  -7   4   3   20.20    3.00
  -7   4   3   26.50    2.80
   6  -4  -3  193.28    7.10
   6  -4  -3  168.58    7.00
  -6   4   3  160.78    6.70
  -6   4   3  186.68    6.40
  -6   4   3  189.38    7.10
   5  -4  -3   16.00    2.00
   5  -4  -3   15.30    2.20
  -5   4   3   15.40    2.10
  -5   4   3   13.10    1.90
  -5   4   3   12.50    1.40
   4  -4  -3  229.68    7.30
   4  -4  -3  226.18    7.70
  -4   4   3  220.58    8.10
  -4   4   3  228.88    7.10
  -4   4   3  229.78    6.70
  -4   4   3  232.08    7.50
  -4   4   3  233.78    7.20
   3  -4  -3    0.60    1.00
   3  -4  -3    0.20    0.80
  -3   4   3    0.60    0.50
  -3   4   3   -0.30    1.20
  -3   4   3    0.60    0.70
  -3   4   3    0.20    0.90
  -3   4   3    0.80    0.80
   2  -4  -3  195.38    6.40
   2  -4  -3  186.48    5.80
  -2   4   3  184.68    5.40
  -2   4   3  188.28    5.70
  -2   4   3  183.68    6.00
  -2   4   3  188.98    5.40
  -2   4   3  200.88    6.10
   1  -4  -3  123.69    3.80
   1  -4  -3  129.09    4.60
   1  -4  -3  134.59    3.90
   1  -4  -3  122.99    4.00
   1  -4  -3  128.29    3.70
   1  -4  -3  120.99    4.30
  -1   4   3  132.09    3.90
  -1   4   3  128.29    4.00
  -1   4   3  123.79    4.30
  -1   4   3  125.89    4.20
  -1   4   3  122.09    3.80
   0  -4  -3  870.31   23.70
   0  -4  -3  871.21   23.80
   0  -4  -3  909.51   23.60
   0  -4  -3  836.02   23.70
   0  -4  -3  864.41   24.00
   0  -4  -3  839.92   23.90
   0  -4  -3  840.52   23.60
   0   4   3  844.62   23.70
   0   4   3  895.31   23.70
   0   4   3  852.31   23.80
   0   4   3  810.02   23.50
   0   4   3  870.41   23.70
   0   4   3  860.91   23.90
   0   4   3  869.31   24.10
  -1  -4  -3  120.59    4.20
  -1  -4  -3  121.99    4.10
  -1  -4  -3  120.69    4.40
  -1  -4  -3  117.69    4.00
  -1  -4  -3  120.99    4.40
  -1  -4  -3  117.79    3.90
  -1  -4  -3  115.19    3.80
   1   4   3  110.29    4.00
   1   4   3  118.59    3.80
   1   4   3  118.29    3.90
   1   4   3  121.99    4.60
   1   4   3  119.39    4.30
  -2  -4  -3  469.55   13.10
  -2  -4  -3  453.95   12.80
  -2  -4  -3  468.85   12.50
  -2  -4  -3  436.96   12.60
  -2  -4  -3  451.55   13.10
  -2  -4  -3  442.06   13.70
  -2  -4  -3  461.05   13.50
   2   4   3  462.95   13.50
   2   4   3  465.25   13.10
   2   4   3  437.46   13.90
  -3  -4  -3  100.29    3.50
  -3  -4  -3  105.99    4.60
  -3  -4  -3   93.49    4.00
  -3  -4  -3   99.89    4.00
   3   4   3  100.59    4.00
   3   4   3   99.49    4.50
  -4  -4  -3    3.10    2.00
   4   4   3    3.70    2.00
  -5  -4  -3   21.50    3.20
   5   4   3   27.30    2.80
   5   4   3   24.00    3.10
   7  -5  -3  105.29    6.30
  -7   5   3  107.59    5.80
  -7   5   3  110.99    6.30
   6  -5  -3  184.68    7.30
   6  -5  -3  196.28    7.90
  -6   5   3  191.28    6.10
  -6   5   3  196.58    7.60
  -6   5   3  184.78    7.00
   5  -5  -3   87.99    4.10
   5  -5  -3   83.19    4.80
  -5   5   3   80.29    3.20
  -5   5   3   85.99    3.80
  -5   5   3  100.99    4.60
   4  -5  -3   53.69    3.60
   4  -5  -3   59.49    2.90
  -4   5   3   54.69    2.30
  -4   5   3   58.79    3.40
  -4   5   3   55.59    2.60
   3  -5  -3   36.10    2.10
   3  -5  -3   35.60    2.90
  -3   5   3   34.50    2.30
  -3   5   3   33.20    2.10
  -3   5   3   34.00    2.10
  -3   5   3   38.40    1.80
  -3   5   3   41.10    2.60
   2  -5  -3  279.57    8.90
   2  -5  -3  300.67    8.50
   2  -5  -3  286.37    9.20
   2  -5  -3  300.17    8.30
  -2   5   3  285.57    8.30
  -2   5   3  274.97    8.80
  -2   5   3  291.87    8.50
  -2   5   3  274.77    8.80
   1  -5  -3    4.20    1.40
   1  -5  -3    4.60    0.60
   1  -5  -3    6.10    0.80
   1  -5  -3    3.60    1.20
   1  -5  -3    5.00    0.80
   1  -5  -3    5.00    0.90
  -1   5   3    4.50    1.00
  -1   5   3    4.40    1.00
  -1   5   3    5.00    0.90
  -1   5   3    5.20    1.00
   0  -5  -3 1302.37   35.20
   0  -5  -3 1301.17   34.90
   0  -5  -3 1319.97   34.90
   0  -5  -3 1299.37   35.60
   0  -5  -3 1233.58   35.30
   0  -5  -3 1271.67   35.10
   0  -5  -3 1268.57   35.00
   0   5   3 1250.87   35.30
   0   5   3 1305.77   35.20
   0   5   3 1237.98   35.50
   0   5   3 1256.27   35.10
   0   5   3 1283.37   34.90
  -1  -5  -3   35.00    2.30
  -1  -5  -3   40.50    2.10
  -1  -5  -3   38.50    3.10
  -1  -5  -3   37.10    2.20
  -1  -5  -3   40.40    2.40
   1   5   3   41.10    2.30
   1   5   3   39.60    2.10
   1   5   3   39.00    2.00
   1   5   3   38.60    2.70
   1   5   3   39.30    3.20
  -2  -5  -3   -0.90    1.20
  -2  -5  -3   -0.30    0.90
  -2  -5  -3    0.90    1.10
  -2  -5  -3   -0.70    0.90
  -2  -5  -3    1.30    0.70
   2   5   3    0.90    1.40
   2   5   3    0.10    1.00
  -3  -5  -3    0.20    1.40
  -3  -5  -3    2.00    1.70
  -3  -5  -3    3.40    1.30
   3   5   3    2.50    1.80
   3   5   3    1.20    1.40
  -4  -5  -3  169.58    6.50
  -4  -5  -3  169.08    7.20
   4   5   3  163.48    6.50
   4   5   3  171.48    7.30
  -5  -5  -3    0.00    2.50
  -5  -5  -3    0.60    3.20
   5   5   3    6.30    3.20
   5   5   3    2.10    2.60
   7  -6  -3   65.29    6.30
  -7   6   3   71.59    4.90
  -7   6   3   76.09    6.40
   6  -6  -3    7.30    2.50
   6  -6  -3    7.40    3.00
  -6   6   3    9.70    1.80
  -6   6   3    4.70    2.00
  -6   6   3    1.20    2.40
   5  -6  -3   64.59    4.80
  -5   6   3   70.19    3.20
  -5   6   3   72.19    4.60
  -5   6   3   78.69    3.40
   4  -6  -3  123.19    4.80
   4  -6  -3  125.79    5.70
  -4   6   3  122.09    4.20
  -4   6   3  120.69    4.10
  -4   6   3  126.09    5.40
  -4   6   3  117.09    5.10
   3  -6  -3  133.99    4.60
   3  -6  -3  122.39    4.40
   3  -6  -3  121.39    5.60
  -3   6   3  123.79    5.10
  -3   6   3  135.09    5.30
  -3   6   3  133.19    5.10
  -3   6   3  126.49    4.30
   2  -6  -3  553.64   15.80
   2  -6  -3  543.35   16.70
   2  -6  -3  562.44   15.60
  -2   6   3  564.94   16.30
  -2   6   3  537.25   15.80
  -2   6   3  559.64   16.20
  -2   6   3  560.34   15.60
   1  -6  -3   67.79    2.90
   1  -6  -3   71.39    3.90
   1  -6  -3   71.19    2.90
   1  -6  -3   72.89    2.40
   1  -6  -3   75.09    2.90
  -1   6   3   64.39    3.20
  -1   6   3   67.99    3.30
  -1   6   3   67.79    3.30
   0  -6  -3    5.50    1.50
   0  -6  -3    6.40    1.60
   0  -6  -3    7.00    1.10
   0  -6  -3    6.40    1.00
   0  -6  -3    5.40    1.40
   0  -6  -3    4.00    1.20
   0   6   3    5.90    1.40
   0   6   3    5.30    1.20
  -1  -6  -3   12.30    1.50
  -1  -6  -3   11.80    1.70
  -1  -6  -3    9.50    1.70
  -1  -6  -3   11.20    1.50
   1   6   3   14.60    1.50
   1   6   3    9.70    1.30
   1   6   3   13.60    2.10
   1   6   3   13.00    1.70
  -2  -6  -3  144.39    5.50
  -2  -6  -3  153.18    6.00
  -2  -6  -3  159.58    5.60
  -2  -6  -3  154.88    5.00
   2   6   3  154.38    6.40
   2   6   3  158.08    5.60
  -3  -6  -3   33.50    3.20
  -3  -6  -3   32.20    3.10
   3   6   3   36.30    3.50
   3   6   3   37.60    4.40
  -4  -6  -3   17.70    3.50
  -4  -6  -3   19.20    2.60
   4   6   3   18.20    3.40
   4   6   3   20.50    3.00
   6  -7  -3    4.00    3.20
   6  -7  -3   -4.00    2.60
  -6   7   3   -0.30    2.90
   5  -7  -3  184.88    7.00
   5  -7  -3  183.98    8.10
  -5   7   3  180.38    7.30
  -5   7   3  191.08    7.70
   4  -7  -3  177.48    6.40
   4  -7  -3  183.58    7.60
  -4   7   3  172.58    7.00
  -4   7   3  177.78    5.70
  -4   7   3  178.98    7.20
   3  -7  -3   40.50    4.10
   3  -7  -3   47.20    2.90
  -3   7   3   48.70    3.60
  -3   7   3   44.20    2.60
  -3   7   3   44.20    3.30
   2  -7  -3  211.88    6.70
   2  -7  -3  206.28    6.60
   2  -7  -3  207.88    7.90
  -2   7   3  201.18    7.70
  -2   7   3  189.68    7.80
   1  -7  -3   87.49    3.80
   1  -7  -3   87.19    5.00
   1  -7  -3   92.39    3.70
   1  -7  -3   90.59    3.00
  -1   7   3   91.39    4.20
   0  -7  -3    4.70    2.00
   0  -7  -3    3.60    1.20
   0  -7  -3    1.10    1.90
   0  -7  -3    2.10    1.20
   0   7   3    3.80    1.60
   0   7   3    2.40    1.40
  -1  -7  -3  146.89    5.60
  -1  -7  -3  141.89    5.30
  -1  -7  -3  141.59    6.40
  -1  -7  -3  144.69    5.40
   1   7   3  147.29    5.30
   1   7   3  142.59    5.40
   1   7   3  139.19    5.70
   1   7   3  148.79    6.50
  -2  -7  -3  135.79    5.70
  -2  -7  -3  125.89    6.40
  -2  -7  -3  128.49    5.30
   2   7   3  125.89    6.40
   2   7   3  116.79    5.30
  -3  -7  -3    3.80    2.20
  -3  -7  -3    3.30    2.60
   3   7   3    1.10    2.30
   3   7   3    3.50    2.90
   6  -8  -3   85.49    6.10
   6  -8  -3  100.89   10.20
  -6   8   3   94.59    6.70
   5  -8  -3   14.80    3.70
   5  -8  -3   17.40    2.60
  -5   8   3   21.60    3.50
  -5   8   3   16.70    3.10
   4  -8  -3   79.39    6.00
   4  -8  -3   82.69    4.40
  -4   8   3   72.29    5.20
  -4   8   3   71.89    5.00
   3  -8  -3   -2.00    2.80
   3  -8  -3   -0.60    1.50
  -3   8   3    0.00    1.90
  -3   8   3   -3.80    2.00
   2  -8  -3  366.46   12.50
   2  -8  -3  337.07   11.40
  -2   8   3  371.76   11.70
  -2   8   3  367.16   11.80
   1  -8  -3   69.09    5.00
   1  -8  -3   72.49    3.60
  -1   8   3   70.59    4.20
  -1   8   3   69.89    4.20
   0  -8  -3   51.19    5.00
   0  -8  -3   51.19    3.30
   0  -8  -3   48.80    2.80
   0   8   3   49.40    3.60
   0   8   3   50.19    4.00
  -1  -8  -3  105.89    4.90
  -1  -8  -3  113.59    6.70
  -1  -8  -3  113.99    5.20
  -1  -8  -3  117.79    5.00
   1   8   3  100.19    5.40
  -2  -8  -3   86.89    4.80
  -2  -8  -3   84.99    6.50
  -2  -8  -3   80.79    5.30
   2   8   3   73.09    5.00
   2   8   3   78.19    6.50
   4  -9  -3   -0.50    3.60
   4  -9  -3    0.50    2.30
  -4   9   3   -1.20    2.80
  -4   9   3    0.50    2.90
   3  -9  -3  192.88    7.30
   3  -9  -3  202.98    9.50
  -3   9   3  194.88    8.30
  -3   9   3  201.18    8.30
   2  -9  -3   72.09    6.30
   2  -9  -3   75.59    4.10
  -2   9   3   75.29    5.20
  -2   9   3   70.69    5.00
   1  -9  -3   89.39    6.30
   1  -9  -3   85.39    6.90
   1  -9  -3   95.69    4.60
  -1   9   3   87.49    5.50
  -1   9   3   86.69    5.10
   0  -9  -3   21.50    2.60
   0  -9  -3   19.70    4.10
   0  -9  -3   21.10    3.30
   0   9   3   17.80    3.20
   0   9   3   19.30    3.00
   1   9  -4   53.19    5.20
  -1  -9   4   59.39    4.20
   0   9  -4    3.70    2.70
   0   9  -4   -0.10    3.40
   0   9  -4    2.60    2.40
   0  -9   4    4.70    2.30
   0  -9   4    3.70    2.70
  -1   9  -4    2.40    2.40
  -1   9  -4    0.90    3.20
  -1   9  -4    3.70    2.60
   1  -9   4    4.10    2.70
   1  -9   4    3.10    2.70
  -2   9  -4    3.70    3.30
  -2   9  -4    5.80    2.60
  -2   9  -4    8.00    2.40
   2  -9   4    9.00    2.90
   2  -9   4    4.90    2.80
  -3   9  -4  101.19    6.10
  -3   9  -4   81.89    6.30
  -3   9  -4  105.09    6.10
   3  -9   4   86.79    6.30
   3  -9   4   91.49    6.50
  -4   9  -4   98.29    6.70
  -4   9  -4  124.59    7.00
  -4   9  -4  106.19    6.70
   4  -9   4  106.79    7.10
   4  -9   4   96.79    7.30
   2   8  -4    0.70    2.30
  -2  -8   4   -4.60    2.60
  -2  -8   4   -1.70    1.60
   1   8  -4    1.80    1.90
  -1  -8   4   -2.00    1.40
  -1  -8   4    0.60    2.10
  -1  -8   4    1.90    2.20
  -1  -8   4    0.20    1.30
   0   8  -4   20.30    2.60
   0   8  -4   27.90    3.50
   0   8  -4   26.00    2.60
   0  -8   4   28.40    2.70
   0  -8   4   23.30    2.70
   0  -8   4   31.00    3.30
   0  -8   4   26.20    2.10
  -1   8  -4   16.70    2.30
  -1   8  -4   19.60    2.50
  -1   8  -4   22.00    3.10
   1  -8   4   20.90    2.40
   1  -8   4   22.60    2.80
   1  -8   4   21.70    1.80
   1  -8   4   22.60    2.80
  -2   8  -4   54.69    4.10
  -2   8  -4   58.99    4.10
  -2   8  -4   62.89    5.60
   2  -8   4   55.59    4.60
   2  -8   4   61.29    4.60
   2  -8   4   57.49    2.60
  -3   8  -4   38.20    4.10
  -3   8  -4   45.90    4.20
  -3   8  -4   48.60    5.70
   3  -8   4   41.90    4.50
   3  -8   4   45.50    4.40
   3  -8   4   46.00    3.10
  -4   8  -4  176.98    7.60
  -4   8  -4  186.08    7.70
  -4   8  -4  173.68    7.50
   4  -8   4  186.78    8.10
   4  -8   4  193.48    8.10
  -5   8  -4   24.00    3.50
  -5   8  -4   23.40    3.40
  -5   8  -4   28.20    3.60
   5  -8   4   21.60    3.60
   5  -8   4   22.90    3.50
   4   7  -4    4.80    3.20
   4   7  -4    5.50    2.90
  -4  -7   4    3.60    2.20
  -4  -7   4    7.70    4.00
   3   7  -4  110.49    5.60
   3   7  -4  104.29    5.90
  -3  -7   4  110.49    5.40
  -3  -7   4  108.09    4.70
  -3  -7   4  114.69    6.70
   2   7  -4    0.50    1.60
   2   7  -4   -1.20    2.00
  -2  -7   4    1.10    1.10
  -2  -7   4    2.30    1.90
  -2  -7   4    3.10    1.30
  -2  -7   4    0.60    1.70
  -2  -7   4    3.70    2.20
   1   7  -4   91.19    4.20
   1   7  -4   91.49    5.40
   1   7  -4   91.29    4.40
  -1  -7   4   89.89    3.90
  -1  -7   4   89.29    3.40
  -1  -7   4   86.99    4.70
  -1  -7   4   89.79    4.20
   0   7  -4  131.79    5.20
   0   7  -4  124.89    5.80
   0  -7   4  130.59    5.20
   0  -7   4  133.49    4.20
   0  -7   4  124.49    5.00
   0  -7   4  126.19    5.30
  -1   7  -4    2.40    1.50
  -1   7  -4    3.30    1.50
  -1   7  -4    1.70    1.90
   1  -7   4    3.90    1.20
   1  -7   4    3.10    0.90
   1  -7   4    3.00    1.40
   1  -7   4    4.40    1.70
   1  -7   4    3.00    0.80
  -2   7  -4  159.58    6.10
  -2   7  -4  146.49    5.90
  -2   7  -4  146.79    5.80
   2  -7   4  153.88    6.10
   2  -7   4  151.28    6.20
   2  -7   4  140.19    4.30
   2  -7   4  154.88    4.70
   2  -7   4  148.09    4.50
  -3   7  -4   19.00    2.40
  -3   7  -4   24.00    2.50
  -3   7  -4   21.70    2.50
   3  -7   4   19.80    2.70
   3  -7   4   23.90    1.90
   3  -7   4   26.20    3.00
  -4   7  -4    0.60    1.80
  -4   7  -4   -0.80    1.90
  -4   7  -4   -0.60    1.90
   4  -7   4   -0.60    2.40
   4  -7   4    0.80    2.20
  -5   7  -4   63.49    4.80
  -5   7  -4   67.99    4.50
   5  -7   4   67.19    5.60
   5  -7   4   68.99    5.30
  -6   7  -4  297.07   10.60
  -6   7  -4  310.47   11.20
   6  -7   4  295.57   11.50
   6  -7   4  301.57   11.40
   4   6  -4   43.20    4.20
   4   6  -4   37.30    4.40
  -4  -6   4   42.80    4.20
  -4  -6   4   44.50    4.20
   3   6  -4   96.49    4.60
   3   6  -4  103.69    5.00
  -3  -6   4  105.59    4.30
  -3  -6   4   99.09    3.50
  -3  -6   4   97.19    4.80
  -3  -6   4   98.39    4.10
  -3  -6   4   98.09    5.60
   2   6  -4   67.99    4.20
   2   6  -4   80.69    4.00
  -2  -6   4   78.59    3.10
  -2  -6   4   81.69    3.60
  -2  -6   4   74.49    3.60
  -2  -6   4   77.19    4.60
  -2  -6   4   81.69    3.20
   1   6  -4   93.49    3.80
   1   6  -4   91.09    4.00
   1   6  -4   87.29    4.70
  -1  -6   4   92.99    3.70
  -1  -6   4   86.49    3.80
  -1  -6   4   93.09    3.40
  -1  -6   4   90.79    4.40
  -1  -6   4   87.39    3.20
   0   6  -4   77.99    3.50
   0   6  -4   70.09    3.40
   0   6  -4   74.69    4.10
   0  -6   4   66.99    3.40
   0  -6   4   74.79    3.50
   0  -6   4   73.89    2.60
   0  -6   4   77.09    3.50
   0  -6   4   79.89    3.60
  -1   6  -4   46.80    3.20
  -1   6  -4   49.99    3.50
  -1   6  -4   49.80    2.90
  -1   6  -4   53.89    2.90
   1  -6   4   53.19    1.90
   1  -6   4   49.10    3.10
   1  -6   4   54.89    3.00
   1  -6   4   51.89    3.10
   1  -6   4   53.59    2.10
   1  -6   4   51.09    3.10
  -2   6  -4  440.36   13.50
  -2   6  -4  451.15   13.50
  -2   6  -4  456.35   13.50
   2  -6   4  454.75   12.40
   2  -6   4  448.56   13.80
   2  -6   4  463.25   13.70
   2  -6   4  426.86   13.60
   2  -6   4  460.55   12.60
  -3   6  -4    1.60    0.80
  -3   6  -4    0.80    1.20
  -3   6  -4   -0.20    1.30
  -3   6  -4   -0.90    1.30
   3  -6   4    0.40    0.60
   3  -6   4    0.50    0.80
   3  -6   4   -0.30    1.60
   3  -6   4    0.80    1.50
  -4   6  -4   23.90    2.00
  -4   6  -4   24.30    2.80
  -4   6  -4   28.60    3.00
   4  -6   4   30.40    3.60
   4  -6   4   23.70    1.70
   4  -6   4   19.70    2.40
  -5   6  -4   71.19    4.80
  -5   6  -4   68.79    4.50
   5  -6   4   69.19    4.90
   5  -6   4   68.09    4.80
  -6   6  -4   49.80    4.70
   6  -6   4   50.89    5.10
   6  -6   4   43.70    4.90
  -7   6  -4    9.70    3.30
   5   5  -4  220.98    8.40
   5   5  -4  210.08    8.30
  -5  -5   4  226.08   10.00
   4   5  -4    5.50    2.00
   4   5  -4    5.30    1.90
  -4  -5   4    8.20    2.80
  -4  -5   4    7.10    1.40
   3   5  -4  129.59    5.10
   3   5  -4  135.79    5.30
  -3  -5   4  134.79    4.50
  -3  -5   4  134.29    4.10
  -3  -5   4  121.19    5.90
  -3  -5   4  129.09    4.10
   2   5  -4  102.39    4.10
   2   5  -4  112.39    4.30
   2   5  -4  110.39    5.10
  -2  -5   4   97.79    4.00
  -2  -5   4  108.29    4.30
  -2  -5   4  110.39    4.80
  -2  -5   4  110.49    3.90
  -2  -5   4  103.69    3.60
   1   5  -4  407.76   12.30
   1   5  -4  421.66   11.80
   1   5  -4  392.46   11.70
   1   5  -4  386.26   11.70
  -1  -5   4  410.56   11.60
  -1  -5   4  415.36   11.40
  -1  -5   4  381.06   11.50
  -1  -5   4  399.06   11.50
  -1  -5   4  370.26   11.80
  -1  -5   4  391.46   11.20
  -1  -5   4  404.76   12.00
   0   5  -4   44.40    2.40
   0   5  -4   50.39    2.50
   0   5  -4   50.29    2.90
   0  -5   4   49.90    2.80
   0  -5   4   49.80    2.40
   0  -5   4   49.10    2.50
   0  -5   4   50.49    1.80
   0  -5   4   52.39    2.50
   0  -5   4   56.49    2.60
   0  -5   4   46.30    2.70
   0  -5   4   50.29    1.80
   0  -5   4   46.10    2.80
  -1   5  -4   67.39    2.90
  -1   5  -4   67.79    3.10
  -1   5  -4   60.89    2.90
  -1   5  -4   65.99    3.30
   1  -5   4   62.39    2.80
   1  -5   4   70.99    3.20
   1  -5   4   67.29    3.00
   1  -5   4   61.29    3.10
   1  -5   4   67.79    2.10
   1  -5   4   66.39    2.90
   1  -5   4   53.79    2.80
   1  -5   4   61.49    3.00
  -2   5  -4   77.09    3.30
  -2   5  -4   69.59    3.80
  -2   5  -4   77.29    3.30
  -2   5  -4   80.09    3.30
  -2   5  -4   77.99    2.40
   2  -5   4   79.29    3.60
   2  -5   4   64.99    2.80
   2  -5   4   79.09    2.50
   2  -5   4   82.69    3.60
  -3   5  -4   23.20    2.20
  -3   5  -4   23.30    1.40
  -3   5  -4   22.40    2.10
   3  -5   4   22.80    1.50
   3  -5   4   23.70    1.60
   3  -5   4   23.30    2.50
   3  -5   4   21.30    2.50
  -4   5  -4  544.45   15.20
  -4   5  -4  548.85   15.40
  -4   5  -4  557.34   16.10
   4  -5   4  551.04   16.50
   4  -5   4  536.65   15.50
   4  -5   4  542.45   16.30
  -5   5  -4    4.20    1.10
  -5   5  -4    4.90    1.70
  -5   5  -4    7.70    1.70
   5  -5   4    3.00    1.70
   5  -5   4    1.40    1.80
   5  -5   4    3.80    1.90
  -6   5  -4   15.80    1.70
  -6   5  -4   11.70    2.40
   6  -5   4   12.60    2.50
   6  -5   4   12.50    2.70
  -7   5  -4   35.20    3.70
   7  -5   4   50.69    5.40
   7  -5   4   32.80    3.70
   6   4  -4   20.30    3.10
   6   4  -4   23.60    3.20
  -6  -4   4   19.50    4.20
   5   4  -4  214.68    8.00
   5   4  -4  224.78    8.00
  -5  -4   4  225.28    9.20
   4   4  -4   86.49    4.20
   4   4  -4   95.39    4.30
  -4  -4   4   91.89    5.30
   3   4  -4   72.19    3.30
   3   4  -4   68.19    3.20
  -3  -4   4   77.09    3.80
  -3  -4   4   70.39    2.40
  -3  -4   4   70.49    4.10
  -3  -4   4   70.09    2.40
  -3  -4   4   71.09    2.70
   2   4  -4    7.80    1.10
   2   4  -4    5.50    1.50
   2   4  -4    6.70    1.10
  -2  -4   4    7.40    1.00
  -2  -4   4    3.80    1.70
  -2  -4   4    9.60    1.40
  -2  -4   4    8.10    1.00
  -2  -4   4    3.90    1.40
  -2  -4   4    9.40    1.00
  -2  -4   4    7.30    1.30
   1   4  -4   61.49    3.00
   1   4  -4   57.89    2.50
   1   4  -4   55.49    2.50
  -1  -4   4   58.69    2.30
  -1  -4   4   60.09    2.30
  -1  -4   4   60.49    2.40
  -1  -4   4   58.79    2.40
  -1  -4   4   60.09    2.70
  -1  -4   4   57.49    2.60
  -1  -4   4   61.89    2.90
  -1  -4   4   56.09    2.60
   0   4  -4  245.18    7.50
   0   4  -4  245.38    7.50
   0   4  -4  247.68    7.80
   0   4  -4  258.27    7.60
   0  -4   4  254.17    7.60
   0  -4   4  251.87    7.70
   0  -4   4  267.27    7.50
   0  -4   4  251.77    7.40
   0  -4   4  249.88    7.10
   0  -4   4  249.68    7.00
   0  -4   4  252.67    7.60
   0  -4   4  249.78    7.50
   0  -4   4  242.38    7.60
  -1   4  -4  494.95   14.40
  -1   4  -4  496.85   14.40
  -1   4  -4  479.25   14.30
  -1   4  -4  502.35   14.30
   1  -4   4  497.85   14.30
   1  -4   4  501.95   14.40
   1  -4   4  493.75   14.40
   1  -4   4  516.55   14.20
   1  -4   4  504.55   13.80
   1  -4   4  501.05   13.60
   1  -4   4  519.45   14.20
  -2   4  -4  101.29    3.00
  -2   4  -4   97.49    4.10
  -2   4  -4  101.39    3.70
  -2   4  -4   97.89    3.70
   2  -4   4  102.39    3.20
   2  -4   4   98.89    3.90
   2  -4   4  102.29    3.90
   2  -4   4  106.19    3.10
  -3   4  -4  733.03   19.50
  -3   4  -4  689.43   20.50
  -3   4  -4  748.73   19.60
  -3   4  -4  718.33   20.10
   3  -4   4  714.23   20.40
   3  -4   4  722.23   20.30
   3  -4   4  649.14   19.90
  -4   4  -4   39.90    2.50
  -4   4  -4   37.30    2.30
  -4   4  -4   38.90    1.90
   4  -4   4   37.40    2.60
   4  -4   4   39.20    2.90
   4  -4   4   44.00    2.90
  -5   4  -4    1.50    1.40
  -5   4  -4    2.10    1.00
  -5   4  -4    1.80    1.80
   5  -4   4    2.40    1.90
   5  -4   4   -0.60    1.50
   5  -4   4    0.40    1.60
  -6   4  -4  186.88    6.90
  -6   4  -4  182.78    6.30
   6  -4   4  188.18    7.10
   6  -4   4  166.18    9.90
  -7   4  -4   15.30    2.80
  -7   4  -4   14.90    2.50
   7  -4   4   17.30    3.00
   7  -4   4   16.50    3.10
   6   3  -4   47.50    4.10
   6   3  -4   42.80    4.20
  -6  -3   4   40.30    4.60
   5   3  -4   71.59    3.90
   5   3  -4   70.89    4.10
  -5  -3   4   74.79    5.30
   4   3  -4    7.90    1.30
   4   3  -4   10.10    1.10
   4   3  -4   12.90    1.70
  -4  -3   4   11.80    1.10
  -4  -3   4   10.30    2.30
   3   3  -4  158.28    5.10
   3   3  -4  151.68    5.10
  -3  -3   4  150.98    5.30
  -3  -3   4  150.18    4.40
  -3  -3   4  155.88    6.40
  -3  -3   4  157.28    4.60
  -3  -3   4  156.58    5.10
  -3  -3   4  145.29    5.30
  -3  -3   4  149.88    5.80
   2   3  -4   55.19    2.80
   2   3  -4   53.39    2.20
   2   3  -4   50.39    2.30
   2   3  -4   53.99    2.20
  -2  -3   4   50.99    2.50
  -2  -3   4   54.39    1.70
  -2  -3   4   53.89    2.10
  -2  -3   4   55.19    2.40
  -2  -3   4   51.99    2.80
  -2  -3   4   50.39    2.30
  -2  -3   4   53.99    1.90
  -2  -3   4   52.39    1.90
   1   3  -4 4284.77  116.99
   1   3  -4 4415.46  116.79
   1   3  -4 4159.88  116.79
   1   3  -4 4429.56  117.49
   1   3  -4 4217.48  117.09
  -1  -3   4 4048.59  116.49
  -1  -3   4 4461.75  116.89
  -1  -3   4 4452.05  117.39
  -1  -3   4 4459.15  116.39
  -1  -3   4 4313.07  116.89
  -1  -3   4 4157.28  116.69
  -1  -3   4 4460.25  116.79
   0   3  -4   42.50    1.80
   0   3  -4   47.20    2.10
   0   3  -4   43.30    1.90
   0   3  -4   46.80    2.10
   0   3  -4   44.90    1.90
   0  -3   4   47.70    1.90
   0  -3   4   44.50    1.40
   0  -3   4   44.80    1.90
   0  -3   4   46.20    1.60
   0  -3   4   42.80    1.90
   0  -3   4   43.70    1.70
   0  -3   4   43.60    2.00
   0  -3   4   47.40    1.90
   0  -3   4   45.10    1.90
  -1   3  -4 1145.99   31.50
  -1   3  -4 1167.28   32.00
  -1   3  -4 1160.48   32.10
  -1   3  -4 1215.78   32.20
  -1   3  -4 1155.18   32.00
   1  -3   4 1141.69   31.50
   1  -3   4 1219.48   31.70
   1  -3   4 1178.38   32.10
   1  -3   4 1163.68   32.10
   1  -3   4 1162.98   32.20
  -2   3  -4   47.00    1.70
  -2   3  -4   45.70    2.50
  -2   3  -4   46.00    2.10
  -2   3  -4   46.50    1.70
   2  -3   4   49.80    1.80
   2  -3   4   48.20    2.30
   2  -3   4   48.30    2.20
   2  -3   4   47.90    2.10
   2  -3   4   43.40    2.20
  -3   3  -4  416.56   11.70
  -3   3  -4  416.76   12.10
  -3   3  -4  433.26   11.80
  -3   3  -4  381.46   12.40
   3  -3   4  434.86   12.30
   3  -3   4  426.06   11.90
   3  -3   4  409.96   12.30
  -4   3  -4  202.38    6.10
  -4   3  -4  203.68    6.40
  -4   3  -4  204.58    6.40
   4  -3   4  192.48    6.60
   4  -3   4  190.98    6.60
   4  -3   4  197.08    6.60
  -5   3  -4  599.84   17.00
  -5   3  -4  599.84   16.80
   5  -3   4  556.94   17.30
   5  -3   4  579.14   17.20
   5  -3   4  594.94   17.20
  -6   3  -4   43.50    3.30
  -6   3  -4   41.20    3.30
   6  -3   4   41.40    3.50
   6  -3   4   48.60    3.60
  -7   3  -4   -1.20    2.10
  -7   3  -4   -0.80    2.20
   7  -3   4    1.10    2.10
   7  -3   4   -0.30    2.30
   7   2  -4    3.20    2.70
   7   2  -4    4.50    2.60
  -7  -2   4    5.40    4.20
   6   2  -4   43.00    3.60
   6   2  -4   47.50    3.60
  -6  -2   4   50.19    5.40
   5   2  -4  117.39    4.70
   5   2  -4  120.69    5.20
   5   2  -4  121.09    3.80
  -5  -2   4  124.89    6.00
  -5  -2   4  122.89    4.30
   4   2  -4   99.79    3.70
   4   2  -4   97.69    3.90
   4   2  -4   98.59    3.20
  -4  -2   4   99.99    3.30
  -4  -2   4   93.59    4.60
  -4  -2   4   98.99    3.30
   3   2  -4   50.69    2.30
   3   2  -4   54.09    1.90
   3   2  -4   54.19    2.20
  -3  -2   4   51.39    3.20
  -3  -2   4   52.59    1.80
  -3  -2   4   54.59    3.10
  -3  -2   4   51.49    2.60
  -3  -2   4   52.89    2.00
  -3  -2   4   54.39    2.40
   2   2  -4    1.30    0.60
   2   2  -4    1.20    0.50
   2   2  -4    0.60    0.50
   2   2  -4   -0.10    0.70
  -2  -2   4    1.40    0.60
  -2  -2   4    1.70    0.40
  -2  -2   4    1.40    0.90
  -2  -2   4    0.50    0.70
  -2  -2   4    1.40    0.60
   1   2  -4  937.71   25.40
   1   2  -4  908.71   25.70
   1   2  -4  896.71   25.40
   1   2  -4  917.31   25.30
   1   2  -4  895.21   25.20
  -1  -2   4  918.71   25.20
  -1  -2   4  914.01   25.20
  -1  -2   4  962.10   25.40
  -1  -2   4  972.00   25.40
  -1  -2   4  922.31   25.30
  -1  -2   4  916.81   25.30
  -1  -2   4  928.11   25.10
  -1  -2   4  925.41   25.40
  -1  -2   4  980.20   25.60
   0   2  -4    1.60    0.40
   0   2  -4    2.30    0.50
   0   2  -4    2.30    0.40
   0   2  -4    1.40    0.50
   0  -2   4    2.70    0.40
   0  -2   4    2.80    0.40
   0  -2   4    2.30    0.50
   0  -2   4    2.50    0.50
   0  -2   4    3.10    0.60
   0  -2   4    2.80    0.70
   0  -2   4    2.60    0.40
   0  -2   4    2.80    0.50
   0  -2   4    2.80    0.50
  -1   2  -4   36.50    1.70
  -1   2  -4   35.90    1.40
  -1   2  -4   37.90    1.20
  -1   2  -4   34.90    1.50
   1  -2   4   35.70    1.40
   1  -2   4   35.30    1.60
   1  -2   4   36.40    1.40
  -2   2  -4  125.79    3.80
  -2   2  -4  119.99    3.80
  -2   2  -4  125.69    3.90
   2  -2   4  130.59    4.10
   2  -2   4  117.39    4.00
   2  -2   4  122.19    3.90
   2  -2   4  125.09    4.10
  -3   2  -4  632.04   17.50
  -3   2  -4  618.64   17.40
  -3   2  -4  616.34   17.90
  -3   2  -4  631.04   17.50
   3  -2   4  619.44   17.60
   3  -2   4  630.64   17.70
   3  -2   4  627.54   17.60
  -4   2  -4  123.39    4.30
  -4   2  -4  132.89    4.40
  -4   2  -4  126.99    4.60
   4  -2   4  119.09    4.40
   4  -2   4  121.59    4.90
   4  -2   4  126.19    4.50
  -5   2  -4    1.40    1.10
  -5   2  -4    1.90    1.30
   5  -2   4    1.70    1.30
   5  -2   4   -0.20    1.10
  -6   2  -4   94.29    4.20
  -6   2  -4   94.99    4.70
   6  -2   4   99.99    4.60
   6  -2   4   93.19    4.10
  -7   2  -4   32.80    3.40
  -7   2  -4   39.90    4.50
   7  -2   4   36.50    4.00
   7   1  -4   13.60    2.60
   7   1  -4   14.70    2.60
  -7  -1   4   19.80    4.00
   6   1  -4  224.58    8.10
   6   1  -4  236.18    7.20
   6   1  -4  249.58    8.10
  -6  -1   4  231.68    9.30
   5   1  -4   14.70    1.20
   5   1  -4   15.50    1.60
   5   1  -4   15.20    1.40
   5   1  -4   12.80    1.60
  -5  -1   4   13.20    2.40
  -5  -1   4   16.90    1.70
   4   1  -4   39.70    2.20
   4   1  -4   41.20    1.70
   4   1  -4   44.00    2.20
   4   1  -4   43.20    1.70
  -4  -1   4   43.60    3.10
  -4  -1   4   35.80    2.70
  -4  -1   4   42.90    2.00
  -4  -1   4   39.00    3.10
   3   1  -4 2692.33   75.39
   3   1  -4 2850.71   75.49
   3   1  -4 2741.13   75.49
   3   1  -4 2789.12   75.29
  -3  -1   4 2863.41   75.89
  -3  -1   4 2849.42   75.19
  -3  -1   4 2747.43   75.59
  -3  -1   4 2784.52   75.29
   2   1  -4   15.00    1.00
   2   1  -4   14.50    1.20
   2   1  -4   16.00    0.80
  -2  -1   4   15.90    1.30
  -2  -1   4   13.90    1.00
  -2  -1   4   17.90    1.10
   1   1  -4   14.30    1.00
   1   1  -4   13.50    0.80
   1   1  -4   15.40    0.80
   1   1  -4   14.60    0.80
  -1  -1   4   14.70    0.80
  -1  -1   4   15.50    0.70
  -1  -1   4   16.30    1.00
  -1  -1   4   16.00    1.00
  -1  -1   4   13.60    0.70
   0   1  -4  145.99    4.10
   0   1  -4  148.39    4.40
   0   1  -4  146.49    4.30
   0   1  -4  148.49    4.40
   0   1  -4  152.88    4.20
   0   1  -4  148.49    4.40
   0  -1   4  145.69    4.30
   0  -1   4  154.88    4.30
   0  -1   4  146.29    4.40
   0  -1   4  145.59    4.20
   0  -1   4  144.69    4.30
   0  -1   4  145.19    4.10
   0  -1   4  146.69    4.30
  -1   1  -4 1450.85   38.70
  -1   1  -4 1460.05   38.80
  -1   1  -4 1275.07   38.70
  -1   1  -4 1447.46   38.70
   1  -1   4 1530.05   38.70
   1  -1   4 1418.76   38.60
   1  -1   4 1414.56   38.60
   1  -1   4 1420.46   38.70
  -2   1  -4   67.89    2.80
  -2   1  -4   81.19    2.50
  -2   1  -4   77.39    2.60
   2  -1   4   78.39    2.60
   2  -1   4   77.79    2.80
   2  -1   4   80.09    3.00
   2  -1   4   80.09    2.70
  -3   1  -4  888.21   24.30
  -3   1  -4  861.21   24.50
  -3   1  -4  897.91   24.00
   3  -1   4  878.31   24.10
   3  -1   4  896.61   24.50
   3  -1   4  834.92   24.20
  -4   1  -4   47.80    2.10
  -4   1  -4   47.30    2.80
  -4   1  -4   43.00    3.00
  -4   1  -4   48.90    2.50
   4  -1   4   47.60    3.40
   4  -1   4   47.00    2.10
   4  -1   4   41.80    2.40
  -5   1  -4    3.20    1.10
  -5   1  -4    2.00    1.50
   5  -1   4    4.90    1.30
   5  -1   4    3.90    0.90
  -6   1  -4    3.60    2.10
  -6   1  -4    2.60    1.40
   6  -1   4    0.90    1.60
   6  -1   4    1.90    1.00
   6  -1   4   -1.40    1.50
  -7   1  -4  289.87   10.60
   7  -1   4  281.87    9.70
   7  -1   4  293.27   10.30
   7   0  -4   11.20    1.90
   7   0  -4   14.80    2.50
   7   0  -4   12.40    2.30
  -7   0   4   16.90    3.50
   6   0  -4   56.99    3.50
   6   0  -4   57.19    2.80
  -6   0   4   52.49    3.90
  -6   0   4   57.29    4.80
   5   0  -4  298.17    8.60
   5   0  -4  294.97    8.70
   5   0  -4  295.37    9.20
  -5   0   4  290.47    9.10
  -5   0   4  303.47    9.90
   4   0  -4  167.28    4.90
   4   0  -4  156.48    4.90
  -4   0   4  156.58    5.70
  -4   0   4  161.48    5.10
  -4   0   4  154.68    5.50
  -4   0   4  161.78    5.90
   3   0  -4   42.50    2.10
   3   0  -4   40.70    1.60
   3   0  -4   42.30    1.70
  -3   0   4   39.00    1.80
  -3   0   4   39.00    2.10
  -3   0   4   42.90    2.00
  -3   0   4   39.80    1.70
   2   0  -4  432.56   12.40
   2   0  -4  457.85   12.50
   2   0  -4  453.35   12.70
   2   0  -4  448.26   12.50
  -2   0   4  460.35   12.60
  -2   0   4  456.55   12.60
  -2   0   4  459.15   12.80
  -2   0   4  439.06   12.40
  -2   0   4  459.35   12.70
   1   0  -4  854.51   23.30
   1   0  -4  824.12   23.40
   1   0  -4  860.91   23.40
   1   0  -4  872.41   23.30
  -1   0   4  862.61   23.30
  -1   0   4  842.02   23.30
  -1   0   4  844.42   23.40
  -1   0   4  903.31   23.40
  -1   0   4  864.21   23.40
   0   0  -4  242.48    6.70
   0   0  -4  238.18    6.60
   0   0  -4  244.68    6.70
   0   0  -4  233.98    6.80
   0   0  -4  239.78    6.70
   0   0   4  240.28    6.70
   0   0   4  237.98    6.80
   0   0   4  245.48    6.80
   0   0   4  229.58    6.60
   0   0   4  237.48    6.70
  -1   0  -4 2179.78   58.69
  -1   0  -4 2256.87   59.29
  -1   0  -4 2185.38   59.09
  -1   0  -4 2224.08   59.39
   1   0   4 2272.67   58.89
   1   0   4 2152.68   59.59
   1   0   4 2170.38   59.39
   1   0   4 2103.19   58.89
   1   0   4 2105.19   58.79
   1   0   4 2146.69   58.99
  -2   0  -4  929.31   25.20
  -2   0  -4  909.81   25.40
  -2   0  -4  979.80   25.70
  -2   0  -4  894.01   25.60
   2   0   4  965.60   25.90
   2   0   4  899.01   25.50
   2   0   4  928.91   25.50
   2   0   4  983.80   25.80
   2   0   4  903.11   25.30
  -3   0  -4   24.50    1.70
  -3   0  -4   23.90    1.20
  -3   0  -4   23.60    1.80
   3   0   4   23.40    1.50
   3   0   4   22.00    2.10
   3   0   4   22.90    1.50
   3   0   4   24.00    1.10
  -4   0  -4   -0.30    1.00
  -4   0  -4    1.20    1.40
   4   0   4    1.30    0.60
   4   0   4   -0.90    2.10
   4   0   4    0.00    0.80
   4   0   4    1.60    0.90
  -5   0  -4   15.30    2.00
   5   0   4   17.70    2.10
   5   0   4   16.50    1.70
   5   0   4   14.50    1.70
   5   0   4   16.00    1.10
  -6   0  -4   21.50    2.80
  -6   0  -4   21.50    2.50
   6   0   4   23.20    2.40
   6   0   4   24.80    2.70
  -7   0  -4   96.09    6.50
   7   0   4   74.09    4.90
   7   0   4   78.79    5.60
   7  -1  -4    6.70    1.90
  -7   1   4    2.60    2.80
   6  -1  -4   13.30    1.60
   6  -1  -4   17.60    1.80
  -6   1   4   11.40    2.50
  -6   1   4   14.20    2.50
   5  -1  -4   10.30    1.30
   5  -1  -4    9.60    1.30
  -5   1   4    9.30    2.00
  -5   1   4    9.30    1.80
  -5   1   4   10.00    1.60
   4  -1  -4  173.48    5.50
   4  -1  -4  178.58    5.90
   4  -1  -4  173.08    5.50
  -4   1   4  174.68    5.80
  -4   1   4  177.08    5.70
  -4   1   4  175.78    6.00
   3  -1  -4  212.78    6.50
   3  -1  -4  221.98    6.70
   3  -1  -4  212.98    6.50
  -3   1   4  219.38    6.50
  -3   1   4  216.98    6.50
  -3   1   4  214.38    6.50
   2  -1  -4  123.79    3.80
   2  -1  -4  119.19    3.80
   2  -1  -4  110.29    3.80
  -2   1   4  121.29    3.80
  -2   1   4  126.89    3.90
  -2   1   4  116.59    3.90
  -2   1   4  125.39    3.80
  -2   1   4  121.39    3.70
   1  -1  -4 2580.74   66.89
   1  -1  -4 2520.35   66.59
   1  -1  -4 2553.14   66.39
   1  -1  -4 2609.94   67.29
  -1   1   4 2451.05   66.39
  -1   1   4 2417.96   66.59
  -1   1   4 2453.25   66.49
  -1   1   4 2383.36   66.59
  -1   1   4 2215.08   67.89
   0  -1  -4 1449.55   38.40
   0  -1  -4 1491.45   38.50
   0  -1  -4 1458.55   38.50
   0  -1  -4 1377.16   38.20
   0   1   4 1357.66   38.20
   0   1   4 1427.16   38.20
   0   1   4 1392.46   38.20
   0   1   4 1324.97   38.20
   0   1   4 1385.66   38.20
   0   1   4 1455.05   38.40
  -1  -1  -4 1939.21   50.59
  -1  -1  -4 1773.32   50.49
  -1  -1  -4 1924.41   50.59
  -1  -1  -4 1777.42   50.49
  -1  -1  -4 1895.51   50.49
  -1  -1  -4 1758.72   50.39
   1   1   4 1909.31   50.59
   1   1   4 1872.51   50.59
   1   1   4 1947.61   50.59
   1   1   4 1855.61   50.49
  -2  -1  -4  955.40   27.00
  -2  -1  -4  994.00   27.50
  -2  -1  -4 1014.40   27.40
   2   1   4 1035.90   27.70
   2   1   4 1004.90   27.70
   2   1   4  984.80   27.00
  -3  -1  -4   42.40    2.40
  -3  -1  -4   45.80    2.20
   3   1   4   41.30    2.20
   3   1   4   40.50    2.90
  -4  -1  -4   44.90    3.00
  -4  -1  -4   44.90    3.10
   4   1   4   50.89    2.70
   4   1   4   51.69    2.60
  -5  -1  -4   64.39    4.10
   5   1   4   66.19    3.40
   5   1   4   70.29    3.70
  -6  -1  -4    9.40    2.70
   6   1   4   10.20    2.20
  -7  -1  -4    5.50    3.30
   7   1   4    6.80    2.90
   8  -2  -4   16.20    3.60
  -8   2   4   19.30    4.00
  -7   2   4    2.10    2.70
   6  -2  -4   35.20    2.90
  -6   2   4   35.70    3.60
   5  -2  -4    8.60    1.70
   5  -2  -4    4.40    1.30
   5  -2  -4    7.10    1.50
  -5   2   4    7.30    1.70
  -5   2   4    8.00    1.80
   4  -2  -4   23.00    2.10
   4  -2  -4   21.20    1.80
   4  -2  -4   23.20    1.90
  -4   2   4   21.50    2.00
  -4   2   4   18.00    2.00
  -4   2   4   21.40    2.00
   3  -2  -4  625.74   18.00
   3  -2  -4  627.64   18.00
   3  -2  -4  644.04   18.00
  -3   2   4  667.23   18.00
  -3   2   4  630.84   18.00
   2  -2  -4   59.99    2.40
   2  -2  -4   54.99    2.30
   2  -2  -4   61.09    2.20
  -2   2   4   62.79    2.20
  -2   2   4   56.19    1.90
  -2   2   4   57.19    2.10
  -2   2   4   59.89    1.80
   1  -2  -4  155.38    4.50
   1  -2  -4  149.79    4.30
   1  -2  -4  154.98    4.10
   1  -2  -4  133.39    4.70
  -1   2   4  142.19    4.50
  -1   2   4  151.18    4.40
  -1   2   4  154.68    4.30
  -1   2   4  146.39    4.40
   0  -2  -4   22.10    1.10
   0  -2  -4   22.60    1.10
   0  -2  -4   22.00    1.10
   0  -2  -4   22.00    1.10
   0  -2  -4   22.40    1.20
   0   2   4   23.70    1.00
   0   2   4   22.20    1.10
   0   2   4   22.00    1.10
   0   2   4   20.40    1.10
   0   2   4   24.00    1.20
   0   2   4   23.40    0.90
   0   2   4   25.80    1.30
  -1  -2  -4    2.60    0.60
  -1  -2  -4    1.60    0.50
  -1  -2  -4    2.10    0.60
  -1  -2  -4    2.30    0.30
  -1  -2  -4    2.90    0.50
  -1  -2  -4    2.60    0.40
   1   2   4    2.90    0.80
   1   2   4    2.60    0.60
   1   2   4    3.20    0.30
   1   2   4    2.80    0.80
   1   2   4    3.30    0.50
  -2  -2  -4  374.36   10.90
  -2  -2  -4  388.36   11.10
  -2  -2  -4  378.76   10.40
  -2  -2  -4  387.86   10.90
  -2  -2  -4  379.96   11.00
  -2  -2  -4  382.16   10.30
   2   2   4  373.76   11.40
   2   2   4  370.06   11.00
  -3  -2  -4  585.34   16.20
  -3  -2  -4  587.24   15.50
  -3  -2  -4  572.74   16.50
   3   2   4  559.54   16.30
   3   2   4  531.75   16.80
  -4  -2  -4   27.40    2.80
  -4  -2  -4   25.90    1.50
   4   2   4   26.40    2.40
  -5  -2  -4   40.90    3.70
   5   2   4   38.70    3.20
   5   2   4   31.20    3.30
  -6  -2  -4   -0.20    2.60
   6   2   4    2.00    2.20
   6   2   4    0.00    2.50
   8  -3  -4   -1.60    2.70
  -8   3   4    2.80    3.00
  -8   3   4    1.80    3.50
   7  -3  -4   -0.90    2.00
  -7   3   4    2.00    2.20
   6  -3  -4    2.80    1.80
  -6   3   4    4.40    1.70
   5  -3  -4    0.70    1.30
   5  -3  -4    1.40    1.40
  -5   3   4   -2.30    2.00
  -5   3   4    0.70    1.30
  -5   3   4   -1.50    1.30
   4  -3  -4  402.66   12.20
   4  -3  -4  401.76   12.40
   4  -3  -4  420.36   12.40
  -4   3   4  421.56   12.50
  -4   3   4  414.06   12.00
  -4   3   4  410.86   12.20
  -4   3   4  419.96   12.00
   3  -3  -4  374.26   10.90
   3  -3  -4  334.47   11.10
   3  -3  -4  378.76   11.20
  -3   3   4  397.76   10.80
  -3   3   4  380.76   11.20
  -3   3   4  389.36   10.80
   2  -3  -4    9.00    1.10
   2  -3  -4    8.90    1.10
   2  -3  -4   10.70    1.00
  -2   3   4    8.20    0.60
  -2   3   4   10.10    1.00
  -2   3   4   10.30    0.90
   1  -3  -4  757.82   20.30
   1  -3  -4  744.93   20.80
   1  -3  -4  731.63   20.30
   1  -3  -4  726.03   20.30
   1  -3  -4  749.92   20.60
   1  -3  -4  793.32   20.80
  -1   3   4  738.43   20.40
  -1   3   4  746.03   20.70
  -1   3   4  731.93   20.70
  -1   3   4  749.13   20.60
  -1   3   4  755.92   20.40
   0  -3  -4   24.70    1.50
   0  -3  -4   26.90    1.30
   0  -3  -4   25.90    1.40
   0  -3  -4   27.60    1.50
   0  -3  -4   27.40    1.10
   0  -3  -4   26.40    1.30
   0  -3  -4   24.60    1.50
   0   3   4   27.20    1.10
   0   3   4   27.00    1.60
   0   3   4   27.30    1.50
   0   3   4   25.70    1.50
   0   3   4   25.90    1.30
   0   3   4   27.00    1.40
   0   3   4   26.90    1.40
  -1  -3  -4  558.54   15.40
  -1  -3  -4  539.35   15.30
  -1  -3  -4  533.75   15.00
  -1  -3  -4  542.95   15.30
  -1  -3  -4  548.35   15.20
  -1  -3  -4  547.15   15.00
   1   3   4  537.15   15.40
   1   3   4  558.44   14.90
   1   3   4  546.75   15.60
   1   3   4  524.25   15.10
   1   3   4  550.74   15.40
   1   3   4  534.65   15.20
  -2  -3  -4    4.60    1.00
  -2  -3  -4    4.40    1.10
  -2  -3  -4    5.20    0.90
  -2  -3  -4    6.70    1.00
  -2  -3  -4    7.30    0.50
  -2  -3  -4    5.30    0.60
  -2  -3  -4    5.80    1.10
   2   3   4    4.50    1.00
   2   3   4    6.60    1.70
   2   3   4    4.20    0.90
  -3  -3  -4  216.68    6.30
  -3  -3  -4  216.78    7.30
  -3  -3  -4  217.78    6.90
   3   3   4  215.08    7.20
   3   3   4  213.98    6.90
  -4  -3  -4    2.10    0.90
  -4  -3  -4    3.40    1.80
   4   3   4    2.50    1.60
   4   3   4    4.30    1.40
  -5  -3  -4   13.20    2.80
   5   3   4   18.60    2.80
   5   3   4   15.90    2.30
  -6  -3  -4   25.20    3.80
   6   3   4   30.00    3.80
   6   3   4   27.20    3.20
   7  -4  -4   32.90    3.40
  -7   4   4   43.40    4.20
  -7   4   4   32.40    3.40
   6  -4  -4  152.48    6.40
   6  -4  -4  162.08    6.50
  -6   4   4  149.29    6.20
  -6   4   4  160.68    5.90
   5  -4  -4  116.19    5.00
   5  -4  -4  113.89    4.80
  -5   4   4  112.89    4.20
  -5   4   4  108.19    4.60
   4  -4  -4  244.58    8.00
   4  -4  -4  225.88    7.50
  -4   4   4  244.18    8.70
  -4   4   4  241.38    7.30
  -4   4   4  230.18    7.40
   3  -4  -4   48.10    2.30
   3  -4  -4   37.20    2.70
   3  -4  -4   44.40    2.70
  -3   4   4   45.90    2.20
  -3   4   4   41.20    1.70
  -3   4   4   43.40    1.40
  -3   4   4   45.80    1.60
  -3   4   4   41.30    2.00
  -3   4   4   40.80    2.40
   2  -4  -4  117.69    4.40
   2  -4  -4  122.59    4.60
   2  -4  -4  119.99    4.00
   2  -4  -4  111.99    4.40
  -2   4   4  129.19    3.70
  -2   4   4  125.49    4.30
  -2   4   4  121.69    3.50
  -2   4   4  122.19    3.50
  -2   4   4  124.79    4.00
  -2   4   4  125.69    4.30
   1  -4  -4  988.30   27.70
   1  -4  -4 1000.70   27.10
   1  -4  -4  956.30   27.70
   1  -4  -4  992.40   27.20
   1  -4  -4 1020.90   28.00
   1  -4  -4  991.80   27.10
   1  -4  -4  989.00   27.40
  -1   4   4 1038.00   27.20
  -1   4   4  983.30   27.60
  -1   4   4 1018.60   27.40
  -1   4   4  977.80   27.60
  -1   4   4 1030.70   27.30
   0  -4  -4   44.50    2.20
   0  -4  -4   45.60    2.40
   0  -4  -4   49.70    1.90
   0  -4  -4   44.60    2.10
   0  -4  -4   43.00    2.30
   0  -4  -4   46.50    2.00
   0  -4  -4   46.60    1.80
   0   4   4   45.60    2.30
   0   4   4   44.00    1.70
   0   4   4   43.70    2.00
   0   4   4   40.70    2.10
   0   4   4   42.20    2.30
   0   4   4   49.00    2.20
   0   4   4   44.60    2.10
  -1  -4  -4  333.47    9.40
  -1  -4  -4  329.87    9.40
  -1  -4  -4  331.27    9.80
  -1  -4  -4  326.57    9.90
  -1  -4  -4  328.57    9.70
  -1  -4  -4  320.27    9.90
  -1  -4  -4  335.87    9.60
   1   4   4  330.87    9.30
   1   4   4  326.67    9.90
   1   4   4  313.37    9.60
   1   4   4  326.07    9.40
   1   4   4  321.67   10.00
  -2  -4  -4   28.50    2.30
  -2  -4  -4   28.20    1.60
  -2  -4  -4   26.80    2.20
  -2  -4  -4   28.10    1.30
  -2  -4  -4   31.10    3.10
  -2  -4  -4   30.90    2.00
   2   4   4   30.40    1.90
   2   4   4   30.90    2.40
   2   4   4   27.70    2.80
  -3  -4  -4    0.70    1.50
  -3  -4  -4   -1.20    0.80
   3   4   4    0.20    1.50
   3   4   4   -1.50    1.00
  -4  -4  -4   23.50    2.80
  -4  -4  -4   20.30    2.20
   4   4   4   26.60    2.60
   4   4   4   20.10    2.50
  -5  -4  -4  225.28    8.90
   5   4   4  215.38    8.70
   5   4   4  212.18    8.10
   7  -5  -4   83.69    5.70
  -7   5   4   80.39    5.20
  -7   5   4   82.39    5.80
   6  -5  -4   46.40    4.50
   6  -5  -4   41.60    4.00
  -6   5   4   46.10    2.80
  -6   5   4   45.10    4.20
  -6   5   4   41.30    3.50
   5  -5  -4   87.29    4.80
   5  -5  -4   90.69    4.20
  -5   5   4   86.19    3.90
  -5   5   4   85.89    3.00
  -5   5   4   90.89    4.60
   4  -5  -4  227.98    8.30
   4  -5  -4  235.78    7.70
  -4   5   4  223.38    8.00
  -4   5   4  258.87    7.10
  -4   5   4  242.38    7.20
   3  -5  -4  246.08    7.50
   3  -5  -4  244.78    8.30
  -3   5   4  249.08    7.00
  -3   5   4  249.78    7.90
  -3   5   4  229.28    7.70
  -3   5   4  243.18    6.90
  -3   5   4  235.28    7.40
   2  -5  -4   50.49    3.00
   2  -5  -4   54.59    2.40
   2  -5  -4   53.09    3.10
   2  -5  -4   56.99    2.20
  -2   5   4   54.49    2.70
  -2   5   4   52.29    2.50
  -2   5   4   57.99    2.80
  -2   5   4   56.49    2.10
   1  -5  -4   69.99    3.50
   1  -5  -4   78.49    2.70
   1  -5  -4   79.79    2.60
   1  -5  -4   68.39    3.50
   1  -5  -4   81.09    3.70
   1  -5  -4   77.49    2.80
   1  -5  -4   76.19    3.00
  -1   5   4   82.69    2.90
  -1   5   4   79.99    3.00
  -1   5   4   78.09    3.20
  -1   5   4   82.09    3.10
  -1   5   4   83.39    3.20
   0  -5  -4   94.09    3.90
   0  -5  -4  105.89    3.40
   0  -5  -4  100.79    3.40
   0  -5  -4  100.79    3.60
   0  -5  -4  103.99    3.80
   0  -5  -4   93.79    3.60
   0   5   4   97.49    3.60
   0   5   4   94.89    4.00
   0   5   4  103.49    3.40
   0   5   4   95.69    4.10
   0   5   4   97.69    3.80
  -1  -5  -4  106.49    3.90
  -1  -5  -4  108.39    4.10
  -1  -5  -4  107.39    3.90
  -1  -5  -4  108.59    3.90
  -1  -5  -4  104.29    4.50
   1   5   4  105.49    3.80
   1   5   4  109.29    4.50
   1   5   4  106.29    4.90
   1   5   4  108.49    3.70
   1   5   4  106.49    4.10
  -2  -5  -4    2.80    0.90
  -2  -5  -4    0.70    1.30
  -2  -5  -4    1.80    1.10
  -2  -5  -4   -0.10    1.10
   2   5   4    4.30    2.20
   2   5   4    2.70    1.10
  -3  -5  -4   14.30    2.20
  -3  -5  -4   15.50    2.10
   3   5   4   13.00    2.30
   3   5   4   11.40    1.80
  -4  -5  -4    6.60    2.00
  -4  -5  -4    2.40    2.40
   4   5   4    9.50    2.60
   4   5   4    7.30    2.10
  -5  -5  -4   22.40    3.90
  -5  -5  -4   20.90    3.30
   5   5   4   19.50    3.10
   5   5   4   13.70    3.80
   7  -6  -4   18.10    3.90
   7  -6  -4   14.40    3.40
  -7   6   4   15.90    2.80
  -7   6   4   18.50    3.90
   6  -6  -4  137.59    7.10
   6  -6  -4  142.99    6.40
  -6   6   4  136.19    5.50
  -6   6   4  143.09    6.80
   5  -6  -4    9.00    2.50
   5  -6  -4   19.20    2.30
  -5   6   4   13.60    2.50
  -5   6   4   12.30    1.40
  -5   6   4   14.00    1.70
   4  -6  -4  142.59    6.30
   4  -6  -4  138.89    5.30
  -4   6   4  145.59    6.00
  -4   6   4  142.39    5.70
  -4   6   4  141.79    4.60
   3  -6  -4  264.97    7.60
   3  -6  -4  254.67    8.90
   3  -6  -4  249.48    8.00
  -3   6   4  245.78    8.30
  -3   6   4  251.07    8.50
  -3   6   4  256.07    7.30
   2  -6  -4  143.99    4.70
   2  -6  -4  144.49    6.00
   2  -6  -4  149.79    5.00
  -2   6   4  144.79    5.40
  -2   6   4  146.49    5.40
   1  -6  -4    2.00    1.00
   1  -6  -4    2.10    0.60
   1  -6  -4    2.50    1.00
   1  -6  -4    2.10    0.90
   1  -6  -4    0.30    1.60
  -1   6   4    2.10    1.20
  -1   6   4    1.60    1.10
   0  -6  -4  387.76   11.10
   0  -6  -4  349.47   11.60
   0  -6  -4  388.56   11.30
   0  -6  -4  391.26   12.10
   0  -6  -4  379.26   11.50
   0  -6  -4  390.86   11.10
   0   6   4  382.66   11.60
   0   6   4  387.86   11.30
  -1  -6  -4   61.49    4.90
  -1  -6  -4   65.49    3.30
  -1  -6  -4   63.09    3.00
  -1  -6  -4   59.19    3.30
  -1  -6  -4   63.59    3.20
   1   6   4   61.19    3.30
   1   6   4   61.49    2.90
   1   6   4   66.59    3.90
   1   6   4   67.49    3.00
  -2  -6  -4    0.80    1.60
  -2  -6  -4    1.40    1.10
  -2  -6  -4    1.00    1.30
   2   6   4    3.00    1.50
   2   6   4    0.50    2.00
  -3  -6  -4  410.06   12.60
  -3  -6  -4  399.66   13.00
   3   6   4  416.06   13.50
   3   6   4  400.46   12.60
  -4  -6  -4   76.89    5.80
  -4  -6  -4   69.29    4.60
   4   6   4   68.29    6.20
   4   6   4   68.69    5.10
   6  -7  -4  163.78    8.20
   6  -7  -4  158.48    7.20
  -6   7   4  158.18    8.00
   5  -7  -4   43.40    3.90
   5  -7  -4   49.60    5.40
  -5   7   4   44.70    4.10
  -5   7   4   43.70    4.60
   4  -7  -4   42.20    4.50
   4  -7  -4   43.70    3.40
  -4   7   4   48.80    3.80
  -4   7   4   53.39    4.30
   3  -7  -4  119.69    4.60
   3  -7  -4  129.49    4.80
   3  -7  -4  119.29    6.20
  -3   7   4  132.29    5.60
  -3   7   4  122.39    5.40
   2  -7  -4   21.80    2.30
   2  -7  -4   18.90    1.80
   2  -7  -4   19.10    2.80
  -2   7   4   19.00    3.50
  -2   7   4   14.50    2.10
   1  -7  -4  121.89    4.60
   1  -7  -4  128.49    4.70
   1  -7  -4  128.39    4.00
   1  -7  -4  135.19    6.00
   1  -7  -4  124.69    4.60
  -1   7   4  130.09    5.10
  -1   7   4  119.09    6.20
   0  -7  -4   69.79    4.60
   0  -7  -4   74.09    3.40
   0  -7  -4   65.79    4.00
   0  -7  -4   77.09    3.20
   0   7   4   74.29    3.90
   0   7   4   74.69    3.60
  -1  -7  -4  711.63   20.30
  -1  -7  -4  713.13   20.20
  -1  -7  -4  677.53   20.30
  -1  -7  -4  709.73   21.20
   1   7   4  691.33   20.10
   1   7   4  719.43   21.20
   1   7   4  703.23   20.10
   1   7   4  727.53   20.60
  -2  -7  -4   42.40    3.50
  -2  -7  -4   47.40    3.90
   2   7   4   51.59    4.80
   2   7   4   44.40    3.60
  -3  -7  -4   62.49    4.50
  -3  -7  -4   57.09    5.20
   3   7   4   54.29    5.80
   3   7   4   50.09    4.60
   6  -8  -4  194.48    8.20
  -6   8   4  177.48    8.70
   5  -8  -4   23.50    3.00
   5  -8  -4   15.80    3.90
  -5   8   4   17.60    3.30
  -5   8   4   18.10    3.50
   4  -8  -4   31.50    3.80
   4  -8  -4   36.60    3.60
  -4   8   4   33.30    3.50
  -4   8   4   32.00    3.30
   3  -8  -4    3.00    2.70
   3  -8  -4    3.90    1.60
  -3   8   4    5.10    2.20
  -3   8   4    4.80    2.10
   2  -8  -4  313.17   11.40
   2  -8  -4  319.67    9.80
  -2   8   4  291.17   10.30
  -2   8   4  317.77   10.40
   1  -8  -4   41.30    3.20
   1  -8  -4   36.50    3.80
  -1   8   4   37.90    3.50
  -1   8   4   36.40    3.60
   0  -8  -4   13.60    1.60
   0  -8  -4   15.80    2.10
   0  -8  -4    9.80    3.20
   0   8   4   19.90    2.60
   0   8   4   15.00    2.10
  -1  -8  -4   17.20    3.50
  -1  -8  -4   11.60    2.20
   1   8   4    9.30    2.40
  -2  -8  -4  137.59    7.80
  -2  -8  -4  135.59    6.20
  -2  -8  -4  132.19    6.40
   2   8   4  126.29    6.00
   2   8   4  116.29    7.40
   4  -9  -4  132.29    8.30
   4  -9  -4  130.99    6.20
  -4   9   4  129.69    7.10
  -4   9   4  125.69    7.10
   3  -9  -4    2.80    2.20
   3  -9  -4   -0.10    3.40
  -3   9   4    2.10    2.70
  -3   9   4    1.20    2.50
   2  -9  -4   -2.40    3.20
   2  -9  -4   -1.80    1.80
  -2   9   4    0.20    2.10
  -2   9   4   -1.00    2.40
   1  -9  -4   25.90    4.50
   1  -9  -4   29.60    2.70
  -1   9   4   25.10    3.00
  -1   9   4   34.70    3.60
   0  -9  -4    6.40    3.90
   0  -9  -4    5.80    2.90
   0  -9  -4    7.40    2.20
   0   9   4    8.80    2.80
   0   9   4    7.10    2.70
   1   9  -5   32.90    3.50
  -1  -9   5   42.20    3.90
   0   9  -5   27.40    4.30
   0   9  -5   26.70    3.20
   0   9  -5   36.40    3.80
   0  -9   5   35.80    3.70
   0  -9   5   26.90    3.00
  -1   9  -5    4.00    2.60
  -1   9  -5    5.00    2.50
  -1   9  -5   -1.50    3.30
   1  -9   5   -1.30    2.50
   1  -9   5    5.80    2.60
  -2   9  -5   90.59    5.80
  -2   9  -5   92.19    5.60
  -2   9  -5   96.09    6.50
   2  -9   5   98.69    6.20
   2  -9   5   93.99    5.90
  -3   9  -5   46.20    5.20
  -3   9  -5   42.40    4.40
  -3   9  -5   41.60    4.00
   3  -9   5   49.30    5.60
   3  -9   5   42.40    4.40
  -4   9  -5    5.90    3.10
  -4   9  -5    3.70    3.30
  -4   9  -5    8.70    3.70
   4  -9   5    7.00    3.50
   4  -9   5   12.20    3.80
   2   8  -5    4.20    2.30
  -2  -8   5    0.40    1.70
  -2  -8   5    1.30    2.80
   1   8  -5    1.20    3.30
   1   8  -5    1.90    1.90
  -1  -8   5    0.40    1.40
  -1  -8   5    1.40    1.20
  -1  -8   5    3.10    2.10
  -1  -8   5    0.00    2.30
   0   8  -5  137.19    6.10
   0   8  -5  147.29    7.30
   0   8  -5  138.39    6.00
   0  -8   5  137.59    5.90
   0  -8   5  151.28    5.90
   0  -8   5  137.29    4.60
   0  -8   5  139.39    5.90
  -1   8  -5  122.19    5.60
  -1   8  -5  130.79    5.70
  -1   8  -5  128.49    6.50
   1  -8   5  126.69    5.90
   1  -8   5  125.59    4.50
   1  -8   5  135.69    5.90
   1  -8   5  127.19    4.80
  -2   8  -5  120.39    6.10
  -2   8  -5  118.59    5.60
  -2   8  -5  119.09    5.70
   2  -8   5  128.09    6.10
   2  -8   5  121.09    6.00
  -3   8  -5   33.70    3.50
  -3   8  -5   27.90    3.00
  -3   8  -5   33.40    3.30
   3  -8   5   36.70    4.30
   3  -8   5   38.40    4.50
  -4   8  -5   14.50    2.90
  -4   8  -5   13.40    2.80
  -4   8  -5   11.30    2.90
   4  -8   5   12.30    3.10
   4  -8   5    6.80    2.90
  -5   8  -5   90.49    6.10
  -5   8  -5   87.39    6.30
  -5   8  -5   88.19    6.20
   5  -8   5   92.99    6.90
   5  -8   5  106.19    6.70
   3   7  -5    7.50    2.30
   3   7  -5    1.50    2.50
  -3  -7   5    3.40    1.60
  -3  -7   5    3.90    3.00
  -3  -7   5    2.40    2.00
   2   7  -5  234.98    8.10
   2   7  -5  234.18    8.30
  -2  -7   5  229.28    7.70
  -2  -7   5  228.48    7.30
  -2  -7   5  226.18    7.50
  -2  -7   5  228.98    8.80
  -2  -7   5  230.48    7.30
   1   7  -5    2.60    2.60
   1   7  -5    1.00    1.60
  -1  -7   5    2.50    1.50
  -1  -7   5    1.10    1.20
  -1  -7   5    0.60    1.80
  -1  -7   5    0.50    0.90
   0   7  -5  259.17   13.10
   0   7  -5  297.37    9.60
   0  -7   5  298.27    8.60
   0  -7   5  308.87    9.70
   0  -7   5  305.37    9.50
   0  -7   5  314.77    9.60
  -1   7  -5   24.10    2.40
  -1   7  -5   19.50    2.70
  -1   7  -5   21.60    2.30
   1  -7   5   22.60    1.80
   1  -7   5   15.90    2.70
   1  -7   5   21.20    1.40
   1  -7   5   20.90    2.30
   1  -7   5   18.50    2.30
  -2   7  -5   67.19    4.20
  -2   7  -5   67.59    4.00
  -2   7  -5   66.69    3.80
   2  -7   5   67.99    2.90
   2  -7   5   61.19    2.40
   2  -7   5   66.09    4.00
   2  -7   5   66.99    2.50
   2  -7   5   68.49    4.20
  -3   7  -5   26.20    2.70
  -3   7  -5   28.40    3.20
  -3   7  -5   29.60    3.20
   3  -7   5   24.10    2.80
   3  -7   5   29.20    3.10
   3  -7   5   25.80    1.90
  -4   7  -5  117.99    5.50
  -4   7  -5  114.89    5.40
   4  -7   5  111.69    6.10
   4  -7   5  116.39    5.80
  -5   7  -5    2.40    2.40
  -5   7  -5    2.50    2.40
   5  -7   5   -5.20    2.50
   5  -7   5    2.90    2.70
  -6   7  -5   15.70    3.30
  -6   7  -5   14.10    3.40
   6  -7   5   19.50    3.80
   6  -7   5   17.10    3.70
   4   6  -5   64.99    4.50
   4   6  -5   68.09    4.90
  -4  -6   5   62.59    6.00
  -4  -6   5   53.39    4.50
   3   6  -5    5.00    1.80
  -3  -6   5    4.50    2.60
  -3  -6   5    6.00    1.00
  -3  -6   5    8.30    1.50
  -3  -6   5    6.50    1.90
   2   6  -5  179.08    6.60
   2   6  -5  183.18    7.50
   2   6  -5  170.48    6.70
  -2  -6   5  183.88    7.20
  -2  -6   5  191.28    5.90
  -2  -6   5  192.78    6.10
  -2  -6   5  183.78    5.90
   1   6  -5  157.38    5.80
   1   6  -5  158.18    5.70
   1   6  -5  162.68    6.60
  -1  -6   5  164.08    5.20
  -1  -6   5  165.88    5.50
  -1  -6   5  149.39    5.50
  -1  -6   5  171.48    5.60
  -1  -6   5  166.38    6.20
  -1  -6   5  163.58    5.00
   0   6  -5   62.89    3.80
   0   6  -5   61.69    3.10
   0   6  -5   62.69    3.20
   0  -6   5   60.89    2.20
   0  -6   5   62.59    3.00
   0  -6   5   62.09    2.20
   0  -6   5   62.09    3.20
   0  -6   5   61.29    3.10
  -1   6  -5   62.19    3.80
  -1   6  -5   57.59    3.10
  -1   6  -5   59.29    3.10
  -1   6  -5   53.59    3.40
   1  -6   5   58.19    3.10
   1  -6   5   62.09    2.40
   1  -6   5   61.09    2.10
   1  -6   5   62.49    3.30
   1  -6   5   62.59    3.30
  -2   6  -5  428.36   13.10
  -2   6  -5  439.46   13.20
  -2   6  -5  436.96   13.20
   2  -6   5  437.36   12.10
   2  -6   5  434.36   13.10
   2  -6   5  434.36   13.30
   2  -6   5  438.26   12.10
   2  -6   5  442.96   13.40
  -3   6  -5    2.00    1.50
  -3   6  -5    2.80    0.80
  -3   6  -5    1.60    1.30
  -3   6  -5    2.60    1.50
   3  -6   5    4.50    0.90
   3  -6   5    2.80    1.80
  -4   6  -5   37.80    3.30
  -4   6  -5   37.50    2.20
  -4   6  -5   42.10    3.30
   4  -6   5   40.90    3.80
   4  -6   5   39.00    3.70
  -5   6  -5  307.97   10.30
  -5   6  -5  308.47    9.60
  -5   6  -5  324.77   10.50
   5  -6   5  316.97   10.90
   5  -6   5  306.07   10.90
  -6   6  -5   35.00    3.60
   6  -6   5   27.90    3.40
   6  -6   5   36.00    3.80
   5   5  -5    3.00    2.20
   5   5  -5    2.30    2.60
  -5  -5   5    1.50    2.50
  -5  -5   5    0.30    3.60
   4   5  -5   33.90    3.40
   4   5  -5   28.40    2.70
  -4  -5   5   32.00    3.20
  -4  -5   5   21.90    3.20
  -4  -5   5   25.20    1.90
   3   5  -5   46.00    3.10
  -3  -5   5   41.90    3.30
  -3  -5   5   44.30    2.30
  -3  -5   5   42.30    1.90
  -3  -5   5   42.50    1.80
   2   5  -5  321.27    9.60
   2   5  -5  312.47    9.70
   2   5  -5  304.67   10.40
  -2  -5   5  314.47   10.20
  -2  -5   5  320.07    9.20
  -2  -5   5  307.07    9.40
  -2  -5   5  318.37    9.20
  -2  -5   5  315.57    9.60
   1   5  -5  289.37    9.40
   1   5  -5  307.97    8.80
   1   5  -5  281.37    8.80
   1   5  -5  256.77    8.70
  -1  -5   5  293.37    8.60
  -1  -5   5  291.87    8.60
  -1  -5   5  291.67    8.60
  -1  -5   5  292.47    8.40
  -1  -5   5  283.47    8.20
   0   5  -5  310.57    9.30
   0   5  -5  309.27    9.70
   0   5  -5  298.07    9.30
   0  -5   5  295.17    9.50
   0  -5   5  303.17    9.50
   0  -5   5  314.97    8.60
   0  -5   5  295.07    9.10
   0  -5   5  321.57    9.30
   0  -5   5  320.97    9.40
   0  -5   5  308.47    9.40
  -1   5  -5  238.48    8.10
  -1   5  -5  254.77    7.90
  -1   5  -5  254.27    8.10
  -1   5  -5  251.87    7.90
   1  -5   5  235.98    8.10
   1  -5   5  258.67    7.80
   1  -5   5  265.57    7.40
   1  -5   5  264.47    8.10
   1  -5   5  259.27    8.00
   1  -5   5  262.17    7.10
  -2   5  -5  921.31   26.20
  -2   5  -5  959.60   25.80
  -2   5  -5  943.61   25.90
  -2   5  -5  960.30   25.90
  -2   5  -5  925.01   24.90
   2  -5   5  948.81   26.10
   2  -5   5  880.81   25.00
   2  -5   5  795.02   26.30
   2  -5   5  953.70   26.00
   2  -5   5  911.21   25.40
  -3   5  -5  386.76   11.70
  -3   5  -5  384.76   10.80
  -3   5  -5  391.46   11.70
  -3   5  -5  392.56   11.00
   3  -5   5  391.26   11.90
   3  -5   5  373.06   11.00
   3  -5   5  392.56   12.00
  -4   5  -5  725.23   20.10
  -4   5  -5  752.92   20.90
  -4   5  -5  748.33   20.10
   4  -5   5  719.63   21.20
   4  -5   5  689.43   22.60
   4  -5   5  711.83   20.30
  -5   5  -5  170.88    6.50
  -5   5  -5  177.38    5.50
  -5   5  -5  152.88    5.80
   5  -5   5  172.98    6.90
   5  -5   5  160.68    6.30
   5  -5   5  175.28    6.70
  -6   5  -5   51.89    4.20
  -6   5  -5   44.00    3.10
   6  -5   5   50.09    4.40
   6  -5   5   47.60    4.50
  -7   5  -5    8.30    2.80
   7  -5   5    3.60    3.00
   7  -5   5    5.30    3.10
   6   4  -5  107.79    6.20
   6   4  -5  121.69    6.20
  -6  -4   5  107.29    7.90
   5   4  -5  406.26   12.70
   5   4  -5  410.66   12.80
  -5  -4   5  402.36   14.00
   4   4  -5   50.89    3.30
   4   4  -5   52.59    3.30
  -4  -4   5   50.39    2.00
  -4  -4   5   47.90    2.00
  -4  -4   5   50.29    2.20
  -4  -4   5   50.59    4.50
   3   4  -5   18.40    2.00
   3   4  -5   18.40    1.70
  -3  -4   5   17.10    1.00
  -3  -4   5   15.40    2.30
  -3  -4   5   15.30    1.90
  -3  -4   5   18.70    1.30
  -3  -4   5   19.10    2.00
  -3  -4   5   18.60    1.20
   2   4  -5  744.13   20.60
   2   4  -5  734.93   20.80
   2   4  -5  766.22   21.40
   2   4  -5  704.33   20.70
  -2  -4   5  763.22   20.80
  -2  -4   5  747.13   20.30
  -2  -4   5  729.43   20.80
  -2  -4   5  744.43   20.20
  -2  -4   5  743.83   20.50
  -2  -4   5  736.33   20.80
  -2  -4   5  690.43   21.30
   1   4  -5   15.90    1.40
   1   4  -5   20.30    2.00
   1   4  -5   17.00    1.40
   1   4  -5   15.90    1.60
   1   4  -5   15.30    1.40
  -1  -4   5   14.70    1.40
  -1  -4   5   15.90    1.20
  -1  -4   5   13.50    1.40
  -1  -4   5   16.40    1.90
  -1  -4   5   18.80    1.70
  -1  -4   5   15.90    1.50
  -1  -4   5   15.40    1.30
  -1  -4   5   16.80    1.20
   0   4  -5  796.92   23.10
   0   4  -5  818.52   22.80
   0   4  -5  813.72   22.80
   0   4  -5  846.22   22.80
   0  -4   5  851.31   22.80
   0  -4   5  830.42   22.40
   0  -4   5  826.12   22.60
   0  -4   5  796.02   22.20
   0  -4   5  832.32   23.00
   0  -4   5  813.42   22.90
   0  -4   5  838.72   22.90
   0  -4   5  790.42   22.90
   0  -4   5  819.82   22.80
  -1   4  -5   21.40    1.70
  -1   4  -5   20.00    1.50
  -1   4  -5   16.00    1.50
  -1   4  -5   19.30    1.80
   1  -4   5   19.40    1.70
   1  -4   5   19.20    1.10
   1  -4   5   19.40    1.60
   1  -4   5   19.50    1.60
   1  -4   5   19.10    1.60
   1  -4   5   20.00    1.20
  -2   4  -5  325.17    9.70
  -2   4  -5  324.97    9.30
  -2   4  -5  316.47    9.70
  -2   4  -5  325.17    9.00
  -2   4  -5  332.37   10.10
   2  -4   5  311.67    9.70
   2  -4   5  323.47    9.80
   2  -4   5  344.37    9.40
   2  -4   5  324.47    9.90
  -3   4  -5   -0.50    0.90
  -3   4  -5    0.40    1.70
  -3   4  -5   -0.30    0.60
  -3   4  -5    1.60    0.70
   3  -4   5   -0.40    1.00
   3  -4   5   -0.70    0.70
   3  -4   5    1.00    1.00
   3  -4   5    1.10    1.10
  -4   4  -5  848.42   23.90
  -4   4  -5  867.41   23.40
  -4   4  -5  826.72   23.50
   4  -4   5  846.92   24.20
   4  -4   5  837.42   23.70
   4  -4   5  849.41   24.20
  -5   4  -5   16.50    1.90
  -5   4  -5   17.80    1.60
  -5   4  -5   14.20    2.10
   5  -4   5   15.10    2.10
   5  -4   5   13.90    2.30
   5  -4   5   17.10    2.10
  -6   4  -5   40.40    3.50
  -6   4  -5   30.30    3.00
   6  -4   5   29.90    3.00
   6  -4   5   31.70    3.10
  -7   4  -5   69.69    4.60
  -7   4  -5   68.99    4.90
   7  -4   5   68.19    5.30
   7  -4   5   70.29    5.20
   6   3  -5   43.30    4.10
   6   3  -5   44.20    4.10
  -6  -3   5   36.20    4.50
   5   3  -5   13.90    2.40
   5   3  -5   10.20    1.80
  -5  -3   5   14.60    3.00
   4   3  -5  125.69    4.70
   4   3  -5  127.69    4.30
   4   3  -5  130.09    4.80
  -4  -3   5  123.69    3.90
  -4  -3   5  134.59    4.20
  -4  -3   5  129.49    5.80
   3   3  -5   95.59    3.80
   3   3  -5   99.99    3.50
   3   3  -5  104.09    3.70
  -3  -3   5   99.29    4.60
  -3  -3   5  102.49    4.00
  -3  -3   5  105.89    3.30
  -3  -3   5  101.89    3.90
  -3  -3   5  101.29    3.90
   2   3  -5  367.36   11.00
   2   3  -5  382.16   10.90
   2   3  -5  385.26   10.80
  -2  -3   5  373.66   11.00
  -2  -3   5  387.96   11.00
  -2  -3   5  374.36   11.40
  -2  -3   5  369.16   10.30
  -2  -3   5  381.56   10.40
  -2  -3   5  377.06   10.90
  -2  -3   5  378.86   10.60
  -2  -3   5  390.56   10.70
  -2  -3   5  392.76   11.10
  -2  -3   5  360.86   10.90
   1   3  -5  476.15   13.90
   1   3  -5  480.35   13.60
   1   3  -5  451.75   13.50
   1   3  -5  471.15   13.40
   1   3  -5  474.95   13.30
  -1  -3   5  474.05   13.20
  -1  -3   5  489.85   13.50
  -1  -3   5  468.25   13.30
  -1  -3   5  474.15   13.20
  -1  -3   5  504.85   13.40
  -1  -3   5  476.05   13.20
  -1  -3   5  480.95   13.80
  -1  -3   5  474.05   13.50
  -1  -3   5  493.85   13.50
   0   3  -5  172.28    5.30
   0   3  -5  172.98    5.30
   0   3  -5  175.88    5.60
   0   3  -5  169.78    5.30
   0   3  -5  165.68    5.50
   0  -3   5  170.98    5.30
   0  -3   5  174.08    4.80
   0  -3   5  176.38    4.80
   0  -3   5  178.88    5.30
   0  -3   5  177.38    5.10
   0  -3   5  176.78    5.10
   0  -3   5  177.38    5.40
   0  -3   5  180.08    5.30
   0  -3   5  176.78    5.30
   0  -3   5  172.78    5.30
   0  -3   5  171.08    5.50
  -1   3  -5   16.80    1.30
  -1   3  -5   17.80    1.20
  -1   3  -5   15.50    1.20
  -1   3  -5   15.40    1.60
  -1   3  -5   21.30    1.50
   1  -3   5   17.10    1.10
   1  -3   5   17.80    1.30
   1  -3   5   15.20    1.10
   1  -3   5   17.00    1.40
  -2   3  -5    3.70    1.10
  -2   3  -5    2.90    0.80
  -2   3  -5    4.70    0.60
  -2   3  -5    4.40    0.50
   2  -3   5    3.60    0.90
   2  -3   5    4.50    0.90
   2  -3   5    4.20    0.70
   2  -3   5    5.50    1.00
   2  -3   5    4.60    0.90
  -3   3  -5   32.90    1.90
  -3   3  -5   31.30    1.60
  -3   3  -5   30.60    1.70
  -3   3  -5   34.40    2.60
   3  -3   5   29.80    2.10
   3  -3   5   33.30    2.10
   3  -3   5   30.50    1.90
  -4   3  -5   50.49    2.70
  -4   3  -5   53.29    2.40
  -4   3  -5   54.49    2.70
   4  -3   5   48.20    3.00
   4  -3   5   57.39    2.90
   4  -3   5   53.99    2.90
  -5   3  -5    6.80    1.50
  -5   3  -5    5.30    1.30
   5  -3   5    4.10    1.60
   5  -3   5    4.70    2.70
   5  -3   5    8.90    1.70
  -6   3  -5  245.28    8.40
  -6   3  -5  255.07    8.40
   6  -3   5  252.77    8.40
   6  -3   5  246.58    8.60
  -7   3  -5    1.00    2.20
  -7   3  -5   -0.70    2.30
   7  -3   5   -2.00    2.30
   7   2  -5   52.69    4.80
   7   2  -5   44.80    4.70
  -7  -2   5   32.60    4.90
   6   2  -5    7.30    1.90
   6   2  -5    7.10    2.00
  -6  -2   5    8.40    3.20
   5   2  -5   37.40    3.10
   5   2  -5   39.10    2.70
   5   2  -5   33.10    1.90
  -5  -2   5   36.00    2.20
  -5  -2   5   36.10    3.50
   4   2  -5  511.25   14.40
   4   2  -5  499.75   14.60
   4   2  -5  491.35   14.00
  -4  -2   5  511.85   14.20
  -4  -2   5  497.55   13.90
   3   2  -5  520.35   14.60
   3   2  -5  518.65   14.80
   3   2  -5  527.05   14.40
  -3  -2   5  545.15   14.80
  -3  -2   5  513.45   14.90
  -3  -2   5  493.05   15.20
  -3  -2   5  519.25   14.50
   2   2  -5  131.79    4.30
   2   2  -5  128.89    4.70
   2   2  -5  133.29    4.10
   2   2  -5  138.39    4.20
  -2  -2   5  140.49    4.60
  -2  -2   5  139.39    4.30
  -2  -2   5  137.19    4.30
  -2  -2   5  135.49    4.70
  -2  -2   5  138.19    4.10
  -2  -2   5  142.09    4.40
   1   2  -5  139.39    4.00
   1   2  -5  139.69    4.00
   1   2  -5  145.49    4.60
   1   2  -5  145.79    4.30
   1   2  -5  136.59    4.20
  -1  -2   5  139.99    3.90
  -1  -2   5  144.59    4.50
  -1  -2   5  139.59    4.20
  -1  -2   5  137.29    4.00
  -1  -2   5  138.19    4.20
  -1  -2   5  135.99    4.30
  -1  -2   5  142.89    4.10
  -1  -2   5  144.99    4.30
  -1  -2   5  133.89    4.30
   0   2  -5   59.49    2.30
   0   2  -5   59.69    2.30
   0   2  -5   59.39    2.10
   0   2  -5   60.89    2.10
   0   2  -5   62.69    2.10
   0  -2   5   60.29    1.90
   0  -2   5   60.69    2.20
   0  -2   5   60.49    2.00
   0  -2   5   62.49    2.10
   0  -2   5   55.39    2.20
   0  -2   5   62.39    2.10
   0  -2   5   65.99    2.30
  -1   2  -5   73.79    2.40
  -1   2  -5   69.69    2.50
  -1   2  -5   73.29    2.70
  -1   2  -5   70.99    2.10
   1  -2   5   79.19    2.50
   1  -2   5   75.19    2.40
   1  -2   5   74.39    2.60
   1  -2   5   70.89    2.50
  -2   2  -5 1069.79   28.70
  -2   2  -5 1055.69   28.90
  -2   2  -5 1023.40   28.80
  -2   2  -5 1074.49   29.20
   2  -2   5 1051.29   28.90
   2  -2   5 1050.89   29.00
   2  -2   5 1069.19   28.90
   2  -2   5  988.90   29.00
   2  -2   5 1113.79   29.00
  -3   2  -5    8.50    0.90
  -3   2  -5    8.40    0.90
  -3   2  -5    7.10    1.30
  -3   2  -5    6.50    1.00
   3  -2   5    6.00    0.90
   3  -2   5    5.80    0.90
   3  -2   5    5.50    1.10
  -4   2  -5  437.96   12.80
  -4   2  -5  433.16   12.90
  -4   2  -5  451.35   12.70
   4  -2   5  438.66   12.80
   4  -2   5  450.35   13.00
   4  -2   5  430.46   13.20
  -5   2  -5    0.30    1.30
  -5   2  -5    0.40    1.10
   5  -2   5   -0.80    1.30
   5  -2   5   -0.60    1.00
  -6   2  -5   42.20    3.60
  -6   2  -5   40.50    3.00
   6  -2   5   42.40    2.80
   6  -2   5   44.10    3.40
  -7   2  -5   48.50    4.00
  -7   2  -5   42.90    3.70
   7  -2   5   47.60    4.80
   7  -2   5   44.00    4.30
   7   1  -5   36.60    4.00
   7   1  -5   41.20    3.60
  -7  -1   5   30.00    4.30
   6   1  -5   91.69    4.50
   6   1  -5   95.49    3.50
   6   1  -5   91.89    4.40
  -6  -1   5   96.09    6.10
   5   1  -5  176.58    5.30
   5   1  -5  174.18    5.90
   5   1  -5  169.08    6.00
   5   1  -5  173.58    5.30
  -5  -1   5  180.28    7.10
  -5  -1   5  178.08    5.70
   4   1  -5    2.00    0.90
   4   1  -5    1.40    0.60
   4   1  -5    2.10    0.80
   4   1  -5    1.30    0.50
  -4  -1   5    0.50    1.40
  -4  -1   5    2.20    0.80
  -4  -1   5    1.00    0.80
  -4  -1   5    1.00    1.20
  -4  -1   5    0.10    1.60
   3   1  -5  133.49    4.30
   3   1  -5  141.09    4.10
   3   1  -5  140.29    3.90
   3   1  -5  133.89    4.40
  -3  -1   5  130.89    4.90
  -3  -1   5  143.19    4.30
  -3  -1   5  131.59    4.50
  -3  -1   5  134.29    4.00
   2   1  -5  352.86   10.40
   2   1  -5  354.06   10.30
   2   1  -5  366.86   10.70
   2   1  -5  359.06   10.50
   2   1  -5  375.56   10.20
  -2  -1   5  375.46   10.40
  -2  -1   5  366.36   10.30
  -2  -1   5  370.46   10.60
  -2  -1   5  373.06   10.70
  -2  -1   5  381.66   10.50
   1   1  -5   36.70    1.40
   1   1  -5   40.60    1.20
   1   1  -5   36.90    1.40
   1   1  -5   37.40    1.40
   1   1  -5   36.50    1.20
   1   1  -5   38.60    1.70
  -1  -1   5   35.50    1.60
  -1  -1   5   39.40    1.50
  -1  -1   5   39.20    1.30
  -1  -1   5   40.20    1.70
  -1  -1   5   38.80    1.40
  -1  -1   5   37.60    1.40
   0   1  -5  285.67    8.00
   0   1  -5  277.27    7.90
   0   1  -5  289.17    8.00
   0   1  -5  284.67    8.10
   0   1  -5  274.47    7.70
   0   1  -5  280.27    7.80
   0  -1   5  275.17    7.70
   0  -1   5  280.17    7.90
   0  -1   5  280.17    7.90
   0  -1   5  280.97    7.90
   0  -1   5  292.97    7.90
   0  -1   5  289.87    8.00
   0  -1   5  279.17    7.80
  -1   1  -5  366.66   10.70
  -1   1  -5  375.86   10.50
  -1   1  -5  379.06   10.40
  -1   1  -5  369.46   10.30
  -1   1  -5  373.36   10.60
   1  -1   5  403.36   10.60
   1  -1   5  379.16   10.50
   1  -1   5  368.76   10.50
   1  -1   5  369.86   10.40
  -2   1  -5  343.17   10.20
  -2   1  -5  347.37   10.00
  -2   1  -5  350.16    9.80
  -2   1  -5  334.27   10.10
   2  -1   5  355.86   10.10
   2  -1   5  367.66   10.30
   2  -1   5  356.56   10.10
   2  -1   5  355.36    9.90
  -3   1  -5   88.99    3.20
  -3   1  -5   78.89    3.40
  -3   1  -5   84.59    2.90
   3  -1   5   80.69    3.10
   3  -1   5   90.89    2.90
   3  -1   5   88.49    3.60
  -4   1  -5   68.29    4.50
  -4   1  -5   60.09    2.90
  -4   1  -5   59.19    2.50
   4  -1   5   62.79    2.80
   4  -1   5   52.49    3.90
   4  -1   5   59.99    2.40
  -5   1  -5   16.80    1.90
  -5   1  -5   18.40    2.00
   5  -1   5   19.70    1.60
   5  -1   5   15.90    1.80
   5  -1   5   14.60    2.20
  -6   1  -5  146.69    6.30
  -6   1  -5  159.18    5.40
   6  -1   5  156.98    6.10
   6  -1   5  142.49    4.70
   6  -1   5  137.39    5.80
  -7   1  -5    3.40    2.60
   7  -1   5   -1.10    2.10
   7  -1   5    0.20    2.60
   7   0  -5   80.59    4.70
   7   0  -5   84.69    5.00
  -7   0   5   82.49    6.10
   6   0  -5   36.60    2.30
   6   0  -5   37.00    3.10
  -6   0   5   32.50    3.30
  -6   0   5   41.10    4.50
   5   0  -5   11.90    1.20
   5   0  -5   10.80    1.40
   5   0  -5   10.90    1.20
  -5   0   5   12.50    1.60
  -5   0   5   12.60    2.20
   4   0  -5   70.79    2.60
   4   0  -5   70.29    2.50
   4   0  -5   66.99    2.80
  -4   0   5   69.99    3.20
  -4   0   5   69.49    3.50
  -4   0   5   68.39    2.70
  -4   0   5   72.69    3.60
   3   0  -5  169.38    5.10
   3   0  -5  165.68    5.20
   3   0  -5  172.48    5.20
   3   0  -5  177.98    5.50
  -3   0   5  179.58    5.70
  -3   0   5  170.88    5.10
  -3   0   5  168.38    5.40
  -3   0   5  166.18    5.50
  -3   0   5  176.68    5.50
   2   0  -5   58.09    2.20
   2   0  -5   56.89    2.20
   2   0  -5   55.79    2.00
   2   0  -5   56.19    2.00
   2   0  -5   59.29    2.10
  -2   0   5   56.59    2.10
  -2   0   5   60.79    2.20
  -2   0   5   53.59    2.10
  -2   0   5   57.59    2.30
   1   0  -5  161.58    4.50
   1   0  -5  153.18    4.40
   1   0  -5  139.19    4.50
   1   0  -5  152.58    4.50
  -1   0   5  149.79    4.50
  -1   0   5  154.68    4.40
  -1   0   5  155.68    4.50
  -1   0   5  157.38    4.60
  -1   0   5  155.48    4.40
  -1   0   5  158.08    4.60
   0   0  -5 1781.42   48.90
   0   0  -5 1847.52   49.30
   0   0  -5 1739.03   49.10
   0   0  -5 1822.12   49.40
   0   0  -5 1873.01   49.30
   0   0   5 1861.31   49.10
   0   0   5 1746.33   48.70
   0   0   5 1782.02   48.80
   0   0   5 1802.32   48.90
  -1   0  -5  784.62   21.20
  -1   0  -5  757.52   21.30
  -1   0  -5  794.22   21.40
  -1   0  -5  786.22   21.20
   1   0   5  815.12   21.40
   1   0   5  762.42   21.20
   1   0   5  823.72   21.50
   1   0   5  733.43   21.40
   1   0   5  775.82   21.10
   1   0   5  759.82   21.30
  -2   0  -5   91.39    2.60
  -2   0  -5   91.49    3.10
  -2   0  -5   91.29    3.10
  -2   0  -5   85.59    2.90
   2   0   5   92.49    3.40
   2   0   5   88.09    3.30
   2   0   5   94.39    3.00
   2   0   5   79.29    2.80
   2   0   5   86.19    3.00
  -3   0  -5   22.80    2.00
  -3   0  -5   25.60    1.80
  -3   0  -5   22.60    1.10
   3   0   5   20.10    1.20
   3   0   5   25.80    2.30
   3   0   5   22.10    1.50
   3   0   5   23.30    1.50
  -4   0  -5  243.18    8.10
  -4   0  -5  253.77    7.40
   4   0   5  250.37    7.20
   4   0   5  259.07    7.90
   4   0   5  262.27    8.00
  -5   0  -5   17.50    2.30
  -5   0  -5   18.10    1.70
   5   0   5   23.20    2.60
   5   0   5   20.80    2.40
  -6   0  -5   68.69    3.30
  -6   0  -5   74.89    5.00
   6   0   5   73.89    4.10
   6   0   5   73.59    4.40
  -7   0  -5   14.80    3.40
   7   0   5   17.70    3.00
   7   0   5    8.90    3.00
   7  -1  -5   18.80    2.60
   7  -1  -5   28.60    3.00
  -7   1   5   21.10    3.30
   6  -1  -5   16.60    1.80
   6  -1  -5   23.10    2.30
  -6   1   5   24.10    3.00
  -6   1   5   20.10    2.50
   5  -1  -5   37.50    2.20
   5  -1  -5   35.60    2.30
  -5   1   5   32.00    3.20
  -5   1   5   33.20    3.30
  -5   1   5   36.50    2.70
   4  -1  -5   33.50    1.90
   4  -1  -5   30.10    2.20
   4  -1  -5   32.40    2.00
  -4   1   5   36.60    2.60
  -4   1   5   34.60    2.20
  -4   1   5   31.10    2.50
  -4   1   5   33.30    2.30
  -4   1   5   32.50    2.00
   3  -1  -5  154.68    5.00
   3  -1  -5  161.28    5.00
   3  -1  -5  159.48    5.20
  -3   1   5  154.28    5.00
  -3   1   5  164.18    5.00
  -3   1   5  158.18    5.00
  -3   1   5  163.78    5.30
   2  -1  -5   60.99    2.30
   2  -1  -5   58.59    2.30
   2  -1  -5   60.49    2.30
  -2   1   5   63.19    2.10
  -2   1   5   63.59    2.40
  -2   1   5   62.19    2.20
  -2   1   5   60.59    2.30
   1  -1  -5  113.59    3.30
   1  -1  -5  116.59    3.40
   1  -1  -5  114.29    3.50
   1  -1  -5  114.39    3.10
  -1   1   5  121.19    3.50
  -1   1   5  111.49    3.40
  -1   1   5  110.19    3.60
  -1   1   5  107.19    3.60
   0  -1  -5  329.27    9.30
   0  -1  -5  341.97    9.40
   0  -1  -5  330.77    9.40
   0  -1  -5  341.47    9.40
   0  -1  -5  327.37    9.40
   0   1   5  329.87    9.20
   0   1   5  329.77    9.40
   0   1   5  339.37    9.40
   0   1   5  338.97    9.40
   0   1   5  352.56    9.50
  -1  -1  -5  255.87    7.50
  -1  -1  -5  263.47    7.20
  -1  -1  -5  251.47    7.40
  -1  -1  -5  261.57    7.50
  -1  -1  -5  251.37    7.40
  -1  -1  -5  265.07    7.40
   1   1   5  256.17    7.30
   1   1   5  276.37    7.70
   1   1   5  256.87    7.50
   1   1   5  259.17    7.60
  -2  -1  -5 2036.90   54.89
  -2  -1  -5 1962.90   54.99
  -2  -1  -5 1996.60   54.49
   2   1   5 1992.90   54.59
   2   1   5 2031.30   55.19
   2   1   5 2098.99   55.19
   2   1   5 2029.10   54.89
  -3  -1  -5   62.39    2.80
  -3  -1  -5   61.59    1.90
  -3  -1  -5   65.49    2.90
   3   1   5   61.79    2.70
   3   1   5   55.29    3.40
   3   1   5   60.79    2.60
   3   1   5   62.39    1.90
  -4  -1  -5  267.87    8.70
   4   1   5  267.87    8.40
   4   1   5  266.07    8.30
  -5  -1  -5    7.50    2.10
  -5  -1  -5   10.50    1.20
   5   1   5    9.60    1.80
  -6  -1  -5   56.29    4.90
   6   1   5   46.90    4.30
   8  -2  -5    8.50    3.00
  -8   2   5    9.70    3.10
  -8   2   5    4.70    3.80
   7  -2  -5    3.90    1.90
  -7   2   5    1.50    2.30
  -7   2   5    1.30    2.60
   6  -2  -5   33.70    2.80
  -6   2   5   31.20    3.00
  -6   2   5   30.60    3.30
   5  -2  -5  873.31   25.60
   5  -2  -5  953.90   25.70
   5  -2  -5  923.81   26.00
  -5   2   5  930.11   25.80
  -5   2   5  912.81   25.80
  -5   2   5  896.11   25.90
  -5   2   5  906.51   26.10
   4  -2  -5  306.07    9.60
   4  -2  -5  307.27    9.50
   4  -2  -5  327.87    9.50
  -4   2   5  325.17    9.30
  -4   2   5  303.77    9.50
  -4   2   5  309.17    9.40
  -4   2   5  314.67    9.50
   3  -2  -5  167.38    5.40
   3  -2  -5  168.28    5.40
   3  -2  -5  158.88    5.30
  -3   2   5  162.48    5.30
  -3   2   5  165.18    5.00
  -3   2   5  167.38    5.30
  -3   2   5  169.78    5.20
   2  -2  -5  119.99    3.90
   2  -2  -5  102.19    3.80
   2  -2  -5  119.09    3.70
  -2   2   5  122.39    3.70
  -2   2   5  113.69    3.20
  -2   2   5  114.49    3.60
  -2   2   5  112.99    3.50
   1  -2  -5  125.69    3.90
   1  -2  -5  125.19    3.80
   1  -2  -5  121.59    3.80
   1  -2  -5  120.29    4.00
  -1   2   5  124.99    3.80
  -1   2   5  133.79    3.70
  -1   2   5  126.69    3.80
  -1   2   5  130.09    3.80
  -1   2   5  115.19    4.10
   0  -2  -5  312.27    9.10
   0  -2  -5  331.67    9.20
   0  -2  -5  329.07    9.00
   0  -2  -5  291.17    9.20
   0  -2  -5  333.07    9.10
   0   2   5  323.57    8.80
   0   2   5  315.57    9.20
   0   2   5  319.47    9.20
   0   2   5  317.57    9.10
   0   2   5  322.57    8.90
   0   2   5  324.17    9.00
   0   2   5  317.87    9.20
   0   2   5  331.97    9.10
  -1  -2  -5    7.70    0.80
  -1  -2  -5    6.80    0.70
  -1  -2  -5    7.50    0.80
  -1  -2  -5    6.90    0.80
  -1  -2  -5    8.70    0.70
   1   2   5    7.60    0.90
   1   2   5    9.00    1.10
   1   2   5    7.30    0.80
   1   2   5    7.70    0.80
   1   2   5    6.20    0.40
   1   2   5    7.80    1.10
  -2  -2  -5  632.44   17.60
  -2  -2  -5  638.14   17.70
  -2  -2  -5  626.54   17.50
  -2  -2  -5  620.64   17.50
  -2  -2  -5  615.24   17.00
  -2  -2  -5  627.84   17.50
   2   2   5  619.14   18.00
   2   2   5  607.84   17.60
   2   2   5  635.64   18.00
  -3  -2  -5   14.10    1.50
  -3  -2  -5   16.50    1.70
   3   2   5   17.30    1.70
  -4  -2  -5   94.59    3.00
  -5  -2  -5    2.40    2.00
   5   2   5    1.70    1.90
   5   2   5    0.00    1.70
  -6  -2  -5   73.89    5.80
   6   2   5   69.99    4.90
   6   2   5   75.19    5.60
  -8   3   5   -0.60    2.70
   7  -3  -5  116.29    5.60
  -7   3   5  121.79    6.00
  -7   3   5  113.79    9.50
   6  -3  -5   88.29    4.50
   6  -3  -5   93.39    5.00
  -6   3   5   81.29    4.90
  -6   3   5   86.79    4.70
  -6   3   5   92.59    4.70
   5  -3  -5  625.24   17.50
   5  -3  -5  591.24   17.50
  -5   3   5  616.64   17.30
  -5   3   5  539.65   17.70
  -5   3   5  604.94   17.50
   4  -3  -5  354.96   10.50
   4  -3  -5  334.97   10.60
   4  -3  -5  366.16   10.80
  -4   3   5  346.67   10.70
  -4   3   5  321.47   10.30
  -4   3   5  357.76   10.30
  -4   3   5  355.76   10.40
   3  -3  -5   54.29    2.80
   3  -3  -5   53.89    2.40
   3  -3  -5   53.49    2.70
  -3   3   5   54.99    2.00
  -3   3   5   52.09    2.30
  -3   3   5   51.39    2.30
  -3   3   5   52.59    1.90
   2  -3  -5    3.60    0.60
   2  -3  -5    4.70    1.00
   2  -3  -5    6.10    1.10
  -2   3   5    5.00    0.50
  -2   3   5    6.20    0.80
  -2   3   5    7.50    0.80
  -2   3   5    3.80    0.70
   1  -3  -5  166.68    5.00
   1  -3  -5  171.98    5.30
   1  -3  -5  155.08    5.20
   1  -3  -5  175.78    4.60
   1  -3  -5  165.18    4.60
   1  -3  -5  148.39    5.00
  -1   3   5  162.98    5.10
  -1   3   5  167.58    5.00
  -1   3   5  166.68    4.90
  -1   3   5  170.98    4.90
  -1   3   5  167.58    5.10
   0  -3  -5 1562.94   42.50
   0  -3  -5 1654.83   42.30
   0  -3  -5 1539.15   42.50
   0  -3  -5 1527.05   42.40
   0  -3  -5 1516.35   42.40
   0  -3  -5 1522.85   42.30
   0   3   5 1571.24   42.40
   0   3   5 1618.74   42.40
   0   3   5 1519.15   42.40
   0   3   5 1507.25   42.60
   0   3   5 1585.94   42.20
   0   3   5 1539.25   42.10
   0   3   5 1588.04   42.50
  -1  -3  -5  368.76   11.00
  -1  -3  -5  394.36   11.10
  -1  -3  -5  367.16   11.00
  -1  -3  -5  373.26   10.90
  -1  -3  -5  401.16   10.70
   1   3   5  389.26   11.20
   1   3   5  380.86   10.70
   1   3   5  378.86   10.50
   1   3   5  378.96   11.30
   1   3   5  381.86   11.20
  -2  -3  -5   59.49    2.00
  -2  -3  -5   57.49    2.70
  -2  -3  -5   54.49    2.80
  -2  -3  -5   57.99    2.50
  -2  -3  -5   60.89    1.90
  -2  -3  -5   60.69    2.80
  -2  -3  -5   59.89    2.80
   2   3   5   56.49    2.80
   2   3   5   56.39    3.60
   2   3   5   60.59    2.50
  -3  -3  -5   23.40    2.10
  -3  -3  -5   23.90    2.50
  -3  -3  -5   24.50    1.20
   3   3   5   25.40    2.10
   3   3   5   27.90    2.40
  -4  -3  -5  191.78    7.10
  -4  -3  -5  183.88    5.50
   4   3   5  194.28    7.00
   4   3   5  188.08    6.60
  -5  -3  -5   60.79    4.80
   5   3   5   63.39    4.20
   5   3   5   65.79    4.60
  -6  -3  -5  138.49    8.30
   6   3   5  140.19    7.40
   6   3   5  137.99    6.80
   7  -4  -5  153.28    6.80
  -7   4   5  153.78    6.60
  -7   4   5  147.49    6.80
   6  -4  -5   -0.40    1.90
   6  -4  -5    1.60    2.10
  -6   4   5   -0.60    1.70
  -6   4   5    0.40    1.80
   5  -4  -5   58.39    3.50
   5  -4  -5   53.79    3.60
  -5   4   5   55.19    3.00
  -5   4   5   55.49    3.20
   4  -4  -5    8.90    1.40
   4  -4  -5    9.50    1.70
  -4   4   5   10.30    1.30
  -4   4   5    8.80    1.20
  -4   4   5    9.80    1.00
   3  -4  -5  244.58    8.00
   3  -4  -5  246.08    7.60
   3  -4  -5  216.28    7.90
  -3   4   5  239.78    7.40
  -3   4   5  253.47    7.20
  -3   4   5  259.27    7.80
  -3   4   5  254.07    6.90
   2  -4  -5  163.58    4.70
   2  -4  -5  153.28    5.40
   2  -4  -5  155.58    5.60
   2  -4  -5  152.98    5.60
   2  -4  -5  161.58    5.10
  -2   4   5  166.08    5.10
  -2   4   5  162.88    5.30
  -2   4   5  166.78    4.80
  -2   4   5  162.38    5.30
  -2   4   5  159.88    4.70
   1  -4  -5 1654.03   46.20
   1  -4  -5 1669.13   45.60
   1  -4  -5 1677.13   46.00
   1  -4  -5 1665.83   46.50
   1  -4  -5 1774.42   46.30
   1  -4  -5 1629.04   45.60
   1  -4  -5 1668.83   45.70
  -1   4   5 1731.43   45.90
  -1   4   5 1658.03   46.10
  -1   4   5 1655.13   46.00
  -1   4   5 1757.12   45.80
  -1   4   5 1725.93   46.10
   0  -4  -5    3.70    0.90
   0  -4  -5    2.60    1.00
   0  -4  -5    3.30    0.70
   0  -4  -5    2.30    0.70
   0  -4  -5    5.20    1.20
   0  -4  -5    2.10    0.90
   0   4   5    3.60    1.00
   0   4   5    2.20    1.00
   0   4   5    1.50    0.90
   0   4   5    4.40    1.00
   0   4   5    3.00    0.80
   0   4   5    2.70    0.70
  -1  -4  -5   29.70    1.80
  -1  -4  -5   31.70    1.70
  -1  -4  -5   28.60    2.30
  -1  -4  -5   28.10    2.40
  -1  -4  -5   25.40    2.30
  -1  -4  -5   29.40    1.80
   1   4   5   28.80    1.60
   1   4   5   29.90    1.50
   1   4   5   32.60    2.40
   1   4   5   26.30    1.70
   1   4   5   24.80    2.70
   1   4   5   28.50    2.10
  -2  -4  -5   18.60    2.10
  -2  -4  -5   19.80    1.40
  -2  -4  -5   20.10    1.80
  -2  -4  -5   19.90    1.10
  -2  -4  -5   18.90    2.30
   2   4   5   21.20    1.80
   2   4   5   21.20    2.10
  -3  -4  -5  120.69    4.70
  -3  -4  -5  120.19    3.90
   3   4   5  121.99    4.60
   3   4   5  121.79    5.20
  -4  -4  -5   94.69    4.50
  -4  -4  -5  101.59    5.30
   4   4   5   96.39    5.10
   4   4   5   95.39    4.50
  -5  -4  -5    8.20    2.50
  -5  -4  -5    9.00    2.90
   5   4   5    8.40    3.00
   5   4   5    2.00    2.20
   7  -5  -5    3.90    2.80
   7  -5  -5    5.70    2.80
  -7   5   5    4.80    2.40
  -7   5   5    7.40    3.10
   6  -5  -5   18.80    2.70
   6  -5  -5   22.70    3.20
  -6   5   5   27.10    2.60
  -6   5   5   21.00    2.00
  -6   5   5   19.30    2.90
   5  -5  -5  271.57    9.70
   5  -5  -5  271.37    9.60
  -5   5   5  292.17    9.40
  -5   5   5  282.67    8.20
  -5   5   5  278.47    8.70
  -5   5   5  261.87    7.90
   4  -5  -5   20.10    2.50
   4  -5  -5   23.90    2.30
  -4   5   5   21.80    1.20
  -4   5   5   18.20    2.00
  -4   5   5   19.40    1.90
   3  -5  -5  476.85   13.80
   3  -5  -5  471.55   14.50
  -3   5   5  475.75   13.30
  -3   5   5  461.45   14.00
  -3   5   5  494.55   14.10
  -3   5   5  464.55   14.00
   2  -5  -5  138.59    5.90
   2  -5  -5  156.48    6.00
   2  -5  -5  165.18    5.30
   2  -5  -5  175.38    4.90
  -2   5   5  167.48    4.90
  -2   5   5  160.38    5.60
  -2   5   5  158.58    5.50
  -2   5   5  162.78    5.30
  -2   5   5  161.28    4.80
   1  -5  -5   82.29    2.70
   1  -5  -5   78.99    2.70
   1  -5  -5   79.39    2.80
   1  -5  -5   78.29    3.10
   1  -5  -5   74.59    3.70
   1  -5  -5   79.09    3.70
  -1   5   5   81.99    3.00
  -1   5   5   81.49    3.30
  -1   5   5   79.69    3.30
  -1   5   5   78.69    3.30
  -1   5   5   83.29    3.10
   0  -5  -5   21.90    1.70
   0  -5  -5   18.50    2.20
   0  -5  -5   19.60    2.00
   0  -5  -5   22.30    1.50
   0  -5  -5   22.20    1.60
   0   5   5   21.90    1.90
   0   5   5   20.00    1.70
   0   5   5   21.20    1.80
   0   5   5   20.60    2.20
   0   5   5   18.40    1.40
   0   5   5   17.80    1.80
  -1  -5  -5  235.48    7.40
  -1  -5  -5  234.28    7.20
  -1  -5  -5  244.58    7.40
  -1  -5  -5  223.88    7.80
  -1  -5  -5  238.08    7.20
   1   5   5  246.08    7.10
   1   5   5  237.98    7.90
   1   5   5  229.48    8.20
   1   5   5  236.98    7.20
   1   5   5  242.08    7.50
  -2  -5  -5  334.17   10.40
  -2  -5  -5  340.37   10.60
  -2  -5  -5  334.47    9.80
   2   5   5  343.37   10.90
   2   5   5  344.97   10.20
  -3  -5  -5  101.09    4.30
  -3  -5  -5   91.89    4.70
   3   5   5   89.69    4.20
   3   5   5   86.89    5.10
  -4  -5  -5  229.08    8.20
  -4  -5  -5  230.48    8.70
   4   5   5  230.28    8.20
   4   5   5  231.98    9.10
   7  -6  -5    6.40    3.40
   7  -6  -5    2.30    3.60
  -7   6   5    7.60    2.50
  -7   6   5    3.80    3.40
   6  -6  -5    8.30    3.10
   6  -6  -5    6.10    2.60
  -6   6   5    8.60    2.00
  -6   6   5   10.70    3.00
   5  -6  -5  134.39    5.80
   5  -6  -5  133.19    6.70
  -5   6   5  142.59    5.00
  -5   6   5  146.29    6.40
   4  -6  -5    0.70    1.30
   4  -6  -5   -0.80    2.00
  -4   6   5    0.80    1.10
  -4   6   5    0.40    1.40
  -4   6   5    0.00    1.80
   3  -6  -5  356.36   10.90
   3  -6  -5  358.46   10.40
  -3   6   5  375.46   11.40
  -3   6   5  367.86   10.20
  -3   6   5  351.36   11.20
   2  -6  -5   90.79    3.20
   2  -6  -5   88.99    3.50
   2  -6  -5   91.89    4.70
  -2   6   5   89.49    4.00
  -2   6   5   85.29    4.00
  -2   6   5   88.09    3.20
   1  -6  -5   90.39    3.40
   1  -6  -5   97.59    3.70
   1  -6  -5   97.29    4.70
   1  -6  -5   97.49    3.20
   1  -6  -5   96.09    3.40
  -1   6   5   89.79    3.90
  -1   6   5   97.89    3.80
  -1   6   5   95.19    3.70
  -1   6   5   93.69    4.00
   0  -6  -5  144.79    4.70
   0  -6  -5  140.39    5.90
   0  -6  -5  146.59    5.00
   0  -6  -5  139.19    5.40
   0  -6  -5  142.09    4.70
   0  -6  -5  135.79    5.20
   0   6   5  142.59    4.90
   0   6   5  139.59    5.20
   0   6   5  140.99    5.60
   0   6   5  122.09    6.30
  -1  -6  -5  146.39    5.30
  -1  -6  -5  155.38    5.40
  -1  -6  -5  154.58    5.40
  -1  -6  -5  146.89    6.90
   1   6   5  157.38    6.20
   1   6   5  153.28    5.10
   1   6   5  146.79    5.20
   1   6   5  153.08    5.60
  -2  -6  -5    7.40    1.30
  -2  -6  -5    7.90    1.80
  -2  -6  -5   10.60    1.90
   2   6   5   10.70    1.70
   2   6   5    7.10    2.20
  -3  -6  -5   52.29    3.90
  -3  -6  -5   57.89    4.60
   3   6   5   54.39    4.00
   3   6   5   59.69    5.00
  -4  -6  -5   45.00    4.30
  -4  -6  -5   53.99    4.70
   4   6   5   51.69    4.90
   4   6   5   47.60    4.80
   6  -7  -5   46.10    4.90
   6  -7  -5   29.90    4.30
  -6   7   5   36.90    4.20
   5  -7  -5   75.59    4.60
   5  -7  -5   61.99    5.70
  -5   7   5   71.39    4.90
  -5   7   5   82.19    5.50
   4  -7  -5   13.40    2.90
   4  -7  -5   15.70    2.10
  -4   7   5   17.60    2.80
  -4   7   5   14.30    2.20
   3  -7  -5  280.17    8.30
   3  -7  -5  270.37   10.10
   3  -7  -5  263.47   10.50
  -3   7   5  276.37    9.40
  -3   7   5  280.17    9.30
   2  -7  -5   15.20    1.80
   2  -7  -5   14.80    1.50
   2  -7  -5   10.90    2.50
  -2   7   5   11.90    2.10
   1  -7  -5  480.75   14.40
   1  -7  -5  477.85   15.10
   1  -7  -5  471.25   13.60
   1  -7  -5  467.05   13.60
   1  -7  -5  481.45   13.30
  -1   7   5  473.65   14.40
  -1   7   5  462.35   14.10
   0  -7  -5   -3.30    1.90
   0  -7  -5    6.00    2.60
   0  -7  -5    2.30    1.40
   0  -7  -5    0.90    1.00
   0   7   5    0.60    1.40
   0   7   5    0.80    1.50
  -1  -7  -5   26.60    2.80
  -1  -7  -5   22.50    2.20
  -1  -7  -5   19.20    3.10
   1   7   5   23.80    2.60
   1   7   5   19.50    2.00
   1   7   5   27.50    3.30
   1   7   5   20.00    2.40
  -2  -7  -5   42.90    3.50
  -2  -7  -5   36.30    3.70
   2   7   5   38.80    4.00
   2   7   5   30.90    3.30
  -3  -7  -5  179.78    7.10
  -3  -7  -5  178.18    7.60
   3   7   5  170.78    7.20
   3   7   5  154.68    8.30
   5  -8  -5    5.30    3.80
   5  -8  -5    8.80    2.50
  -5   8   5    9.80    2.70
  -5   8   5   16.70    3.60
   4  -8  -5    5.70    2.10
   4  -8  -5    3.30    3.20
  -4   8   5    0.30    2.50
  -4   8   5    1.70    2.10
   3  -8  -5  188.08    6.90
   3  -8  -5  189.28    8.50
  -3   8   5  179.68    7.40
  -3   8   5  194.58    7.60
   2  -8  -5    2.20    2.70
   2  -8  -5    3.40    1.60
  -2   8   5    0.20    1.80
  -2   8   5    0.80    2.00
   1  -8  -5    4.40    2.80
   1  -8  -5    0.60    1.60
  -1   8   5    0.60    1.90
  -1   8   5    6.00    2.10
   0  -8  -5   25.40    3.80
   0  -8  -5   22.70    2.50
   0  -8  -5   25.40    2.60
   0   8   5   25.40    2.90
   0   8   5   23.90    2.40
  -1  -8  -5   44.70    4.60
  -1  -8  -5   41.50    3.80
  -1  -8  -5   46.70    3.60
   4  -9  -5   -1.50    2.40
   4  -9  -5    1.10    3.80
  -4   9   5    1.80    3.10
  -4   9   5   -0.10    3.00
   3  -9  -5   85.29    4.80
   3  -9  -5   80.89    7.30
  -3   9   5   87.29    5.80
  -3   9   5   75.79    5.70
   2  -9  -5   88.19    4.80
   2  -9  -5  100.29    7.30
  -2   9   5  100.29    5.80
  -2   9   5   91.39    5.80
   1  -9  -5    6.50    3.80
   1  -9  -5    5.70    2.30
  -1   9   5    2.30    2.70
  -1   9   5    5.20    2.50
   0   9  -6    1.60    3.70
   0   9  -6    3.60    2.80
   0  -9   6    1.20    2.20
   0  -9   6    2.20    2.50
  -1   9  -6    1.10    3.40
  -1   9  -6   -0.50    2.40
  -1   9  -6    2.20    2.70
   1  -9   6    6.60    2.70
   1  -9   6    2.20    2.50
  -2   9  -6   24.90    3.30
  -2   9  -6   33.70    4.30
  -2   9  -6   23.40    3.20
   2  -9   6   26.30    3.40
   2  -9   6   23.60    3.50
  -3   9  -6  140.39    7.70
  -3   9  -6  141.29    7.40
  -3   9  -6  140.59    6.90
   3  -9   6  140.69    7.60
   3  -9   6  139.39    7.40
  -4   9  -6   -1.10    3.60
  -4   9  -6    3.80    3.30
   4  -9   6    0.30    3.40
   2   8  -6   45.90    4.70
  -2  -8   6   48.00    3.20
  -2  -8   6   41.60    4.10
   1   8  -6   14.20    2.40
   1   8  -6    8.70    3.50
  -1  -8   6    9.80    2.20
  -1  -8   6    9.30    1.80
  -1  -8   6   12.60    3.10
   0   8  -6    8.50    2.10
   0   8  -6    4.70    2.20
   0   8  -6    8.20    3.00
   0  -8   6    4.00    2.10
   0  -8   6    6.10    2.20
   0  -8   6    7.30    2.00
  -1   8  -6  299.57    9.90
  -1   8  -6  289.37   10.60
  -1   8  -6  289.07    9.80
   1  -8   6  291.07    9.90
   1  -8   6  291.37    9.90
   1  -8   6  280.77    9.10
  -2   8  -6   29.50    3.10
  -2   8  -6   30.20    3.30
  -2   8  -6   36.90    3.70
   2  -8   6   30.20    3.20
   2  -8   6   30.80    3.20
  -3   8  -6   24.90    3.10
  -3   8  -6   15.90    2.60
  -3   8  -6   22.20    3.10
   3  -8   6   16.30    2.70
   3  -8   6   18.30    3.00
  -4   8  -6  133.19    6.80
  -4   8  -6  144.49    6.80
  -4   8  -6  137.39    6.90
   4  -8   6  131.69    6.80
   4  -8   6  139.89    7.30
  -5   8  -6   77.69    5.70
  -5   8  -6   76.49    6.10
  -5   8  -6   76.59    6.00
   5  -8   6   79.49    6.80
   5  -8   6   80.09    6.40
   3   7  -6    4.00    2.60
   3   7  -6    1.10    2.10
  -3  -7   6    0.50    1.60
  -3  -7   6    0.20    2.00
  -3  -7   6    0.60    3.10
   2   7  -6    5.50    2.00
   2   7  -6    3.40    3.00
  -2  -7   6    5.20    1.30
  -2  -7   6    5.70    1.60
  -2  -7   6    3.80    1.60
  -2  -7   6    3.40    1.40
  -2  -7   6    4.40    2.50
   1   7  -6   87.49    5.50
   1   7  -6   81.19    4.20
  -1  -7   6   83.29    4.00
  -1  -7   6   76.49    4.70
  -1  -7   6   80.49    3.70
  -1  -7   6   80.09    3.00
   0   7  -6   11.00    1.90
   0   7  -6   14.90    2.80
   0  -7   6   11.50    2.00
   0  -7   6   12.90    2.00
   0  -7   6   12.90    1.90
   0  -7   6   13.80    1.80
   0  -7   6   14.70    1.20
  -1   7  -6  121.19    5.60
  -1   7  -6  124.29    5.10
  -1   7  -6  118.49    5.00
   1  -7   6  121.89    5.20
   1  -7   6  112.99    3.60
   1  -7   6  123.49    5.10
   1  -7   6  116.39    4.10
  -2   7  -6   43.50    3.90
  -2   7  -6   48.20    3.90
  -2   7  -6   45.00    3.30
   2  -7   6   46.60    3.50
   2  -7   6   44.10    2.10
   2  -7   6   46.10    3.80
  -3   7  -6    5.40    1.90
  -3   7  -6    4.80    1.90
   3  -7   6    1.20    2.00
   3  -7   6    3.40    1.90
  -4   7  -6  290.57    9.80
  -4   7  -6  285.97    9.80
  -4   7  -6  273.37    9.80
   4  -7   6  288.27   10.20
   4  -7   6  280.77   10.10
  -5   7  -6  356.86   11.80
  -5   7  -6  339.77   11.70
   5  -7   6  351.46   12.30
   5  -7   6  348.27   12.20
  -6   7  -6   -0.60    3.00
  -6   7  -6   -1.20    3.30
   6  -7   6    3.10    3.20
   6  -7   6    1.80    3.10
   4   6  -6   54.29    4.50
   4   6  -6   49.10    4.30
  -4  -6   6   51.69    4.30
  -4  -6   6   55.29    6.00
   3   6  -6   91.29    4.60
   3   6  -6   95.89    4.70
  -3  -6   6   94.69    3.50
  -3  -6   6   97.89    5.90
  -3  -6   6   90.49    4.40
   2   6  -6  191.88    6.80
   2   6  -6  203.68    6.80
   2   6  -6  191.18    7.90
  -2  -6   6  193.68    6.10
  -2  -6   6  184.88    6.70
  -2  -6   6  177.78    6.50
  -2  -6   6  196.18    6.20
  -2  -6   6  198.98    6.20
  -2  -6   6  194.08    7.60
   1   6  -6   62.29    4.30
   1   6  -6   73.69    3.40
   1   6  -6   73.39    3.50
  -1  -6   6   69.39    2.90
  -1  -6   6   71.29    2.60
  -1  -6   6   73.99    3.30
  -1  -6   6   77.19    3.20
  -1  -6   6   64.69    3.20
  -1  -6   6   76.09    4.10
   0   6  -6   20.40    2.20
   0   6  -6   21.90    2.30
   0   6  -6   17.80    2.30
   0  -6   6   22.20    1.20
   0  -6   6   23.50    2.20
   0  -6   6   22.60    1.40
   0  -6   6   21.30    2.30
   0  -6   6   24.10    2.10
   0  -6   6   23.00    2.20
  -1   6  -6  136.59    5.70
  -1   6  -6  143.69    5.60
  -1   6  -6  138.09    5.20
  -1   6  -6  138.09    5.20
   1  -6   6  144.89    5.40
   1  -6   6  140.29    4.50
   1  -6   6  141.19    5.20
   1  -6   6  130.39    5.00
  -2   6  -6  465.85   13.70
  -2   6  -6  484.65   14.00
  -2   6  -6  449.16   13.70
   2  -6   6  447.26   12.80
   2  -6   6  466.85   13.80
   2  -6   6  447.56   13.90
   2  -6   6  441.16   13.60
  -3   6  -6  811.62   22.00
  -3   6  -6  734.63   24.50
  -3   6  -6  801.52   23.20
  -3   6  -6  822.72   23.20
   3  -6   6  812.62   23.40
   3  -6   6  828.12   22.30
   3  -6   6  832.52   23.50
  -4   6  -6  187.58    7.20
  -4   6  -6  197.38    7.00
   4  -6   6  192.98    7.40
   4  -6   6  181.88    7.40
   4  -6   6  193.88    7.20
  -5   6  -6    4.90    2.20
  -5   6  -6    6.40    2.20
  -5   6  -6    4.40    1.60
   5  -6   6    3.80    2.30
   5  -6   6    3.80    2.30
  -6   6  -6  128.29    6.40
   6  -6   6  105.79    6.40
   6  -6   6  105.99    6.30
   5   5  -6  114.49    5.80
   5   5  -6  118.99    5.90
  -5  -5   6  108.59    7.40
  -5  -5   6   98.29    5.90
   4   5  -6   16.30    2.20
   4   5  -6   15.90    2.80
  -4  -5   6   16.30    1.70
  -4  -5   6   20.90    3.30
  -4  -5   6   17.80    2.60
   3   5  -6   12.10    1.80
   3   5  -6    9.40    1.70
  -3  -5   6    9.70    0.90
  -3  -5   6    8.30    0.90
  -3  -5   6   11.90    1.10
  -3  -5   6   12.30    2.00
  -3  -5   6    8.80    2.40
   2   5  -6    8.10    1.30
   2   5  -6    6.10    2.00
   2   5  -6    8.20    1.40
  -2  -5   6    5.60    1.20
  -2  -5   6    6.10    1.40
  -2  -5   6    7.70    1.50
  -2  -5   6    6.80    1.00
  -2  -5   6    6.80    1.00
  -2  -5   6    6.10    1.80
   1   5  -6  336.37   10.10
   1   5  -6  336.97   10.80
   1   5  -6  324.37   10.10
  -1  -5   6  318.57    9.80
  -1  -5   6  340.77    9.90
  -1  -5   6  341.47    9.50
  -1  -5   6  350.16    9.80
  -1  -5   6  345.27    9.90
   0   5  -6   33.40    2.20
   0   5  -6   36.60    2.60
   0   5  -6   35.00    2.40
   0   5  -6   33.80    2.20
   0  -5   6   37.00    1.60
   0  -5   6   29.40    2.80
   0  -5   6   36.90    2.20
   0  -5   6   30.20    2.40
   0  -5   6   34.80    2.20
   0  -5   6   34.70    2.10
   0  -5   6   36.80    2.00
   0  -5   6   36.00    1.30
  -1   5  -6  698.03   20.20
  -1   5  -6  716.03   20.40
  -1   5  -6  718.23   20.10
  -1   5  -6  723.13   20.40
   1  -5   6  703.53   19.90
   1  -5   6  702.53   19.40
   1  -5   6  721.23   19.70
   1  -5   6  691.53   21.80
   1  -5   6  712.23   20.30
   1  -5   6  726.73   20.20
  -2   5  -6   49.99    3.60
  -2   5  -6   54.99    2.90
  -2   5  -6   55.39    2.80
  -2   5  -6   60.69    3.10
   2  -5   6   53.69    3.00
   2  -5   6   53.49    2.20
   2  -5   6   56.39    2.50
   2  -5   6   58.59    3.00
  -3   5  -6  666.53   18.60
  -3   5  -6  663.53   18.20
  -3   5  -6  686.13   19.20
  -3   5  -6  672.03   19.20
   3  -5   6  655.43   19.40
   3  -5   6  654.13   18.60
   3  -5   6  673.73   19.40
  -4   5  -6    4.60    1.50
  -4   5  -6    5.40    1.10
  -4   5  -6    5.40    1.10
   4  -5   6    4.50    1.70
   4  -5   6    4.90    1.70
   4  -5   6    3.50    1.50
  -5   5  -6  177.38    6.60
  -5   5  -6  165.48    5.60
   5  -5   6  173.78    6.90
   5  -5   6  167.38    6.80
  -6   5  -6   23.00    3.00
  -6   5  -6   24.60    2.20
   6  -5   6   21.50    2.90
   6  -5   6   23.50    3.00
  -7   5  -6  136.89    7.10
   7  -5   6  131.09    7.00
   7  -5   6  132.09    7.80
   6   4  -6   73.99    5.30
   6   4  -6   75.09    5.40
  -6  -4   6   64.39    7.40
  -6  -4   6   76.09    8.10
   5   4  -6   20.90    2.50
   5   4  -6   19.80    2.50
  -5  -4   6   18.70    3.50
  -5  -4   6   17.70    2.70
   4   4  -6  381.96   11.70
   4   4  -6  353.06   11.20
   4   4  -6  389.36   11.50
  -4  -4   6  378.46   12.70
  -4  -4   6  391.16   10.90
  -4  -4   6  376.36   12.10
   3   4  -6   30.60    2.60
   3   4  -6   34.10    2.40
   3   4  -6   33.20    2.40
  -3  -4   6   31.80    1.60
  -3  -4   6   28.10    2.70
  -3  -4   6   30.00    3.40
  -3  -4   6   31.00    2.80
   2   4  -6  304.67    9.00
   2   4  -6  301.27    9.20
   2   4  -6  301.17    9.30
   2   4  -6  317.27    9.90
  -2  -4   6  308.47    9.20
  -2  -4   6  288.87    9.30
  -2  -4   6  312.87    8.60
  -2  -4   6  307.87    8.90
  -2  -4   6  307.27    9.10
  -2  -4   6  302.37    9.30
  -2  -4   6  315.17    8.90
   1   4  -6   97.89    3.30
   1   4  -6   99.39    4.10
   1   4  -6   87.09    3.40
   1   4  -6   91.79    3.90
   1   4  -6   94.39    3.40
  -1  -4   6  100.79    4.00
  -1  -4   6   96.69    3.30
  -1  -4   6   92.59    3.20
  -1  -4   6   92.79    3.20
  -1  -4   6   96.89    3.60
  -1  -4   6   97.59    3.60
  -1  -4   6   95.49    3.10
  -1  -4   6   94.69    3.80
  -1  -4   6   97.39    3.30
   0   4  -6  707.93   19.60
   0   4  -6  720.33   19.70
   0   4  -6  650.73   20.00
   0   4  -6  655.83   19.90
   0   4  -6  697.93   19.60
   0  -4   6  744.33   19.70
   0  -4   6  699.43   19.80
   0  -4   6  697.33   19.00
   0  -4   6  703.73   19.50
   0  -4   6  699.53   19.70
   0  -4   6  686.33   19.00
   0  -4   6  688.03   19.80
   0  -4   6  710.93   19.40
   0  -4   6  714.93   19.60
   0  -4   6  731.03   19.30
   0  -4   6  730.43   19.70
  -1   4  -6   82.79    3.50
  -1   4  -6   81.99    3.20
  -1   4  -6   85.79    3.40
  -1   4  -6   79.99    3.20
   1  -4   6   80.99    3.30
   1  -4   6   78.39    3.40
   1  -4   6   89.39    3.20
   1  -4   6   87.99    2.80
   1  -4   6   86.69    2.90
   1  -4   6   86.09    3.20
  -2   4  -6   12.80    1.40
  -2   4  -6   10.60    0.60
  -2   4  -6   10.50    1.60
  -2   4  -6   11.40    1.30
  -2   4  -6   10.40    1.00
   2  -4   6    8.50    1.20
   2  -4   6   13.00    1.30
   2  -4   6   14.10    1.50
   2  -4   6   11.20    1.20
   2  -4   6   10.70    1.30
  -3   4  -6   41.40    2.40
  -3   4  -6   40.50    2.00
  -3   4  -6   39.40    1.80
   3  -4   6   37.10    2.60
   3  -4   6   43.60    2.60
   3  -4   6   43.10    2.20
   3  -4   6   38.00    2.60
  -4   4  -6   19.30    2.00
  -4   4  -6   20.80    2.20
  -4   4  -6   18.00    1.70
   4  -4   6   20.40    2.00
   4  -4   6   12.30    1.70
   4  -4   6   21.50    2.10
  -5   4  -6  225.98    7.10
  -5   4  -6  221.28    7.60
  -5   4  -6  234.88    7.60
   5  -4   6  197.58    8.10
   5  -4   6  231.58    7.80
   5  -4   6  226.08    7.90
  -6   4  -6   19.80    2.20
  -6   4  -6   25.40    2.50
   6  -4   6   16.20    2.60
   6  -4   6   17.90    2.40
  -7   4  -6   14.00    2.90
  -7   4  -6   19.00    2.70
   7  -4   6   17.80    3.30
   7  -4   6   15.00    2.80
   6   3  -6   82.49    4.90
   6   3  -6   74.19    4.70
  -6  -3   6   74.19    5.30
  -6  -3   6   75.29    6.80
   5   3  -6    2.60    1.70
   5   3  -6    1.70    1.50
  -5  -3   6   -1.00    2.20
   4   3  -6  137.79    4.90
   4   3  -6  134.89    4.70
   4   3  -6  139.69    5.20
  -4  -3   6  138.39    4.50
  -4  -3   6  139.79    5.60
  -4  -3   6  130.59    6.10
   3   3  -6  977.00   27.10
   3   3  -6  963.80   26.80
   3   3  -6 1023.40   26.80
  -3  -3   6  924.11   27.00
  -3  -3   6  955.50   26.60
  -3  -3   6  957.00   27.00
  -3  -3   6  989.20   27.40
  -3  -3   6  973.40   27.00
   2   3  -6  143.99    4.60
   2   3  -6  138.09    4.40
   2   3  -6  131.69    5.10
   2   3  -6  138.19    4.60
  -2  -3   6  140.29    4.30
  -2  -3   6  147.99    4.70
  -2  -3   6  136.89    4.70
  -2  -3   6  136.39    5.10
  -2  -3   6  132.49    4.70
  -2  -3   6  147.39    4.60
  -2  -3   6  139.59    4.50
   1   3  -6   60.39    2.30
   1   3  -6   59.79    2.10
   1   3  -6   61.89    2.80
   1   3  -6   59.09    2.60
   1   3  -6   59.69    2.30
   1   3  -6   55.19    2.40
  -1  -3   6   61.49    2.40
  -1  -3   6   61.59    2.00
  -1  -3   6   65.49    2.40
  -1  -3   6   60.59    2.10
  -1  -3   6   60.09    2.00
  -1  -3   6   62.29    2.50
  -1  -3   6   59.29    2.70
  -1  -3   6   58.79    2.50
  -1  -3   6   59.79    2.20
   0   3  -6   75.79    2.80
   0   3  -6   82.19    2.80
   0   3  -6   80.99    3.10
   0   3  -6   74.69    3.10
   0   3  -6   78.79    2.70
   0  -3   6   82.79    2.60
   0  -3   6   80.39    2.80
   0  -3   6   77.39    2.80
   0  -3   6   78.89    2.50
   0  -3   6   76.49    2.70
   0  -3   6   76.89    2.90
   0  -3   6   80.79    3.00
  -1   3  -6  116.79    4.20
  -1   3  -6  110.09    3.80
  -1   3  -6  113.89    4.00
  -1   3  -6  111.19    3.70
  -1   3  -6  113.89    4.00
  -1   3  -6  116.79    3.80
   1  -3   6  122.09    3.60
   1  -3   6  115.59    3.90
   1  -3   6  119.89    3.60
   1  -3   6  112.09    3.90
  -2   3  -6    1.60    0.90
  -2   3  -6    2.60    0.70
  -2   3  -6    3.50    0.50
  -2   3  -6    2.00    0.60
   2  -3   6    2.10    0.70
   2  -3   6    3.20    0.90
   2  -3   6    4.30    0.70
   2  -3   6    3.40    0.90
   2  -3   6    3.00    0.80
  -3   3  -6  998.70   27.30
  -3   3  -6  980.80   27.30
  -3   3  -6  998.30   27.50
   3  -3   6  983.50   27.70
   3  -3   6 1004.50   27.80
   3  -3   6  982.60   27.50
   3  -3   6 1018.50   27.80
  -4   3  -6   12.00    1.50
  -4   3  -6   15.20    1.60
  -4   3  -6   13.10    1.30
   4  -3   6   11.00    1.80
   4  -3   6   12.90    1.50
   4  -3   6   14.00    1.70
  -5   3  -6    6.80    1.50
  -5   3  -6    9.90    1.50
   5  -3   6    8.30    1.80
   5  -3   6    9.70    1.60
  -6   3  -6    5.10    1.70
  -6   3  -6    7.20    1.90
   6  -3   6    4.40    1.70
   6  -3   6    6.60    2.20
  -7   3  -6   91.49    5.50
  -7   3  -6  100.69    5.10
   7  -3   6  101.79    5.60
   7   2  -6   -2.30    2.50
   7   2  -6   -3.80    2.30
  -7  -2   6   -1.40    3.80
  -7  -2   6   -1.00    2.70
   6   2  -6   17.30    2.30
   6   2  -6   25.90    2.70
  -6  -2   6   24.90    3.90
   5   2  -6   33.70    2.10
   5   2  -6   18.80    2.80
   5   2  -6   30.60    2.60
  -5  -2   6   31.50    1.70
  -5  -2   6   30.50    3.20
   4   2  -6  425.96   12.10
   4   2  -6  427.16   12.60
   4   2  -6  431.76   12.40
  -4  -2   6  420.16   13.10
  -4  -2   6  426.56   12.20
  -4  -2   6  430.36   13.40
   3   2  -6   42.40    1.90
   3   2  -6   41.40    2.10
   3   2  -6   42.10    1.80
  -3  -2   6   39.00    2.30
  -3  -2   6   41.50    1.80
  -3  -2   6   40.30    2.00
  -3  -2   6   39.40    2.90
  -3  -2   6   35.90    2.60
   2   2  -6   20.30    1.30
   2   2  -6   20.30    1.30
   2   2  -6   20.10    1.80
   2   2  -6   20.80    1.20
  -2  -2   6   23.40    1.40
  -2  -2   6   21.20    1.20
  -2  -2   6   20.30    1.10
  -2  -2   6   22.40    1.70
  -2  -2   6   21.70    1.50
  -2  -2   6   21.10    1.80
   1   2  -6  164.68    4.80
   1   2  -6  175.78    5.00
   1   2  -6  166.88    5.20
   1   2  -6  174.68    5.10
   1   2  -6  157.58    5.40
   1   2  -6  171.18    4.80
  -1  -2   6  157.38    5.10
  -1  -2   6  173.68    4.90
  -1  -2   6  169.28    5.40
  -1  -2   6  171.68    4.70
  -1  -2   6  167.28    4.70
  -1  -2   6  174.78    5.00
  -1  -2   6  174.48    5.10
  -1  -2   6  174.18    5.20
  -1  -2   6  170.58    5.00
   0   2  -6  737.43   20.40
   0   2  -6  753.02   20.30
   0   2  -6  733.83   20.10
   0   2  -6  766.82   20.70
   0  -2   6  730.03   20.10
   0  -2   6  779.22   20.50
   0  -2   6  727.73   20.20
   0  -2   6  642.84   20.50
   0  -2   6  784.62   20.40
   0  -2   6  754.82   20.50
   0  -2   6  740.13   20.50
   0  -2   6  755.52   20.50
   0  -2   6  776.22   20.60
  -1   2  -6 1789.92   48.50
  -1   2  -6 1776.12   48.20
  -1   2  -6 1844.62   48.70
  -1   2  -6 1755.12   48.60
  -1   2  -6 1759.22   48.40
  -1   2  -6 1704.83   48.70
   1  -2   6 1874.71   48.50
   1  -2   6 1803.32   48.40
   1  -2   6 1762.32   48.50
   1  -2   6 1778.82   48.50
   1  -2   6 1822.72   48.50
  -2   2  -6 1420.46   40.30
  -2   2  -6 1502.65   40.00
  -2   2  -6 1451.15   40.00
  -2   2  -6 1441.66   40.30
   2  -2   6 1419.06   40.10
   2  -2   6 1478.85   40.00
   2  -2   6 1489.25   40.10
   2  -2   6 1478.55   40.20
   2  -2   6 1539.85   40.20
  -3   2  -6   36.20    2.60
  -3   2  -6   38.30    2.00
  -3   2  -6   35.70    1.80
  -3   2  -6   35.90    1.80
   3  -2   6   38.40    2.50
   3  -2   6   38.50    2.00
   3  -2   6   34.60    2.30
   3  -2   6   37.40    1.90
  -4   2  -6  238.38    7.30
  -4   2  -6  236.38    7.10
  -4   2  -6  229.78    7.40
   4  -2   6  234.58    7.20
   4  -2   6  217.78    7.80
   4  -2   6  239.58    7.50
  -5   2  -6   52.49    3.00
  -5   2  -6   46.20    2.70
   5  -2   6   47.40    2.70
   5  -2   6   48.90    3.10
  -6   2  -6   16.30    2.30
  -6   2  -6   21.60    2.10
   6  -2   6   16.50    2.40
   6  -2   6   18.20    1.80
  -7   2  -6   44.10    4.50
   7  -2   6   41.00    4.60
   7  -2   6   50.19    4.40
   7   1  -6   14.40    2.50
   7   1  -6   20.70    2.90
  -7  -1   6   22.20    4.30
   6   1  -6  108.09    4.80
   6   1  -6  106.69    4.80
  -6  -1   6  112.99    6.50
   5   1  -6    2.00    0.80
   5   1  -6    0.40    0.70
   5   1  -6    0.30    1.20
   5   1  -6    0.20    1.10
  -5  -1   6   -0.60    1.90
   4   1  -6   21.10    1.00
   4   1  -6   25.90    1.70
   4   1  -6   21.50    1.80
   4   1  -6   20.70    1.40
  -4  -1   6   22.10    1.80
  -4  -1   6   22.60    2.40
  -4  -1   6   19.40    2.30
  -4  -1   6   20.60    2.00
  -4  -1   6   24.60    1.30
   3   1  -6  111.59    3.80
   3   1  -6  114.19    3.60
   3   1  -6  113.39    3.10
  -3  -1   6  112.09    4.20
  -3  -1   6  109.89    4.20
  -3  -1   6  109.69    3.90
  -3  -1   6  113.89    3.70
   2   1  -6  295.47    8.70
   2   1  -6  292.57    8.50
   2   1  -6  287.07    8.30
   2   1  -6  285.27    8.10
   2   1  -6  283.57    8.40
  -2  -1   6  291.07    8.40
  -2  -1   6  297.97    8.60
  -2  -1   6  304.37    8.40
  -2  -1   6  291.97    8.40
  -2  -1   6  290.57    8.60
   1   1  -6  979.30   26.60
   1   1  -6  967.70   26.90
   1   1  -6  939.31   26.40
   1   1  -6  968.90   26.60
   1   1  -6  974.30   26.60
  -1  -1   6  957.40   26.50
  -1  -1   6  988.50   26.60
  -1  -1   6  975.70   26.40
  -1  -1   6  971.30   26.80
  -1  -1   6  968.90   26.60
  -1  -1   6 1033.80   26.70
  -1  -1   6  989.00   26.80
   0   1  -6 1720.63   45.80
   0   1  -6 1696.83   45.80
   0   1  -6 1663.43   45.60
   0   1  -6 1603.34   45.80
   0   1  -6 1763.82   45.60
   0  -1   6 1566.74   45.60
   0  -1   6 1652.23   45.60
   0  -1   6 1737.73   46.00
   0  -1   6 1670.63   45.60
   0  -1   6 1723.23   45.50
   0  -1   6 1731.13   45.70
   0  -1   6 1700.63   45.70
   0  -1   6 1706.53   45.60
  -1   1  -6   71.49    2.60
  -1   1  -6   73.29    2.50
  -1   1  -6   79.29    2.60
  -1   1  -6   73.89    2.40
  -1   1  -6   72.59    2.30
   1  -1   6   74.19    2.50
   1  -1   6   77.69    2.60
   1  -1   6   74.79    2.40
   1  -1   6   75.49    2.60
   1  -1   6   76.89    2.50
  -2   1  -6  199.28    6.10
  -2   1  -6  205.58    6.00
  -2   1  -6  188.98    5.80
  -2   1  -6  202.98    6.20
   2  -1   6  189.38    6.00
   2  -1   6  197.58    5.80
   2  -1   6  198.98    6.20
   2  -1   6  201.18    5.90
   2  -1   6  204.38    6.10
  -3   1  -6    7.50    1.00
  -3   1  -6    7.50    0.80
  -3   1  -6    8.70    1.40
   3  -1   6    6.60    0.80
   3  -1   6    7.20    1.40
   3  -1   6    5.60    1.00
  -4   1  -6   61.19    2.90
  -4   1  -6   60.69    2.40
   4  -1   6   56.59    2.80
   4  -1   6   58.59    2.40
  -5   1  -6  285.97    8.50
  -5   1  -6  281.67    9.30
   5  -1   6  285.97    9.60
   5  -1   6  284.47    9.10
   5  -1   6  289.27    8.40
  -6   1  -6    8.70    2.30
  -6   1  -6   11.10    1.70
   6  -1   6   12.00    2.30
   6  -1   6   11.80    2.10
  -7   1  -6   82.79    5.90
   7  -1   6   95.99    5.80
   7  -1   6   84.79    5.30
   7   0  -6    7.70    2.20
   7   0  -6    7.20    2.20
  -7   0   6    5.00    2.80
  -7   0   6    4.70    3.40
   6   0  -6   67.29    2.90
   6   0  -6   66.99    3.80
   6   0  -6   68.39    3.90
  -6   0   6   73.39    5.20
   5   0  -6   36.60    2.10
   5   0  -6   37.40    1.90
   5   0  -6   33.70    2.40
  -5   0   6   36.50    3.50
  -5   0   6   37.40    3.10
  -5   0   6   36.30    2.40
   4   0  -6   65.59    3.20
   4   0  -6   63.49    2.40
   4   0  -6   64.39    2.50
   4   0  -6   64.69    2.70
  -4   0   6   61.09    2.90
  -4   0   6   66.19    2.60
  -4   0   6   63.79    3.10
  -4   0   6   65.69    3.40
  -4   0   6   60.99    3.30
   3   0  -6    0.80    0.70
   3   0  -6    1.10    0.60
   3   0  -6    0.80    0.50
   3   0  -6    0.30    0.50
  -3   0   6    1.20    0.70
  -3   0   6    0.90    0.70
  -3   0   6    1.50    0.90
  -3   0   6    0.50    0.90
   2   0  -6 2217.78   62.49
   2   0  -6 2348.36   62.29
   2   0  -6 2369.16   62.49
   2   0  -6 2332.17   62.69
   2   0  -6 2454.15   62.79
  -2   0   6 2278.77   62.39
  -2   0   6 2260.77   62.49
  -2   0   6 2390.56   62.59
  -2   0   6 2110.99   62.59
   1   0  -6  653.63   18.20
   1   0  -6  647.74   18.00
   1   0  -6  665.93   18.20
   1   0  -6  648.34   18.00
   1   0  -6  663.03   18.30
  -1   0   6  668.53   18.10
  -1   0   6  652.03   18.30
  -1   0   6  670.73   18.10
  -1   0   6  685.03   18.30
  -1   0   6  667.93   18.20
  -1   0   6  676.83   18.30
   0   0  -6  140.39    3.90
   0   0  -6  139.59    4.10
   0   0  -6  126.99    4.00
   0   0   6  142.59    4.20
   0   0   6  134.89    4.00
   0   0   6  140.89    4.10
   0   0   6  135.59    3.90
   0   0   6  138.89    4.20
  -1   0  -6   99.59    3.20
  -1   0  -6   92.19    3.20
  -1   0  -6   98.79    3.10
  -1   0  -6   96.39    3.00
   1   0   6   99.69    3.00
   1   0   6   99.99    2.90
   1   0   6   96.59    3.20
   1   0   6  102.59    3.40
   1   0   6   98.89    3.10
  -2   0  -6    2.10    0.60
  -2   0  -6    2.90    0.80
  -2   0  -6    1.70    0.50
  -2   0  -6    2.50    0.30
   2   0   6    2.10    0.80
   2   0   6    2.80    1.00
   2   0   6    1.60    0.60
   2   0   6    1.90    0.40
   2   0   6    2.30    0.60
  -3   0  -6   34.20    2.10
  -3   0  -6   33.30    1.30
  -3   0  -6   30.10    2.30
   3   0   6   31.20    2.70
   3   0   6   34.60    2.10
   3   0   6   33.90    1.90
   3   0   6   34.50    2.60
   3   0   6   35.50    1.40
  -4   0  -6    3.70    1.20
  -4   0  -6    4.30    0.80
   4   0   6    5.20    1.20
   4   0   6    3.80    1.10
   4   0   6    2.90    0.60
  -5   0  -6  195.78    6.10
  -5   0  -6  204.48    7.20
   5   0   6  201.88    5.80
   5   0   6  199.48    7.00
   5   0   6  195.78    6.90
  -6   0  -6    2.50    2.30
   6   0   6    0.40    1.90
   6   0   6    2.70    1.80
  -7   0  -6   -2.70    2.90
   7   0   6   -1.30    2.60
   7  -1  -6    9.00    2.20
   7  -1  -6   11.40    1.90
  -7   1   6   10.50    2.60
  -7   1   6    7.90    3.00
   6  -1  -6   43.30    2.70
   6  -1  -6   38.60    3.00
   6  -1  -6   36.50    2.90
  -6   1   6   40.20    4.60
  -6   1   6   36.70    3.60
  -6   1   6   41.20    3.70
   5  -1  -6    9.70    1.90
   5  -1  -6    8.40    1.30
   5  -1  -6    8.30    1.30
  -5   1   6   11.00    2.10
  -5   1   6   11.10    2.00
  -5   1   6    7.90    1.70
  -5   1   6   12.50    1.70
   4  -1  -6  445.86   12.70
   4  -1  -6  440.36   13.10
   4  -1  -6  450.05   12.70
  -4   1   6  440.66   13.20
  -4   1   6  451.85   12.80
  -4   1   6  446.16   12.90
  -4   1   6  430.96   12.90
   3  -1  -6  229.18    6.80
   3  -1  -6  230.48    7.00
   3  -1  -6  223.28    6.60
   3  -1  -6  230.28    6.80
  -3   1   6  224.78    6.80
  -3   1   6  225.28    7.00
  -3   1   6  214.98    7.00
  -3   1   6  223.88    6.70
   2  -1  -6  513.25   14.40
   2  -1  -6  551.84   14.70
   2  -1  -6  516.85   14.70
   2  -1  -6  514.25   14.50
   2  -1  -6  528.15   14.70
  -2   1   6  532.75   14.60
  -2   1   6  526.65   14.90
  -2   1   6  538.25   14.50
  -2   1   6  514.05   14.60
  -2   1   6  522.75   14.70
   1  -1  -6   98.19    3.20
   1  -1  -6  103.49    3.00
   1  -1  -6   98.59    3.20
   1  -1  -6   94.49    3.10
   1  -1  -6  100.09    3.10
   1  -1  -6   98.19    2.80
  -1   1   6  104.79    3.20
  -1   1   6   98.69    2.90
  -1   1   6  100.59    3.10
  -1   1   6   99.89    3.30
   0  -1  -6   58.09    2.00
   0  -1  -6   59.79    1.90
   0  -1  -6   60.19    2.00
   0  -1  -6   55.79    2.10
   0   1   6   54.39    2.00
   0   1   6   59.69    2.10
   0   1   6   62.29    2.10
   0   1   6   60.59    2.20
   0   1   6   60.59    2.10
  -1  -1  -6   74.79    2.40
  -1  -1  -6   68.99    2.50
  -1  -1  -6   73.19    2.60
  -1  -1  -6   73.59    2.30
  -1  -1  -6   69.59    2.40
  -1  -1  -6   73.69    2.60
   1   1   6   70.89    2.70
   1   1   6   75.09    2.80
   1   1   6   74.19    2.40
   1   1   6   69.99    2.50
  -2  -1  -6  212.58    6.00
  -2  -1  -6  208.08    6.40
  -2  -1  -6  216.18    6.50
   2   1   6  204.38    6.80
   2   1   6  202.58    6.40
   2   1   6  202.98    6.00
   2   1   6  219.28    6.80
  -3  -1  -6  236.68    7.40
  -3  -1  -6  233.98    7.40
   3   1   6  216.18    7.90
   3   1   6  240.88    7.30
   3   1   6  233.98    6.60
  -4  -1  -6  126.59    5.00
  -4  -1  -6  122.09    3.70
   4   1   6  125.59    4.80
  -5  -1  -6    1.90    2.00
  -5  -1  -6    0.60    1.00
   5   1   6    2.40    1.60
  -6  -1  -6    1.70    2.50
   6   1   6   -2.30    2.10
   7  -2  -6    0.90    1.90
  -7   2   6   -1.80    2.70
  -7   2   6    0.30    2.10
   6  -2  -6  159.88    5.90
  -6   2   6  158.08    6.70
  -6   2   6  157.78    6.50
   5  -2  -6   58.89    3.10
   5  -2  -6   52.59    3.50
   5  -2  -6   53.99    3.30
  -5   2   6   61.49    3.50
  -5   2   6   60.79    3.50
  -5   2   6   60.39    3.60
  -5   2   6   59.39    3.40
   4  -2  -6  135.29    4.90
   4  -2  -6  138.09    4.90
   4  -2  -6  136.19    4.80
  -4   2   6  133.89    4.80
  -4   2   6  136.39    4.60
  -4   2   6  130.69    4.90
  -4   2   6  134.49    4.80
   3  -2  -6   20.10    1.70
   3  -2  -6   20.40    1.70
  -3   2   6   19.10    1.50
  -3   2   6   19.20    1.20
  -3   2   6   18.20    1.70
   2  -2  -6  278.27    8.00
   2  -2  -6  268.87    8.10
   2  -2  -6  251.87    7.90
  -2   2   6  283.67    7.90
  -2   2   6  259.47    8.20
  -2   2   6  276.37    7.80
   1  -2  -6  695.03   19.50
   1  -2  -6  704.63   19.70
   1  -2  -6  732.43   19.70
   1  -2  -6  707.33   19.60
   1  -2  -6  693.83   19.20
  -1   2   6  742.23   19.60
  -1   2   6  719.33   19.50
  -1   2   6  680.43   19.90
  -1   2   6  728.83   19.60
   0  -2  -6 1018.30   27.20
   0  -2  -6  988.40   27.20
   0  -2  -6 1017.70   27.30
   0  -2  -6  928.41   27.20
   0  -2  -6 1003.00   27.20
   0   2   6 1003.90   27.30
   0   2   6  975.00   27.00
   0   2   6 1006.90   27.10
   0   2   6 1018.30   27.30
   0   2   6  970.00   27.40
   0   2   6 1008.30   26.90
   0   2   6 1018.40   27.30
   0   2   6  993.80   27.40
  -1  -2  -6   89.09    3.30
  -1  -2  -6  102.69    3.40
  -1  -2  -6   95.69    3.40
  -1  -2  -6  104.79    3.30
  -1  -2  -6  100.29    3.40
  -1  -2  -6   98.89    3.00
   1   2   6  101.29    3.70
   1   2   6   98.79    3.50
   1   2   6   97.29    3.60
  -2  -2  -6 1317.67   35.90
  -2  -2  -6 1339.77   36.50
  -2  -2  -6 1408.46   36.40
  -2  -2  -6 1326.37   36.50
  -2  -2  -6 1306.47   36.40
  -2  -2  -6 1317.37   36.60
   2   2   6 1264.57   36.10
   2   2   6 1373.26   37.00
   2   2   6 1309.27   36.50
  -3  -2  -6   43.80    2.60
  -3  -2  -6   43.90    3.30
   3   2   6   42.40    2.50
  -4  -2  -6   11.70    1.90
   4   2   6   13.60    2.00
  -5  -2  -6  140.09    6.30
   5   2   6  145.69    6.30
  -6  -2  -6   11.50    3.40
   6   2   6   15.70    3.40
   6   2   6   12.30    2.70
   7  -3  -6   17.50    2.50
  -7   3   6   21.40    3.20
  -7   3   6   15.70    2.70
   6  -3  -6   66.09    4.40
   6  -3  -6   63.49    4.00
  -6   3   6   64.59    4.40
  -6   3   6   65.29    4.10
  -6   3   6   58.29    4.30
   5  -3  -6  323.77   10.40
   5  -3  -6  331.97   10.40
  -5   3   6  319.87   10.30
  -5   3   6  312.17   10.60
  -5   3   6  332.17   10.00
  -5   3   6  350.16   10.30
   4  -3  -6   14.40    1.70
   4  -3  -6   11.20    1.40
   4  -3  -6   11.70    1.70
  -4   3   6   14.90    1.50
   3  -3  -6   35.00    2.40
   3  -3  -6   36.90    2.10
   3  -3  -6   38.00    2.40
  -3   3   6   38.30    2.00
  -3   3   6   36.80    1.30
  -3   3   6   39.80    1.70
  -3   3   6   40.90    2.10
   2  -3  -6 1004.10   27.40
   2  -3  -6  988.30   27.70
   2  -3  -6  922.61   27.30
   2  -3  -6  986.60   27.50
  -2   3   6 1022.50   27.30
  -2   3   6 1020.40   27.10
  -2   3   6 1016.20   27.00
  -2   3   6  969.80   27.30
   1  -3  -6   98.89    3.60
   1  -3  -6  105.79    3.30
   1  -3  -6  103.29    3.50
   1  -3  -6  107.39    3.10
   1  -3  -6  104.69    3.60
   1  -3  -6  108.49    2.90
  -1   3   6  109.19    3.50
  -1   3   6  104.89    3.50
  -1   3   6  102.49    3.40
  -1   3   6   96.99    3.50
  -1   3   6  107.89    3.40
   0  -3  -6  645.74   17.40
   0  -3  -6  611.44   17.40
   0  -3  -6  615.14   17.30
   0  -3  -6  637.04   17.50
   0  -3  -6  644.34   17.40
   0   3   6  640.14   17.40
   0   3   6  638.14   17.50
   0   3   6  600.44   17.60
   0   3   6  606.74   17.00
   0   3   6  602.54   17.30
   0   3   6  618.94   17.20
   0   3   6  618.84   17.40
  -1  -3  -6   49.99    2.20
  -1  -3  -6   48.70    1.90
  -1  -3  -6   50.59    2.40
  -1  -3  -6   47.40    2.30
  -1  -3  -6   45.90    2.10
   1   3   6   52.19    2.00
   1   3   6   51.59    2.80
   1   3   6   49.20    1.70
   1   3   6   47.70    2.40
   1   3   6   50.09    2.60
  -2  -3  -6   12.90    0.90
  -2  -3  -6   10.00    1.40
  -2  -3  -6   10.80    1.30
  -2  -3  -6   14.00    1.50
  -2  -3  -6   15.20    1.50
   2   3   6   14.60    1.40
   2   3   6   14.50    2.00
   2   3   6   16.30    2.20
   2   3   6   12.00    1.50
  -3  -3  -6   28.10    2.20
  -3  -3  -6   34.60    2.70
   3   3   6   26.60    2.60
   3   3   6   27.80    2.20
  -4  -3  -6   49.40    3.80
  -4  -3  -6   52.49    3.40
   4   3   6   50.99    3.30
   4   3   6   50.69    3.70
  -5  -3  -6   71.89    5.20
   5   3   6   77.19    4.70
   5   3   6   83.39    5.20
   7  -4  -6    0.90    2.40
   7  -4  -6   -1.80    2.80
  -7   4   6    2.80    2.30
  -7   4   6    3.10    2.40
   6  -4  -6   64.59    4.50
   6  -4  -6   55.79    4.40
  -6   4   6   60.39    3.90
  -6   4   6   58.29    3.90
   5  -4  -6    0.50    1.70
   5  -4  -6    1.50    1.80
  -5   4   6    0.80    1.30
  -5   4   6    0.20    1.30
  -5   4   6    1.20    1.30
   4  -4  -6   78.79    3.90
   4  -4  -6   66.89    3.30
  -4   4   6   72.49    3.10
  -4   4   6   70.59    2.50
  -4   4   6   69.99    2.60
   3  -4  -6    4.50    1.30
   3  -4  -6    2.70    1.40
   3  -4  -6    6.50    1.20
  -3   4   6    5.40    0.60
  -3   4   6    6.40    1.00
  -3   4   6    4.00    1.10
   2  -4  -6  711.23   19.30
   2  -4  -6  706.53   19.90
   2  -4  -6  689.23   19.50
   2  -4  -6  681.33   18.70
  -2   4   6  681.53   19.20
  -2   4   6  698.63   19.50
  -2   4   6  663.23   19.30
  -2   4   6  674.43   18.90
  -2   4   6  690.33   19.00
   1  -4  -6    9.10    0.90
   1  -4  -6    6.80    1.20
   1  -4  -6    9.30    1.30
   1  -4  -6   10.30    0.80
   1  -4  -6   10.60    1.10
   1  -4  -6    9.70    1.00
  -1   4   6    9.30    1.10
  -1   4   6   11.00    1.10
  -1   4   6   11.20    1.10
  -1   4   6   10.30    1.20
  -1   4   6   10.40    1.00
   0  -4  -6  961.40   26.90
   0  -4  -6  957.70   26.90
   0  -4  -6  947.91   26.80
   0  -4  -6  990.30   26.90
   0  -4  -6  995.20   27.10
   0  -4  -6  921.21   27.10
   0   4   6  943.31   27.00
   0   4   6 1000.60   26.50
   0   4   6  984.70   27.00
   0   4   6  990.80   27.10
   0   4   6  967.70   26.80
   0   4   6 1018.50   27.00
   0   4   6  996.20   27.30
  -1  -4  -6    1.20    0.80
  -1  -4  -6    4.20    1.30
  -1  -4  -6    3.50    1.00
  -1  -4  -6    1.40    1.20
  -1  -4  -6    2.80    0.80
   1   4   6    2.50    0.80
   1   4   6    2.90    0.70
   1   4   6    3.40    1.40
   1   4   6    3.90    1.10
   1   4   6    3.00    1.60
  -2  -4  -6    2.30    1.00
  -2  -4  -6    2.80    0.60
  -2  -4  -6    1.30    2.00
  -2  -4  -6    2.50    1.20
   2   4   6    2.20    1.00
   2   4   6    2.10    1.30
  -3  -4  -6  659.83   19.00
  -3  -4  -6  671.63   19.40
   3   4   6  651.03   18.90
   3   4   6  659.83   19.40
  -4  -4  -6  106.59    5.00
  -4  -4  -6  117.79    5.60
   4   4   6  108.19    5.60
   4   4   6  106.59    4.90
  -5  -4  -6    3.80    3.00
  -5  -4  -6    9.80    2.40
   5   4   6    5.00    2.40
   5   4   6    8.30    3.00
   7  -5  -6    8.60    3.00
   7  -5  -6    8.00    3.10
  -7   5   6   12.90    2.60
  -7   5   6    4.30    3.00
   6  -5  -6  118.89    6.30
   6  -5  -6  125.09    6.00
  -6   5   6  118.29    5.30
  -6   5   6  134.39    6.50
  -6   5   6  140.39    6.50
   5  -5  -6   15.50    2.20
   5  -5  -6   21.30    2.90
  -5   5   6   22.20    2.10
  -5   5   6   22.60    2.30
  -5   5   6   23.70    2.80
  -5   5   6   20.90    2.20
  -5   5   6   24.40    2.30
   4  -5  -6  431.66   13.80
   4  -5  -6  447.56   13.30
  -4   5   6  440.76   12.20
  -4   5   6  462.95   13.60
  -4   5   6  450.95   12.80
  -4   5   6  429.46   12.40
   3  -5  -6  210.78    7.20
   3  -5  -6  191.48    6.40
  -3   5   6  194.98    5.60
  -3   5   6  197.28    5.90
  -3   5   6  191.28    6.60
  -3   5   6  187.58    6.70
   2  -5  -6   14.00    1.10
   2  -5  -6   14.90    1.60
   2  -5  -6    9.70    1.70
  -2   5   6   15.60    1.40
  -2   5   6   14.80    1.40
  -2   5   6   11.70    1.50
  -2   5   6   14.90    1.50
   1  -5  -6    0.30    0.60
   1  -5  -6    1.50    1.30
   1  -5  -6    0.30    1.40
   1  -5  -6    1.00    0.90
   1  -5  -6    1.30    0.70
   1  -5  -6    0.70    0.60
  -1   5   6    0.20    1.00
  -1   5   6    0.30    0.80
  -1   5   6   -0.30    0.90
  -1   5   6    1.00    1.00
   0  -5  -6   51.99    2.80
   0  -5  -6   59.59    2.40
   0  -5  -6   56.09    2.60
   0  -5  -6   57.39    3.00
   0   5   6   55.09    3.10
   0   5   6   57.59    2.50
   0   5   6   49.30    3.20
   0   5   6   55.79    2.20
   0   5   6   51.69    2.70
   0   5   6   57.99    3.00
  -1  -5  -6  339.57   10.00
  -1  -5  -6  330.57   10.30
  -1  -5  -6  333.77   10.00
  -1  -5  -6  329.47    9.70
   1   5   6  325.27   10.50
   1   5   6  301.57   10.70
   1   5   6  338.27   10.00
   1   5   6  346.47    9.50
   1   5   6  322.37    9.60
  -2  -5  -6  661.43   18.90
  -2  -5  -6  663.03   19.00
  -2  -5  -6  654.33   18.00
   2   5   6  663.73   19.40
   2   5   6  639.64   18.60
  -3  -5  -6  193.88    7.10
  -3  -5  -6  191.48    6.80
   3   5   6  183.28    7.50
   3   5   6  185.38    6.70
  -4  -5  -6   -0.50    2.00
  -4  -5  -6    2.90    2.30
   4   5   6    0.30    2.00
   4   5   6   -2.10    2.70
   7  -6  -6  250.17   10.10
   7  -6  -6  234.98   10.10
  -7   6   6  240.58    8.60
  -7   6   6  246.38   10.20
   6  -6  -6  246.38    9.50
   6  -6  -6  275.77   10.30
  -6   6   6  269.67   10.00
  -6   6   6  267.57    8.70
   5  -6  -6    3.40    2.50
   5  -6  -6    3.60    1.80
  -5   6   6    2.90    2.00
  -5   6   6    1.50    1.40
   4  -6  -6   24.20    3.10
   4  -6  -6   28.00    2.90
  -4   6   6   23.90    2.10
  -4   6   6   25.50    2.50
  -4   6   6   28.50    2.90
   3  -6  -6   15.00    1.60
   3  -6  -6   15.90    2.50
   3  -6  -6   11.90    1.50
  -3   6   6   15.80    2.10
  -3   6   6   11.30    1.80
  -3   6   6   16.50    1.80
   2  -6  -6  912.61   25.20
   2  -6  -6  911.11   24.60
   2  -6  -6  865.51   26.40
  -2   6   6  893.01   25.40
  -2   6   6  910.21   24.60
  -2   6   6  884.21   24.60
  -2   6   6  895.51   25.40
   1  -6  -6    2.90    0.90
   1  -6  -6    1.90    0.70
   1  -6  -6    2.20    1.10
   1  -6  -6    2.60    1.00
   1  -6  -6    2.50    1.70
  -1   6   6    2.00    1.40
  -1   6   6    3.70    1.30
  -1   6   6   -0.30    1.10
  -1   6   6    2.60    1.40
   0  -6  -6  313.77   10.20
   0  -6  -6  316.37   10.40
   0  -6  -6  338.37   10.30
   0  -6  -6  355.46    9.90
   0   6   6  356.66   10.10
   0   6   6  349.07   10.40
   0   6   6  325.67   10.90
   0   6   6  330.97   10.60
  -1  -6  -6    4.20    1.40
  -1  -6  -6    1.80    1.40
  -1  -6  -6    2.00    1.30
   1   6   6    4.00    1.20
   1   6   6    1.70    1.10
   1   6   6    2.30    1.90
  -2  -6  -6   88.39    4.20
  -2  -6  -6   79.89    3.50
   2   6   6   90.49    5.20
   2   6   6   83.59    4.00
  -3  -6  -6    2.90    2.40
  -3  -6  -6   -0.80    1.90
   3   6   6   -4.90    2.40
   3   6   6   -1.30    1.80
   6  -7  -6   13.60    3.80
   6  -7  -6    4.00    2.90
  -6   7   6    7.70    2.90
  -6   7   6    6.30    3.40
   5  -7  -6    0.00    2.90
   5  -7  -6    5.70    2.10
  -5   7   6    5.80    2.30
  -5   7   6    4.50    2.60
   4  -7  -6  177.98    6.60
   4  -7  -6  163.58    7.70
  -4   7   6  160.58    6.70
  -4   7   6  172.08    7.00
   3  -7  -6   85.29    4.10
   3  -7  -6   84.09    5.40
  -3   7   6   87.49    4.60
  -3   7   6   92.39    4.90
   2  -7  -6    0.10    2.20
   2  -7  -6    2.00    1.20
   2  -7  -6    4.20    1.40
  -2   7   6    5.30    2.00
  -2   7   6    3.80    2.00
   1  -7  -6    5.00    1.40
   1  -7  -6    4.50    1.00
   1  -7  -6    3.90    1.60
   1  -7  -6    4.30    2.20
  -1   7   6    6.20    1.60
  -1   7   6    4.90    1.60
   0  -7  -6   93.99    4.30
   0  -7  -6   99.09    3.80
   0  -7  -6   90.59    5.30
   0   7   6  104.79    4.20
   0   7   6   91.29    4.50
  -1  -7  -6   89.49    4.40
  -1  -7  -6   97.49    4.20
  -1  -7  -6  100.59    5.80
   1   7   6   96.99    4.00
   1   7   6   88.59    4.10
   1   7   6   93.79    5.60
  -2  -7  -6   26.20    2.80
  -2  -7  -6   32.90    3.50
   2   7   6   22.20    3.30
   2   7   6   27.40    4.50
   5  -8  -6   69.59    5.10
   5  -8  -6   68.79    6.80
  -5   8   6   81.99    6.50
  -5   8   6   71.19    5.50
   4  -8  -6  154.88    6.50
   4  -8  -6  163.08    8.20
  -4   8   6  147.89    7.00
  -4   8   6  151.98    7.10
   3  -8  -6   30.30    2.70
   3  -8  -6   26.70    3.90
  -3   8   6   28.70    3.20
  -3   8   6   32.30    3.80
   2  -8  -6   20.40    3.60
   2  -8  -6   22.50    2.40
  -2   8   6   25.00    2.70
  -2   8   6   22.10    2.70
   1  -8  -6    0.50    1.80
   1  -8  -6    1.20    2.80
  -1   8   6    1.00    1.90
  -1   8   6    2.00    1.90
   0  -8  -6   64.79    5.90
   0  -8  -6   74.99    4.20
   0   8   6   72.39    4.60
  -1  -8  -6    2.20    1.80
  -1  -8  -6    3.30    3.30
  -1  -8  -6   -0.10    2.10
   4  -9  -6   25.80    3.20
  -4   9   6   26.50    3.90
  -4   9   6   28.70    4.00
   3  -9  -6    2.80    4.00
   3  -9  -6   -1.10    2.20
  -3   9   6    6.80    3.00
  -3   9   6    0.90    2.60
   2  -9  -6    6.10    4.00
   2  -9  -6   12.10    2.50
  -2   9   6   10.10    3.00
  -2   9   6    7.30    2.70
   1  -9  -6    0.20    2.30
   1  -9  -6    3.40    3.60
  -1   9   6    2.90    2.60
  -1   9   6    1.20    2.70
   0   9  -7  368.76   13.70
   0   9  -7  365.36   12.60
   0  -9   7  371.76   12.10
  -1   9  -7  105.69    7.60
  -1   9  -7  119.89    6.40
  -1   9  -7  117.39    6.30
   1  -9   7  126.59    6.40
   1  -9   7  125.09    6.30
  -2   9  -7    4.60    2.80
  -2   9  -7    2.10    2.80
  -2   9  -7    8.10    3.80
   2  -9   7    6.00    2.70
   2  -9   7    4.00    2.80
  -3   9  -7  138.19    7.90
  -3   9  -7  136.89    7.10
  -3   9  -7  133.89    7.60
   3  -9   7  147.69    7.90
   3  -9   7  158.48    7.50
  -2  -8   7   56.29    3.40
  -2  -8   7   43.70    4.30
   1   8  -7   57.39    5.10
   1   8  -7   56.19    4.30
  -1  -8   7   61.69    5.00
  -1  -8   7   49.20    3.50
  -1  -8   7   49.80    4.90
   0   8  -7   11.80    2.40
   0   8  -7    8.40    2.30
   0   8  -7    6.80    3.10
   0  -8   7   10.30    2.40
   0  -8   7   10.60    2.10
   0  -8   7   11.40    2.20
  -1   8  -7   98.09    5.00
  -1   8  -7   94.49    5.10
  -1   8  -7   93.29    6.10
   1  -8   7  102.59    4.60
   1  -8   7  101.79    5.10
   1  -8   7   91.29    5.00
  -2   8  -7    0.80    2.10
  -2   8  -7    0.80    2.00
  -2   8  -7   -3.50    2.50
   2  -8   7    1.50    2.20
   2  -8   7    0.20    2.20
  -3   8  -7    3.50    2.40
  -3   8  -7    4.70    2.30
  -3   8  -7    8.40    2.90
   3  -8   7    5.50    2.60
   3  -8   7    9.10    2.70
  -4   8  -7  181.68    8.00
  -4   8  -7  171.88    7.60
  -4   8  -7  171.88    7.90
   4  -8   7  185.48    7.90
   4  -8   7  176.98    8.40
  -5   8  -7   16.80    3.60
  -5   8  -7   10.50    3.20
  -5   8  -7   13.40    3.60
   5  -8   7   14.70    3.70
   5  -8   7   14.00    3.80
   3   7  -7  164.08    7.00
   3   7  -7  168.28    7.00
  -3  -7   7  169.68    8.30
  -3  -7   7  160.38    6.30
  -3  -7   7  143.69    6.30
   2   7  -7  254.07    9.00
   2   7  -7  276.37   10.50
  -2  -7   7  263.77    8.00
  -2  -7   7  258.07    8.20
  -2  -7   7  266.17    8.20
  -2  -7   7  257.67    9.80
   1   7  -7    3.20    2.60
   1   7  -7    2.60    1.80
  -1  -7   7    5.40    1.60
  -1  -7   7    3.50    0.90
  -1  -7   7    2.50    2.10
  -1  -7   7    4.80    1.50
   0   7  -7    8.60    1.90
   0   7  -7    8.10    2.50
   0  -7   7    7.60    1.70
   0  -7   7   13.20    1.80
   0  -7   7   11.30    1.70
  -1   7  -7   10.20    1.90
  -1   7  -7   12.70    2.00
  -1   7  -7    9.60    2.40
   1  -7   7   10.60    1.80
   1  -7   7   15.90    2.10
   1  -7   7   13.70    1.50
  -2   7  -7  333.67   10.90
  -2   7  -7  325.37   10.50
   2  -7   7  327.77   10.80
   2  -7   7  306.77   11.30
  -3   7  -7  126.39    6.00
  -3   7  -7  130.39    5.60
  -3   7  -7  131.19    5.80
   3  -7   7  128.69    6.10
   3  -7   7  128.49    5.80
  -4   7  -7  229.58    8.40
  -4   7  -7  219.58    8.50
  -4   7  -7  224.88    8.50
   4  -7   7  226.38    8.60
   4  -7   7  239.88    9.00
  -5   7  -7   22.80    3.20
  -5   7  -7   19.50    3.10
   5  -7   7   18.10    3.30
   5  -7   7   22.30    3.40
  -6   7  -7    5.00    3.30
  -6   7  -7    2.40    3.50
   6  -7   7    4.60    3.30
   4   6  -7   -0.10    2.30
   4   6  -7   -3.70    2.00
  -4  -6   7    0.90    3.20
  -4  -6   7   -0.20    2.00
   3   6  -7   10.90    2.00
   3   6  -7   17.50    2.30
  -3  -6   7   14.80    3.10
  -3  -6   7   14.20    1.40
  -3  -6   7   12.60    2.10
   2   6  -7   19.30    2.10
   2   6  -7   16.30    1.90
   2   6  -7   16.10    2.90
  -2  -6   7   18.40    1.70
  -2  -6   7   14.60    1.90
  -2  -6   7   18.70    1.90
  -2  -6   7   21.00    2.80
  -2  -6   7   20.40    2.00
   1   6  -7   67.09    3.50
   1   6  -7   72.89    3.60
   1   6  -7   65.29    5.50
  -1  -6   7   70.79    3.10
  -1  -6   7   69.99    2.90
  -1  -6   7   67.39    3.20
  -1  -6   7   70.09    2.80
  -1  -6   7   72.69    2.50
  -1  -6   7   66.29    3.10
   0   6  -7  591.34   17.50
   0   6  -7  587.14   16.80
   0   6  -7  576.14   16.80
   0  -6   7  556.24   16.40
   0  -6   7  576.54   15.80
   0  -6   7  596.64   16.60
   0  -6   7  544.25   16.40
   0  -6   7  570.04   15.70
   0  -6   7  579.24   15.90
   0  -6   7  599.24   16.80
  -1   6  -7  430.16   14.30
  -1   6  -7  506.55   14.70
  -1   6  -7  478.25   14.10
  -1   6  -7  484.55   14.20
   1  -6   7  459.45   13.80
   1  -6   7  479.55   14.30
   1  -6   7  476.05   13.50
   1  -6   7  493.25   14.10
  -2   6  -7    6.30    1.50
  -2   6  -7    8.60    1.60
  -2   6  -7    5.20    1.70
   2  -6   7    6.00    1.00
   2  -6   7    5.30    1.50
   2  -6   7    7.10    1.80
   2  -6   7    6.90    2.30
  -3   6  -7  105.29    4.70
  -3   6  -7  107.99    4.90
  -3   6  -7  112.29    4.80
   3  -6   7  103.29    3.90
   3  -6   7  108.49    5.00
  -4   6  -7   -2.10    1.50
  -4   6  -7    0.20    1.90
   4  -6   7   -1.70    1.90
   4  -6   7    0.70    2.00
  -5   6  -7    1.00    2.30
  -5   6  -7    1.20    1.80
  -5   6  -7   -1.10    2.10
   5  -6   7   -1.80    2.10
   5  -6   7   -1.60    2.20
  -6   6  -7   95.89    5.80
   6  -6   7   76.49    5.70
   6  -6   7   81.79    5.80
   5   5  -7   14.60    2.70
   5   5  -7   15.20    2.90
  -5  -5   7   13.60    4.10
  -5  -5   7   15.50    2.90
   4   5  -7   14.10    2.10
   4   5  -7   13.90    2.30
  -4  -5   7   16.20    2.50
  -4  -5   7   13.30    3.20
  -4  -5   7   14.00    1.40
   3   5  -7    0.30    1.40
   3   5  -7   -1.20    1.30
  -3  -5   7   -1.50    1.90
  -3  -5   7   -1.10    0.80
  -3  -5   7    1.30    1.50
   2   5  -7  165.18    5.40
   2   5  -7  160.68    6.50
   2   5  -7  156.48    5.50
  -2  -5   7  148.59    5.10
  -2  -5   7  156.48    4.70
  -2  -5   7  161.58    5.10
  -2  -5   7  152.58    5.30
   1   5  -7 1475.75   40.40
   1   5  -7 1478.15   40.40
   1   5  -7 1502.15   41.10
  -1  -5   7 1428.06   39.70
  -1  -5   7 1459.95   40.00
  -1  -5   7 1464.65   40.20
  -1  -5   7 1493.35   40.00
  -1  -5   7 1468.25   39.90
  -1  -5   7 1438.66   40.00
   0   5  -7    1.90    1.20
   0   5  -7    3.10    1.00
   0   5  -7    3.30    1.00
   0   5  -7    2.90    1.30
   0  -5   7    2.30    1.00
   0  -5   7    3.90    0.70
   0  -5   7    3.30    0.90
   0  -5   7    3.70    1.10
   0  -5   7    3.90    1.10
  -1   5  -7    4.60    1.60
  -1   5  -7    6.10    1.10
  -1   5  -7    5.30    1.40
  -1   5  -7    7.90    1.30
   1  -5   7    5.70    1.10
   1  -5   7    6.60    1.20
   1  -5   7    7.00    0.90
   1  -5   7    6.20    1.20
   1  -5   7    6.00    1.00
  -2   5  -7  552.84   17.00
  -2   5  -7  571.64   16.50
  -2   5  -7  553.54   16.50
  -2   5  -7  561.94   16.70
   2  -5   7  580.64   16.60
   2  -5   7  588.84   16.80
   2  -5   7  590.84   16.00
   2  -5   7  571.74   16.00
  -3   5  -7  111.79    4.50
  -3   5  -7  103.59    4.60
  -3   5  -7  112.39    3.90
  -3   5  -7  107.99    3.30
   3  -5   7  111.59    4.00
   3  -5   7  107.29    4.60
   3  -5   7  118.89    4.80
  -4   5  -7   56.39    3.30
  -4   5  -7   54.89    2.50
  -4   5  -7   56.79    2.70
   4  -5   7   48.40    4.10
   4  -5   7   49.30    3.30
   4  -5   7   54.99    3.60
  -5   5  -7  104.59    5.00
  -5   5  -7  103.59    4.20
   5  -5   7  101.09    5.10
   5  -5   7  107.69    5.30
  -6   5  -7   97.99    5.40
  -6   5  -7   97.89    4.50
   6  -5   7   96.19    5.70
   6  -5   7   91.69    5.40
   6   4  -7   24.20    3.20
   6   4  -7   26.20    3.40
  -6  -4   7   25.00    4.80
   5   4  -7   40.20    3.70
   5   4  -7   33.50    3.50
  -5  -4   7   40.60    4.10
  -5  -4   7   40.50    4.60
   4   4  -7  294.97    9.10
   4   4  -7  267.77    9.00
   4   4  -7  285.07    9.20
  -4  -4   7  287.87    9.60
  -4  -4   7  295.87    8.50
  -4  -4   7  280.87   10.40
   3   4  -7  268.47    9.20
   3   4  -7  274.47    8.20
   3   4  -7  257.87    8.40
   3   4  -7  258.77    8.40
  -3  -4   7  255.77    8.40
  -3  -4   7  275.97    7.90
  -3  -4   7  266.67    8.60
   2   4  -7  139.89    5.20
   2   4  -7  139.19    4.90
   2   4  -7  140.89    5.60
   2   4  -7  146.09    4.70
  -2  -4   7  149.19    5.00
  -2  -4   7  134.99    5.00
  -2  -4   7  141.39    4.50
  -2  -4   7  137.89    4.40
  -2  -4   7  139.49    4.70
   1   4  -7  156.18    5.70
   1   4  -7  169.78    6.00
   1   4  -7  164.78    5.30
   1   4  -7  160.88    5.30
  -1  -4   7  165.58    5.40
  -1  -4   7  171.68    4.90
  -1  -4   7  155.98    5.70
  -1  -4   7  161.38    5.60
  -1  -4   7  162.28    5.50
  -1  -4   7  171.08    5.20
  -1  -4   7  172.68    5.20
  -1  -4   7  165.08    5.00
   0   4  -7  120.49    4.80
   0   4  -7  125.99    4.30
   0   4  -7  125.19    4.40
   0   4  -7  131.79    4.30
   0   4  -7  121.19    4.70
   0  -4   7  130.89    4.30
   0  -4   7  124.79    4.00
   0  -4   7  130.09    4.00
   0  -4   7  128.09    4.10
   0  -4   7  128.99    4.30
   0  -4   7  125.79    4.60
   0  -4   7  128.49    4.60
   0  -4   7  127.99    4.40
  -1   4  -7   63.29    2.90
  -1   4  -7   59.39    2.60
  -1   4  -7   58.09    3.00
  -1   4  -7   60.19    2.60
   1  -4   7   62.69    2.30
   1  -4   7   59.29    2.60
   1  -4   7   63.59    3.00
   1  -4   7   58.39    2.70
   1  -4   7   59.19    2.70
   1  -4   7   60.99    2.40
  -2   4  -7  369.26   11.60
  -2   4  -7  404.06   11.40
  -2   4  -7  377.76   11.80
  -2   4  -7  389.96   11.20
   2  -4   7  375.96   11.50
   2  -4   7  400.06   11.20
   2  -4   7  397.16   11.50
   2  -4   7  399.96   11.10
   2  -4   7  382.46   11.50
  -3   4  -7  692.03   19.50
  -3   4  -7  694.93   19.20
   3  -4   7  722.43   19.60
   3  -4   7  673.03   19.70
   3  -4   7  687.13   19.30
   3  -4   7  642.04   19.50
   3  -4   7  699.63   19.70
  -4   4  -7  169.68    5.30
  -4   4  -7  158.88    5.30
  -4   4  -7  161.38    5.70
   4  -4   7  149.69    5.90
   4  -4   7  150.58    5.80
   4  -4   7  168.28    5.90
  -5   4  -7    0.90    1.90
  -5   4  -7    1.20    1.30
  -5   4  -7    2.50    1.60
   5  -4   7    0.50    1.60
   5  -4   7   -0.20    1.50
  -6   4  -7   -1.40    2.00
  -6   4  -7    1.20    1.90
   6  -4   7    1.50    2.00
   6  -4   7    0.30    2.10
  -7   4  -7   34.60    3.30
  -7   4  -7   42.40    4.60
   7  -4   7   32.00    4.20
   7  -4   7   23.80    3.60
   6   3  -7   -0.10    2.20
   6   3  -7    3.10    2.30
  -6  -3   7    0.30    3.50
  -6  -3   7   -0.10    2.50
   5   3  -7  186.58    6.50
   5   3  -7  178.18    6.60
  -5  -3   7  175.68    8.00
  -5  -3   7  178.78    5.90
  -5  -3   7  175.58    7.20
   4   3  -7  378.56   11.60
   4   3  -7  371.66   11.20
   4   3  -7  403.66   11.40
  -4  -3   7  387.56   11.10
  -4  -3   7  370.56   12.00
   3   3  -7  212.78    6.60
   3   3  -7  212.78    7.40
   3   3  -7  211.38    6.80
   3   3  -7  214.58    6.50
  -3  -3   7  202.48    6.80
  -3  -3   7  215.28    6.40
  -3  -3   7  209.08    6.70
  -3  -3   7  210.18    7.00
   2   3  -7   58.49    2.20
   2   3  -7   53.99    2.40
   2   3  -7   55.39    3.10
   2   3  -7   56.19    2.60
  -2  -3   7   56.29    2.60
  -2  -3   7   59.59    2.60
  -2  -3   7   58.79    2.50
  -2  -3   7   56.39    2.20
  -2  -3   7   55.39    2.30
  -2  -3   7   51.89    2.60
   1   3  -7    2.90    0.60
   1   3  -7    3.90    0.70
   1   3  -7    4.00    1.00
   1   3  -7    4.00    1.00
   1   3  -7    4.30    0.60
  -1  -3   7    3.50    0.50
  -1  -3   7    5.60    0.80
  -1  -3   7    4.10    0.50
  -1  -3   7    2.70    0.90
  -1  -3   7    7.50    1.00
  -1  -3   7    4.40    0.70
  -1  -3   7    3.40    0.60
  -1  -3   7    5.10    1.00
  -1  -3   7    3.50    0.70
   0   3  -7  878.51   24.20
   0   3  -7  845.02   23.80
   0   3  -7  873.81   24.30
   0   3  -7  879.31   24.00
   0   3  -7  859.51   24.00
   0  -3   7  888.31   24.10
   0  -3   7  853.21   23.90
   0  -3   7  856.01   23.80
   0  -3   7  838.32   23.60
   0  -3   7  874.71   23.70
   0  -3   7  890.91   23.90
   0  -3   7  869.31   24.10
  -1   3  -7 1291.77   37.70
  -1   3  -7 1386.06   37.50
  -1   3  -7 1354.06   37.50
  -1   3  -7 1379.86   37.50
  -1   3  -7 1390.36   37.70
  -1   3  -7 1368.76   37.90
   1  -3   7 1403.26   37.40
   1  -3   7 1351.76   37.60
   1  -3   7 1375.36   37.60
   1  -3   7 1401.36   37.30
   1  -3   7 1398.76   37.50
  -2   3  -7    5.40    0.60
  -2   3  -7    4.40    0.80
  -2   3  -7    3.00    1.10
  -2   3  -7    5.60    0.80
   2  -3   7    4.80    0.90
   2  -3   7    5.20    1.00
   2  -3   7    3.80    0.90
   2  -3   7    5.80    1.00
  -3   3  -7   19.30    1.60
  -3   3  -7   23.00    1.60
  -3   3  -7   20.70    1.60
   3  -3   7   22.20    1.90
   3  -3   7   21.30    2.00
   3  -3   7   22.50    2.00
   3  -3   7   19.50    1.80
   3  -3   7   18.60    2.20
  -4   3  -7  186.38    5.90
  -4   3  -7  179.88    5.80
  -4   3  -7  171.18    6.00
   4  -3   7  170.18    6.50
   4  -3   7  179.58    6.00
   4  -3   7  179.38    6.20
  -5   3  -7   -1.00    1.20
  -5   3  -7    0.70    1.30
   5  -3   7    0.80    1.30
   5  -3   7   -1.00    1.60
  -6   3  -7   62.49    3.90
  -6   3  -7   59.59    3.70
   6  -3   7   64.49    4.20
   6  -3   7   63.49    3.80
  -7   3  -7   81.29    5.30
   7  -3   7   77.79    5.40
   7   2  -7  108.79    6.10
   7   2  -7  104.39    6.20
  -7  -2   7  100.99    8.40
  -7  -2   7  104.09    6.50
   6   2  -7    7.50    2.00
   6   2  -7    7.80    2.00
  -6  -2   7    9.90    3.20
  -6  -2   7    7.40    2.60
   5   2  -7   20.10    2.10
   5   2  -7   25.50    2.40
  -5  -2   7   21.80    2.30
  -5  -2   7   21.60    2.60
  -5  -2   7   29.70    3.40
   4   2  -7   14.00    1.30
   4   2  -7   12.90    1.40
   4   2  -7   15.80    1.70
  -4  -2   7   15.10    2.00
  -4  -2   7   13.50    1.40
   3   2  -7    6.10    0.90
   3   2  -7    6.10    0.80
   3   2  -7    6.60    1.00
   3   2  -7    3.80    1.30
  -3  -2   7    4.30    0.90
  -3  -2   7    7.30    1.20
  -3  -2   7    7.00    1.40
  -3  -2   7    7.90    1.60
  -3  -2   7    4.80    0.80
   2   2  -7   13.40    0.90
   2   2  -7   15.40    1.20
   2   2  -7   14.60    1.30
   2   2  -7   11.80    1.40
  -2  -2   7   15.10    1.40
  -2  -2   7   17.90    1.20
  -2  -2   7   14.40    1.20
  -2  -2   7   14.60    1.70
  -2  -2   7   16.90    1.60
  -2  -2   7   15.90    1.10
   1   2  -7  881.11   24.10
   1   2  -7  851.81   24.40
   1   2  -7  874.91   24.20
   1   2  -7  884.21   24.20
  -1  -2   7  905.11   24.50
  -1  -2   7  878.51   24.30
  -1  -2   7  943.81   24.40
  -1  -2   7  889.01   24.60
  -1  -2   7  888.71   24.40
  -1  -2   7  902.91   24.10
  -1  -2   7  840.52   24.00
  -1  -2   7  924.71   24.40
  -1  -2   7  877.51   24.30
   0   2  -7   55.89    2.00
   0   2  -7   57.89    2.20
   0   2  -7   59.09    2.30
   0   2  -7   57.29    2.40
   0   2  -7   56.59    1.80
   0  -2   7   56.49    1.70
   0  -2   7   63.89    2.20
   0  -2   7   56.39    1.70
   0  -2   7   55.09    2.10
   0  -2   7   56.99    2.20
   0  -2   7   58.79    2.20
   0  -2   7   56.49    2.00
   0  -2   7   59.09    2.20
  -1   2  -7  139.79    4.00
  -1   2  -7  135.79    4.60
  -1   2  -7  140.29    4.40
  -1   2  -7  144.49    4.50
  -1   2  -7  139.29    4.70
  -1   2  -7  143.89    4.60
   1  -2   7  146.59    4.50
   1  -2   7  142.29    4.40
   1  -2   7  145.69    4.40
   1  -2   7  138.39    4.50
   1  -2   7  146.49    4.40
  -2   2  -7   32.60    2.10
  -2   2  -7   36.00    1.70
  -2   2  -7   34.00    2.20
  -2   2  -7   36.10    1.60
   2  -2   7   35.60    2.00
   2  -2   7   37.00    1.90
   2  -2   7   33.50    1.70
   2  -2   7   36.20    1.80
   2  -2   7   33.90    1.80
  -3   2  -7    7.30    1.00
  -3   2  -7    5.40    1.40
  -3   2  -7    6.70    0.90
   3  -2   7    8.10    1.20
   3  -2   7    5.50    1.30
   3  -2   7    8.40    1.00
  -4   2  -7   98.29    3.80
  -4   2  -7   92.49    4.10
  -4   2  -7  103.29    3.70
   4  -2   7   94.39    4.00
   4  -2   7  108.19    3.80
  -5   2  -7   17.10    1.70
  -5   2  -7   17.60    2.00
   5  -2   7   17.00    2.00
   5  -2   7   10.50    1.80
  -6   2  -7   30.20    2.90
  -6   2  -7   30.70    3.40
   6  -2   7   29.30    2.80
   6  -2   7   31.30    2.50
   6  -2   7   25.30    2.70
  -7   2  -7   -0.60    2.60
   7  -2   7    1.00    2.70
   7  -2   7   -1.20    2.70
   7   1  -7   77.49    4.70
   7   1  -7   84.99    5.20
  -7  -1   7   74.89    7.20
  -7  -1   7   66.39    6.80
   6   1  -7   38.40    3.30
   6   1  -7   35.20    3.10
  -6  -1   7   33.60    3.80
  -6  -1   7   29.00    3.90
   5   1  -7    2.30    1.10
   5   1  -7    4.20    1.40
   5   1  -7    4.80    1.10
   5   1  -7    3.80    0.70
  -5  -1   7    2.00    1.80
   4   1  -7    1.60    0.40
   4   1  -7    1.30    0.70
   4   1  -7    1.10    0.90
   4   1  -7    2.80    0.90
  -4  -1   7    1.90    1.00
  -4  -1   7    1.60    1.70
  -4  -1   7    0.40    1.20
  -4  -1   7   -1.80    1.20
   3   1  -7  648.94   17.80
   3   1  -7  620.14   17.50
   3   1  -7  599.14   17.90
   3   1  -7  632.74   17.30
  -3  -1   7  605.14   17.80
  -3  -1   7  636.44   17.60
  -3  -1   7  633.84   17.50
   2   1  -7   -1.10    0.40
   2   1  -7   -0.30    0.60
   2   1  -7   -0.20    0.30
   2   1  -7   -0.70    0.70
   2   1  -7   -0.60    0.30
   2   1  -7    1.60    0.60
   2   1  -7   -0.30    0.20
  -2  -1   7   -0.30    0.40
  -2  -1   7   -0.60    0.40
  -2  -1   7   -1.10    0.60
  -2  -1   7   -0.80    0.80
  -2  -1   7   -0.70    0.50
  -2  -1   7   -0.30    0.60
   1   1  -7   98.19    3.60
   1   1  -7  105.59    3.20
   1   1  -7  113.59    3.50
  -1  -1   7  109.39    3.60
  -1  -1   7  108.79    3.40
  -1  -1   7  110.49    3.30
  -1  -1   7  111.09    3.20
  -1  -1   7  106.89    3.60
  -1  -1   7  114.09    3.60
  -1  -1   7  112.49    3.40
   0   1  -7  101.59    3.40
   0   1  -7  103.29    3.00
   0   1  -7  102.89    3.40
   0   1  -7  105.19    3.30
   0   1  -7  104.19    2.90
   0   1  -7  105.59    3.20
   0  -1   7  105.79    3.30
   0  -1   7  102.59    3.20
   0  -1   7   92.39    3.30
   0  -1   7  105.59    3.00
   0  -1   7  100.39    3.20
   0  -1   7  105.39    3.20
   0  -1   7  103.59    3.30
   0  -1   7  100.09    2.90
  -1   1  -7   13.30    1.20
  -1   1  -7   11.50    0.80
  -1   1  -7   12.90    0.90
  -1   1  -7   11.80    1.10
  -1   1  -7   13.40    1.00
   1  -1   7   13.20    1.00
   1  -1   7   13.70    1.10
   1  -1   7   14.20    1.20
   1  -1   7   12.20    0.90
   1  -1   7   12.20    0.90
  -2   1  -7    2.40    0.80
  -2   1  -7    2.30    0.70
  -2   1  -7    3.30    1.00
   2  -1   7    2.20    0.70
   2  -1   7    2.60    0.90
   2  -1   7    2.00    0.50
   2  -1   7    3.60    0.90
   2  -1   7    4.20    0.60
  -3   1  -7   31.80    2.50
  -3   1  -7   31.90    1.50
  -3   1  -7   31.80    1.90
   3  -1   7   31.70    1.60
   3  -1   7   31.00    2.70
   3  -1   7   35.10    1.90
   3  -1   7   31.50    1.90
   3  -1   7   34.40    2.60
  -4   1  -7  112.99    3.70
  -4   1  -7  108.09    4.20
   4  -1   7  111.49    3.70
   4  -1   7  109.89    4.30
   4  -1   7  114.29    4.20
  -5   1  -7  149.49    4.90
  -5   1  -7  151.98    5.80
   5  -1   7  151.68    5.70
   5  -1   7  150.08    5.70
   5  -1   7  149.49    4.80
  -6   1  -7    7.50    2.30
  -6   1  -7   11.10    2.80
   6  -1   7   11.40    2.30
   6  -1   7   10.70    2.40
  -7   1  -7   20.30    3.30
   7  -1   7   26.30    3.40
   7  -1   7   11.50    3.30
   7   0  -7   13.90    2.60
   7   0  -7   15.70    2.40
  -7   0   7   11.20    3.60
  -7   0   7   13.10    3.10
   6   0  -7    7.70    1.90
   6   0  -7    7.40    1.70
   6   0  -7    8.20    1.20
  -6   0   7    5.20    2.70
  -6   0   7    4.00    2.00
   5   0  -7  327.67   10.00
   5   0  -7  344.37    9.80
   5   0  -7  336.57   10.30
  -5   0   7  357.66   11.30
  -5   0   7  345.87   10.00
  -5   0   7  337.47   11.00
   4   0  -7    0.10    0.70
   4   0  -7   -0.40    1.10
   4   0  -7   -0.50    0.80
  -4   0   7    0.30    1.30
  -4   0   7    0.20    0.90
  -4   0   7   -0.90    1.10
  -4   0   7   -0.70    1.10
   3   0  -7  171.58    5.10
   3   0  -7  173.78    5.30
   3   0  -7  174.48    5.60
   3   0  -7  168.78    5.30
  -3   0   7  174.38    5.70
  -3   0   7  170.78    5.50
  -3   0   7  175.78    5.60
  -3   0   7  174.08    5.60
   2   0  -7   57.09    2.10
   2   0  -7   59.09    2.00
   2   0  -7   57.79    2.30
   2   0  -7   58.29    2.30
   2   0  -7   60.49    2.10
  -2   0   7   57.69    2.40
  -2   0   7   55.49    2.10
  -2   0   7   58.39    2.30
  -2   0   7   56.39    2.20
   1   0  -7    4.20    0.70
   1   0  -7    5.30    0.50
   1   0  -7    5.80    0.70
   1   0  -7    5.50    0.70
   1   0  -7    6.60    0.50
  -1   0   7    5.00    0.70
  -1   0   7    8.80    0.90
  -1   0   7    5.70    0.60
  -1   0   7    5.40    0.80
   0   0  -7    1.40    0.50
   0   0  -7    1.50    0.30
   0   0  -7    1.10    0.30
   0   0  -7    1.40    0.40
   0   0  -7    1.50    0.40
   0   0   7    1.10    0.40
   0   0   7    1.40    0.30
   0   0   7    1.00    0.60
   0   0   7    1.30    0.50
   0   0   7    3.40    0.50
  -1   0  -7  234.98    6.80
  -1   0  -7  238.08    6.90
  -1   0  -7  234.88    7.00
  -1   0  -7  245.38    7.00
   1   0   7  231.48    6.60
   1   0   7  239.78    7.00
   1   0   7  238.88    6.80
   1   0   7  238.08    7.10
   1   0   7  230.58    6.80
   1   0   7  234.78    7.00
  -2   0  -7  699.63   19.20
  -2   0  -7  695.13   19.20
  -2   0  -7  699.83   19.40
  -2   0  -7  673.93   19.30
   2   0   7  705.13   19.60
   2   0   7  705.03   19.60
   2   0   7  682.63   19.30
   2   0   7  691.83   19.30
   2   0   7  687.53   19.00
  -3   0  -7  547.55   16.00
  -3   0  -7  589.24   16.30
  -3   0  -7  571.64   16.40
  -3   0  -7  571.54   15.50
   3   0   7  557.94   16.10
   3   0   7  571.24   15.70
   3   0   7  572.14   16.70
   3   0   7  549.15   16.70
   3   0   7  585.54   16.20
  -4   0  -7   24.20    1.40
  -4   0  -7   26.00    2.40
   4   0   7   25.00    1.40
   4   0   7   25.50    2.20
   4   0   7   25.30    2.20
  -5   0  -7   24.90    2.50
  -5   0  -7   27.70    1.80
   5   0   7   28.90    2.90
   5   0   7   26.50    1.50
   5   0   7   25.00    2.80
  -6   0  -7   20.20    2.80
   6   0   7   22.20    2.80
   6   0   7   25.40    2.80
   7  -1  -7   55.99    4.30
   7  -1  -7   62.29    3.60
  -7   1   7   60.69    4.90
  -7   1   7   57.49    5.80
   6  -1  -7    1.30    1.40
   6  -1  -7    3.00    1.40
  -6   1   7    3.80    2.90
  -6   1   7    2.60    1.80
  -6   1   7    6.90    1.90
   5  -1  -7  295.67    9.30
   5  -1  -7  299.47    9.40
   5  -1  -7  312.77    9.30
   5  -1  -7  327.27   10.10
  -5   1   7  318.87   10.10
  -5   1   7  313.67    9.50
  -5   1   7  312.67    9.90
  -5   1   7  308.37   10.20
   4  -1  -7   11.90    1.30
   4  -1  -7   12.50    1.30
   4  -1  -7    8.40    1.40
   4  -1  -7   14.40    1.70
  -4   1   7   11.80    1.50
  -4   1   7   13.50    1.70
  -4   1   7    9.60    1.50
   3  -1  -7    1.20    0.70
   3  -1  -7    0.10    0.70
   3  -1  -7    0.00    0.50
   3  -1  -7   -0.50    0.60
  -3   1   7   -0.80    0.80
  -3   1   7   -0.30    0.70
  -3   1   7    0.90    1.00
  -3   1   7    0.30    0.70
   2  -1  -7   76.89    2.30
   2  -1  -7   76.19    2.70
   2  -1  -7   75.39    2.70
   2  -1  -7   74.39    2.70
   2  -1  -7   73.99    2.50
  -2   1   7   77.09    2.50
  -2   1   7   73.69    2.70
  -2   1   7   76.39    2.80
  -2   1   7   75.99    2.60
  -2   1   7   73.99    2.90
   1  -1  -7    2.20    0.60
   1  -1  -7    0.90    0.40
   1  -1  -7    0.60    0.40
   1  -1  -7    1.90    0.50
   1  -1  -7    2.10    0.50
  -1   1   7    1.60    0.30
  -1   1   7    1.00    0.50
  -1   1   7    1.10    0.50
  -1   1   7    0.20    0.50
  -1   1   7    0.40    0.40
   0  -1  -7 1280.17   35.90
   0  -1  -7 1339.37   35.90
   0  -1  -7 1277.47   36.00
   0  -1  -7 1313.87   35.90
   0  -1  -7 1361.16   35.80
   0   1   7 1342.77   36.10
   0   1   7 1333.57   36.00
   0   1   7 1352.76   36.00
   0   1   7 1355.96   36.10
   0   1   7 1278.47   36.10
  -1  -1  -7 2860.41   74.49
  -1  -1  -7 2678.83   74.39
  -1  -1  -7 2864.91   74.79
  -1  -1  -7 2849.71   74.29
  -1  -1  -7 2664.53   74.49
  -1  -1  -7 2721.33   74.39
   1   1   7 2807.52   74.69
   1   1   7 2675.83   74.59
   1   1   7 2697.93   74.39
   1   1   7 2727.23   74.99
  -2  -1  -7  504.95   14.80
  -2  -1  -7  535.85   15.00
  -2  -1  -7  511.05   15.00
   2   1   7  545.95   15.00
   2   1   7  542.85   15.30
   2   1   7  519.25   14.60
  -3  -1  -7   44.60    2.50
  -3  -1  -7   41.30    1.90
  -3  -1  -7   42.90    3.00
   3   1   7   42.60    2.40
   3   1   7   49.10    1.80
   3   1   7   43.00    3.10
  -4  -1  -7    6.60    2.20
   4   1   7    6.90    1.40
   4   1   7    7.50    0.80
  -5  -1  -7    1.00    1.80
   5   1   7    0.70    1.80
  -6  -1  -7   84.59    5.60
   6   1   7   77.19    5.30
   7  -2  -7  209.08    7.70
   7  -2  -7  218.18    7.60
  -7   2   7  218.88    9.00
  -7   2   7  203.78    8.40
   6  -2  -7  276.07    9.50
   6  -2  -7  268.67    8.70
  -6   2   7  287.67    9.60
  -6   2   7  252.47    9.10
  -6   2   7  262.37    9.30
   5  -2  -7  138.49    5.50
   5  -2  -7  147.49    5.30
  -5   2   7  142.79    5.70
  -5   2   7  139.59    5.30
  -5   2   7  144.29    5.40
  -5   2   7  135.19    5.50
   4  -2  -7   35.60    2.30
   4  -2  -7   33.10    2.50
   4  -2  -7   39.40    2.40
  -4   2   7   37.70    2.20
  -4   2   7   41.40    2.50
  -4   2   7   40.20    2.80
   3  -2  -7   39.00    2.20
   3  -2  -7   40.10    2.10
   3  -2  -7   41.20    2.30
  -3   2   7   36.70    2.00
  -3   2   7   40.50    1.90
  -3   2   7   40.20    2.10
  -3   2   7   38.80    1.60
   2  -2  -7  101.49    3.50
   2  -2  -7  100.79    2.90
   2  -2  -7   96.99    3.70
   2  -2  -7  102.39    3.60
  -2   2   7  101.69    3.40
  -2   2   7  101.59    3.40
  -2   2   7  100.39    3.80
  -2   2   7  103.69    3.30
   1  -2  -7 2468.95   68.29
   1  -2  -7 2622.64   68.59
   1  -2  -7 2509.85   68.39
   1  -2  -7 2486.65   68.29
   1  -2  -7 2532.55   68.19
  -1   2   7 2496.85   68.29
  -1   2   7 2444.96   68.29
  -1   2   7 2681.53   68.39
  -1   2   7 2508.65   68.59
  -1   2   7 2511.25   68.19
   0  -2  -7  705.63   18.80
   0  -2  -7  671.03   18.70
   0  -2  -7  700.53   18.70
   0  -2  -7  690.83   18.70
   0  -2  -7  654.93   18.70
   0   2   7  671.93   18.80
   0   2   7  675.03   18.80
   0   2   7  660.23   18.70
   0   2   7  675.33   18.90
   0   2   7  678.53   18.60
   0   2   7  667.63   18.90
   0   2   7  671.53   18.30
  -1  -2  -7    5.90    0.80
  -1  -2  -7    4.50    0.70
  -1  -2  -7    6.40    0.80
  -1  -2  -7    4.60    0.80
  -1  -2  -7    5.30    0.80
  -1  -2  -7    5.50    0.60
   1   2   7    4.00    1.00
   1   2   7    4.80    0.90
   1   2   7    7.30    1.20
   1   2   7    5.20    0.80
  -2  -2  -7  292.67    8.80
  -2  -2  -7  298.07    8.60
  -2  -2  -7  297.77    8.10
  -2  -2  -7  263.87    8.60
  -2  -2  -7  296.37    8.70
  -2  -2  -7  288.37    8.60
   2   2   7  290.57    9.10
   2   2   7  276.87    9.20
   2   2   7  285.77    8.80
   2   2   7  296.17    8.40
  -3  -2  -7  294.37    8.70
  -3  -2  -7  292.97    9.00
  -3  -2  -7  270.27    8.00
   3   2   7  282.57    8.90
  -4  -2  -7  300.07    9.80
   4   2   7  302.17    9.70
  -5  -2  -7  421.66   13.50
   5   2   7  421.26   13.40
  -6  -2  -7    2.50    2.90
   6   2   7    5.00    2.50
   6   2   7   -0.20    2.80
   7  -3  -7   -0.10    2.20
  -7   3   7   -2.80    2.50
  -7   3   7    2.50    2.20
   6  -3  -7    8.50    2.30
   6  -3  -7    9.30    2.20
  -6   3   7    8.20    2.00
  -6   3   7   10.60    3.10
  -6   3   7    7.30    2.30
   5  -3  -7    1.40    1.50
   5  -3  -7    1.20    1.50
  -5   3   7    0.00    1.30
  -5   3   7    0.80    1.40
  -5   3   7    2.80    1.50
   4  -3  -7  408.06   11.90
   4  -3  -7  379.96   11.90
  -4   3   7  404.46   11.10
  -4   3   7  385.46   11.30
  -4   3   7  388.46   11.60
   3  -3  -7 1470.45   39.10
   3  -3  -7 1450.45   39.20
   3  -3  -7 1341.87   38.90
  -3   3   7 1374.86   38.50
  -3   3   7 1460.85   38.70
  -3   3   7 1393.76   38.70
   2  -3  -7   64.19    2.60
   2  -3  -7   67.89    3.10
   2  -3  -7   67.09    2.80
   2  -3  -7   66.09    3.00
  -2   3   7   67.19    2.60
  -2   3   7   68.49    2.60
  -2   3   7   69.79    2.60
  -2   3   7   68.39    2.40
   1  -3  -7   32.30    1.60
   1  -3  -7   30.30    1.40
   1  -3  -7   30.80    1.20
   1  -3  -7   23.60    1.80
   1  -3  -7   30.30    1.80
  -1   3   7   30.10    1.60
  -1   3   7   29.40    1.60
  -1   3   7   30.10    1.50
  -1   3   7   30.60    1.60
   0  -3  -7   39.90    2.00
   0  -3  -7   39.10    1.90
   0  -3  -7   38.60    1.80
   0  -3  -7   38.50    1.80
   0  -3  -7   34.40    2.00
   0   3   7   37.00    1.70
   0   3   7   37.50    1.40
   0   3   7   38.70    2.10
   0   3   7   38.10    2.10
   0   3   7   39.70    1.70
   0   3   7   39.30    2.00
   0   3   7   37.40    2.00
  -1  -3  -7    7.70    1.30
  -1  -3  -7    5.70    1.10
  -1  -3  -7    6.20    0.70
  -1  -3  -7    4.80    0.90
  -1  -3  -7    4.30    0.80
   1   3   7    6.50    0.60
   1   3   7    5.30    1.20
   1   3   7    6.10    0.80
   1   3   7    5.70    1.50
   1   3   7    5.30    1.10
  -2  -3  -7  816.62   22.30
  -2  -3  -7  834.02   23.00
  -2  -3  -7  856.91   23.10
  -2  -3  -7  786.22   22.90
   2   3   7  837.82   23.20
   2   3   7  797.12   23.50
   2   3   7  811.62   22.70
  -3  -3  -7  559.64   17.00
   3   3   7  594.84   16.60
  -4  -3  -7    0.90    1.90
  -4  -3  -7   -1.30    1.40
   4   3   7   -1.80    1.50
   4   3   7    1.70    1.80
  -5  -3  -7   19.20    2.90
  -5  -3  -7   18.00    3.00
   5   3   7   21.80    3.40
   5   3   7   18.30    2.60
   7  -4  -7   11.40    3.20
   7  -4  -7    7.50    2.80
  -7   4   7   10.80    2.50
  -7   4   7   10.60    2.80
   6  -4  -7  116.69    5.70
   6  -4  -7  111.59    5.60
  -6   4   7  117.89    5.30
  -6   4   7  114.49    5.20
   5  -4  -7  223.28    8.10
   5  -4  -7  223.68    7.80
  -5   4   7  220.68    7.40
  -5   4   7  228.18    7.00
  -5   4   7  231.78    7.50
  -5   4   7  221.08    6.90
   4  -4  -7  339.57   10.50
   4  -4  -7  323.87   10.10
  -4   4   7  313.97    9.30
  -4   4   7  326.77    9.70
   3  -4  -7  839.62   23.10
   3  -4  -7  784.22   23.50
  -3   4   7  808.02   22.50
  -3   4   7  825.32   23.10
  -3   4   7  848.92   22.80
   2  -4  -7    3.70    0.40
   2  -4  -7    4.40    1.30
   2  -4  -7    3.70    1.30
   2  -4  -7    2.80    0.80
   2  -4  -7    1.80    1.10
  -2   4   7    5.80    1.10
  -2   4   7    4.90    0.90
  -2   4   7    3.80    0.70
  -2   4   7    3.80    0.90
  -2   4   7    6.40    1.20
   1  -4  -7  137.89    4.20
   1  -4  -7  132.19    4.80
   1  -4  -7  139.39    4.50
   1  -4  -7  127.69    4.70
   1  -4  -7  138.09    4.00
  -1   4   7  136.99    4.40
  -1   4   7  126.29    4.50
  -1   4   7  130.59    4.50
  -1   4   7  135.29    4.40
  -1   4   7  134.29    4.50
   0  -4  -7  117.09    4.20
   0  -4  -7   94.89    4.10
   0  -4  -7  110.69    3.70
   0  -4  -7  107.99    3.80
   0  -4  -7  109.29    3.90
   0  -4  -7  106.49    3.80
   0   4   7  114.89    4.10
   0   4   7  112.09    4.30
   0   4   7  105.69    3.80
   0   4   7  102.69    4.00
   0   4   7  113.89    3.40
   0   4   7  110.99    4.30
   0   4   7  112.09    3.70
  -1  -4  -7 1187.68   32.60
  -1  -4  -7 1145.49   32.70
  -1  -4  -7 1237.68   32.30
  -1  -4  -7 1162.88   32.80
  -1  -4  -7 1179.48   32.60
   1   4   7 1175.88   32.90
   1   4   7 1210.48   32.30
   1   4   7 1121.09   32.20
   1   4   7 1163.78   33.10
   1   4   7 1218.88   33.00
  -2  -4  -7  223.98    7.20
  -2  -4  -7  222.18    6.50
  -2  -4  -7  222.18    7.30
   2   4   7  226.48    7.70
   2   4   7  224.68    6.90
  -3  -4  -7  102.79    4.40
  -3  -4  -7  105.99    4.70
   3   4   7   97.79    4.20
   3   4   7  100.29    5.00
  -4  -4  -7   25.90    3.00
  -4  -4  -7   22.50    2.40
   4   4   7   21.00    2.40
   4   4   7   26.50    3.20
  -5  -4  -7   15.80    2.80
  -5  -4  -7   20.10    3.50
   5   4   7   18.40    2.90
   5   4   7   10.90    3.40
   7  -5  -7  149.09    7.70
   7  -5  -7  155.28    7.70
  -7   5   7  151.78    8.00
  -7   5   7  153.08    6.60
   6  -5  -7   92.59    5.50
   6  -5  -7   92.49    5.50
  -6   5   7   89.39    4.50
  -6   5   7   98.49    5.70
   5  -5  -7   81.79    4.90
   5  -5  -7   77.99    4.30
  -5   5   7   81.49    3.50
  -5   5   7   81.39    3.80
  -5   5   7   81.79    4.80
   4  -5  -7    0.80    1.80
   4  -5  -7    0.40    1.20
  -4   5   7    1.70    0.70
  -4   5   7    3.80    1.70
   3  -5  -7  214.58    6.20
   3  -5  -7  212.58    7.70
   3  -5  -7  221.48    7.00
  -3   5   7  209.08    6.50
  -3   5   7  198.88    7.00
  -3   5   7  207.48    6.20
  -3   5   7  226.28    7.30
   2  -5  -7    0.50    1.40
   2  -5  -7    0.90    1.00
   2  -5  -7    0.20    0.70
  -2   5   7   -1.30    0.90
  -2   5   7    2.00    1.20
  -2   5   7    0.70    0.90
  -2   5   7   -1.00    0.90
   1  -5  -7  747.73   20.10
   1  -5  -7  738.03   20.50
   1  -5  -7  713.23   19.90
   1  -5  -7  677.63   20.70
  -1   5   7  744.93   20.30
  -1   5   7  714.03   20.50
  -1   5   7  742.43   20.50
  -1   5   7  739.03   20.50
   0  -5  -7  386.66   11.30
   0  -5  -7  374.06   11.40
   0  -5  -7  382.26   11.40
   0  -5  -7  394.26   11.10
   0   5   7  371.86   11.80
   0   5   7  383.96   10.80
   0   5   7  378.86   11.70
   0   5   7  393.26   11.10
   0   5   7  381.66   11.40
   0   5   7  400.56   11.50
  -1  -5  -7   34.10    2.30
  -1  -5  -7   32.40    2.70
  -1  -5  -7   33.30    3.30
  -1  -5  -7   36.00    2.50
   1   5   7   34.60    3.20
   1   5   7   35.50    1.90
   1   5   7   39.10    2.10
  -2  -5  -7    1.20    0.80
  -2  -5  -7    1.70    1.40
   2   5   7   -0.80    1.20
   2   5   7    3.20    2.00
  -3  -5  -7   33.90    3.30
  -3  -5  -7   36.60    3.50
   3   5   7   35.00    3.20
   3   5   7   35.30    3.50
  -4  -5  -7    3.90    2.30
  -4  -5  -7    7.00    2.50
   4   5   7    4.00    2.20
   4   5   7   -1.10    2.90
   7  -6  -7   43.50    4.80
   7  -6  -7   50.89    4.90
  -7   6   7   41.20    5.00
  -7   6   7   56.99    4.30
   6  -6  -7   -0.10    2.80
   6  -6  -7    1.40    2.30
  -6   6   7    3.50    1.90
  -6   6   7   -2.20    2.40
   5  -6  -7   25.50    2.70
   5  -6  -7   17.70    3.00
  -5   6   7   19.60    2.60
  -5   6   7   20.30    2.00
  -5   6   7   19.50    2.90
   4  -6  -7   25.70    3.20
   4  -6  -7   26.00    2.90
  -4   6   7   28.60    3.00
  -4   6   7   23.80    2.10
  -4   6   7   26.30    2.80
   3  -6  -7   50.79    2.20
   3  -6  -7   51.19    4.10
   3  -6  -7   40.50    4.10
  -3   6   7   50.89    2.50
  -3   6   7   56.19    3.60
  -3   6   7   51.19    3.20
   2  -6  -7  390.56   11.50
   2  -6  -7  363.26   10.70
   2  -6  -7  381.26   10.70
   2  -6  -7  381.76   12.40
  -2   6   7  389.46   11.00
  -2   6   7  394.06   11.80
  -2   6   7  371.76   11.60
   1  -6  -7   43.30    3.70
   1  -6  -7   45.70    2.10
   1  -6  -7   45.10    2.10
   1  -6  -7   44.90    2.70
  -1   6   7   39.30    3.20
  -1   6   7   47.90    2.80
  -1   6   7   48.40    2.90
  -1   6   7   48.50    2.90
   0  -6  -7    1.30    0.90
   0  -6  -7    2.50    1.30
   0  -6  -7   -1.50    1.50
   0  -6  -7    1.00    1.50
   0   6   7    0.10    1.20
   0   6   7    1.60    2.10
   0   6   7    0.50    1.70
   0   6   7    1.40    1.20
  -1  -6  -7   29.00    2.70
  -1  -6  -7   25.30    2.80
  -1  -6  -7   24.80    2.40
   1   6   7   24.90    2.00
   1   6   7   19.90    2.60
   1   6   7   24.50    2.20
  -2  -6  -7   26.10    2.70
  -2  -6  -7   31.70    3.30
   2   6   7   30.50    3.40
   2   6   7   23.50    2.20
  -3  -6  -7   36.00    3.90
  -3  -6  -7   29.80    3.20
   3   6   7   35.90    3.80
   3   6   7   32.10    3.80
   6  -7  -7    2.80    3.60
   6  -7  -7    2.50    2.90
  -6   7   7    1.40    2.60
  -6   7   7    6.00    3.50
   5  -7  -7  129.29    7.20
   5  -7  -7  117.79    6.00
  -5   7   7  128.89    6.20
  -5   7   7  126.49    6.70
   4  -7  -7  120.89    5.50
   4  -7  -7  118.89    6.70
  -4   7   7  133.19    6.10
  -4   7   7  124.99    5.70
   3  -7  -7   21.40    3.00
   3  -7  -7   31.40    2.90
  -3   7   7   35.70    3.40
  -3   7   7   35.40    3.70
   2  -7  -7    2.40    2.40
   2  -7  -7   -1.70    1.30
  -2   7   7    0.90    1.50
  -2   7   7   -0.60    2.70
   1  -7  -7   62.39    3.40
   1  -7  -7   62.99    2.70
   1  -7  -7   69.89    5.00
  -1   7   7   61.89    3.70
  -1   7   7   63.89    3.70
   0  -7  -7   26.10    2.90
   0  -7  -7   29.20    2.40
   0  -7  -7   34.90    3.70
   0   7   7   31.40    3.10
   0   7   7   30.00    2.80
  -1  -7  -7  312.67    9.90
  -1  -7  -7  278.57   10.10
   1   7   7  318.17   11.10
   1   7   7  312.77    9.40
  -2  -7  -7    8.00    2.30
  -2  -7  -7    6.40    2.10
   2   7   7    3.50    3.00
   2   7   7    7.90    2.20
   5  -8  -7    7.20    3.70
   5  -8  -7    6.10    2.70
  -5   8   7   10.70    3.00
  -5   8   7   14.80    3.70
   4  -8  -7   38.50    3.50
   4  -8  -7   35.10    4.40
  -4   8   7   38.70    3.90
  -4   8   7   47.90    4.70
   3  -8  -7   77.29    4.60
   3  -8  -7   82.09    6.40
  -3   8   7   81.29    5.10
  -3   8   7   77.29    5.00
   2  -8  -7   15.00    3.40
   2  -8  -7   23.80    2.50
  -2   8   7   20.10    2.50
  -2   8   7   28.80    3.00
   1  -8  -7  118.19    7.20
   1  -8  -7  124.39    5.40
  -1   8   7  120.29    5.70
  -1   8   7  125.09    5.50
   0  -8  -7  134.29    7.60
   0  -8  -7  143.89    5.90
   0   8   7  138.39    6.10
   0   8   7  134.89    6.40
  -1  -8  -7    9.90    3.90
  -1  -8  -7    8.40    2.30
  -1  -8  -7   10.40    2.60
   3  -9  -7   56.69    8.80
   3  -9  -7   58.69    4.90
  -3   9   7   65.59    5.70
  -3   9   7   45.60    5.20
   2  -9  -7  114.79    6.00
   2  -9  -7  124.49    8.50
  -2   9   7  136.49    6.80
  -2   9   7  136.69    6.70
   0   9  -8    1.10    2.70
   0   9  -8    0.30    4.10
   0  -9   8    2.60    2.30
  -1   9  -8    0.10    2.60
  -1   9  -8    2.00    2.70
  -1   9  -8    2.90    3.60
   1  -9   8    9.90    2.70
   1  -9   8    2.00    2.50
  -2   9  -8    3.60    2.60
  -2   9  -8    5.50    2.70
  -2   9  -8    6.70    3.80
   2  -9   8   -1.30    2.50
   2  -9   8    2.40    2.60
  -3   9  -8    0.20    3.70
  -3   9  -8    1.20    3.00
  -3   9  -8   -3.70    3.60
   3  -9   8   -4.10    3.00
   3  -9   8   -0.40    3.00
   2   8  -8   32.30    4.90
  -2  -8   8   32.10    3.20
  -2  -8   8   28.50    4.10
   1   8  -8  104.89    7.40
   1   8  -8  109.99    5.60
  -1  -8   8  109.99    4.90
  -1  -8   8  121.39    6.40
   0   8  -8    5.80    3.50
   0   8  -8    7.40    2.30
   0  -8   8    6.40    1.90
   0  -8   8    6.40    2.00
   0  -8   8   10.90    2.50
  -1   8  -8   39.80    4.00
  -1   8  -8   40.30    4.00
  -1   8  -8   41.40    4.30
   1  -8   8   41.30    3.90
   1  -8   8   41.00    3.70
  -2   8  -8    4.60    2.20
  -2   8  -8    1.90    2.70
  -2   8  -8    0.50    2.30
   2  -8   8    0.80    2.20
   2  -8   8    2.10    2.30
  -3   8  -8  254.97    9.60
  -3   8  -8  258.07   10.00
  -3   8  -8  263.57    9.40
   3  -8   8  259.97    9.90
   3  -8   8  269.37    9.60
  -4   8  -8   82.89    5.60
  -4   8  -8   89.59    6.00
  -4   8  -8   88.09    6.10
   4  -8   8   79.79    6.10
   4  -8   8   98.39    6.40
   3   7  -8    2.00    2.30
   3   7  -8    2.00    2.40
  -3  -7   8   -4.20    3.10
  -3  -7   8    0.90    1.50
  -3  -7   8    1.80    1.80
  -3  -7   8   -1.20    1.90
   2   7  -8   49.80    5.70
   2   7  -8   54.29    4.00
  -2  -7   8   54.29    3.10
  -2  -7   8   55.09    5.30
  -2  -7   8   53.89    2.70
   1   7  -8  311.77   10.10
   1   7  -8  310.17   11.30
  -1  -7   8  321.87   10.80
  -1  -7   8  318.67    9.80
  -1  -7   8  304.67    8.90
  -1  -7   8  322.67    9.70
   0   7  -8  129.99    5.40
   0   7  -8  131.89    6.50
   0  -7   8  133.99    5.00
   0  -7   8  132.89    6.70
   0  -7   8  123.49    5.10
  -1   7  -8   -1.60    1.50
  -1   7  -8    2.50    1.60
  -1   7  -8    6.40    2.40
   1  -7   8    2.80    1.60
   1  -7   8    1.00    1.40
   1  -7   8    3.50    1.60
  -2   7  -8  144.19    5.80
  -2   7  -8  141.19    6.40
   2  -7   8  141.19    6.00
   2  -7   8  135.99    7.20
  -3   7  -8    2.20    2.20
  -3   7  -8    2.60    2.00
  -3   7  -8    3.60    1.90
   3  -7   8    5.50    2.20
   3  -7   8    7.50    2.40
  -4   7  -8   32.20    3.50
  -4   7  -8   34.40    3.40
  -4   7  -8   37.70    3.40
   4  -7   8   32.30    3.50
   4  -7   8   36.40    4.20
  -5   7  -8   19.00    3.20
  -5   7  -8   16.90    3.20
   5  -7   8   15.40    3.40
   5  -7   8   12.10    3.10
   4   6  -8    7.00    2.60
   4   6  -8    5.40    2.30
  -4  -6   8   11.20    3.70
  -4  -6   8    5.10    2.20
   3   6  -8   44.60    3.60
   3   6  -8   53.99    3.70
  -3  -6   8   54.59    5.20
  -3  -6   8   46.00    3.30
  -3  -6   8   48.50    2.70
   2   6  -8  545.55   16.00
   2   6  -8  555.64   17.10
  -2  -6   8  561.14   15.20
  -2  -6   8  558.34   15.40
  -2  -6   8  542.45   14.90
  -2  -6   8  542.65   15.50
  -2  -6   8  495.95   15.40
  -2  -6   8  498.25   15.70
   1   6  -8  108.79    5.70
   1   6  -8  105.29    4.30
  -1  -6   8  103.39    3.80
  -1  -6   8  100.59    3.30
  -1  -6   8  109.29    4.10
  -1  -6   8   95.99    3.90
  -1  -6   8  102.99    3.60
  -1  -6   8  108.09    3.70
   0   6  -8    8.40    1.50
   0   6  -8    5.70    2.00
   0   6  -8    5.90    1.90
   0   6  -8    8.40    1.70
   0  -6   8    7.70    1.30
   0  -6   8   10.00    1.10
   0  -6   8    7.80    1.60
   0  -6   8    7.30    1.40
   0  -6   8    6.50    1.40
  -1   6  -8  355.26   10.80
  -1   6  -8  331.47   11.20
  -1   6  -8  354.96   11.40
   1  -6   8  364.06   10.90
   1  -6   8  357.66    9.90
   1  -6   8  341.87   10.30
   1  -6   8  357.36   10.70
   1  -6   8  339.77   10.50
  -2   6  -8    0.80    1.40
  -2   6  -8    1.30    1.40
  -2   6  -8   -1.70    1.50
   2  -6   8    0.30    1.30
   2  -6   8    4.80    1.50
   2  -6   8    1.40    1.50
   2  -6   8    1.70    1.00
   2  -6   8    0.90    1.60
  -3   6  -8  122.59    5.50
  -3   6  -8  131.39    5.30
  -3   6  -8  125.39    5.20
   3  -6   8  125.99    5.30
   3  -6   8  120.79    4.50
   3  -6   8  131.79    5.60
  -4   6  -8  421.96   12.70
  -4   6  -8  429.46   13.40
  -4   6  -8  442.46   13.80
   4  -6   8  441.36   13.80
   4  -6   8  438.96   13.70
  -5   6  -8   37.70    4.00
  -5   6  -8   36.10    3.80
  -5   6  -8   34.70    3.40
   5  -6   8   36.70    4.30
   5  -6   8   32.10    3.30
  -6   6  -8   19.50    3.40
   6  -6   8   19.50    3.20
   6  -6   8   22.40    3.60
   5   5  -8   10.00    2.50
   5   5  -8    8.00    2.70
  -5  -5   8    8.80    4.00
  -5  -5   8    8.90    2.60
   4   5  -8  103.59    4.80
   4   5  -8  103.29    4.90
  -4  -5   8  105.69    4.00
  -4  -5   8  103.99    5.10
  -4  -5   8   98.89    6.60
   3   5  -8  101.89    4.50
   3   5  -8  100.79    5.70
   3   5  -8   93.09    5.20
   3   5  -8  111.39    4.30
  -3  -5   8   94.99    5.60
  -3  -5   8  109.29    3.80
  -3  -5   8   96.09    4.60
  -3  -5   8   96.79    4.40
   2   5  -8   -2.00    2.00
   2   5  -8    1.30    1.20
   2   5  -8    1.90    1.20
  -2  -5   8    0.90    0.80
  -2  -5   8    0.50    0.50
  -2  -5   8    0.50    1.00
  -2  -5   8    2.10    1.20
  -2  -5   8   -0.10    1.10
   1   5  -8   46.30    2.50
   1   5  -8   51.09    3.60
   1   5  -8   49.80    2.70
   1   5  -8   55.79    4.40
  -1  -5   8   46.30    2.30
  -1  -5   8   48.00    2.00
  -1  -5   8   44.60    2.10
  -1  -5   8   49.20    2.20
  -1  -5   8   49.10    2.40
  -1  -5   8   48.40    1.80
   0   5  -8  369.26   11.00
   0   5  -8  371.56   11.60
   0   5  -8  383.06   11.10
   0   5  -8  372.16   11.10
   0  -5   8  371.56   11.00
   0  -5   8  364.16   10.60
   0  -5   8  373.76   10.50
   0  -5   8  369.06   10.80
   0  -5   8  362.66   10.90
  -1   5  -8  175.28    6.50
  -1   5  -8  189.88    6.70
  -1   5  -8  179.88    6.10
  -1   5  -8  184.98    6.20
   1  -5   8  196.78    6.20
   1  -5   8  183.48    5.80
   1  -5   8  189.18    6.30
   1  -5   8  182.68    5.90
   1  -5   8  190.68    5.60
  -2   5  -8  445.16   13.40
  -2   5  -8  452.15   13.50
  -2   5  -8  436.16   13.70
   2  -5   8  466.35   13.60
   2  -5   8  456.05   13.00
   2  -5   8  472.75   13.50
   2  -5   8  461.35   13.00
  -3   5  -8  323.67    9.80
  -3   5  -8  325.67    9.10
  -3   5  -8  329.07   10.40
  -3   5  -8  329.97   10.10
   3  -5   8  340.07   10.50
   3  -5   8  320.87    9.80
   3  -5   8  334.47   10.40
  -4   5  -8    1.90    1.50
  -4   5  -8    1.60    1.10
  -4   5  -8    3.00    1.80
  -4   5  -8    4.60    1.20
   4  -5   8    0.40    1.70
   4  -5   8    4.10    1.70
   4  -5   8    2.10    1.60
  -5   5  -8   49.80    3.20
   5  -5   8   49.40    4.00
   5  -5   8   52.99    4.20
  -6   5  -8   38.30    4.20
   6  -5   8   43.00    4.50
   6  -5   8   39.20    4.40
   6   4  -8   54.59    5.10
   6   4  -8   69.79    5.30
  -6  -4   8   47.10    5.30
  -6  -4   8   60.39    6.30
   5   4  -8  197.18    7.50
  -5  -4   8  208.68    9.30
  -5  -4   8  195.58    7.90
   4   4  -8  465.45   14.20
   4   4  -8  496.15   13.90
   4   4  -8  447.36   14.30
  -4  -4   8  470.05   15.30
  -4  -4   8  479.25   13.50
  -4  -4   8  466.85   14.50
   3   4  -8   50.89    2.90
   3   4  -8   47.10    3.30
   3   4  -8   50.89    2.60
   3   4  -8   46.70    4.50
  -3  -4   8   47.50    3.10
  -3  -4   8   50.69    2.30
  -3  -4   8   51.69    3.10
   2   4  -8  243.88    7.70
   2   4  -8  240.68    8.00
   2   4  -8  248.58    7.30
   2   4  -8  243.78    8.40
  -2  -4   8  247.28    7.40
  -2  -4   8  246.28    7.40
  -2  -4   8  246.18    7.70
   1   4  -8    9.40    1.10
   1   4  -8   11.00    1.20
   1   4  -8   11.80    1.10
   1   4  -8   11.60    1.70
   1   4  -8   10.50    1.70
  -1  -4   8   10.20    1.30
  -1  -4   8   11.80    1.40
  -1  -4   8   13.60    1.20
  -1  -4   8   10.10    1.80
  -1  -4   8   13.30    1.80
  -1  -4   8   10.60    1.10
  -1  -4   8   11.30    1.00
   0   4  -8  277.47    8.20
   0   4  -8  266.47    8.60
   0   4  -8  271.07    8.60
   0   4  -8  266.77    8.10
   0   4  -8  265.47    8.00
   0  -4   8  272.47    7.80
   0  -4   8  260.27    8.30
   0  -4   8  264.97    8.10
   0  -4   8  281.07    7.90
   0  -4   8  270.77    7.70
   0  -4   8  270.77    8.20
   0  -4   8  271.87    8.10
   0  -4   8  253.17    8.30
  -1   4  -8    0.20    0.80
  -1   4  -8    1.00    1.20
  -1   4  -8    0.60    1.00
  -1   4  -8    1.60    1.40
  -1   4  -8    0.50    0.80
   1  -4   8    1.60    0.80
   1  -4   8    0.50    0.70
   1  -4   8    0.80    1.00
   1  -4   8    1.90    0.80
   1  -4   8    0.80    1.20
   1  -4   8    0.30    0.80
  -2   4  -8  577.44   16.50
  -2   4  -8  593.84   16.40
  -2   4  -8  572.94   16.80
  -2   4  -8  562.64   17.00
   2  -4   8  561.14   16.70
   2  -4   8  594.64   16.30
   2  -4   8  590.74   16.40
   2  -4   8  563.34   16.60
   2  -4   8  588.84   16.60
  -3   4  -8  153.78    5.20
  -3   4  -8  146.39    5.00
   3  -4   8  153.18    5.50
   3  -4   8  154.88    5.50
   3  -4   8  151.08    5.40
   3  -4   8  151.68    5.20
   3  -4   8  143.69    5.50
  -4   4  -8   22.30    2.10
  -4   4  -8   23.90    2.40
  -4   4  -8   21.80    2.20
   4  -4   8   25.00    2.70
   4  -4   8   29.20    2.70
   4  -4   8   21.30    2.40
  -5   4  -8   13.70    1.80
  -5   4  -8   17.10    2.00
   5  -4   8   12.30    2.00
  -6   4  -8  139.99    5.70
  -6   4  -8  137.09    5.80
   6  -4   8  126.49    6.20
   6  -4   8  136.79    5.90
   6   3  -8    1.40    2.20
   6   3  -8   -4.60    2.10
  -6  -3   8    0.50    2.50
  -6  -3   8    4.60    3.80
   5   3  -8    3.80    1.80
   5   3  -8    4.20    1.60
  -5  -3   8    4.10    1.40
  -5  -3   8    3.60    2.10
  -5  -3   8    3.70    2.80
   4   3  -8  198.28    6.30
   4   3  -8  192.98    6.60
   4   3  -8  193.08    6.40
  -4  -3   8  188.58    7.10
  -4  -3   8  195.78    6.20
   3   3  -8  152.58    5.10
   3   3  -8  143.19    4.70
   3   3  -8  149.49    5.10
   3   3  -8  140.29    5.80
  -3  -3   8  149.49    5.10
  -3  -3   8  147.49    5.40
  -3  -3   8  144.19    5.10
  -3  -3   8  149.29    4.80
   2   3  -8  408.86   12.20
   2   3  -8  411.16   11.10
   2   3  -8  400.66   11.50
   2   3  -8  397.76   11.60
  -2  -3   8  406.16   11.60
  -2  -3   8  402.96   11.30
  -2  -3   8  356.16   11.80
  -2  -3   8  383.06   11.60
  -2  -3   8  400.86   11.30
  -2  -3   8  383.76   11.60
  -2  -3   8  405.36   11.40
   1   3  -8   16.40    1.80
   1   3  -8   13.10    1.10
   1   3  -8   14.30    1.10
   1   3  -8   14.60    1.70
   1   3  -8   14.60    1.30
  -1  -3   8   13.50    1.30
  -1  -3   8   13.30    1.20
  -1  -3   8   13.70    0.70
  -1  -3   8   13.60    0.80
  -1  -3   8   15.60    1.20
  -1  -3   8   14.10    1.30
  -1  -3   8   16.10    1.60
  -1  -3   8   10.80    1.30
  -1  -3   8   14.10    0.90
   0   3  -8  258.47    7.70
   0   3  -8  244.58    8.00
   0   3  -8  264.17    7.50
   0   3  -8  262.37    8.10
   0  -3   8  262.17    7.50
   0  -3   8  258.67    7.50
   0  -3   8  253.87    7.90
   0  -3   8  274.07    7.80
   0  -3   8  256.37    7.20
   0  -3   8  261.37    7.70
   0  -3   8  257.97    7.80
   0  -3   8  256.67    7.70
  -1   3  -8   75.19    3.10
  -1   3  -8   78.49    2.80
  -1   3  -8   72.99    3.10
  -1   3  -8   75.59    2.80
  -1   3  -8   73.99    2.90
  -1   3  -8   74.99    3.40
   1  -3   8   76.19    2.80
   1  -3   8   73.89    3.00
   1  -3   8   71.99    2.80
   1  -3   8   71.59    2.80
   1  -3   8   76.09    2.70
  -2   3  -8   85.39    4.10
  -2   3  -8   89.39    4.00
  -2   3  -8   95.59    3.40
  -2   3  -8   93.49    3.00
  -2   3  -8   97.69    3.40
  -2   3  -8   94.39    2.80
   2  -3   8   95.89    3.50
   2  -3   8   98.89    3.60
   2  -3   8   96.39    3.60
   2  -3   8   96.79    3.60
   2  -3   8   93.49    3.50
  -3   3  -8    1.70    0.90
  -3   3  -8    3.50    1.00
  -3   3  -8    1.70    0.90
   3  -3   8    3.10    1.20
   3  -3   8    1.50    1.00
   3  -3   8    2.00    0.90
   3  -3   8    2.50    1.10
  -4   3  -8   34.90    2.40
  -4   3  -8   32.50    2.70
  -4   3  -8   37.80    2.30
   4  -3   8   31.00    2.60
   4  -3   8   41.40    4.10
   4  -3   8   36.00    2.50
  -5   3  -8   15.20    1.80
  -5   3  -8   17.70    1.90
   5  -3   8   15.60    2.10
   5  -3   8   13.90    1.80
  -6   3  -8   58.99    4.00
  -6   3  -8   68.69    3.90
   6  -3   8   56.99    4.40
   6  -3   8   55.49    3.60
   7   2  -8    0.60    2.70
   7   2  -8    0.90    2.60
  -7  -2   8   -1.10    2.40
  -7  -2   8   -0.50    4.30
   6   2  -8   46.90    3.70
   6   2  -8   43.50    3.80
  -6  -2   8   45.30    4.40
  -6  -2   8   45.40    4.70
   5   2  -8    2.40    1.30
   5   2  -8    1.20    1.80
   5   2  -8    1.30    1.20
  -5  -2   8   -2.20    2.40
  -5  -2   8    1.30    1.30
  -5  -2   8    1.10    1.80
   4   2  -8   83.09    3.30
   4   2  -8   77.19    3.20
   4   2  -8   83.79    3.50
  -4  -2   8   87.19    3.40
  -4  -2   8   83.69    4.10
   3   2  -8  201.88    6.30
   3   2  -8  210.58    7.00
   3   2  -8  207.38    6.10
   3   2  -8  197.28    6.40
  -3  -2   8  205.18    6.80
  -3  -2   8  201.38    6.50
  -3  -2   8  192.58    7.00
  -3  -2   8  209.68    6.30
  -3  -2   8  210.68    6.30
   2   2  -8  637.24   17.60
   2   2  -8  630.94   17.60
   2   2  -8  630.04   17.20
   2   2  -8  631.04   18.10
  -2  -2   8  626.54   17.50
  -2  -2   8  621.14   17.60
  -2  -2   8  634.44   17.80
  -2  -2   8  640.64   17.40
  -2  -2   8  611.94   17.50
   1   2  -8   11.10    1.00
   1   2  -8   11.00    1.30
   1   2  -8   10.70    0.90
   1   2  -8   10.80    0.90
   1   2  -8    8.70    1.10
  -1  -2   8   13.40    1.40
  -1  -2   8   10.30    1.00
  -1  -2   8   11.40    0.80
  -1  -2   8   10.40    0.70
  -1  -2   8    8.40    0.90
  -1  -2   8   13.10    1.30
  -1  -2   8   11.30    1.20
  -1  -2   8   12.10    1.00
   0   2  -8 1071.39   29.20
   0   2  -8 1055.59   29.50
   0   2  -8 1093.29   29.40
   0   2  -8 1057.09   28.80
   0   2  -8 1075.59   29.00
   0  -2   8 1045.40   29.20
   0  -2   8 1047.70   28.80
   0  -2   8 1057.79   29.20
   0  -2   8 1071.89   29.20
   0  -2   8 1089.89   29.20
   0  -2   8 1091.39   29.20
   0  -2   8 1042.10   29.00
  -1   2  -8    7.30    0.60
  -1   2  -8    8.70    1.10
  -1   2  -8    8.30    0.80
  -1   2  -8    7.60    0.90
  -1   2  -8    8.10    1.00
  -1   2  -8    7.30    1.00
   1  -2   8    8.90    1.00
   1  -2   8    6.90    0.90
   1  -2   8    6.60    0.90
   1  -2   8    8.00    0.90
   1  -2   8    5.50    0.70
  -2   2  -8    7.80    0.90
  -2   2  -8    8.80    0.90
  -2   2  -8   11.20    1.40
  -2   2  -8    8.40    0.90
  -2   2  -8    7.20    1.20
   2  -2   8    9.40    1.20
   2  -2   8   10.90    1.40
   2  -2   8    8.50    1.00
   2  -2   8    6.30    0.80
   2  -2   8    7.20    1.00
  -3   2  -8    1.00    0.70
  -3   2  -8    1.70    0.90
   3  -2   8    1.10    1.40
   3  -2   8    0.90    0.90
   3  -2   8    0.70    0.70
   3  -2   8    0.70    1.20
  -4   2  -8  359.36   10.50
  -4   2  -8  341.57   10.90
  -4   2  -8  374.96   10.80
   4  -2   8  354.36   10.90
   4  -2   8  369.96   10.60
  -5   2  -8   78.79    3.40
  -5   2  -8   76.19    4.00
   5  -2   8   80.49    3.40
   5  -2   8   73.09    4.00
  -6   2  -8    9.50    1.80
  -6   2  -8    8.00    2.10
   6  -2   8   11.30    2.30
   6  -2   8   11.00    2.30
   6  -2   8    8.60    1.60
   7   1  -8   12.60    2.60
   7   1  -8   11.70    2.50
  -7  -1   8   10.50    3.00
  -7  -1   8   13.50    4.30
   6   1  -8   21.90    2.30
   6   1  -8   23.80    2.70
  -6  -1   8   22.70    2.80
  -6  -1   8   23.80    3.50
   5   1  -8   38.00    2.30
   5   1  -8   40.20    2.70
   5   1  -8   41.30    2.50
  -5  -1   8   45.90    3.00
  -5  -1   8   40.90    4.10
  -5  -1   8   41.30    3.50
   4   1  -8   68.29    2.80
   4   1  -8   66.09    3.00
   4   1  -8   76.39    2.80
  -4  -1   8   69.19    4.00
  -4  -1   8   70.29    3.60
  -4  -1   8   72.49    3.20
  -4  -1   8   72.09    3.90
   3   1  -8    3.50    0.80
   3   1  -8    1.40    1.00
   3   1  -8    3.70    0.80
   3   1  -8    5.10    1.10
  -3  -1   8    3.10    1.10
  -3  -1   8    3.90    1.30
  -3  -1   8    3.10    0.80
  -3  -1   8    5.20    1.00
   2   1  -8  585.54   16.20
   2   1  -8  561.44   15.70
   2   1  -8  570.24   15.70
   2   1  -8  570.74   15.70
   2   1  -8  589.64   16.10
   2   1  -8  572.64   16.50
   2   1  -8  555.14   16.00
  -2  -1   8  585.04   16.10
  -2  -1   8  582.44   15.90
  -2  -1   8  566.44   16.30
  -2  -1   8  575.34   16.20
  -2  -1   8  596.34   16.10
  -2  -1   8  597.44   16.30
   1   1  -8    3.50    0.70
   1   1  -8    4.40    0.70
   1   1  -8    5.20    0.60
   1   1  -8    5.60    0.60
   1   1  -8    5.90    0.70
  -1  -1   8    4.30    0.50
  -1  -1   8    4.30    0.60
  -1  -1   8    3.80    0.70
  -1  -1   8    5.20    0.50
  -1  -1   8    3.80    0.70
  -1  -1   8    4.50    0.70
  -1  -1   8    4.60    0.60
   0   1  -8   39.20    1.70
   0   1  -8   41.10    1.50
   0   1  -8   42.90    1.90
   0   1  -8   42.30    1.80
   0   1  -8   41.60    1.30
   0   1  -8   42.30    1.90
   0  -1   8   41.10    1.60
   0  -1   8   42.10    1.80
   0  -1   8   43.30    1.70
   0  -1   8   41.10    1.80
   0  -1   8   40.20    1.30
   0  -1   8   41.00    1.50
   0  -1   8   39.50    1.70
   0  -1   8   40.80    1.60
  -1   1  -8   48.30    2.10
  -1   1  -8   48.60    1.70
  -1   1  -8   43.60    2.10
  -1   1  -8   46.10    2.00
   1  -1   8   47.60    2.10
   1  -1   8   48.50    1.70
   1  -1   8   43.70    1.90
   1  -1   8   44.90    2.00
   1  -1   8   45.40    1.80
   1  -1   8   44.80    1.80
  -2   1  -8  696.33   19.50
  -2   1  -8  706.33   19.90
  -2   1  -8  714.93   19.40
  -2   1  -8  696.63   20.00
  -2   1  -8  717.33   19.80
   2  -1   8  701.43   19.60
   2  -1   8  711.43   19.50
   2  -1   8  711.33   20.00
   2  -1   8  711.03   19.60
   2  -1   8  728.03   19.80
   2  -1   8  702.43   20.00
  -3   1  -8    8.70    0.80
  -3   1  -8    8.30    1.20
  -3   1  -8    7.90    1.80
  -3   1  -8    7.60    1.30
   3  -1   8   10.90    1.80
   3  -1   8    5.60    1.70
   3  -1   8    7.60    1.10
   3  -1   8    7.50    0.90
   3  -1   8    9.70    1.10
  -4   1  -8  179.18    5.50
  -4   1  -8  186.78    6.20
   4  -1   8  175.28    5.60
   4  -1   8  185.78    6.10
   4  -1   8  183.38    6.20
  -5   1  -8  264.87    7.80
  -5   1  -8  264.17    8.80
   5  -1   8  265.27    7.80
   5  -1   8  268.67    8.70
   5  -1   8  259.37    8.70
  -6   1  -8    1.10    2.10
   6  -1   8   -2.40    2.00
   6  -1   8    1.80    2.10
   7   0  -8    1.30    2.10
   7   0  -8    2.80    2.00
  -7   0   8    2.30    2.60
  -7   0   8   -4.30    3.30
   6   0  -8    4.00    1.10
   6   0  -8    5.50    1.70
  -6   0   8    4.10    2.10
  -6   0   8    2.70    2.70
   5   0  -8   43.70    2.70
   5   0  -8   41.40    2.40
   5   0  -8   42.30    2.00
  -5   0   8   36.40    3.30
   4   0  -8  286.27    9.00
   4   0  -8  273.87    8.50
   4   0  -8  290.77    8.50
   4   0  -8  293.17    8.30
  -4   0   8  285.27    9.00
  -4   0   8  268.67    8.80
  -4   0   8  302.07    9.00
  -4   0   8  283.77    9.10
   3   0  -8  133.99    4.60
   3   0  -8  141.19    4.70
   3   0  -8  133.89    4.20
   3   0  -8  132.39    4.30
   3   0  -8  138.39    4.40
  -3   0   8  134.49    4.70
  -3   0   8  132.99    4.80
  -3   0   8  140.49    4.60
  -3   0   8  143.39    4.70
   2   0  -8  421.46   12.00
   2   0  -8  417.56   11.80
   2   0  -8  418.76   11.90
  -2   0   8  426.86   12.00
  -2   0   8  434.36   11.70
  -2   0   8  406.06   12.00
  -2   0   8  414.56   11.80
  -2   0   8  408.76   12.00
  -2   0   8  414.06   11.90
   1   0  -8  257.07    7.30
   1   0  -8  250.67    7.70
   1   0  -8  266.17    7.70
   1   0  -8  269.77    7.70
   1   0  -8  262.67    7.60
  -1   0   8  274.67    7.60
  -1   0   8  273.47    7.50
  -1   0   8  270.27    7.80
  -1   0   8  270.87    7.80
  -1   0   8  258.97    7.70
   0   0  -8 1704.43   44.00
   0   0  -8 1625.24   43.80
   0   0  -8 1550.34   43.90
   0   0  -8 1677.63   44.00
   0   0  -8 1586.14   44.10
   0   0   8 1581.04   44.00
   0   0   8 1651.13   43.90
   0   0   8 1608.14   44.10
   0   0   8 1668.73   44.10
   0   0   8 1561.04   43.80
  -1   0  -8   65.49    2.50
  -1   0  -8   64.29    2.30
  -1   0  -8   65.69    2.50
  -1   0  -8   65.49    2.40
   1   0   8   62.99    2.10
   1   0   8   66.79    2.60
   1   0   8   64.99    2.30
   1   0   8   63.39    2.60
   1   0   8   66.69    2.30
  -2   0  -8  139.19    4.40
  -2   0  -8  134.09    4.50
  -2   0  -8  137.39    4.50
  -2   0  -8  132.39    4.70
   2   0   8  139.79    4.20
   2   0   8  143.89    4.50
   2   0   8  139.59    4.90
   2   0   8  138.99    4.60
  -3   0  -8    8.40    1.20
  -3   0  -8    9.00    0.60
  -3   0  -8    8.10    1.20
   3   0   8    9.30    1.20
   3   0   8    7.80    0.80
   3   0   8    7.20    1.10
   3   0   8   11.50    1.90
  -4   0  -8   70.09    2.30
  -4   0  -8   74.39    3.60
   4   0   8   72.99    2.60
   4   0   8   73.79    3.50
   4   0   8   71.69    3.40
  -5   0  -8   86.09    4.50
  -5   0  -8   78.29    3.10
   5   0   8   95.09    4.40
   5   0   8   89.19    3.00
   5   0   8   87.09    4.40
  -6   0  -8  129.29    6.30
   6   0   8  139.19    6.20
   6   0   8  132.09    6.10
   7  -1  -8   60.29    4.40
  -7   1   8   73.89    6.20
  -7   1   8   62.29    5.00
   6  -1  -8   81.99    3.70
   6  -1  -8   84.39    4.10
  -6   1   8   92.49    5.50
  -6   1   8   89.09    4.80
   5  -1  -8  131.29    4.70
   5  -1  -8  133.19    5.20
   5  -1  -8  136.39    5.40
   5  -1  -8  136.19    4.70
  -5   1   8  126.89    5.30
  -5   1   8  132.79    5.40
   4  -1  -8   49.80    2.50
   4  -1  -8   50.09    2.90
   4  -1  -8   48.90    2.20
   4  -1  -8   49.10    2.50
  -4   1   8   50.69    2.70
  -4   1   8   46.60    2.90
  -4   1   8   49.20    2.80
   3  -1  -8   12.00    1.40
   3  -1  -8   11.40    1.00
   3  -1  -8   15.60    1.50
   3  -1  -8   15.00    1.50
  -3   1   8   11.90    1.10
  -3   1   8   10.30    1.30
  -3   1   8   12.90    1.30
  -3   1   8   13.60    1.70
   2  -1  -8 1201.68   32.20
   2  -1  -8 1090.49   32.60
   2  -1  -8 1163.98   32.60
   2  -1  -8 1222.68   32.70
  -2   1   8 1215.78   32.60
  -2   1   8 1228.08   32.70
  -2   1   8 1201.38   32.90
  -2   1   8 1193.58   32.60
  -2   1   8 1209.48   32.40
   1  -1  -8 2540.35   67.49
   1  -1  -8 2580.24   67.99
   1  -1  -8 2619.04   67.69
   1  -1  -8 2372.16   67.59
   1  -1  -8 2467.85   67.69
  -1   1   8 2427.76   67.79
  -1   1   8 2455.55   67.59
  -1   1   8 2534.15   67.49
  -1   1   8 2497.75   67.69
  -1   1   8 2469.35   67.59
  -1   1   8 2556.84   67.39
   0  -1  -8  777.22   21.20
   0  -1  -8  793.52   21.50
   0  -1  -8  750.12   21.50
   0  -1  -8  800.32   21.40
   0  -1  -8  788.52   21.40
   0  -1  -8  796.32   21.40
   0   1   8  796.32   21.40
   0   1   8  759.22   21.50
   0   1   8  774.42   21.60
   0   1   8  755.02   21.40
   0   1   8  777.02   21.50
  -1  -1  -8    2.60    0.70
  -1  -1  -8    2.90    0.60
  -1  -1  -8    3.00    0.80
  -1  -1  -8    3.40    0.70
  -1  -1  -8    2.40    0.60
  -1  -1  -8    2.60    0.50
   1   1   8    3.20    1.00
   1   1   8    3.30    1.00
   1   1   8    3.00    0.60
   1   1   8    4.50    0.80
  -2  -1  -8   44.00    2.10
  -2  -1  -8   43.10    1.90
  -2  -1  -8   43.40    2.20
  -2  -1  -8   42.50    2.50
   2   1   8   46.60    1.80
   2   1   8   42.30    2.20
   2   1   8   47.10    3.00
   2   1   8   44.80    2.70
  -3  -1  -8  271.57    8.60
  -3  -1  -8  275.47    8.10
  -3  -1  -8  281.17    8.40
   3   1   8  276.67    7.90
   3   1   8  280.57    8.60
   3   1   8  278.07    9.20
  -4  -1  -8  254.87    8.40
   4   1   8  251.97    8.40
  -5  -1  -8    1.10    1.80
   5   1   8    4.30    1.90
  -6  -1  -8   34.90    3.60
   6   1   8   42.20    4.80
   7  -2  -8   48.80    4.00
   7  -2  -8   55.09    3.80
  -7   2   8   53.19    5.90
  -7   2   8   54.39    4.60
   6  -2  -8    1.60    1.60
   6  -2  -8    3.90    1.50
   6  -2  -8    8.40    2.30
  -6   2   8    3.10    1.80
  -6   2   8    6.20    2.30
   5  -2  -8   42.60    2.90
   5  -2  -8   33.70    3.00
   5  -2  -8   37.00    2.30
  -5   2   8   37.70    2.90
  -5   2   8   44.30    3.00
   4  -2  -8  562.44   16.80
   4  -2  -8  564.94   16.70
   4  -2  -8  582.14   16.20
   4  -2  -8  584.04   16.80
  -4   2   8  585.54   16.80
  -4   2   8  604.44   16.30
   3  -2  -8  250.77    7.10
   3  -2  -8  248.88    7.60
   3  -2  -8  244.68    7.60
   3  -2  -8  250.57    7.70
  -3   2   8  246.78    7.00
  -3   2   8  248.88    7.60
  -3   2   8  241.68    8.00
  -3   2   8  244.68    7.50
  -3   2   8  246.28    7.40
   2  -2  -8  147.09    4.80
   2  -2  -8  145.49    4.90
   2  -2  -8  156.28    4.20
   2  -2  -8  152.18    4.80
   2  -2  -8  149.09    4.30
  -2   2   8  153.18    4.80
  -2   2   8  145.29    5.20
  -2   2   8  153.08    4.70
  -2   2   8  159.48    4.80
   1  -2  -8   18.80    1.40
   1  -2  -8   18.90    1.30
   1  -2  -8   18.20    0.90
   1  -2  -8   17.70    1.20
   1  -2  -8   19.30    1.30
  -1   2   8   20.80    1.30
  -1   2   8   18.60    1.60
  -1   2   8   18.70    1.30
  -1   2   8   18.60    1.30
  -1   2   8   18.60    1.00
   0  -2  -8   63.39    2.40
   0  -2  -8   64.79    2.30
   0  -2  -8   63.19    2.50
   0  -2  -8   63.79    2.40
   0  -2  -8   64.59    2.40
   0   2   8   63.59    2.60
   0   2   8   63.79    2.70
   0   2   8   60.89    2.60
   0   2   8   66.29    2.60
   0   2   8   68.49    2.50
   0   2   8   64.89    2.00
  -1  -2  -8  251.87    7.90
  -1  -2  -8  274.97    7.60
  -1  -2  -8  273.57    7.80
  -1  -2  -8  261.07    7.90
  -1  -2  -8  264.67    7.90
   1   2   8  265.57    8.20
   1   2   8  268.17    8.00
   1   2   8  276.27    7.90
   1   2   8  250.07    8.20
  -2  -2  -8    9.70    1.10
  -2  -2  -8    7.80    0.80
  -2  -2  -8    6.60    1.10
  -2  -2  -8   12.00    1.30
  -2  -2  -8    7.40    1.20
  -2  -2  -8    9.00    1.50
   2   2   8    9.50    1.60
   2   2   8    8.90    1.30
   2   2   8    8.00    2.00
   2   2   8   10.40    1.10
  -3  -2  -8   12.50    1.60
  -3  -2  -8   11.10    1.40
  -3  -2  -8   15.00    1.30
   3   2   8   11.60    2.10
   3   2   8   14.80    1.80
  -4  -2  -8    8.00    2.00
  -4  -2  -8    5.00    1.70
   4   2   8    6.80    1.80
  -5  -2  -8   18.20    2.60
  -5  -2  -8   11.30    2.40
   5   2   8   14.40    2.70
   6   2   8   13.60    3.10
   7  -3  -8   15.40    2.70
  -7   3   8   15.30    3.30
  -7   3   8   18.00    2.80
   6  -3  -8   29.20    2.80
   6  -3  -8   26.50    3.00
  -6   3   8   19.80    2.40
  -6   3   8   27.20    2.90
   5  -3  -8  160.68    6.10
   5  -3  -8  156.58    6.20
  -5   3   8  152.38    5.30
  -5   3   8  157.88    5.80
   4  -3  -8  360.26   11.30
   4  -3  -8  370.96   11.20
  -4   3   8  378.26   10.40
  -4   3   8  363.86   11.00
  -4   3   8  363.96   10.70
   3  -3  -8   40.70    2.30
   3  -3  -8   40.90    2.60
   3  -3  -8   40.20    2.70
  -3   3   8   42.30    1.90
  -3   3   8   42.70    2.20
  -3   3   8   38.50    2.30
   2  -3  -8  216.78    7.00
   2  -3  -8  215.08    6.70
   2  -3  -8  213.88    6.80
   2  -3  -8  214.88    6.60
  -2   3   8  214.58    6.30
  -2   3   8  207.68    6.50
  -2   3   8  220.88    6.50
  -2   3   8  211.68    6.50
   1  -3  -8    1.00    0.60
   1  -3  -8   -0.40    0.80
   1  -3  -8    0.90    0.80
   1  -3  -8    1.30    0.60
  -1   3   8    0.70    0.80
  -1   3   8    1.30    0.90
  -1   3   8   -0.10    0.50
  -1   3   8    0.80    0.70
   0  -3  -8  484.55   13.40
   0  -3  -8  484.25   13.50
   0  -3  -8  491.15   13.40
   0  -3  -8  455.35   13.60
   0  -3  -8  478.25   13.50
   0   3   8  473.35   13.20
   0   3   8  457.75   13.50
   0   3   8  468.75   13.30
   0   3   8  488.65   13.80
   0   3   8  481.25   13.60
   0   3   8  476.15   12.90
   0   3   8  456.45   13.70
   0   3   8  471.95   13.70
  -1  -3  -8  145.59    4.80
  -1  -3  -8  131.09    4.90
  -1  -3  -8  138.49    4.70
  -1  -3  -8  150.28    4.90
  -1  -3  -8  149.09    4.40
  -1  -3  -8  137.69    4.90
   1   3   8  144.09    4.00
   1   3   8  148.59    4.40
   1   3   8  152.58    5.10
   1   3   8  136.59    5.40
   1   3   8  137.49    5.10
  -2  -3  -8  425.06   11.70
  -2  -3  -8  423.46   12.40
  -2  -3  -8  422.06   12.30
   2   3   8  409.36   12.80
   2   3   8  408.66   12.00
   2   3   8  430.96   12.60
  -3  -3  -8  128.29    4.80
  -3  -3  -8  129.29    5.10
  -3  -3  -8  123.29    3.80
   3   3   8  122.29    4.60
   3   3   8  129.49    5.20
  -4  -3  -8  255.57    9.10
  -4  -3  -8  270.47    8.80
   4   3   8  274.77    9.20
   4   3   8  250.97    8.60
  -5  -3  -8    7.60    2.50
  -5  -3  -8    7.60    2.80
   5   3   8   12.80    2.60
   5   3   8    9.30    2.90
   7  -4  -8  218.68    9.50
   7  -4  -8  229.28    8.90
  -7   4   8  225.38    8.50
  -7   4   8  234.88    9.00
   6  -4  -8    9.70    2.50
   6  -4  -8   12.30    2.70
  -6   4   8    7.10    2.00
  -6   4   8   10.30    2.40
   5  -4  -8    0.40    1.50
   5  -4  -8    2.80    1.90
  -5   4   8   -0.60    1.30
  -5   4   8    0.30    1.50
  -5   4   8   -0.10    1.20
  -5   4   8    0.70    1.10
   4  -4  -8   75.19    4.00
   4  -4  -8   72.49    3.60
  -4   4   8   74.39    2.80
  -4   4   8   69.49    3.20
   3  -4  -8  248.98    8.20
   3  -4  -8  229.58    7.80
   3  -4  -8  234.68    7.60
  -3   4   8  250.37    7.60
  -3   4   8  244.58    7.00
  -3   4   8  238.78    7.30
   2  -4  -8 1173.08   32.10
   2  -4  -8 1107.09   32.20
   2  -4  -8 1211.98   31.80
   2  -4  -8 1136.99   32.70
   2  -4  -8 1124.19   32.30
  -2   4   8 1172.98   32.10
  -2   4   8 1142.49   31.80
  -2   4   8 1187.88   32.20
  -2   4   8 1186.38   31.90
  -2   4   8 1188.28   32.50
   1  -4  -8  729.83   21.10
   1  -4  -8  757.12   20.70
   1  -4  -8  762.52   21.00
   1  -4  -8  751.22   21.10
   1  -4  -8  742.53   20.40
  -1   4   8  718.63   21.00
  -1   4   8  764.52   20.90
  -1   4   8  748.33   20.90
  -1   4   8  761.82   20.80
  -1   4   8  745.33   20.90
   0  -4  -8  277.27    8.30
   0  -4  -8  271.17    8.50
   0  -4  -8  277.87    8.20
   0  -4  -8  281.07    8.40
   0  -4  -8  274.67    8.40
   0   4   8  275.17    8.10
   0   4   8  291.87    8.60
   0   4   8  283.87    7.80
   0   4   8  280.47    8.30
   0   4   8  275.67    8.80
   0   4   8  271.77    8.70
  -1  -4  -8    1.50    0.80
  -1  -4  -8    2.30    1.00
  -1  -4  -8    1.10    1.00
   1   4   8    0.30    0.60
   1   4   8    0.50    0.70
   1   4   8    0.90    1.80
   1   4   8    0.80    1.20
   1   4   8    1.40    1.40
  -2  -4  -8    3.80    1.30
  -2  -4  -8    2.70    0.70
  -2  -4  -8    2.20    1.30
   2   4   8    2.60    1.70
   2   4   8    1.70    1.80
   2   4   8    3.90    1.10
  -3  -4  -8   30.30    3.30
  -3  -4  -8   29.20    2.90
   3   4   8   36.10    3.50
   3   4   8   33.70    2.70
  -4  -4  -8   87.19    5.20
  -4  -4  -8   84.19    4.70
   4   4   8   84.79    4.50
   4   4   8   85.59    5.50
  -5  -4  -8   -5.30    3.90
   5   4   8   -0.90    2.50
   7  -5  -8   59.79    5.90
   7  -5  -8   71.09    6.40
  -7   5   8   63.99    4.50
   6  -5  -8  115.39    6.00
   6  -5  -8  111.19    6.30
  -6   5   8  102.99    4.90
   5  -5  -8   67.89    4.10
   5  -5  -8   66.19    4.70
  -5   5   8   65.89    3.50
  -5   5   8   64.39    3.40
   4  -5  -8  245.98    8.40
   4  -5  -8  237.78    9.70
  -4   5   8  250.97    7.20
  -4   5   8  252.47    7.70
  -4   5   8  250.67    8.20
   3  -5  -8  942.61   26.40
   3  -5  -8  945.21   25.50
   3  -5  -8  948.51   27.10
  -3   5   8  907.91   25.90
  -3   5   8  955.50   26.40
  -3   5   8  956.20   26.60
  -3   5   8  909.81   25.60
   2  -5  -8  104.29    4.10
   2  -5  -8  100.59    4.80
   2  -5  -8  104.69    3.10
   2  -5  -8  111.39    3.60
  -2   5   8  105.19    4.10
  -2   5   8  105.09    3.80
  -2   5   8  102.69    3.80
  -2   5   8  103.29    4.30
   1  -5  -8    0.10    1.00
   1  -5  -8    1.80    2.20
   1  -5  -8    0.20    0.80
   1  -5  -8    0.80    0.70
  -1   5   8    0.00    1.10
  -1   5   8    1.30    1.30
  -1   5   8    0.60    0.90
  -1   5   8    0.50    1.10
   0  -5  -8  597.84   17.30
   0  -5  -8  631.64   17.50
   0  -5  -8  626.94   17.20
   0  -5  -8  595.94   17.40
   0   5   8  607.64   17.40
   0   5   8  619.74   17.20
   0   5   8  613.74   16.80
   0   5   8  612.14   18.00
   0   5   8  576.54   17.80
   0   5   8  617.94   17.60
  -1  -5  -8   10.50    1.60
  -1  -5  -8    9.80    1.30
  -1  -5  -8   14.20    1.60
  -1  -5  -8    9.80    2.10
   1   5   8   12.80    1.30
   1   5   8   14.10    2.20
   1   5   8   10.10    2.20
   1   5   8   12.70    1.40
  -2  -5  -8   84.59    4.00
  -2  -5  -8   78.69    3.90
   2   5   8   78.29    3.60
   2   5   8   76.39    4.60
  -3  -5  -8   61.99    4.10
  -3  -5  -8   61.39    4.30
   3   5   8   59.79    4.90
   3   5   8   64.79    3.80
  -4  -5  -8   57.59    4.80
  -4  -5  -8   47.00    5.00
   4   5   8   43.20    4.30
   4   5   8   48.60    4.30
   7  -6  -8   58.49    6.20
   7  -6  -8   45.40    4.80
  -7   6   8   50.09    4.40
   6  -6  -8    1.70    3.00
   6  -6  -8    0.00    2.50
  -6   6   8    2.40    1.90
  -6   6   8    0.90    3.00
   5  -6  -8  335.47   11.10
   5  -6  -8  335.27   11.90
  -5   6   8  339.27   11.00
  -5   6   8  336.77   10.20
  -5   6   8  333.47   11.50
   4  -6  -8   -0.20    2.30
   4  -6  -8    2.70    1.70
  -4   6   8    1.70    1.60
  -4   6   8   -0.80    1.20
  -4   6   8   -1.20    1.90
   3  -6  -8    5.50    2.10
   3  -6  -8    8.90    1.70
   3  -6  -8    7.50    0.90
  -3   6   8    8.10    1.20
  -3   6   8    6.80    1.90
  -3   6   8    8.80    1.40
  -3   6   8    4.80    1.50
   2  -6  -8  405.16   13.00
   2  -6  -8  408.46   12.10
   2  -6  -8  399.16   11.10
   2  -6  -8  404.06   11.40
  -2   6   8  403.76   11.60
  -2   6   8  394.86   12.20
  -2   6   8  396.66   12.10
  -2   6   8  388.46   11.60
   1  -6  -8   66.39    2.60
   1  -6  -8   66.49    2.80
   1  -6  -8   68.09    3.30
   1  -6  -8   70.69    4.50
  -1   6   8   65.69    3.40
  -1   6   8   64.09    3.40
  -1   6   8   68.19    3.90
  -1   6   8   69.09    3.40
   0  -6  -8  172.18    5.70
   0  -6  -8  165.88    6.10
   0  -6  -8  181.98    6.20
   0   6   8  178.98    6.20
   0   6   8  174.28    5.80
   0   6   8  178.88    6.50
   0   6   8  188.38    7.10
   0   6   8  163.98    7.00
  -1  -6  -8   31.10    2.70
  -1  -6  -8   30.40    2.80
   1   6   8   36.50    3.80
   1   6   8   35.10    2.30
   1   6   8   28.50    2.00
  -2  -6  -8   53.09    3.90
  -2  -6  -8   50.79    3.80
   2   6   8   58.49    4.90
   2   6   8   53.19    3.40
  -3  -6  -8   29.80    3.00
  -3  -6  -8   28.00    3.20
   3   6   8   30.30    3.80
   3   6   8   29.00    2.80
   6  -7  -8   21.10    3.40
   6  -7  -8   13.60    4.20
  -6   7   8   21.70    3.40
  -6   7   8   23.10    4.10
   5  -7  -8  288.07   11.50
   5  -7  -8  300.37   10.50
  -5   7   8  309.17   10.60
  -5   7   8  311.07   11.10
   4  -7  -8  106.69    5.10
   4  -7  -8  106.59    6.50
  -4   7   8  107.39    5.80
  -4   7   8  101.69    5.20
   3  -7  -8   70.89    5.30
   3  -7  -8   76.69    4.00
  -3   7   8   81.49    4.80
  -3   7   8   73.69    4.40
   2  -7  -8    9.90    1.90
   2  -7  -8    5.80    2.60
  -2   7   8    6.00    1.80
   1  -7  -8  241.48    7.40
   1  -7  -8  250.37    8.10
   1  -7  -8  242.68    9.40
  -1   7   8  238.88    8.10
  -1   7   8  240.28    8.30
   0  -7  -8   16.10    1.70
   0  -7  -8   15.80    3.20
   0  -7  -8   14.30    2.10
   0   7   8   15.60    2.00
   0   7   8   14.50    1.90
  -1  -7  -8   88.69    4.30
  -1  -7  -8   86.29    4.50
   1   7   8   75.99    5.80
  -2  -7  -8  160.88    6.70
  -2  -7  -8  160.98    6.80
   2   7   8  155.48    8.00
   5  -8  -8    3.90    3.80
   5  -8  -8    2.90    2.90
  -5   8   8    0.00    2.80
  -5   8   8    2.50    3.30
   4  -8  -8    3.50    3.80
   4  -8  -8   -2.80    2.30
  -4   8   8    2.40    2.90
  -4   8   8    2.50    2.50
   3  -8  -8  111.79    7.10
   3  -8  -8  111.39    5.40
  -3   8   8  103.29    5.70
  -3   8   8  111.59    5.60
   2  -8  -8   43.30    3.80
   2  -8  -8   36.50    4.20
  -2   8   8   49.40    4.40
  -2   8   8   40.30    4.00
   1  -8  -8    5.10    3.30
   1  -8  -8    7.20    2.10
  -1   8   8    5.00    2.20
  -1   8   8    4.40    2.20
   0  -8  -8   66.79    6.40
   0  -8  -8   82.39    4.70
   0   8   8   66.99    4.70
  -1   9  -9    6.40    4.00
  -1   9  -9    2.80    2.70
  -1   9  -9   10.30    3.10
   1  -9   9    5.00    2.60
   1  -9   9    6.60    2.70
  -2   9  -9   10.80    3.10
  -2   9  -9    9.00    4.00
  -2   9  -9   10.70    3.50
   2  -9   9    6.20    3.00
   2  -9   9    5.40    2.90
   2   8  -9   68.39    7.80
  -2  -8   9   77.99    4.30
  -2  -8   9   81.09    7.00
   1   8  -9   32.90    4.90
   1   8  -9   29.00    3.20
  -1  -8   9   25.80    2.60
  -1  -8   9   28.20    3.50
   0   8  -9    1.30    2.10
   0   8  -9   -2.00    3.30
   0  -8   9   -1.70    2.50
   0  -8   9    1.20    1.90
   0  -8   9    0.70    1.90
  -1   8  -9  282.77   10.00
  -1   8  -9  287.37    9.90
  -1   8  -9  301.37   11.20
   1  -8   9  285.57    9.80
   1  -8   9  307.67   10.00
  -2   8  -9    1.90    3.10
  -2   8  -9   -0.10    2.20
  -2   8  -9    0.80    2.20
   2  -8   9   -2.20    2.20
   2  -8   9    1.60    2.20
  -3   8  -9  213.88    8.70
  -3   8  -9  234.68    9.40
  -3   8  -9  222.68    8.60
   3  -8   9  220.58    8.90
   3  -8   9  220.18    8.70
  -4   8  -9    3.10    3.00
  -4   8  -9    2.10    2.60
  -4   8  -9    1.80    2.80
   4  -8   9    5.00    2.90
   4  -8   9    5.90    2.80
   3   7  -9   28.10    3.10
  -3  -7   9   31.70    2.90
  -3  -7   9   32.10    2.90
  -3  -7   9   31.00    4.40
   2   7  -9   40.70    3.90
   2   7  -9   52.19    6.00
  -2  -7   9   39.90    4.00
  -2  -7   9   50.19    3.00
  -2  -7   9   44.10    2.90
   1   7  -9  289.07   10.80
   1   7  -9  283.67    9.40
  -1  -7   9  281.47    8.70
   0   7  -9    3.50    2.60
   0  -7   9    2.00    1.50
   0  -7   9    5.30    1.50
  -1   7  -9  116.49    6.20
  -1   7  -9  116.09    5.10
  -1   7  -9  116.79    5.40
   1  -7   9  113.09    5.30
   1  -7   9  122.59    5.00
   1  -7   9  126.09    5.30
  -2   7  -9   10.90    2.90
  -2   7  -9   13.80    2.20
  -2   7  -9   15.70    2.50
   2  -7   9   12.10    2.20
   2  -7   9   12.50    2.10
  -3   7  -9  126.99    5.90
  -3   7  -9  135.29    5.80
  -3   7  -9  128.49    6.40
   3  -7   9  129.99    5.90
   3  -7   9  135.19    6.20
  -4   7  -9    1.60    2.80
  -4   7  -9    3.00    2.30
  -4   7  -9    1.00    2.10
   4  -7   9    1.40    2.20
   4  -7   9    6.40    2.50
  -5   7  -9   98.29    5.90
  -5   7  -9   87.09    6.30
  -5   7  -9   85.89    6.10
   5  -7   9   89.99    5.90
   5  -7   9   93.09    6.10
   4   6  -9    8.10    2.50
   4   6  -9    5.20    2.70
  -4  -6   9    6.80    3.80
  -4  -6   9    6.30    2.30
   3   6  -9   16.60    2.40
   3   6  -9   22.40    2.40
   3   6  -9   11.10    3.20
  -3  -6   9   21.90    3.40
  -3  -6   9   18.90    2.20
  -3  -6   9   15.70    2.10
   2   6  -9  105.69    6.20
   2   6  -9   99.99    4.70
  -2  -6   9  100.29    3.40
  -2  -6   9  107.79    3.70
  -2  -6   9  110.29    4.20
  -2  -6   9  110.59    4.20
   1   6  -9  253.47    9.20
   1   6  -9  238.68    7.90
  -1  -6   9  241.58    7.00
  -1  -6   9  243.38    7.30
  -1  -6   9  231.08    7.40
  -1  -6   9  241.98    7.30
  -1  -6   9  243.08    7.70
  -1  -6   9  246.08    6.90
   0   6  -9    4.60    1.90
   0   6  -9    0.30    1.80
   0   6  -9    1.10    1.20
   0  -6   9    1.50    1.50
   0  -6   9    2.60    1.20
   0  -6   9    0.40    1.10
   0  -6   9    0.20    1.20
   0  -6   9   -0.50    1.00
  -1   6  -9   13.30    1.70
  -1   6  -9   13.70    1.80
  -1   6  -9    7.70    2.50
   1  -6   9   17.10    1.70
   1  -6   9   14.30    1.30
   1  -6   9   14.30    1.60
   1  -6   9   10.00    1.70
   1  -6   9   12.50    1.60
  -2   6  -9    7.60    1.60
  -2   6  -9    7.60    1.70
  -2   6  -9    5.50    2.00
   2  -6   9    4.70    1.30
   2  -6   9    3.60    1.60
   2  -6   9    7.10    1.60
   2  -6   9    8.90    1.80
   2  -6   9    7.50    1.50
  -3   6  -9    4.90    1.70
  -3   6  -9    6.40    1.80
  -3   6  -9    3.90    2.10
   3  -6   9    8.30    2.00
   3  -6   9    3.60    1.70
   3  -6   9    5.80    1.50
  -4   6  -9   12.70    1.80
  -4   6  -9   11.90    2.70
  -4   6  -9   15.50    2.30
   4  -6   9   10.90    2.40
   4  -6   9    8.80    2.20
  -5   6  -9  106.39    5.80
  -5   6  -9   93.49    5.30
   5  -6   9  103.29    5.70
   5  -6   9  106.29    5.70
  -6   6  -9   19.30    3.20
  -6   6  -9   15.60    3.80
   6  -6   9   25.50    5.50
   6  -6   9   20.10    3.30
   5   5  -9   30.40    3.20
   5   5  -9   30.70    3.30
  -5  -5   9   21.40    4.40
  -5  -5   9   20.50    3.10
   4   5  -9    8.20    2.00
   4   5  -9    9.60    2.10
  -4  -5   9    8.50    1.50
  -4  -5   9   10.60    2.30
  -4  -5   9    5.70    3.10
   3   5  -9  233.58    7.80
   3   5  -9  223.48    8.90
   3   5  -9  237.68    7.40
  -3  -5   9  222.18    7.70
  -3  -5   9  231.38    7.10
  -3  -5   9  214.58    7.50
   2   5  -9   10.20    2.30
   2   5  -9    6.80    1.40
  -2  -5   9   10.90    1.40
  -2  -5   9    8.70    1.20
  -2  -5   9   11.50    1.60
   1   5  -9    1.50    0.90
   1   5  -9    0.50    1.80
  -1  -5   9   -0.30    0.70
  -1  -5   9   -0.10    0.60
  -1  -5   9    0.20    0.80
  -1  -5   9    0.50    0.90
  -1  -5   9   -1.10    0.80
   0   5  -9   36.00    3.10
   0   5  -9   33.70    2.20
   0   5  -9   31.60    2.80
   0  -5   9   34.80    2.20
   0  -5   9   33.10    2.00
   0  -5   9   30.90    1.80
   0  -5   9   33.90    2.40
   0  -5   9   35.40    1.90
  -1   5  -9  635.34   18.10
  -1   5  -9  644.34   18.70
  -1   5  -9  610.44   18.40
  -1   5  -9  627.64   18.10
   1  -5   9  641.14   17.70
   1  -5   9  639.84   18.20
   1  -5   9  629.94   17.60
   1  -5   9  634.64   17.80
   1  -5   9  629.84   18.00
  -2   5  -9   53.59    3.40
  -2   5  -9   53.99    3.00
  -2   5  -9   54.19    3.00
   2  -5   9   58.79    2.70
   2  -5   9   63.29    3.10
   2  -5   9   56.49    3.20
   2  -5   9   55.19    2.70
  -3   5  -9   58.19    3.00
  -3   5  -9   60.29    3.20
  -3   5  -9   57.69    5.30
   3  -5   9   61.89    3.40
   3  -5   9   60.19    3.30
   3  -5   9   50.69    3.90
   3  -5   9   53.69    3.20
  -4   5  -9   -0.20    1.30
  -4   5  -9   -0.20    1.70
  -4   5  -9   -1.00    1.80
   4  -5   9    0.80    1.90
   4  -5   9   -0.10    1.60
   4  -5   9   -0.70    1.60
  -5   5  -9   49.60    3.70
  -5   5  -9   40.40    3.30
   5  -5   9   42.70    3.90
   5  -5   9   42.10    4.00
  -6   5  -9   27.10    3.10
  -6   5  -9   22.70    2.60
   6  -5   9   21.70    2.90
   6  -5   9   23.50    3.30
   6   4  -9    8.50    2.90
   6   4  -9   12.10    3.00
  -6  -4   9    2.80    2.80
   5   4  -9   49.90    4.10
   5   4  -9   64.39    4.00
  -5  -4   9   58.09    6.10
  -5  -4   9   59.39    4.40
   4   4  -9   52.09    3.10
   4   4  -9   46.30    3.30
  -4  -4   9   44.10    4.90
  -4  -4   9   49.40    2.60
  -4  -4   9   41.50    3.50
   3   4  -9  202.28    6.20
   3   4  -9  192.08    6.90
   3   4  -9  188.98    7.50
   3   4  -9  192.18    6.60
  -3  -4   9  197.68    6.10
  -3  -4   9  192.38    6.70
  -3  -4   9  187.68    6.50
   2   4  -9   -0.40    0.90
   2   4  -9   -0.30    1.50
   2   4  -9    1.40    0.90
   2   4  -9    1.00    1.50
  -2  -4   9    0.30    0.90
  -2  -4   9    0.50    0.70
  -2  -4   9    1.00    1.10
  -2  -4   9    0.30    1.20
   1   4  -9  105.79    3.60
   1   4  -9  100.49    4.50
   1   4  -9  102.29    3.50
   1   4  -9   98.79    3.80
   1   4  -9   98.89    4.50
  -1  -4   9  102.39    3.20
  -1  -4   9  106.59    3.70
  -1  -4   9  106.39    3.80
  -1  -4   9   97.39    4.10
  -1  -4   9  106.59    3.60
  -1  -4   9  102.79    3.20
  -1  -4   9  107.29    3.20
   0   4  -9  145.59    5.60
   0   4  -9  155.98    5.20
   0   4  -9  145.49    5.80
   0   4  -9  157.38    5.00
   0  -4   9  159.08    4.80
   0  -4   9  157.58    5.10
   0  -4   9  157.28    5.10
   0  -4   9  150.38    5.60
   0  -4   9  158.28    4.80
   0  -4   9  155.38    4.60
   0  -4   9  142.19    5.40
  -1   4  -9  164.78    5.30
  -1   4  -9  166.28    5.40
  -1   4  -9  161.78    5.80
  -1   4  -9  161.78    5.80
   1  -4   9  162.68    5.50
   1  -4   9  165.38    5.30
   1  -4   9  168.48    5.40
   1  -4   9  169.38    5.20
   1  -4   9  162.68    5.80
  -2   4  -9    3.60    1.10
  -2   4  -9    2.00    1.10
  -2   4  -9    3.00    1.00
  -2   4  -9    1.20    1.80
   2  -4   9    1.50    1.00
   2  -4   9    4.00    1.10
   2  -4   9    2.00    1.10
   2  -4   9    2.10    1.30
   2  -4   9    4.80    1.10
  -3   4  -9  296.47    9.00
  -3   4  -9  294.37    8.90
  -3   4  -9  279.47    8.60
   3  -4   9  325.87    9.50
   3  -4   9  310.87    9.30
   3  -4   9  290.97    9.10
   3  -4   9  264.97    9.30
   3  -4   9  302.17    9.30
  -4   4  -9    5.20    1.40
  -4   4  -9    6.60    1.50
  -4   4  -9    6.70    1.40
   4  -4   9    5.80    1.50
   4  -4   9    4.30    1.60
  -5   4  -9   37.60    3.10
  -5   4  -9   41.00    3.20
   5  -4   9   43.40    3.40
   5  -4   9   37.90    3.50
  -6   4  -9    2.80    2.00
  -6   4  -9    3.70    2.10
   6  -4   9    0.20    1.90
   6  -4   9    0.30    2.50
   6   3  -9  110.39    5.50
   6   3  -9  106.09    5.70
  -6  -3   9  101.59    7.80
  -6  -3   9  108.19    6.10
   5   3  -9    9.60    1.90
   5   3  -9    6.60    1.90
  -5  -3   9    3.60    3.00
  -5  -3   9    9.90    2.30
  -5  -3   9    8.70    1.70
   4   3  -9    3.40    1.50
   4   3  -9    3.40    1.40
   4   3  -9    3.00    1.30
  -4  -3   9    4.40    1.20
  -4  -3   9    3.00    1.60
   3   3  -9   48.10    3.50
   3   3  -9   58.39    3.00
   3   3  -9   56.39    2.30
   3   3  -9   54.69    2.80
  -3  -3   9   52.69    2.80
  -3  -3   9   55.69    2.90
  -3  -3   9   54.99    2.50
  -3  -3   9   52.99    3.00
   2   3  -9   -0.40    0.70
   2   3  -9    0.30    1.20
   2   3  -9   -0.40    0.60
   2   3  -9    0.20    1.00
  -2  -3   9    0.20    0.80
  -2  -3   9   -0.90    1.40
  -2  -3   9    0.80    0.90
  -2  -3   9    0.70    0.70
  -2  -3   9    0.30    0.60
   1   3  -9  279.17    8.20
   1   3  -9  274.57    8.40
   1   3  -9  287.07    8.20
   1   3  -9  274.87    8.80
   1   3  -9  286.77    9.00
  -1  -3   9  281.27    8.00
  -1  -3   9  287.77    8.00
  -1  -3   9  295.17    8.60
  -1  -3   9  286.27    8.30
  -1  -3   9  286.97    8.40
  -1  -3   9  290.57    8.90
  -1  -3   9  287.77    8.70
  -1  -3   9  280.77    8.60
  -1  -3   9  300.57    8.40
   0   3  -9    9.30    1.40
   0   3  -9    8.80    1.10
   0   3  -9   10.20    1.10
   0   3  -9    8.70    1.30
   0  -3   9   10.20    1.20
   0  -3   9    8.40    0.70
   0  -3   9    8.10    1.00
   0  -3   9    9.90    1.00
   0  -3   9   10.80    1.10
   0  -3   9   10.70    1.20
   0  -3   9   11.20    1.20
  -1   3  -9   27.80    2.20
  -1   3  -9   26.30    2.00
  -1   3  -9   28.30    1.70
  -1   3  -9   26.50    1.60
  -1   3  -9   26.50    1.80
  -1   3  -9   27.80    2.50
   1  -3   9   28.00    1.60
   1  -3   9   28.40    1.60
   1  -3   9   28.80    1.70
   1  -3   9   28.80    1.80
   1  -3   9   25.90    2.00
  -2   3  -9   62.29    2.70
  -2   3  -9   58.99    2.20
  -2   3  -9   63.09    2.00
  -2   3  -9   57.09    3.30
  -2   3  -9   59.79    2.50
  -2   3  -9   53.59    3.50
   2  -3   9   65.29    2.70
   2  -3   9   63.89    2.80
   2  -3   9   60.79    2.80
   2  -3   9   62.89    2.70
   2  -3   9   62.79    2.80
  -3   3  -9   37.00    2.20
  -3   3  -9   41.30    2.30
  -3   3  -9   40.60    2.20
   3  -3   9   38.90    2.50
   3  -3   9   38.70    2.60
   3  -3   9   39.00    2.30
   3  -3   9   38.70    2.90
   3  -3   9   43.60    2.80
  -4   3  -9    7.50    1.40
  -4   3  -9    8.70    1.60
  -4   3  -9    8.40    1.30
   4  -3   9    5.30    1.30
   4  -3   9    7.20    1.60
  -5   3  -9  179.38    6.10
  -5   3  -9  178.08    6.90
   5  -3   9  185.98    6.30
   5  -3   9  180.08    6.70
  -6   3  -9   16.30    2.20
  -6   3  -9   16.60    2.50
   6  -3   9   11.90    2.70
   6   2  -9    0.10    1.80
   6   2  -9    1.10    1.90
  -6  -2   9    3.40    2.50
  -6  -2   9    5.90    3.60
   5   2  -9    0.50    1.40
   5   2  -9    2.00    1.40
   5   2  -9    0.80    1.40
  -5  -2   9   -0.50    1.30
  -5  -2   9    0.70    1.70
  -5  -2   9    2.60    2.40
   4   2  -9    1.10    1.10
   4   2  -9    1.00    0.90
   4   2  -9    0.10    1.10
  -4  -2   9    0.30    1.00
  -4  -2   9   -0.60    1.30
   3   2  -9   14.60    1.20
   3   2  -9   10.90    1.70
   3   2  -9   13.50    1.30
   3   2  -9   12.40    1.30
  -3  -2   9   16.70    1.80
  -3  -2   9   15.70    1.50
  -3  -2   9   11.20    1.70
  -3  -2   9   14.10    1.50
  -3  -2   9   14.00    1.50
  -3  -2   9   11.00    1.70
   2   2  -9  180.38    6.40
   2   2  -9  192.68    5.90
   2   2  -9  188.58    5.90
   2   2  -9  184.98    5.30
   2   2  -9  191.48    6.00
  -2  -2   9  195.48    5.70
  -2  -2   9  187.28    6.30
  -2  -2   9  195.18    5.80
  -2  -2   9  190.48    5.70
  -2  -2   9  196.78    6.00
  -2  -2   9  178.98    6.10
   1   2  -9  119.39    4.10
   1   2  -9  121.39    3.90
   1   2  -9  114.29    3.70
   1   2  -9  114.59    4.30
   1   2  -9  119.79    3.70
  -1  -2   9  119.19    3.50
  -1  -2   9  116.99    3.90
  -1  -2   9  118.99    3.90
  -1  -2   9  114.19    4.00
  -1  -2   9  115.29    4.20
  -1  -2   9  122.29    4.00
  -1  -2   9  121.89    3.60
  -1  -2   9  121.79    4.10
   0   2  -9   95.79    2.90
   0   2  -9   90.69    2.80
   0   2  -9   92.69    3.50
   0   2  -9   90.69    3.30
   0   2  -9   93.49    3.50
   0  -2   9   95.09    3.30
   0  -2   9   93.19    3.00
   0  -2   9   92.89    3.30
   0  -2   9   94.59    2.80
   0  -2   9   96.79    3.20
   0  -2   9   98.59    3.30
   0  -2   9   90.29    3.20
  -1   2  -9  296.87    9.20
  -1   2  -9  316.97    9.00
  -1   2  -9  300.47    8.50
  -1   2  -9  317.87    9.20
  -1   2  -9  290.77    9.10
   1  -2   9  307.37    8.90
   1  -2   9  303.27    9.00
   1  -2   9  304.47    9.00
   1  -2   9  310.07    9.00
   1  -2   9  310.07    8.90
  -2   2  -9   46.10    2.20
  -2   2  -9   43.40    2.80
  -2   2  -9   48.60    1.80
  -2   2  -9   47.30    2.80
  -2   2  -9   47.20    2.00
   2  -2   9   48.50    2.30
   2  -2   9   52.49    2.60
   2  -2   9   51.09    2.30
   2  -2   9   46.70    2.60
   2  -2   9   49.50    2.20
  -3   2  -9  349.57   10.40
  -3   2  -9  352.56   10.10
   3  -2   9  358.86   10.30
   3  -2   9  353.86   10.50
   3  -2   9  358.06   10.90
   3  -2   9  335.17   10.80
  -4   2  -9   39.90    2.10
  -4   2  -9   36.60    2.60
   4  -2   9   38.50    4.50
   4  -2   9   39.10    2.30
  -5   2  -9   49.10    2.70
  -5   2  -9   51.89    3.40
   5  -2   9   49.20    3.20
   5  -2   9   45.40    2.70
   5  -2   9   46.60    3.50
  -6   2  -9    2.60    2.10
   6  -2   9    0.60    2.10
   6  -2   9    1.60    2.30
   7   1  -9   16.00    2.60
   7   1  -9    9.10    2.60
  -7  -1   9    7.80    4.30
  -7  -1   9   10.90    3.20
   6   1  -9   54.39    4.50
   6   1  -9   55.49    3.70
  -6  -1   9   60.79    5.80
  -6  -1   9   54.59    4.30
   5   1  -9  142.29    4.90
   5   1  -9  137.59    5.10
   5   1  -9  129.99    4.70
  -5  -1   9  133.79    5.30
  -5  -1   9  137.29    5.80
   4   1  -9  178.58    5.90
   4   1  -9  185.68    5.80
   4   1  -9  190.88    5.70
  -4  -1   9  173.18    6.60
  -4  -1   9  178.58    6.40
  -4  -1   9  179.58    6.10
   3   1  -9   65.49    2.70
   3   1  -9   67.69    2.70
   3   1  -9   71.29    3.10
   3   1  -9   67.49    3.30
  -3  -1   9   71.39    2.90
  -3  -1   9   65.79    3.20
  -3  -1   9   68.69    2.90
  -3  -1   9   73.99    3.20
   2   1  -9   97.19    3.80
   2   1  -9  101.49    3.50
   2   1  -9   98.99    2.90
   2   1  -9   92.79    3.30
   2   1  -9   99.49    2.90
   2   1  -9  102.79    3.40
  -2  -1   9  102.29    3.30
  -2  -1   9   95.39    3.70
  -2  -1   9   98.29    3.60
  -2  -1   9   98.69    3.40
  -2  -1   9   98.69    3.60
  -2  -1   9  100.19    3.50
   1   1  -9   15.30    1.20
   1   1  -9   16.70    1.00
   1   1  -9   17.60    1.50
   1   1  -9   16.70    1.10
  -1  -1   9   17.20    1.00
  -1  -1   9   17.00    1.20
  -1  -1   9   16.00    1.40
  -1  -1   9   14.80    1.30
  -1  -1   9   16.70    1.30
  -1  -1   9   17.90    1.20
   0   1  -9   -0.10    0.40
   0   1  -9   -0.10    0.50
   0   1  -9   -0.10    0.50
   0   1  -9    0.00    0.60
   0   1  -9   -0.50    0.60
   0  -1   9   -0.20    0.70
   0  -1   9    0.30    0.40
   0  -1   9    1.30    0.50
   0  -1   9    0.30    0.30
   0  -1   9    0.20    0.40
   0  -1   9    0.10    0.40
   0  -1   9    0.60    0.50
   0  -1   9    0.50    0.60
  -1   1  -9  789.32   21.80
  -1   1  -9  815.62   22.20
  -1   1  -9  820.72   22.20
  -1   1  -9  784.52   22.10
   1  -1   9  803.32   21.90
   1  -1   9  790.72   22.00
   1  -1   9  783.12   21.80
   1  -1   9  823.52   22.20
   1  -1   9  795.72   22.20
   1  -1   9  774.72   22.10
  -2   1  -9   34.10    1.60
  -2   1  -9   34.60    1.50
  -2   1  -9   34.30    2.50
  -2   1  -9   33.40    2.20
  -2   1  -9   33.90    1.90
   2  -1   9   37.00    2.40
   2  -1   9   36.50    1.70
   2  -1   9   35.10    1.70
   2  -1   9   41.40    2.00
   2  -1   9   36.10    2.30
   2  -1   9   39.00    1.70
  -3   1  -9  237.18    8.00
  -3   1  -9  263.07    7.30
  -3   1  -9  263.57    7.90
   3  -1   9  253.87    7.90
   3  -1   9  254.47    8.50
   3  -1   9  253.97    7.80
   3  -1   9  254.87    7.50
  -4   1  -9  105.89    3.40
  -4   1  -9  112.29    4.40
   4  -1   9  107.69    3.70
   4  -1   9  109.99    4.20
   4  -1   9   91.29    5.90
  -5   1  -9   16.90    2.20
  -5   1  -9   14.80    1.60
   5  -1   9   14.40    2.00
   5  -1   9   14.50    1.40
   5  -1   9   16.50    2.20
  -6   1  -9   18.30    2.90
   6  -1   9   17.60    2.60
   6  -1   9   21.00    2.90
   7   0  -9   47.50    4.30
   7   0  -9   46.00    4.00
  -7   0   9   46.40    6.20
  -7   0   9   47.00    5.10
   6   0  -9  417.46   12.30
   6   0  -9  434.56   13.10
  -6   0   9  431.26   13.80
  -6   0   9  443.76   14.50
   5   0  -9  115.79    4.60
   5   0  -9  111.39    3.70
   5   0  -9  107.99    4.20
  -5   0   9  106.19    4.70
  -5   0   9  107.19    4.90
   4   0  -9   19.40    1.60
   4   0  -9   20.50    1.50
   4   0  -9   22.00    2.30
   4   0  -9   19.80    1.80
  -4   0   9   18.50    2.00
  -4   0   9   15.80    1.80
  -4   0   9   17.70    2.10
   3   0  -9   84.79    3.00
   3   0  -9   86.19    3.40
   3   0  -9   86.29    3.20
   3   0  -9   87.69    3.50
  -3   0   9   84.29    3.50
  -3   0   9   85.39    3.30
  -3   0   9   91.29    3.60
  -3   0   9   85.99    3.40
   2   0  -9  398.46   11.60
   2   0  -9  404.86   11.50
   2   0  -9  401.96   11.50
   2   0  -9  396.16   11.20
  -2   0   9  402.16   11.50
  -2   0   9  398.46   11.60
  -2   0   9  410.86   11.40
  -2   0   9  402.16   11.60
  -2   0   9  390.36   11.60
  -2   0   9  418.46   11.30
   1   0  -9 1911.51   50.99
   1   0  -9 1857.21   50.89
   1   0  -9 1862.81   51.09
   1   0  -9 1891.91   50.89
   1   0  -9 1918.51   50.59
   1   0  -9 1872.51   51.19
  -1   0   9 1866.71   51.09
  -1   0   9 1904.91   50.89
  -1   0   9 1900.81   51.09
  -1   0   9 1807.52   50.99
   0   0  -9  127.39    4.10
   0   0  -9  126.49    3.90
   0   0  -9  130.49    4.20
   0   0  -9  128.79    4.10
   0   0  -9  126.69    3.80
   0   0   9  134.99    4.20
   0   0   9  126.59    3.90
   0   0   9  126.29    3.90
   0   0   9  126.69    4.20
   0   0   9  131.59    4.10
  -1   0  -9  448.76   12.80
  -1   0  -9  440.46   12.80
  -1   0  -9  461.95   12.70
  -1   0  -9  438.16   12.50
   1   0   9  449.46   12.40
   1   0   9  449.56   12.90
   1   0   9  453.45   12.60
   1   0   9  451.85   12.90
   1   0   9  438.56   12.50
  -2   0  -9   47.90    2.60
  -2   0  -9   50.59    2.10
  -2   0  -9   49.80    2.30
  -2   0  -9   47.90    2.30
   2   0   9   51.19    2.00
   2   0   9   47.90    2.70
   2   0   9   48.30    2.30
   2   0   9   44.80    2.80
   2   0   9   49.80    2.10
  -3   0  -9   59.29    2.90
  -3   0  -9   63.39    2.70
  -3   0  -9   62.99    2.90
   3   0   9   59.89    3.50
   3   0   9   63.49    2.40
   3   0   9   65.59    2.80
   3   0   9   61.39    2.90
  -4   0  -9    2.10    1.40
   4   0   9    1.10    1.20
   4   0   9    1.10    1.40
   4   0   9    0.50    0.70
  -5   0  -9  185.58    6.90
   5   0   9  181.68    6.40
   5   0   9  185.18    6.80
   5   0   9  179.58    6.80
  -6   0  -9    4.90    2.70
   6   0   9    8.70    2.80
   7  -1  -9    0.90    2.00
  -7   1   9   -1.90    3.30
  -7   1   9    0.80    2.40
   6  -1  -9   22.90    2.40
   6  -1  -9   26.80    2.80
  -6   1   9   19.80    2.70
  -6   1   9   24.60    3.20
   5  -1  -9   38.60    3.80
   5  -1  -9   37.40    2.40
   5  -1  -9   37.50    2.40
  -5   1   9   37.10    3.10
  -5   1   9   36.10    3.40
   4  -1  -9  264.07    8.40
   4  -1  -9  259.47    8.10
   4  -1  -9  258.77    7.80
   4  -1  -9  264.07    8.00
  -4   1   9  269.77    8.40
  -4   1   9  255.87    8.50
  -4   1   9  267.07    8.10
   3  -1  -9  107.29    3.50
   3  -1  -9  109.79    4.00
   3  -1  -9  109.69    3.90
   3  -1  -9  110.49    3.90
  -3   1   9  107.89    3.90
  -3   1   9  111.59    4.00
  -3   1   9   99.59    4.20
  -3   1   9  111.29    3.70
  -3   1   9  113.39    3.90
   2  -1  -9   70.89    2.70
   2  -1  -9   69.59    2.20
   2  -1  -9   71.09    2.60
   2  -1  -9   66.99    2.50
   2  -1  -9   72.09    2.70
  -2   1   9   71.49    3.00
  -2   1   9   71.59    2.80
  -2   1   9   73.19    2.40
  -2   1   9   68.69    2.70
  -2   1   9   71.29    2.60
   1  -1  -9   58.29    2.30
   1  -1  -9   64.39    2.30
   1  -1  -9   63.39    2.30
   1  -1  -9   62.09    2.50
   1  -1  -9   61.79    2.20
  -1   1   9   61.49    1.80
  -1   1   9   62.99    2.50
  -1   1   9   62.09    2.30
  -1   1   9   65.49    2.60
  -1   1   9   62.69    2.40
  -1   1   9   62.49    1.90
   0  -1  -9   40.30    1.50
   0  -1  -9   39.70    1.70
   0  -1  -9   39.50    1.70
   0  -1  -9   41.60    1.90
   0  -1  -9   43.00    1.80
   0  -1  -9   40.80    1.90
   0   1   9   39.40    2.00
   0   1   9   40.00    1.80
   0   1   9   37.20    1.90
   0   1   9   41.60    1.80
   0   1   9   37.90    2.00
  -1  -1  -9    7.90    1.00
  -1  -1  -9   11.20    1.00
  -1  -1  -9    8.70    0.90
  -1  -1  -9    9.50    1.10
  -1  -1  -9   10.90    1.00
  -1  -1  -9   10.30    1.10
   1   1   9    9.70    0.60
   1   1   9   12.80    1.20
   1   1   9   10.40    1.00
   1   1   9    8.80    1.30
  -2  -1  -9   31.60    1.70
  -2  -1  -9   23.80    2.30
  -2  -1  -9   29.40    1.80
  -2  -1  -9   32.10    2.00
  -2  -1  -9   33.40    1.80
   2   1   9   30.40    2.00
   2   1   9   33.80    2.50
   2   1   9   24.70    2.80
   2   1   9   30.80    1.60
  -3  -1  -9  406.26   11.70
  -3  -1  -9  413.56   11.90
  -3  -1  -9  405.56   12.20
   3   1   9  403.26   11.50
   3   1   9  431.66   12.20
   3   1   9  384.06   12.70
  -4  -1  -9   92.19    4.30
  -4  -1  -9   86.29    4.00
   4   1   9   83.59    3.10
   4   1   9   97.09    4.40
  -5  -1  -9   15.50    2.50
   5   1   9   14.40    2.50
  -6  -1  -9    0.30    2.60
   6   1   9    1.20    2.80
   7  -2  -9    5.80    2.10
   7  -2  -9    9.20    2.20
  -7   2   9    3.30    2.30
  -7   2   9    5.60    3.30
   6  -2  -9  245.68    8.00
   6  -2  -9  251.47    8.20
   6  -2  -9  253.27    9.00
  -6   2   9  239.18    9.10
  -6   2   9  240.18    8.60
   5  -2  -9   12.40    1.40
   5  -2  -9   14.30    1.90
   5  -2  -9   15.20    2.30
  -5   2   9   11.80    1.90
  -5   2   9   16.10    1.90
   4  -2  -9  165.38    5.70
   4  -2  -9  169.38    5.90
   4  -2  -9  164.78    5.10
  -4   2   9  165.58    5.70
  -4   2   9  161.98    5.20
  -4   2   9  158.48    5.50
   3  -2  -9  617.34   18.30
   3  -2  -9  651.93   18.40
   3  -2  -9  663.73   17.70
   3  -2  -9  658.03   18.50
  -3   2   9  638.94   18.20
  -3   2   9  641.04   18.80
  -3   2   9  663.23   18.10
  -3   2   9  643.84   18.30
  -3   2   9  643.04   17.70
   2  -2  -9  346.17   10.20
   2  -2  -9  335.37    9.70
   2  -2  -9  353.16   10.20
   2  -2  -9  350.76   10.10
  -2   2   9  355.96   10.10
  -2   2   9  331.47   10.50
  -2   2   9  356.96    9.80
  -2   2   9  346.67   10.10
  -2   2   9  351.96   10.00
   1  -2  -9   54.39    2.40
   1  -2  -9   58.19    2.40
   1  -2  -9   58.79    2.00
   1  -2  -9   58.09    2.40
   1  -2  -9   55.09    2.30
  -1   2   9   58.19    2.40
  -1   2   9   58.09    2.70
  -1   2   9   59.59    2.40
  -1   2   9   60.19    2.00
  -1   2   9   66.19    2.40
   0  -2  -9   13.50    1.20
   0  -2  -9   15.30    1.40
   0  -2  -9   15.10    1.30
   0  -2  -9   15.40    1.30
   0  -2  -9   15.30    1.20
   0   2   9   15.10    1.40
   0   2   9   16.70    1.50
   0   2   9   19.10    1.60
   0   2   9   15.60    1.40
   0   2   9   14.90    1.50
  -1  -2  -9  783.92   22.30
  -1  -2  -9  820.22   22.20
  -1  -2  -9  810.62   22.40
  -1  -2  -9  803.82   22.40
  -1  -2  -9  812.02   22.10
  -1  -2  -9  810.62   22.50
   1   2   9  821.02   22.70
   1   2   9  785.92   22.70
   1   2   9  777.52   22.40
   1   2   9  800.52   22.40
  -2  -2  -9  589.04   16.10
  -2  -2  -9  587.14   16.40
  -2  -2  -9  573.24   16.60
  -2  -2  -9  579.44   16.40
  -2  -2  -9  559.04   16.90
   2   2   9  592.24   16.60
   2   2   9  559.04   17.00
   2   2   9  582.74   16.30
  -3  -2  -9 1182.78   32.70
  -3  -2  -9 1133.49   32.20
   3   2   9 1157.98   32.20
   3   2   9 1163.08   33.60
   3   2   9 1249.77   33.00
  -4  -2  -9   46.90    3.30
  -4  -2  -9   47.50    3.60
   4   2   9   47.30    3.60
  -5  -2  -9    5.00    2.10
  -5  -2  -9    7.40    2.50
   5   2   9    4.20    2.60
   7  -3  -9    4.50    3.50
   7  -3  -9    4.70    2.50
   7  -3  -9    4.20    2.00
  -7   3   9    2.90    2.20
  -7   3   9    1.20    3.10
   6  -3  -9   51.99    4.10
   6  -3  -9   49.50    3.10
   6  -3  -9   55.19    4.50
  -6   3   9   53.69    3.80
  -6   3   9   53.89    4.70
   5  -3  -9    1.30    1.60
   5  -3  -9    1.20    1.60
  -5   3   9    1.90    1.40
  -5   3   9    2.80    1.40
  -5   3   9    2.30    1.30
   4  -3  -9 1503.95   41.00
   4  -3  -9 1506.65   40.90
  -4   3   9 1477.35   40.60
  -4   3   9 1417.66   40.30
  -4   3   9 1457.45   39.80
   3  -3  -9  330.07   10.40
   3  -3  -9  342.87   10.20
   3  -3  -9  333.67    9.30
  -3   3   9  337.57    9.90
  -3   3   9  337.87    9.70
   2  -3  -9  168.48    5.50
   2  -3  -9  162.48    5.40
   2  -3  -9  158.48    5.30
  -2   3   9  159.28    5.20
  -2   3   9  161.68    5.00
  -2   3   9  165.98    5.20
  -2   3   9  153.48    5.00
   1  -3  -9  103.89    3.80
   1  -3  -9  104.39    3.90
   1  -3  -9  104.19    3.70
   1  -3  -9  102.79    3.60
  -1   3   9  110.99    3.80
  -1   3   9  105.09    3.50
  -1   3   9  104.79    3.80
  -1   3   9  107.59    3.70
  -1   3   9  104.19    4.20
   0  -3  -9   69.69    3.00
   0  -3  -9   72.59    2.80
   0  -3  -9   72.29    2.80
   0  -3  -9   76.79    2.90
   0  -3  -9   71.69    2.80
   0   3   9   72.19    3.10
   0   3   9   70.89    3.20
   0   3   9   72.39    3.30
   0   3   9   71.09    2.60
   0   3   9   70.39    2.60
   0   3   9   71.39    2.20
   0   3   9   66.79    3.00
  -1  -3  -9  112.29    4.10
  -1  -3  -9  115.09    4.10
  -1  -3  -9  117.79    3.70
  -1  -3  -9  111.99    4.10
  -1  -3  -9  110.59    4.30
   1   3   9  117.49    4.50
   1   3   9  108.99    4.20
   1   3   9  116.29    4.40
   1   3   9  106.29    4.80
   1   3   9  116.99    3.70
  -2  -3  -9  329.77    9.40
  -2  -3  -9  335.77   10.10
  -2  -3  -9  340.17   10.00
   2   3   9  333.67   10.30
   2   3   9  326.77    9.70
   2   3   9  312.47   10.60
  -3  -3  -9   42.70    2.90
  -3  -3  -9   42.90    3.10
  -3  -3  -9   42.10    2.00
   3   3   9   42.10    2.70
   3   3   9   44.80    3.50
  -4  -3  -9   66.39    4.30
  -4  -3  -9   74.49    4.10
   4   3   9   72.49    6.20
   4   3   9   64.99    4.70
  -5  -3  -9   80.59    5.40
  -5  -3  -9   70.79    4.90
   5   3   9   71.69    5.70
   5   3   9   66.79    5.10
   7  -4  -9    2.10    2.90
   7  -4  -9    3.20    3.40
  -7   4   9    5.10    2.30
   6  -4  -9  191.88    7.80
   6  -4  -9  195.88    7.90
  -6   4   9  193.78    7.50
  -6   4   9  190.78    7.10
   5  -4  -9   19.80    2.30
   5  -4  -9   31.10    3.00
  -5   4   9   23.80    2.40
  -5   4   9   27.90    2.70
   4  -4  -9  191.48    7.10
   4  -4  -9  184.98    6.60
  -4   4   9  191.28    5.90
  -4   4   9  191.68    6.30
   3  -4  -9  819.92   22.30
   3  -4  -9  771.42   22.70
  -3   4   9  791.82   22.10
  -3   4   9  772.42   21.70
  -3   4   9  777.52   22.00
   2  -4  -9  446.36   13.70
   2  -4  -9  428.76   13.30
   2  -4  -9  461.15   12.90
   2  -4  -9  442.96   13.10
  -2   4   9  462.95   13.00
  -2   4   9  458.05   12.90
  -2   4   9  459.15   12.80
   1  -4  -9  393.36   11.70
   1  -4  -9  400.26   11.60
   1  -4  -9  369.26   11.70
   1  -4  -9  387.96   11.00
   1  -4  -9  402.96   11.30
  -1   4   9  404.36   11.50
  -1   4   9  406.96   11.50
  -1   4   9  395.86   11.40
  -1   4   9  387.76   11.50
   0  -4  -9  285.37    8.80
   0  -4  -9  288.17    8.90
   0  -4  -9  292.17    8.90
   0  -4  -9  307.07    8.80
   0   4   9  296.77    8.10
   0   4   9  294.77    8.50
   0   4   9  283.97    8.70
   0   4   9  277.27    9.20
   0   4   9  300.57    9.10
   0   4   9  301.07    9.30
  -1  -4  -9   68.69    3.00
  -1  -4  -9   59.89    2.60
  -1  -4  -9   63.49    3.00
   1   4   9   62.19    2.10
   1   4   9   64.69    3.50
   1   4   9   65.19    3.60
   1   4   9   60.39    2.50
  -2  -4  -9  223.88    6.60
  -2  -4  -9  222.58    7.40
   2   4   9  240.78    8.00
   2   4   9  221.08    7.00
   2   4   9  217.58    8.10
  -3  -4  -9    2.60    1.80
  -3  -4  -9    3.70    1.80
   3   4   9    3.50    2.10
   3   4   9    1.80    1.50
  -4  -4  -9    9.40    2.40
  -4  -4  -9   11.00    2.80
   4   4   9    9.50    2.20
   4   4   9   12.40    3.10
   7  -5  -9    1.50    3.30
   7  -5  -9    0.90    3.30
  -7   5   9    0.00    2.20
   6  -5  -9   59.09    4.90
   6  -5  -9   52.09    5.10
  -6   5   9   45.80    3.60
   5  -5  -9   19.90    2.30
   5  -5  -9   28.30    3.30
  -5   5   9   24.80    2.20
  -5   5   9   24.50    2.60
   4  -5  -9   26.20    2.80
   4  -5  -9   20.40    2.80
  -4   5   9   21.80    2.50
  -4   5   9   19.80    1.80
  -4   5   9   24.10    2.60
  -4   5   9   20.80    2.10
   3  -5  -9   81.99    3.90
   3  -5  -9   79.49    2.40
   3  -5  -9   79.09    4.60
  -3   5   9   79.09    3.20
  -3   5   9   83.39    3.60
  -3   5   9   75.29    3.00
  -3   5   9   76.89    4.00
   2  -5  -9  497.45   13.80
   2  -5  -9  480.45   15.00
   2  -5  -9  476.85   14.20
  -2   5   9  490.35   13.90
  -2   5   9  481.05   13.90
  -2   5   9  492.65   14.20
  -2   5   9  478.25   14.30
   1  -5  -9   22.60    1.50
   1  -5  -9   25.40    1.80
   1  -5  -9   26.50    2.10
  -1   5   9   24.70    2.30
  -1   5   9   22.00    2.10
  -1   5   9   25.60    2.00
  -1   5   9   23.90    2.20
   0  -5  -9   28.40    2.70
   0  -5  -9   31.20    2.50
   0  -5  -9   34.60    2.70
   0  -5  -9   32.80    2.10
   0   5   9   29.70    2.80
   0   5   9   31.80    2.10
   0   5   9   29.60    3.40
   0   5   9   32.10    2.20
   0   5   9   33.50    2.80
  -1  -5  -9   10.80    2.30
  -1  -5  -9   10.60    1.50
  -1  -5  -9   12.80    1.40
  -1  -5  -9   13.90    1.80
   1   5   9   14.50    2.30
   1   5   9   13.00    1.40
   1   5   9   11.20    2.00
   1   5   9   11.40    1.30
  -2  -5  -9   -0.20    1.60
  -2  -5  -9   -0.10    1.50
   2   5   9    1.60    1.30
   2   5   9   -0.40    1.90
  -3  -5  -9   26.60    2.90
  -3  -5  -9   38.60    3.70
   3   5   9   31.20    3.60
   3   5   9   25.70    2.50
  -4  -5  -9   55.79    5.20
   4   5   9   43.70    5.50
   4   5   9   53.59    4.50
   6  -6  -9  125.89    7.30
   6  -6  -9  129.89    6.80
  -6   6   9  133.09    5.50
  -6   6   9  124.89    7.20
   5  -6  -9    9.60    3.00
   5  -6  -9    7.40    2.10
  -5   6   9   17.80    2.50
  -5   6   9   11.10    2.80
  -5   6   9   14.80    1.90
   4  -6  -9  371.66   12.70
   4  -6  -9  374.96   11.90
  -4   6   9  373.56   11.80
  -4   6   9  384.96   11.10
  -4   6   9  370.56   12.20
   3  -6  -9   12.00    1.90
   3  -6  -9   10.70    2.60
  -3   6   9    8.50    1.90
  -3   6   9   10.60    1.80
   2  -6  -9    1.40    1.50
   2  -6  -9    1.90    1.00
   2  -6  -9    1.20    2.00
  -2   6   9    3.20    1.70
  -2   6   9    2.00    1.60
  -2   6   9    1.30    1.30
   1  -6  -9   42.20    2.20
   1  -6  -9   35.40    2.80
   1  -6  -9   37.00    4.00
   1  -6  -9   37.40    2.00
  -1   6   9   38.70    3.60
  -1   6   9   39.90    3.10
  -1   6   9   39.90    2.80
  -1   6   9   38.00    2.90
   0  -6  -9  207.58    6.90
   0  -6  -9  201.28    6.50
   0   6   9  190.68    6.80
   0   6   9  196.98    7.20
   0   6   9  199.68    6.50
  -1  -6  -9    4.60    1.80
  -1  -6  -9    6.10    1.90
   1   6   9    3.70    2.20
   1   6   9    6.90    1.30
  -2  -6  -9   99.49    4.90
  -2  -6  -9   93.99    4.80
   2   6   9   94.39    4.40
   2   6   9   91.79    5.80
  -3  -6  -9   21.70    3.10
  -3  -6  -9   18.30    3.10
   3   6   9   17.70    3.70
   6  -7  -9   24.30    4.60
   6  -7  -9   28.60    4.00
  -6   7   9   32.50    3.90
  -6   7   9   29.10    4.30
   5  -7  -9   21.30    3.00
   5  -7  -9   24.30    4.00
  -5   7   9   23.10    3.50
  -5   7   9   17.70    2.70
   4  -7  -9    3.20    3.00
   4  -7  -9    1.40    2.00
  -4   7   9    6.10    2.60
  -4   7   9    4.50    2.10
   3  -7  -9   17.50    2.20
   3  -7  -9   15.80    3.10
  -3   7   9   16.20    2.30
  -3   7   9   19.60    2.80
   2  -7  -9   20.60    1.80
   2  -7  -9   23.30    2.50
   2  -7  -9   18.60    3.10
  -2   7   9   24.30    2.40
  -2   7   9   18.90    4.00
   1  -7  -9   -0.30    1.70
   1  -7  -9    2.80    2.60
   1  -7  -9    2.20    1.30
  -1   7   9   -0.20    1.60
  -1   7   9    2.90    1.80
  -1   7   9   -1.00    2.20
   0  -7  -9   47.80    3.10
   0  -7  -9   53.79    3.80
   0  -7  -9   49.60    5.40
   0   7   9   49.70    3.20
   0   7   9   50.39    3.60
  -1  -7  -9   18.20    2.20
  -1  -7  -9   16.30    2.50
   1   7   9   15.80    3.30
  -2  -7  -9    1.40    2.50
  -2  -7  -9    1.60    2.30
  -5   8   9   19.70    4.10
   4  -8  -9    2.70    4.00
   4  -8  -9    5.70    2.50
  -4   8   9    7.20    2.70
  -4   8   9   -0.30    3.00
   3  -8  -9   12.50    3.60
   3  -8  -9   11.60    2.50
  -3   8   9    9.90    2.80
  -3   8   9    9.80    2.40
   2  -8  -9  179.48    7.00
   2  -8  -9  168.48    8.70
  -2   8   9  174.68    7.10
  -2   8   9  178.78    7.30
   1  -8  -9    5.00    2.30
   1  -8  -9   -4.80    3.40
  -1   8   9    4.10    2.20
  -1   8   9    6.60    2.30
   0  -8  -9   31.20    4.40
   0  -8  -9   37.10    3.40
   0   8   9   25.70    3.00
   2   8 -10   49.20    6.00
  -2  -8  10   62.49    7.10
  -2  -8  10   69.39    4.40
   1   8 -10  122.49    8.20
   1   8 -10  122.19    6.10
  -1  -8  10  124.99    7.10
  -1  -8  10  119.19    5.50
   0   8 -10    7.70    3.70
   0   8 -10   11.30    2.50
   0  -8  10   12.70    2.10
   0  -8  10    8.60    2.00
  -1   8 -10   47.10    4.40
  -1   8 -10   46.70    4.60
  -1   8 -10   43.10    4.20
   1  -8  10   51.59    4.00
   1  -8  10   49.10    3.90
  -2   8 -10    0.60    2.40
  -2   8 -10    2.60    3.10
  -2   8 -10   -2.20    2.30
   2  -8  10   -2.50    2.10
   2  -8  10    2.40    2.30
  -3   8 -10   38.80    3.60
  -3   8 -10   38.20    3.70
  -3   8 -10   42.50    4.70
   3  -8  10   35.70    3.60
   3  -8  10   32.50    3.50
  -4   8 -10  113.39    7.30
  -4   8 -10  113.29    6.90
  -4   8 -10  113.09    6.20
   4  -8  10  116.09    6.80
   4  -8  10  123.09    6.90
   3   7 -10   87.29    5.60
  -3  -7  10   98.29    4.30
  -3  -7  10   93.79    4.70
  -3  -7  10   88.49    7.40
   2   7 -10   -0.20    3.40
  -2  -7  10    0.60    1.50
  -2  -7  10   -5.00    2.80
  -2  -7  10    0.80    1.40
   1   7 -10    1.20    3.10
   1   7 -10   -0.10    1.70
  -1  -7  10    1.70    1.30
  -1  -7  10    0.80    1.60
   0   7 -10  142.99    7.30
   0  -7  10  146.99    5.50
   0  -7  10  161.58    5.80
  -1   7 -10   37.70    3.40
  -1   7 -10   37.50    4.00
  -1   7 -10   44.10    4.70
   1  -7  10   32.80    3.10
   1  -7  10   34.90    3.20
  -2   7 -10   34.00    3.60
  -2   7 -10   32.90    3.60
  -2   7 -10   35.30    3.60
   2  -7  10   37.30    3.70
   2  -7  10   31.50    2.90
  -3   7 -10   33.40    3.50
  -3   7 -10   33.80    3.90
  -3   7 -10   27.70    2.80
   3  -7  10   34.70    3.70
   3  -7  10   36.20    3.90
  -4   7 -10   39.90    4.50
  -4   7 -10   37.80    4.20
  -4   7 -10   37.20    3.90
   4  -7  10   38.70    3.70
   4  -7  10   39.90    3.80
  -5   7 -10    4.00    3.50
  -5   7 -10    1.70    3.00
  -5   7 -10    2.80    2.80
   5  -7  10    2.30    2.80
   5  -7  10    3.60    3.20
   4   6 -10  138.29    6.70
  -4  -6  10  148.49    8.70
  -4  -6  10  144.49    6.20
   3   6 -10   14.40    2.40
   3   6 -10   11.40    2.10
   3   6 -10    8.10    3.40
  -3  -6  10   10.20    2.00
  -3  -6  10   12.00    1.60
  -3  -6  10    9.10    3.20
   2   6 -10   27.30    2.90
   2   6 -10   29.40    3.90
  -2  -6  10   28.80    3.20
  -2  -6  10   23.20    1.90
  -2  -6  10   28.10    2.40
   1   6 -10   -0.70    2.40
   1   6 -10    0.80    1.30
  -1  -6  10   -1.00    1.10
  -1  -6  10    0.30    1.30
  -1  -6  10    0.50    0.90
   0   6 -10  175.98    7.20
   0   6 -10  166.58    6.40
   0   6 -10  173.78    6.10
   0  -6  10  168.38    5.50
   0  -6  10  178.08    5.80
   0  -6  10  176.68    5.50
   0  -6  10  172.88    6.10
  -1   6 -10   -2.20    1.80
  -1   6 -10    1.40    1.40
  -1   6 -10    1.20    1.30
   1  -6  10    2.20    1.40
   1  -6  10    0.60    1.50
   1  -6  10   -0.30    1.20
   1  -6  10   -1.30    1.10
   1  -6  10    2.20    1.20
  -2   6 -10  249.38    8.20
  -2   6 -10  243.58    8.20
  -2   6 -10  236.58    8.80
   2  -6  10  258.27    7.70
   2  -6  10  239.18    8.00
   2  -6  10  251.87    8.40
   2  -6  10  248.98    8.20
   2  -6  10  240.08    7.70
  -3   6 -10    0.50    1.60
  -3   6 -10    0.50    2.20
  -3   6 -10    1.60    1.50
   3  -6  10    1.20    1.60
   3  -6  10    2.50    1.80
   3  -6  10    0.10    2.50
  -4   6 -10  153.28    6.10
  -4   6 -10  146.89    6.70
  -4   6 -10  151.28    5.60
   4  -6  10  146.39    6.20
   4  -6  10  137.69    6.30
  -5   6 -10    4.90    2.30
  -5   6 -10    1.60    2.70
   5  -6  10   -1.40    2.40
   5  -6  10    3.60    2.40
   5   5 -10  107.79    5.90
  -5  -5  10  112.39    5.90
  -5  -5  10  110.19    8.30
   4   5 -10    5.90    2.00
   4   5 -10    5.80    2.00
  -4  -5  10    5.70    2.00
  -4  -5  10    1.70    3.00
  -4  -5  10    6.60    1.50
   3   5 -10    5.60    1.50
   3   5 -10    0.90    2.60
   3   5 -10    3.90    1.50
  -3  -5  10    4.20    1.60
  -3  -5  10    1.70    1.10
  -3  -5  10    5.40    2.30
   2   5 -10    2.50    2.20
  -2  -5  10    3.70    1.30
  -2  -5  10    3.00    1.10
  -2  -5  10    2.80    1.10
   1   5 -10   15.20    1.80
  -1  -5  10   15.00    1.30
  -1  -5  10   12.90    1.50
  -1  -5  10   13.20    1.00
  -1  -5  10   13.70    0.90
  -1  -5  10   10.70    1.30
  -1  -5  10   10.80    1.00
   0   5 -10   87.19    4.00
   0   5 -10   92.09    4.60
   0   5 -10   91.39    3.60
   0  -5  10   87.99    3.30
   0  -5  10   86.79    3.10
   0  -5  10   94.39    3.30
   0  -5  10   82.89    3.80
   0  -5  10   90.19    3.70
  -1   5 -10   85.69    3.60
  -1   5 -10   74.39    4.30
  -1   5 -10   80.59    3.50
  -1   5 -10   83.49    4.30
   1  -5  10   82.89    3.40
   1  -5  10   82.19    3.60
   1  -5  10   82.09    3.20
   1  -5  10   82.09    3.50
   1  -5  10   79.89    3.20
  -2   5 -10  270.67    8.50
  -2   5 -10  263.77    9.00
  -2   5 -10  274.07    8.50
   2  -5  10  278.07    8.60
   2  -5  10  260.87    8.30
   2  -5  10  267.37    8.30
  -3   5 -10   53.89    3.00
  -3   5 -10   45.00    3.00
  -3   5 -10   51.79    3.70
   3  -5  10   44.60    3.30
   3  -5  10   48.10    3.20
   3  -5  10   42.60    3.20
   3  -5  10   49.90    3.30
  -4   5 -10   47.40    3.90
  -4   5 -10   46.40    3.50
  -4   5 -10   50.89    3.30
   4  -5  10   52.69    3.70
   4  -5  10   51.99    3.70
  -5   5 -10   68.69    3.90
  -5   5 -10   66.59    4.10
   5  -5  10   58.69    4.30
   5  -5  10   58.79    4.40
  -6   5 -10   27.50    3.00
  -6   5 -10   28.80    3.20
   6  -5  10   27.60    3.20
   6  -5  10   18.30    3.20
   5   4 -10    1.10    1.90
   5   4 -10   -0.10    2.00
  -5  -4  10   -1.60    2.00
  -5  -4  10    0.60    3.40
  -5  -4  10    1.30    1.70
   4   4 -10   42.20    3.30
   4   4 -10   44.80    3.00
  -4  -4  10   49.90    3.50
  -4  -4  10   48.80    2.70
   3   4 -10   40.70    2.30
   3   4 -10   44.90    4.00
   3   4 -10   38.00    2.80
  -3  -4  10   42.00    2.30
  -3  -4  10   37.10    2.90
  -3  -4  10   40.80    2.80
   2   4 -10   11.90    1.40
   2   4 -10   21.70    2.50
  -2  -4  10   18.90    1.60
  -2  -4  10   15.30    1.60
  -2  -4  10   19.20    1.90
  -2  -4  10   17.80    1.70
   1   4 -10   94.69    4.40
   1   4 -10   95.99    3.50
   1   4 -10   95.19    3.40
  -1  -4  10   93.19    4.10
  -1  -4  10   97.29    3.50
  -1  -4  10   93.29    2.90
  -1  -4  10   94.29    3.00
  -1  -4  10   99.59    3.60
  -1  -4  10   94.29    2.90
  -1  -4  10   95.29    3.60
   0   4 -10  145.99    5.70
   0   4 -10  151.38    4.90
   0   4 -10  150.58    5.30
   0  -4  10  152.68    5.10
   0  -4  10  148.89    4.50
   0  -4  10  160.78    4.90
   0  -4  10  155.08    5.20
   0  -4  10  155.08    4.80
  -1   4 -10   29.40    2.50
  -1   4 -10   31.90    1.90
  -1   4 -10   25.10    2.70
  -1   4 -10   30.80    2.10
   1  -4  10   30.50    2.10
   1  -4  10   32.90    1.90
   1  -4  10   31.30    1.90
   1  -4  10   25.00    2.70
   1  -4  10   28.50    2.00
  -2   4 -10    0.50    0.90
  -2   4 -10    1.00    1.10
  -2   4 -10    1.00    1.20
  -2   4 -10   -0.50    0.90
   2  -4  10   -0.70    1.20
   2  -4  10   -1.20    1.10
   2  -4  10    1.00    0.90
   2  -4  10    0.00    0.80
   2  -4  10   -1.10    1.40
  -3   4 -10  109.29    4.30
  -3   4 -10  121.29    5.30
  -3   4 -10  110.59    3.80
  -3   4 -10  112.89    4.30
  -3   4 -10  114.99    3.50
   3  -4  10  111.29    4.70
   3  -4  10  109.99    4.50
   3  -4  10  119.39    4.50
   3  -4  10  106.39    4.60
  -4   4 -10  475.15   13.80
  -4   4 -10  450.55   13.90
  -4   4 -10  485.75   13.80
   4  -4  10  470.15   14.20
   4  -4  10  468.85   14.70
  -5   4 -10   28.80    2.90
  -5   4 -10   35.40    3.30
   5  -4  10   29.10    3.10
   5  -4  10   31.40    3.60
  -6   4 -10   43.90    4.20
  -6   4 -10   50.39    3.90
   6  -4  10   45.80    4.00
   6  -4  10   45.20    4.40
   6   3 -10    3.00    2.40
   6   3 -10    0.30    2.30
  -6  -3  10    4.00    3.60
  -6  -3  10    3.00    2.60
   5   3 -10    8.70    1.80
   5   3 -10    5.40    1.80
  -5  -3  10   10.10    2.30
  -5  -3  10   10.70    3.40
  -5  -3  10    8.70    1.80
   4   3 -10   49.00    3.40
   4   3 -10   56.29    2.70
   4   3 -10   50.79    3.10
  -4  -3  10   51.89    3.50
  -4  -3  10   53.49    2.90
   3   3 -10  579.84   17.30
   3   3 -10  617.84   16.80
   3   3 -10  604.74   18.10
   3   3 -10  611.34   17.30
  -3  -3  10  604.64   17.10
  -3  -3  10  603.84   17.10
  -3  -3  10  610.64   17.10
  -3  -3  10  591.14   17.50
   2   3 -10  357.56   10.70
   2   3 -10  369.56   10.10
   2   3 -10  350.06   10.90
   2   3 -10  364.46   11.40
  -2  -3  10  372.06   10.40
  -2  -3  10  366.56   10.60
  -2  -3  10  361.16   10.80
  -2  -3  10  369.16   10.50
   1   3 -10  113.59    4.40
   1   3 -10  116.09    3.80
   1   3 -10  115.49    4.60
   1   3 -10  116.79    3.70
  -1  -3  10  107.39    4.40
  -1  -3  10  118.09    3.50
  -1  -3  10  115.49    3.40
  -1  -3  10  105.19    4.20
  -1  -3  10  111.29    4.30
  -1  -3  10  119.49    3.80
  -1  -3  10  112.49    4.20
  -1  -3  10  115.49    3.90
  -1  -3  10  116.29    3.90
   0   3 -10    3.70    0.70
   0   3 -10    4.30    1.00
   0   3 -10    3.80    1.10
   0   3 -10    3.30    1.40
   0  -3  10    3.30    0.80
   0  -3  10    4.50    1.30
   0  -3  10    3.40    0.70
   0  -3  10    3.80    0.90
   0  -3  10    4.80    0.90
   0  -3  10    4.00    1.00
  -1   3 -10   30.90    2.20
  -1   3 -10   29.30    2.30
  -1   3 -10   31.30    1.80
  -1   3 -10   31.10    2.10
  -1   3 -10   29.20    1.70
   1  -3  10   30.70    1.70
   1  -3  10   31.70    1.80
   1  -3  10   27.50    2.00
   1  -3  10   31.30    2.30
   1  -3  10   30.40    1.90
   1  -3  10   33.80    2.10
  -2   3 -10   81.19    2.80
  -2   3 -10   81.39    3.30
  -2   3 -10   83.69    3.10
  -2   3 -10   78.39    5.10
  -2   3 -10   80.99    2.50
  -2   3 -10   79.19    3.50
  -2   3 -10   84.49    4.00
   2  -3  10   83.59    3.30
   2  -3  10   81.29    3.50
   2  -3  10   81.49    3.50
   2  -3  10   70.59    3.70
   2  -3  10   83.49    3.30
  -3   3 -10   27.60    2.10
  -3   3 -10   27.50    2.00
  -3   3 -10   29.00    2.20
  -3   3 -10   30.20    1.60
   3  -3  10   30.90    2.60
   3  -3  10   27.80    2.30
   3  -3  10   27.30    2.20
   3  -3  10   24.40    2.50
  -4   3 -10  176.78    6.20
  -4   3 -10  177.28    6.30
  -4   3 -10  182.88    5.90
   4  -3  10  181.38    6.40
   4  -3  10  185.88    6.10
   4  -3  10  177.48    6.90
  -5   3 -10   57.89    3.60
  -5   3 -10   48.80    3.00
   5  -3  10   54.09    3.30
   5  -3  10   51.89    3.90
  -6   3 -10    7.30    2.40
   6  -3  10   12.50    2.40
   6  -3  10   10.50    2.00
   6  -3  10   13.50    3.00
   6   2 -10    9.70    2.50
   6   2 -10    6.70    2.20
  -6  -2  10   13.70    3.70
  -6  -2  10    8.60    2.50
   5   2 -10   73.59    3.50
   5   2 -10   70.19    3.80
  -5  -2  10   70.49    4.20
  -5  -2  10   73.09    3.90
   4   2 -10   55.69    2.90
   4   2 -10   52.59    3.00
   4   2 -10   56.99    2.50
  -4  -2  10   52.89    3.40
  -4  -2  10   57.69    3.00
  -4  -2  10   53.09    3.00
   3   2 -10  407.76   12.00
   3   2 -10  416.26   12.70
   3   2 -10  413.96   11.50
   3   2 -10  403.06   12.00
  -3  -2  10  401.26   12.00
  -3  -2  10  456.05   14.70
  -3  -2  10  417.16   11.80
  -3  -2  10  406.66   11.90
  -3  -2  10  402.56   12.30
   2   2 -10  583.34   17.00
   2   2 -10  593.04   16.40
   2   2 -10  580.74   16.40
   2   2 -10  600.24   16.50
   2   2 -10  582.84   15.80
  -2  -2  10  593.94   16.40
  -2  -2  10  601.54   16.10
  -2  -2  10  579.54   16.20
  -2  -2  10  586.04   16.40
  -2  -2  10  533.25   16.60
  -2  -2  10  568.74   16.50
  -2  -2  10  575.14   16.70
   1   2 -10   23.10    2.00
   1   2 -10   26.40    1.90
   1   2 -10   24.60    1.40
   1   2 -10   24.80    1.40
  -1  -2  10   23.40    1.80
  -1  -2  10   22.30    1.70
  -1  -2  10   23.10    1.20
  -1  -2  10   26.30    1.70
  -1  -2  10   23.10    1.60
  -1  -2  10   22.90    1.50
  -1  -2  10   24.10    1.90
   0   2 -10  211.88    6.60
   0   2 -10  213.98    5.80
   0   2 -10  208.38    6.60
   0   2 -10  199.68    6.50
   0   2 -10  201.68    6.30
   0   2 -10  204.58    5.90
   0  -2  10  197.18    6.20
   0  -2  10  202.68    6.10
   0  -2  10  203.68    6.30
   0  -2  10  209.28    6.40
   0  -2  10  202.98    5.80
   0  -2  10  204.58    6.30
   0  -2  10  205.88    6.20
  -1   2 -10  140.29    5.00
  -1   2 -10  136.09    4.90
  -1   2 -10  137.29    4.90
  -1   2 -10  144.19    4.80
   1  -2  10  139.69    4.20
   1  -2  10  144.59    4.80
   1  -2  10  146.29    4.80
   1  -2  10  149.29    4.70
   1  -2  10  144.59    4.70
   1  -2  10  150.28    4.60
  -2   2 -10  122.19    3.90
  -2   2 -10  122.49    3.70
  -2   2 -10  120.69    4.20
  -2   2 -10  114.19    4.70
  -2   2 -10  112.89    4.70
   2  -2  10  121.49    4.50
   2  -2  10  120.79    4.10
   2  -2  10  116.09    3.80
   2  -2  10  111.59    4.50
   2  -2  10  119.69    4.20
   2  -2  10  117.79    4.10
  -3   2 -10  100.99    3.90
  -3   2 -10  103.09    3.50
  -3   2 -10  103.89    3.50
  -3   2 -10   93.69    4.60
   3  -2  10  100.49    4.00
   3  -2  10   99.59    4.40
   3  -2  10  103.49    3.70
   3  -2  10   94.39    3.60
  -4   2 -10  133.09    5.10
  -4   2 -10  132.49    4.40
   4  -2  10  134.29    4.70
   4  -2  10  133.49    4.90
   4  -2  10  133.19    5.10
   4  -2  10  134.49    5.90
  -5   2 -10   16.90    1.60
  -5   2 -10   15.40    2.20
   5  -2  10   12.70    1.60
   5  -2  10   15.80    2.10
   5  -2  10   18.50    2.40
  -6   2 -10   19.70    2.80
   6  -2  10   15.90    2.70
   6  -2  10   24.10    3.10
   7   1 -10   75.99    5.00
   7   1 -10   85.79    5.40
  -7  -1  10   71.39    8.00
  -7  -1  10   77.69    5.50
   6   1 -10   32.00    3.00
   6   1 -10   31.20    3.30
  -6  -1  10   38.20    4.20
  -6  -1  10   33.40    3.80
   5   1 -10  103.59    4.30
   5   1 -10  106.49    4.10
  -5  -1  10  107.89    4.80
  -5  -1  10  100.19    4.90
   4   1 -10    4.60    1.60
   4   1 -10    6.60    1.20
   4   1 -10    6.30    1.00
   4   1 -10    9.50    1.30
  -4  -1  10    6.70    1.70
  -4  -1  10    5.00    1.30
   3   1 -10    4.60    1.00
   3   1 -10    5.20    1.20
   3   1 -10    4.30    1.10
   3   1 -10    5.20    0.90
   3   1 -10    5.80    0.70
  -3  -1  10    5.30    0.80
  -3  -1  10    4.60    1.40
  -3  -1  10    4.10    1.00
  -3  -1  10    5.00    1.10
  -3  -1  10    6.00    1.30
   2   1 -10  481.85   14.00
   2   1 -10  509.55   14.20
   2   1 -10  499.25   13.50
   2   1 -10  491.45   13.70
   2   1 -10  507.05   14.20
   2   1 -10  510.15   14.50
  -2  -1  10  492.35   14.30
  -2  -1  10  497.15   13.70
  -2  -1  10  502.25   13.90
  -2  -1  10  503.05   14.00
  -2  -1  10  491.05   14.30
  -2  -1  10  487.75   14.20
  -2  -1  10  502.35   14.30
   1   1 -10 1075.09   30.20
   1   1 -10 1081.89   29.80
   1   1 -10 1115.69   29.70
   1   1 -10 1110.59   30.00
  -1  -1  10 1080.19   29.70
  -1  -1  10 1120.69   29.80
  -1  -1  10 1076.69   30.00
  -1  -1  10 1075.49   30.00
  -1  -1  10 1073.79   30.00
   0   1 -10  194.98    6.40
   0   1 -10  205.38    6.40
   0   1 -10  213.88    6.40
   0   1 -10  196.48    6.20
   0   1 -10  204.98    5.90
   0  -1  10  207.08    5.90
   0  -1  10  214.88    6.10
   0  -1  10  203.08    5.70
   0  -1  10  200.98    6.10
   0  -1  10  202.28    6.30
   0  -1  10  210.78    6.20
  -1   1 -10  445.46   13.40
  -1   1 -10  475.25   13.30
  -1   1 -10  468.15   13.40
  -1   1 -10  466.85   12.90
   1  -1  10  459.05   13.20
   1  -1  10  426.96   13.70
   1  -1  10  473.95   13.10
   1  -1  10  481.45   13.40
   1  -1  10  470.15   12.90
   1  -1  10  480.75   13.20
  -2   1 -10   69.09    3.20
  -2   1 -10   70.69    2.60
  -2   1 -10   73.59    3.50
  -2   1 -10   69.99    2.90
   2  -1  10   71.99    2.70
   2  -1  10   68.19    2.90
   2  -1  10   71.19    2.70
   2  -1  10   70.59    3.30
  -3   1 -10   34.20    2.70
  -3   1 -10   36.40    2.30
  -3   1 -10   33.80    2.00
  -3   1 -10   35.30    1.60
   3  -1  10   36.40    2.10
   3  -1  10   37.90    2.40
   3  -1  10   36.10    1.90
   3  -1  10   35.30    2.90
  -4   1 -10  127.69    4.00
  -4   1 -10  126.29    5.00
   4  -1  10  135.29    5.10
   4  -1  10  134.39    4.80
   4  -1  10  126.49    4.30
   4  -1  10  119.99    5.80
  -5   1 -10  126.39    5.60
   5  -1  10  138.79    5.60
   5  -1  10  136.09    5.80
   5  -1  10  137.59    4.60
  -6   1 -10   99.39    5.50
   6  -1  10   93.29    5.40
   6  -1  10   84.39    5.50
   7   0 -10  103.59    5.50
   7   0 -10  103.39    5.20
  -7   0  10   89.09    6.20
  -7   0  10  120.39    7.80
   6   0 -10   75.09    4.00
  -6   0  10   72.79    6.00
  -6   0  10   68.89    4.50
   5   0 -10    5.30    1.00
   5   0 -10    7.10    1.40
   5   0 -10    4.70    2.30
  -5   0  10    4.70    1.80
  -5   0  10    5.90    1.70
   4   0 -10   10.80    1.60
   4   0 -10    7.40    1.20
   4   0 -10    9.40    1.20
   4   0 -10   10.20    1.10
  -4   0  10   11.80    1.60
  -4   0  10   11.20    1.80
  -4   0  10   10.40    1.70
   3   0 -10  140.79    5.00
   3   0 -10  140.99    4.50
   3   0 -10  151.18    4.80
   3   0 -10  137.99    4.90
   3   0 -10  144.69    4.60
  -3   0  10  146.49    5.10
  -3   0  10  142.49    5.00
  -3   0  10  140.99    4.80
  -3   0  10  142.09    5.10
  -3   0  10  144.59    4.90
   2   0 -10    4.60    0.90
   2   0 -10    4.70    0.60
   2   0 -10    3.40    0.70
   2   0 -10    3.50    0.60
   2   0 -10    4.30    0.90
  -2   0  10    3.50    1.00
  -2   0  10    5.00    0.70
  -2   0  10    4.30    0.80
  -2   0  10    3.60    0.80
  -2   0  10    3.20    0.80
  -2   0  10    4.10    1.00
   1   0 -10  817.42   22.60
   1   0 -10  826.52   22.30
   1   0 -10  804.92   21.90
   1   0 -10  822.02   22.20
   1   0 -10  793.42   22.40
   1   0 -10  792.32   22.20
  -1   0  10  824.72   22.20
  -1   0  10  804.52   22.40
  -1   0  10  758.72   22.40
  -1   0  10  822.22   22.00
   0   0 -10    3.60    0.60
   0   0 -10    3.00    0.70
   0   0 -10    2.90    0.50
   0   0 -10    3.20    0.70
   0   0 -10    2.70    0.80
   0   0 -10    2.10    0.80
   0   0  10    2.30    0.60
   0   0  10    2.00    0.80
   0   0  10    3.00    0.50
   0   0  10    2.10    0.60
   0   0  10    2.70    0.80
  -1   0 -10  180.68    5.50
  -1   0 -10  175.68    5.60
  -1   0 -10  177.38    5.60
  -1   0 -10  171.18    5.30
   1   0  10  173.08    5.70
   1   0  10  171.88    5.10
   1   0  10  171.88    5.70
   1   0  10  170.88    5.30
   1   0  10  170.38    5.30
  -2   0 -10   10.40    1.00
  -2   0 -10    9.10    1.20
  -2   0 -10   10.50    1.60
  -2   0 -10   10.40    1.20
   2   0  10   10.90    1.20
   2   0  10    9.60    1.50
   2   0  10   10.30    1.20
   2   0  10   14.00    2.20
  -3   0 -10  138.49    4.80
  -3   0 -10  147.49    5.10
  -3   0 -10  131.79    5.00
   3   0  10  147.59    4.60
   3   0  10  141.89    4.90
   3   0  10  147.09    5.20
   3   0  10  138.39    5.70
  -4   0 -10   13.50    1.70
  -4   0 -10   11.20    1.80
   4   0  10   15.10    2.10
   4   0  10   10.90    2.00
   4   0  10   11.50    1.10
  -5   0 -10   12.40    2.30
   5   0  10   14.60    2.30
  -6   0 -10  265.97    9.80
   6   0  10  265.57    9.80
   7  -1 -10   16.10    2.50
  -7   1  10   12.80    2.70
  -7   1  10   13.80    3.80
   6  -1 -10   11.50    2.90
   6  -1 -10   11.80    1.60
   6  -1 -10    9.40    1.70
  -6   1  10    6.00    2.20
  -6   1  10    7.80    2.80
   5  -1 -10   15.00    2.30
   5  -1 -10   14.00    1.60
   5  -1 -10   12.10    1.50
  -5   1  10   15.90    2.30
  -5   1  10   12.20    2.10
   4  -1 -10  184.08    5.60
   4  -1 -10  183.98    6.40
   4  -1 -10  183.88    5.90
  -4   1  10  166.48    6.20
  -4   1  10  179.08    5.90
  -4   1  10  179.68    6.50
   3  -1 -10  868.71   24.10
   3  -1 -10  868.11   23.90
   3  -1 -10  855.71   23.90
   3  -1 -10  850.21   23.80
   3  -1 -10  852.21   23.50
  -3   1  10  845.42   23.80
  -3   1  10  865.51   24.00
  -3   1  10  878.41   23.70
  -3   1  10  841.22   24.30
  -3   1  10  848.82   23.90
   2  -1 -10   31.30    1.80
   2  -1 -10   33.30    1.20
   2  -1 -10   32.60    1.70
   2  -1 -10   31.90    1.80
   2  -1 -10   30.70    1.60
  -2   1  10   30.40    1.90
  -2   1  10   28.70    2.10
  -2   1  10   30.00    1.70
  -2   1  10   32.60    2.10
   1  -1 -10  124.59    3.90
   1  -1 -10  121.49    3.80
   1  -1 -10  125.49    4.00
   1  -1 -10  110.19    4.00
   1  -1 -10  125.89    4.20
  -1   1  10  121.89    4.30
  -1   1  10  125.89    3.50
  -1   1  10  124.19    4.10
  -1   1  10  122.59    4.10
  -1   1  10  120.19    4.00
   0  -1 -10    5.70    0.80
   0  -1 -10    4.90    0.90
   0  -1 -10    4.10    0.70
   0  -1 -10    6.70    0.70
   0  -1 -10    4.10    0.70
   0  -1 -10    2.80    0.80
   0   1  10    4.60    1.00
   0   1  10    6.10    0.80
   0   1  10    5.60    0.80
   0   1  10    2.70    1.00
   0   1  10    5.80    0.90
  -1  -1 -10  168.98    5.50
  -1  -1 -10  179.78    5.30
  -1  -1 -10  178.98    5.80
  -1  -1 -10  178.68    5.70
  -1  -1 -10  180.18    5.50
  -1  -1 -10  179.88    5.50
   1   1  10  172.08    5.90
   1   1  10  170.78    6.00
   1   1  10  176.08    5.50
   1   1  10  173.88    5.00
   1   1  10  185.68    5.60
  -2  -1 -10  726.53   20.00
  -2  -1 -10  712.73   20.10
  -2  -1 -10  690.53   20.20
  -2  -1 -10  748.63   20.00
   2   1  10  705.33   20.70
   2   1  10  709.53   20.20
   2   1  10  722.93   19.90
  -3  -1 -10    1.40    1.10
  -3  -1 -10    1.80    1.10
  -3  -1 -10    0.30    1.20
   3   1  10    0.50    0.80
   3   1  10    1.90    1.70
   3   1  10    0.10    1.20
  -4  -1 -10   63.49    3.50
  -4  -1 -10   62.09    3.80
   4   1  10   71.39    3.80
   4   1  10   67.49    2.80
  -5  -1 -10   30.60    3.00
  -5  -1 -10   32.10    3.60
   5   1  10   36.10    4.10
   7  -2 -10    8.10    2.20
  -7   2  10    9.00    2.60
  -7   2  10    6.10    3.40
   6  -2 -10    3.50    1.80
   6  -2 -10    3.50    2.50
   6  -2 -10    5.10    1.50
  -6   2  10    3.90    1.90
  -6   2  10   -0.40    2.80
   5  -2 -10  538.75   16.40
   5  -2 -10  555.44   16.10
   5  -2 -10  539.35   15.50
  -5   2  10  545.45   15.70
  -5   2  10  550.24   16.20
   4  -2 -10  166.78    5.70
   4  -2 -10  155.98    4.90
   4  -2 -10  155.88    5.80
  -4   2  10  162.08    5.60
  -4   2  10  151.08    5.50
  -4   2  10  164.58    5.10
   3  -2 -10   94.19    2.80
   3  -2 -10   87.99    3.60
   3  -2 -10   87.59    3.80
  -3   2  10   85.69    4.00
  -3   2  10   85.79    2.80
  -3   2  10   89.39    3.50
  -3   2  10   87.49    3.40
   2  -2 -10  110.19    3.90
   2  -2 -10  105.39    4.00
   2  -2 -10  111.89    3.90
   2  -2 -10  112.99    3.50
  -2   2  10  113.79    3.90
  -2   2  10  116.29    4.50
  -2   2  10  109.89    4.00
  -2   2  10  116.19    3.90
  -2   2  10  113.09    3.50
   1  -2 -10  159.08    5.00
   1  -2 -10  153.68    4.60
   1  -2 -10  158.78    5.00
   1  -2 -10  154.98    4.90
   1  -2 -10  154.48    4.90
  -1   2  10  150.88    5.30
  -1   2  10  129.69    5.40
  -1   2  10  157.88    4.50
  -1   2  10  151.98    4.90
  -1   2  10  154.78    4.90
   0  -2 -10   11.40    1.20
   0  -2 -10   10.40    1.20
   0  -2 -10   11.20    1.10
   0  -2 -10    9.60    1.10
   0  -2 -10    7.50    0.90
   0   2  10   11.40    1.30
   0   2  10   12.70    1.30
   0   2  10   11.60    1.30
   0   2  10   10.00    1.10
   0   2  10   11.20    1.40
  -1  -2 -10  843.92   23.10
  -1  -2 -10  827.22   23.30
  -1  -2 -10  854.11   23.40
  -1  -2 -10  842.22   23.10
  -1  -2 -10  819.02   23.30
   1   2  10  854.41   23.40
   1   2  10  859.81   23.70
   1   2  10  803.62   23.70
   1   2  10  835.82   23.40
  -2  -2 -10   65.79    3.00
  -2  -2 -10   66.49    2.60
  -2  -2 -10   69.09    3.00
  -2  -2 -10   60.89    3.10
   2   2  10   68.39    3.20
   2   2  10   65.09    3.60
   2   2  10   68.29    2.90
  -3  -2 -10   49.50    2.40
  -3  -2 -10   52.79    3.00
  -3  -2 -10   53.09    3.30
   3   2  10   51.49    3.90
   3   2  10   47.70    2.60
  -4  -2 -10  116.69    5.00
  -4  -2 -10  116.79    5.30
   4   2  10  117.39    5.40
  -5  -2 -10   -1.30    2.40
  -5  -2 -10    0.40    2.30
   5   2  10    0.10    2.70
   7  -3 -10   36.30    3.80
   7  -3 -10   43.00    4.50
   7  -3 -10   50.29    4.70
  -7   3  10   38.20    4.20
  -7   3  10   40.80    4.30
   6  -3 -10   34.30    3.80
   6  -3 -10   31.80    3.30
   6  -3 -10   27.20    2.70
  -6   3  10   26.40    3.20
  -6   3  10   32.00    3.30
   5  -3 -10    3.60    1.80
   5  -3 -10    4.80    1.10
   5  -3 -10    3.00    1.70
  -5   3  10    5.80    1.30
  -5   3  10    3.70    1.50
  -5   3  10    7.60    1.70
   4  -3 -10   43.40    3.20
   4  -3 -10   44.10    2.90
   4  -3 -10   39.10    1.90
  -4   3  10   40.00    2.50
  -4   3  10   39.40    1.60
  -4   3  10   39.70    2.50
   3  -3 -10 1445.66   39.60
   3  -3 -10 1465.05   40.50
   3  -3 -10 1488.55   40.60
   3  -3 -10 1477.95   40.90
  -3   3  10 1449.76   40.30
  -3   3  10 1444.16   40.10
  -3   3  10 1519.95   40.20
   2  -3 -10    1.30    0.90
   2  -3 -10    0.90    1.20
   2  -3 -10    0.70    1.10
  -2   3  10    0.10    0.70
  -2   3  10   -0.20    1.10
  -2   3  10    1.20    0.90
   1  -3 -10  379.36   11.10
   1  -3 -10  385.76   11.00
   1  -3 -10  384.46   11.00
   1  -3 -10  391.36   11.10
  -1   3  10  354.26   11.00
  -1   3  10  383.96   11.10
  -1   3  10  368.36   11.50
  -1   3  10  378.16   11.00
  -1   3  10  371.96   10.70
   0  -3 -10   50.49    2.70
   0  -3 -10   47.40    2.30
   0  -3 -10   48.00    2.30
   0  -3 -10   51.89    2.40
   0  -3 -10   50.69    2.40
   0   3  10   50.29    2.10
   0   3  10   50.59    2.60
   0   3  10   50.49    2.70
   0   3  10   50.29    3.10
   0   3  10   46.10    2.80
  -1  -3 -10    2.20    1.10
  -1  -3 -10    4.00    1.10
  -1  -3 -10    4.30    1.10
  -1  -3 -10    2.00    0.80
   1   3  10    3.30    1.50
   1   3  10    2.40    1.20
   1   3  10    3.00    0.80
   1   3  10    3.60    1.30
  -2  -3 -10   13.40    1.70
  -2  -3 -10   10.70    1.10
   2   3  10   12.30    1.30
   2   3  10    9.30    1.80
   2   3  10   10.80    2.00
  -3  -3 -10    2.80    1.60
  -3  -3 -10    1.90    1.60
   3   3  10    5.40    2.00
   3   3  10    3.80    2.10
   3   3  10    2.80    1.40
  -4  -3 -10   14.70    2.30
  -4  -3 -10   18.00    2.60
   4   3  10   17.30    2.80
   4   3  10   15.00    2.30
  -5  -3 -10   -0.10    2.60
  -5  -3 -10   -1.30    2.70
   5   3  10    4.70    3.10
   5   3  10   -0.50    2.60
   7  -4 -10   -0.80    2.00
   7  -4 -10    5.80    3.50
   7  -4 -10    2.80    3.00
  -7   4  10    2.00    2.20
   6  -4 -10   10.80    2.70
   6  -4 -10    8.30    1.70
   6  -4 -10    9.30    2.80
  -6   4  10   14.80    2.80
  -6   4  10    7.20    1.90
   5  -4 -10   35.80    3.60
   5  -4 -10   40.60    3.90
  -5   4  10   40.60    3.00
  -5   4  10   37.20    2.80
   4  -4 -10    0.70    1.20
   4  -4 -10   -1.70    1.50
   4  -4 -10    0.10    1.50
  -4   4  10    1.20    1.00
  -4   4  10   -0.20    1.10
   3  -4 -10  103.69    4.70
   3  -4 -10  100.79    4.10
  -3   4  10  100.09    3.80
  -3   4  10  103.89    3.90
  -3   4  10   97.19    3.60
   2  -4 -10   74.89    3.90
   2  -4 -10   68.69    3.10
   2  -4 -10   67.59    2.90
  -2   4  10   69.69    3.00
  -2   4  10   69.69    3.00
  -2   4  10   69.29    2.90
   1  -4 -10  196.68    7.10
   1  -4 -10  206.78    6.40
   1  -4 -10  211.78    6.60
   1  -4 -10  199.98    6.00
  -1   4  10  207.48    6.30
  -1   4  10  202.78    6.50
  -1   4  10  200.08    6.70
  -1   4  10  206.88    6.50
   0  -4 -10   -0.60    1.20
   0  -4 -10   -0.30    0.90
   0  -4 -10    0.00    0.90
   0  -4 -10   -0.20    1.00
   0   4  10    0.60    0.90
   0   4  10   -0.90    1.20
   0   4  10    0.60    0.40
   0   4  10   -0.40    0.70
   0   4  10   -0.60    1.70
   0   4  10   -2.20    1.20
  -1  -4 -10   18.10    2.00
  -1  -4 -10   20.30    2.10
  -1  -4 -10   16.40    1.80
   1   4  10   16.30    1.50
   1   4  10   20.40    2.20
   1   4  10   20.20    2.30
  -2  -4 -10    1.00    1.30
  -2  -4 -10    1.60    0.90
  -2  -4 -10    1.10    1.30
   2   4  10    1.80    2.10
   2   4  10   -1.30    1.50
   2   4  10    3.20    1.20
  -3  -4 -10    3.90    1.90
  -3  -4 -10    5.30    1.80
   3   4  10    4.30    1.60
   3   4  10    6.70    2.50
  -4  -4 -10   24.60    3.20
  -4  -4 -10   25.70    3.00
   4   4  10   28.50    2.80
   4   4  10   28.70    3.60
   7  -5 -10   12.40    3.80
   7  -5 -10    8.40    3.70
  -7   5  10    8.20    2.50
   6  -5 -10    3.80    2.70
   6  -5 -10    3.70    2.90
  -6   5  10   -0.40    1.80
   5  -5 -10  452.15   14.50
   5  -5 -10  476.05   15.00
  -5   5  10  473.15   13.90
   4  -5 -10    2.60    2.20
   4  -5 -10    4.40    1.70
  -4   5  10    4.40    1.30
  -4   5  10    4.40    1.50
  -4   5  10    3.50    1.30
   3  -5 -10   20.60    2.20
   3  -5 -10   17.90    2.70
  -3   5  10   22.80    2.30
  -3   5  10   17.50    1.80
  -3   5  10   15.50    1.50
  -3   5  10   20.60    2.00
   2  -5 -10   23.10    1.90
   2  -5 -10   21.10    2.40
  -2   5  10   21.30    2.10
  -2   5  10   19.30    2.00
  -2   5  10   20.30    2.00
  -2   5  10   23.20    2.40
   1  -5 -10  130.99    4.90
   1  -5 -10  135.09    4.50
   1  -5 -10  127.59    4.00
  -1   5  10  133.69    4.70
  -1   5  10  125.29    5.20
  -1   5  10  131.19    4.80
  -1   5  10  133.49    4.90
   0  -5 -10   18.80    2.00
   0  -5 -10   23.30    2.00
   0  -5 -10   19.00    1.90
   0   5  10   16.60    2.20
   0   5  10   13.80    1.50
   0   5  10   18.10    1.90
   0   5  10   17.70    2.20
  -1  -5 -10  345.07   10.40
  -1  -5 -10  325.07    9.90
  -1  -5 -10  308.47   10.80
  -1  -5 -10  343.17   10.50
   1   5  10  364.56   11.20
   1   5  10  339.47    9.70
   1   5  10  339.87   11.10
  -2  -5 -10  242.98    8.10
  -2  -5 -10  233.58    8.00
   2   5  10  226.48    7.40
   2   5  10  238.98    8.80
  -3  -5 -10  135.59    5.90
  -3  -5 -10  114.69    5.90
   3   5  10  117.99    5.30
   3   5  10  125.59    6.70
   6  -6 -10  283.07   11.00
   6  -6 -10  266.47   10.40
  -6   6  10  270.27    9.10
  -6   6  10  269.37    9.90
  -6   6  10  275.07   10.80
   5  -6 -10    6.70    2.40
   5  -6 -10    8.10    3.20
  -5   6  10    6.90    1.80
  -5   6  10   11.90    2.80
  -5   6  10    8.80    2.30
   4  -6 -10    0.80    2.40
   4  -6 -10    0.60    1.90
  -4   6  10    0.20    1.40
  -4   6  10    0.40    1.70
  -4   6  10    1.70    2.20
   3  -6 -10   -0.90    2.00
   3  -6 -10    0.00    1.50
  -3   6  10    2.00    1.30
  -3   6  10    2.40    1.50
  -3   6  10    1.10    1.90
   2  -6 -10    3.40    1.60
   2  -6 -10   -0.40    2.20
   2  -6 -10    2.30    1.10
  -2   6  10    2.50    1.70
  -2   6  10    3.70    1.50
  -2   6  10    1.50    1.30
   1  -6 -10   74.59    5.20
   1  -6 -10   72.79    3.80
   1  -6 -10   84.29    3.30
  -1   6  10   74.79    3.70
  -1   6  10   74.39    3.70
  -1   6  10   70.19    3.90
  -1   6  10   78.19    5.60
   0  -6 -10    7.80    1.40
   0  -6 -10    4.40    1.70
   0   6  10    4.50    1.50
   0   6  10    6.70    1.40
   0   6  10    5.10    2.20
  -1  -6 -10  178.28    6.30
  -1  -6 -10  183.68    6.60
   1   6  10  167.48    7.40
   1   6  10  162.88    7.30
  -2  -6 -10    1.90    2.10
  -2  -6 -10    4.80    2.10
   2   6  10    4.80    3.10
   5  -7 -10   73.19    6.90
   5  -7 -10   71.89    5.40
  -5   7  10   74.69    6.10
  -5   7  10   79.29    5.20
   4  -7 -10   26.20    2.90
   4  -7 -10   18.80    3.60
  -4   7  10   24.90    2.90
  -4   7  10   33.20    3.70
   3  -7 -10  165.58    7.90
   3  -7 -10  164.88    6.50
  -3   7  10  179.58    7.00
  -3   7  10  148.19    6.40
   2  -7 -10    2.80    1.90
   2  -7 -10    7.00    3.00
  -2   7  10    5.50    1.80
  -2   7  10    6.20    2.20
  -2   7  10    7.00    3.30
   1  -7 -10  264.97    9.00
   1  -7 -10  265.17    8.30
   1  -7 -10  264.17   10.50
  -1   7  10  279.97    8.90
  -1   7  10  264.47    9.20
  -1   7  10  274.97    9.00
   0  -7 -10   21.60    2.10
   0  -7 -10   21.00    2.60
   0   7  10   27.80    2.60
   0   7  10   27.70    3.30
  -1  -7 -10   12.30    2.10
  -1  -7 -10   13.80    2.70
   1   7  10   18.00    3.70
   4  -8 -10   57.69    5.20
   4  -8 -10   43.60    5.60
  -4   8  10   57.89    5.00
  -4   8  10   52.79    4.70
   3  -8 -10  157.78    8.80
   3  -8 -10  154.38    6.90
  -3   8  10  162.88    6.80
  -3   8  10  162.68    7.40
   2  -8 -10    3.50    2.40
   2  -8 -10    0.70    3.60
  -2   8  10    2.50    2.50
  -2   8  10   -1.60    2.10
   1  -8 -10   14.20    2.70
   1  -8 -10   15.60    4.30
  -1   8  10   13.50    2.60
   1   8 -11  139.79    6.60
   1   8 -11  146.39    8.70
  -1  -8  11  143.79    6.10
   0   8 -11   38.40    3.40
   0   8 -11   31.20    4.80
   0  -8  11   31.20    3.60
  -1   8 -11   32.90    3.40
  -1   8 -11   25.60    3.10
  -1   8 -11   22.60    4.10
   1  -8  11   28.00    2.80
   1  -8  11   31.40    3.60
  -2   8 -11   23.90    4.20
  -2   8 -11   26.10    3.20
  -2   8 -11   29.70    3.30
   2  -8  11   28.00    3.10
   2  -8  11   28.90    3.00
  -3   8 -11    4.80    2.70
  -3   8 -11    5.10    2.70
  -3   8 -11    8.70    3.70
   3  -8  11    1.80    2.80
   3  -8  11    3.10    2.50
   3   7 -11   15.50    4.80
   3   7 -11   15.70    3.00
  -3  -7  11   10.10    2.00
  -3  -7  11   12.30    4.30
  -3  -7  11   15.00    2.40
   2   7 -11   38.30    4.90
  -2  -7  11   38.00    3.10
  -2  -7  11   41.50    2.90
   1   7 -11    1.40    1.90
   1   7 -11   -1.80    3.20
  -1  -7  11   -1.20    1.50
   0   7 -11    5.00    3.10
   0  -7  11    3.30    1.40
   0  -7  11    2.90    1.50
  -1   7 -11   34.20    3.70
  -1   7 -11   34.20    3.60
  -1   7 -11   40.80    4.80
   1  -7  11   33.00    3.30
   1  -7  11   37.20    3.00
  -2   7 -11  120.79    5.50
  -2   7 -11  119.89    5.50
  -2   7 -11  115.09    6.60
   2  -7  11  118.59    5.40
   2  -7  11  113.89    5.20
  -3   7 -11   50.39    5.10
  -3   7 -11   51.29    3.90
  -3   7 -11   51.19    4.20
   3  -7  11   42.20    4.20
   3  -7  11   45.40    4.20
  -4   7 -11    7.70    3.20
  -4   7 -11    4.20    2.40
  -4   7 -11    4.70    2.80
   4  -7  11    7.60    2.60
   4  -7  11    4.70    2.60
   4   6 -11   87.29    5.60
  -4  -6  11   91.59    8.00
  -4  -6  11   82.99    4.90
   3   6 -11    1.00    2.10
   3   6 -11    4.30    3.50
  -3  -6  11    4.50    1.70
  -3  -6  11    4.80    1.50
   2   6 -11   14.60    2.10
   2   6 -11   12.60    3.30
  -2  -6  11   16.90    1.60
  -2  -6  11   17.30    1.80
  -2  -6  11   10.50    1.70
   1   6 -11    9.70    2.80
   1   6 -11    7.00    1.60
  -1  -6  11    5.30    1.30
  -1  -6  11    5.60    1.00
  -1  -6  11    6.50    1.50
   0   6 -11  263.17    8.60
   0   6 -11  252.57    9.00
   0   6 -11  274.97    9.80
   0  -6  11  282.37    8.70
   0  -6  11  284.57    8.30
   0  -6  11  285.27    8.20
   0  -6  11  247.68    8.10
  -1   6 -11    6.30    1.70
  -1   6 -11    5.70    2.30
  -1   6 -11    7.70    1.60
   1  -6  11    8.70    1.50
   1  -6  11    9.20    1.40
   1  -6  11    4.40    1.20
   1  -6  11    5.10    1.60
  -2   6 -11   52.29    3.40
  -2   6 -11   50.49    3.40
  -2   6 -11   46.50    4.20
   2  -6  11   48.10    3.30
   2  -6  11   50.19    3.00
   2  -6  11   46.50    3.40
   2  -6  11   50.39    3.40
  -3   6 -11   40.40    3.70
  -3   6 -11   43.00    3.40
  -3   6 -11   36.30    4.10
   3  -6  11   51.09    3.60
   3  -6  11   44.20    3.80
   3  -6  11   41.30    3.50
  -4   6 -11    2.10    2.80
  -4   6 -11    2.30    1.90
  -4   6 -11    2.90    1.90
  -4   6 -11   -1.30    2.10
   4  -6  11    0.80    2.00
   4  -6  11   -0.30    2.00
  -5   6 -11    0.80    3.00
  -5   6 -11    2.50    2.30
   5  -6  11    5.20    2.60
   5  -6  11    5.90    2.50
   5   5 -11    6.30    2.80
  -5  -5  11    2.80    4.00
  -5  -5  11    7.80    2.70
   4   5 -11   -2.50    1.70
  -4  -5  11   -0.60    1.40
  -4  -5  11    4.80    3.50
  -4  -5  11   -0.50    1.80
   3   5 -11   -2.50    2.70
   3   5 -11   -0.30    1.30
   3   5 -11    3.30    1.60
  -3  -5  11    0.20    1.50
  -3  -5  11    0.90    1.20
   2   5 -11   61.29    3.40
   2   5 -11   62.39    4.80
  -2  -5  11   55.39    3.00
  -2  -5  11   56.59    2.90
  -2  -5  11   51.19    2.50
   1   5 -11    9.00    2.30
   1   5 -11   12.70    1.50
   1   5 -11   12.60    1.60
  -1  -5  11   10.90    1.30
  -1  -5  11   12.30    1.20
  -1  -5  11   11.20    1.00
  -1  -5  11    8.60    1.30
   0   5 -11  250.67    8.40
   0   5 -11  257.87    8.00
   0  -5  11  261.67    7.80
   0  -5  11  265.07    8.20
   0  -5  11  259.67    7.80
  -1   5 -11   50.19    2.90
  -1   5 -11   46.00    2.70
  -1   5 -11   46.50    3.90
   1  -5  11   48.70    2.30
   1  -5  11   49.30    2.50
   1  -5  11   46.50    2.90
   1  -5  11   47.70    2.60
  -2   5 -11    1.90    1.30
  -2   5 -11   -0.80    1.80
  -2   5 -11    1.60    1.30
   2  -5  11    1.70    1.50
   2  -5  11    1.80    1.30
   2  -5  11    1.90    1.30
  -3   5 -11   18.80    2.10
  -3   5 -11   13.70    2.00
  -3   5 -11   15.30    2.50
  -3   5 -11   17.10    2.00
   3  -5  11   21.20    2.20
   3  -5  11   21.40    2.40
   3  -5  11   15.90    2.00
  -4   5 -11   33.90    3.20
  -4   5 -11   40.30    4.00
  -4   5 -11   40.90    3.20
   4  -5  11   40.70    3.50
   4  -5  11   39.90    3.40
  -5   5 -11    5.40    2.00
  -5   5 -11    4.70    2.00
   5  -5  11    3.90    2.40
   5  -5  11    7.60    2.20
   5   4 -11    3.50    2.20
  -5  -4  11   -0.50    1.90
  -5  -4  11    3.60    1.80
  -5  -4  11   -1.80    3.40
   4   4 -11   63.49    3.80
   4   4 -11   64.89    3.30
  -4  -4  11   59.99    3.30
  -4  -4  11   69.09    4.00
   3   4 -11   74.09    3.10
   3   4 -11   76.99    5.00
  -3  -4  11   75.39    3.30
  -3  -4  11   80.49    3.70
  -3  -4  11   74.19    3.50
   2   4 -11  125.89    5.80
   2   4 -11  126.39    4.70
  -2  -4  11  126.79    4.60
  -2  -4  11  127.29    4.60
  -2  -4  11  126.09    4.10
  -2  -4  11  125.69    4.50
   1   4 -11   13.10    1.50
   1   4 -11   12.20    1.50
   1   4 -11    9.20    1.90
  -1  -4  11   12.70    0.90
  -1  -4  11   13.30    1.30
  -1  -4  11   12.60    1.30
  -1  -4  11   12.70    1.00
   0   4 -11   13.00    1.50
   0   4 -11   13.90    1.70
   0   4 -11   10.10    1.80
   0  -4  11   10.40    1.30
   0  -4  11   13.10    1.30
   0  -4  11   16.70    1.40
   0  -4  11   12.90    1.60
   0  -4  11   13.50    0.90
  -1   4 -11   76.39    3.10
  -1   4 -11   78.49    3.20
  -1   4 -11   76.19    3.80
  -1   4 -11   77.49    4.00
   1  -4  11   71.99    3.40
   1  -4  11   75.29    3.10
   1  -4  11   72.59    3.00
   1  -4  11   71.19    3.20
  -2   4 -11   19.00    1.90
  -2   4 -11   13.80    1.90
  -2   4 -11   17.00    1.90
  -2   4 -11   21.40    1.90
   2  -4  11   14.80    1.70
   2  -4  11   14.80    1.80
   2  -4  11   17.40    2.00
   2  -4  11   17.80    1.90
  -3   4 -11   23.80    2.40
  -3   4 -11   22.10    1.40
  -3   4 -11   25.30    2.40
  -3   4 -11   17.90    2.00
  -3   4 -11   22.90    2.20
   3  -4  11   23.90    3.10
   3  -4  11   24.00    2.70
  -4   4 -11   10.50    1.30
  -4   4 -11   10.10    1.80
  -4   4 -11    9.10    1.60
   4  -4  11    8.30    1.70
   4  -4  11    6.30    2.20
   4  -4  11   11.90    2.10
  -5   4 -11    6.50    1.80
  -5   4 -11    6.50    2.00
   5  -4  11    6.80    1.80
   5  -4  11    3.20    2.20
  -6   4 -11   14.20    2.80
   6  -4  11   11.70    3.10
   6  -4  11    9.30    2.40
   6   3 -11    6.30    2.50
  -6  -3  11    6.20    4.00
  -6  -3  11    3.90    4.40
   5   3 -11   -2.20    1.70
   5   3 -11   -1.20    1.50
  -5  -3  11   -1.60    1.90
  -5  -3  11    0.50    1.70
   4   3 -11  128.39    4.50
  -4  -3  11  136.89    5.00
  -4  -3  11  128.09    5.40
   3   3 -11   98.29    5.00
   3   3 -11   96.09    4.00
   3   3 -11  101.29    3.30
  -3  -3  11   96.89    3.80
  -3  -3  11   96.99    3.80
  -3  -3  11   98.99    3.80
  -3  -3  11   95.39    4.10
   2   3 -11   -0.20    1.40
   2   3 -11    0.20    0.90
  -2  -3  11    0.40    0.70
  -2  -3  11    0.00    0.70
  -2  -3  11    2.40    0.90
  -2  -3  11    1.20    0.90
   1   3 -11   24.00    3.30
   1   3 -11   27.90    2.50
  -1  -3  11   27.70    1.80
  -1  -3  11   27.10    1.80
  -1  -3  11   28.90    2.40
  -1  -3  11   26.70    1.20
  -1  -3  11   26.00    2.20
  -1  -3  11   28.00    1.30
   0   3 -11   43.90    2.50
   0   3 -11   44.10    1.90
   0   3 -11   43.90    1.50
   0   3 -11   46.60    2.80
   0  -3  11   47.50    2.30
   0  -3  11   39.80    2.50
   0  -3  11   43.80    2.40
   0  -3  11   41.60    2.40
   0  -3  11   48.90    2.00
   0  -3  11   43.50    2.70
  -1   3 -11   59.19    2.90
  -1   3 -11   57.19    2.40
  -1   3 -11   53.39    3.00
  -1   3 -11   52.09    3.10
   1  -3  11   58.19    2.60
   1  -3  11   50.79    2.80
   1  -3  11   56.99    3.00
   1  -3  11   58.69    3.30
   1  -3  11   58.59    2.50
   1  -3  11   55.99    2.80
  -2   3 -11  168.78    5.40
  -2   3 -11  173.78    6.00
  -2   3 -11  171.68    5.70
   2  -3  11  157.28    5.80
   2  -3  11  170.98    5.70
   2  -3  11  165.08    5.90
   2  -3  11  177.98    5.70
   2  -3  11  170.28    5.80
  -3   3 -11  246.48    7.30
  -3   3 -11  233.98    7.30
  -3   3 -11  237.08    7.60
  -3   3 -11  232.68    6.90
   3  -3  11  241.48    7.50
   3  -3  11  236.48    7.70
   3  -3  11  239.68    8.00
   3  -3  11  225.88    7.60
  -4   3 -11  269.87    9.00
  -4   3 -11  296.77    8.60
  -4   3 -11  269.97    9.60
  -4   3 -11  287.67    8.50
   4  -3  11  291.87    8.90
   4  -3  11  281.37    9.80
   4  -3  11  288.27    9.20
  -5   3 -11   15.90    2.20
  -5   3 -11   21.80    1.90
   5  -3  11   17.40    2.20
   5  -3  11   15.30    2.40
   5  -3  11   17.60    2.00
  -6   3 -11    0.70    2.40
   6  -3  11    1.70    2.60
   6  -3  11   -0.80    2.00
   6  -3  11    2.00    2.40
   6   2 -11  116.89    5.50
   6   2 -11  121.79    5.20
  -6  -2  11  118.59    5.70
  -6  -2  11  125.49    7.90
  -6  -2  11  112.89    6.10
   5   2 -11   15.90    2.00
   5   2 -11   15.00    1.70
  -5  -2  11   16.10    2.20
  -5  -2  11   15.10    2.50
   4   2 -11   52.99    2.40
   4   2 -11   49.80    2.90
  -4  -2  11   52.39    3.10
  -4  -2  11   48.50    2.90
  -4  -2  11   53.29    3.40
   3   2 -11  210.58    7.40
   3   2 -11  200.88    7.00
   3   2 -11  212.88    6.70
  -3  -2  11  211.28    7.00
  -3  -2  11  210.18    6.70
  -3  -2  11  206.78    6.60
  -3  -2  11  216.98    6.40
   2   2 -11  101.69    3.20
   2   2 -11   99.39    4.00
   2   2 -11  105.49    3.70
   2   2 -11  103.79    4.40
   2   2 -11  100.99    3.60
  -2  -2  11  102.79    3.80
  -2  -2  11  103.79    3.80
  -2  -2  11  106.49    3.50
  -2  -2  11  106.39    3.40
  -2  -2  11   98.79    4.20
  -2  -2  11  103.39    3.90
   1   2 -11  375.06   11.10
   1   2 -11  374.06   10.60
   1   2 -11  381.46   10.70
   1   2 -11  383.36   11.40
  -1  -2  11  374.86   11.00
  -1  -2  11  376.76   10.90
  -1  -2  11  357.36   11.00
  -1  -2  11  370.86   10.90
  -1  -2  11  382.76   10.80
  -1  -2  11  369.56   11.10
  -1  -2  11  380.76   10.50
   0   2 -11  359.36   10.60
   0   2 -11  366.26   10.80
   0   2 -11  368.96   10.90
   0   2 -11  342.97   10.20
   0   2 -11  374.96   10.00
   0  -2  11  373.86   10.50
   0  -2  11  359.96   10.00
   0  -2  11  354.76   10.60
   0  -2  11  362.46   10.50
   0  -2  11  358.66   10.30
   0  -2  11  355.26   10.50
  -1   2 -11  376.16   11.50
  -1   2 -11  386.66   10.70
  -1   2 -11  383.26   11.50
  -1   2 -11  374.66   11.40
  -1   2 -11  391.86   11.40
   1  -2  11  385.26   11.30
   1  -2  11  373.96   11.30
   1  -2  11  386.16   11.10
   1  -2  11  387.76   11.20
   1  -2  11  388.56   11.20
   1  -2  11  400.86   10.70
  -2   2 -11  159.48    4.80
  -2   2 -11  159.48    5.40
  -2   2 -11  149.49    5.90
   2  -2  11  165.68    5.70
   2  -2  11  169.78    5.00
   2  -2  11  151.58    5.30
   2  -2  11  160.08    5.20
   2  -2  11  158.28    5.20
  -3   2 -11   18.20    1.60
  -3   2 -11   19.20    1.80
  -3   2 -11   16.30    1.40
   3  -2  11   19.10    2.30
   3  -2  11   21.50    2.10
   3  -2  11   19.10    1.80
   3  -2  11   17.10    1.80
  -4   2 -11   13.90    1.30
  -4   2 -11   14.10    1.90
  -4   2 -11   13.10    1.60
   4  -2  11   14.40    2.00
   4  -2  11   12.10    2.60
   4  -2  11   14.40    1.50
   4  -2  11   14.00    1.70
  -5   2 -11   96.99    4.80
  -5   2 -11  109.79    4.90
   5  -2  11   94.29    4.80
   5  -2  11  108.29    4.20
   5  -2  11  101.49    5.00
  -6   2 -11   21.50    3.00
   6  -2  11   18.50    2.80
   6  -2  11   19.90    3.00
   7   1 -11   48.90    4.50
   7   1 -11   53.49    5.00
  -7  -1  11   52.49    4.80
  -7  -1  11   36.00    5.50
   6   1 -11   60.59    4.10
   6   1 -11   68.79    3.70
  -6  -1  11   64.89    4.60
  -6  -1  11   68.99    6.20
   5   1 -11   19.70    2.10
   5   1 -11   22.20    2.10
  -5  -1  11   24.40    2.50
  -5  -1  11   20.90    2.50
   4   1 -11   34.00    2.30
   4   1 -11   37.70    1.90
   4   1 -11   36.40    3.00
  -4  -1  11   31.30    2.80
  -4  -1  11   37.40    2.80
  -4  -1  11   35.80    2.10
   3   1 -11    2.70    1.20
   3   1 -11    0.50    0.40
   3   1 -11    0.20    1.20
   3   1 -11    0.70    0.70
   3   1 -11    0.10    1.00
   3   1 -11   -0.50    0.50
  -3  -1  11    3.00    1.00
  -3  -1  11   -0.70    1.00
  -3  -1  11   -0.20    1.00
  -3  -1  11    1.10    0.70
  -3  -1  11   -2.00    1.20
   2   1 -11  309.67    9.10
   2   1 -11  313.37    9.50
   2   1 -11  300.77    8.90
   2   1 -11  306.27    8.70
   2   1 -11  294.37    9.10
  -2  -1  11  306.77    9.00
  -2  -1  11  310.87    8.90
  -2  -1  11  309.57    9.20
  -2  -1  11  305.77    9.30
  -2  -1  11  307.57    9.30
  -2  -1  11  316.77    8.60
  -2  -1  11  309.77    9.40
   1   1 -11   75.69    2.60
   1   1 -11   73.89    3.00
   1   1 -11   67.89    2.60
   1   1 -11   76.69    3.10
  -1  -1  11   70.99    2.60
  -1  -1  11   74.09    2.50
  -1  -1  11   71.19    2.90
  -1  -1  11   73.39    2.90
  -1  -1  11   69.19    3.00
   0   1 -11  364.26   10.40
   0   1 -11  363.26   10.50
   0   1 -11  346.97    9.90
   0   1 -11  349.57   10.50
   0   1 -11  348.87   10.20
   0  -1  11  352.96    9.90
   0  -1  11  339.97    9.70
   0  -1  11  362.26   10.40
   0  -1  11  347.37   10.10
   0  -1  11  337.17   10.20
   0  -1  11  352.76   10.40
   0  -1  11  370.46   10.10
  -1   1 -11  113.19    3.60
  -1   1 -11  114.99    4.20
  -1   1 -11  109.29    4.20
  -1   1 -11  110.49    4.10
   1  -1  11  113.39    4.20
   1  -1  11  114.39    4.00
   1  -1  11  118.19    3.80
   1  -1  11  114.79    3.90
   1  -1  11  116.79    4.30
   1  -1  11  118.09    3.60
  -2   1 -11   74.19    3.50
  -2   1 -11   81.69    3.30
  -2   1 -11   78.29    2.80
   2  -1  11   74.99    2.80
   2  -1  11   71.39    3.50
   2  -1  11   79.29    2.90
   2  -1  11   77.79    3.00
   2  -1  11   77.09    3.20
  -3   1 -11   79.59    4.10
  -3   1 -11   87.99    3.30
  -3   1 -11   84.39    3.70
   3  -1  11   80.69    4.20
   3  -1  11   88.59    3.50
   3  -1  11   88.49    3.70
   3  -1  11   86.69    3.30
  -4   1 -11  208.98    7.20
  -4   1 -11  211.98    6.70
   4  -1  11  206.28    7.20
   4  -1  11  198.68    7.10
   4  -1  11  209.18    6.40
   4  -1  11  190.18    7.80
  -5   1 -11   51.39    4.10
  -5   1 -11   55.79    3.70
   5  -1  11   55.29    2.80
   5  -1  11   51.69    4.10
   5  -1  11   54.99    3.90
  -6   1 -11    0.70    2.50
   6  -1  11    4.90    2.90
   6  -1  11   -2.90    2.30
   7   0 -11    2.00    2.10
   7   0 -11    0.00    2.20
  -7   0  11    0.10    2.30
  -7   0  11   -6.20    3.70
   6   0 -11    4.70    1.80
  -6   0  11    5.60    2.20
   5   0 -11   58.79    4.10
   5   0 -11   56.49    2.40
   5   0 -11   57.39    3.00
  -5   0  11   50.49    3.60
  -5   0  11   59.49    3.90
   4   0 -11  260.67    8.30
   4   0 -11  257.07    7.70
   4   0 -11  258.07    7.60
  -4   0  11  250.47    8.30
  -4   0  11  244.88    8.20
  -4   0  11  253.67    8.40
   3   0 -11   21.80    2.00
   3   0 -11   24.70    1.80
   3   0 -11   21.70    1.40
   3   0 -11   20.20    2.00
   3   0 -11   20.90    1.90
  -3   0  11   20.60    2.00
  -3   0  11   21.60    2.30
  -3   0  11   23.50    2.20
  -3   0  11   21.40    2.00
  -3   0  11   23.50    2.00
   2   0 -11  349.67    9.50
   2   0 -11  329.17    9.30
   2   0 -11  332.07    9.50
   2   0 -11  334.97    9.80
   2   0 -11  325.37    9.80
   2   0 -11  342.17   10.00
  -2   0  11  337.67   10.00
  -2   0  11  343.27    9.80
  -2   0  11  331.37   10.00
  -2   0  11  338.37    9.70
  -2   0  11  343.87    9.50
  -2   0  11  309.47   10.00
   1   0 -11   19.30    1.50
   1   0 -11   17.00    1.30
   1   0 -11   15.30    1.30
   1   0 -11   15.20    1.40
   1   0 -11   16.10    1.70
   1   0 -11   17.40    0.90
  -1   0  11   17.40    1.70
  -1   0  11   18.40    1.10
  -1   0  11   18.50    1.50
  -1   0  11   15.50    1.30
  -1   0  11   18.80    1.50
   0   0 -11    9.90    1.20
   0   0 -11   11.60    1.20
   0   0 -11   12.30    1.20
   0   0 -11    9.80    1.10
   0   0 -11    9.70    0.90
   0   0  11   11.60    1.00
   0   0  11   10.20    1.00
   0   0  11    9.70    1.00
   0   0  11   13.20    1.40
   0   0  11   11.40    1.20
   0   0  11   11.20    1.30
   0   0  11   11.80    1.40
  -1   0 -11  400.56   11.40
  -1   0 -11  405.56   11.60
  -1   0 -11  400.16   11.60
  -1   0 -11  392.56   11.20
   1   0  11  377.86   11.70
   1   0  11  389.46   11.70
   1   0  11  402.56   11.40
   1   0  11  378.46   11.20
   1   0  11  400.76   11.00
  -2   0 -11  298.67    8.80
  -2   0 -11  299.07    9.10
  -2   0 -11  291.17    9.10
   2   0  11  303.67    8.90
   2   0  11  301.87    9.50
   2   0  11  302.67    8.80
  -3   0 -11  219.48    6.80
  -3   0 -11  207.28    7.10
  -3   0 -11  217.38    7.20
   3   0  11  228.58    7.10
   3   0  11  201.68    7.70
   3   0  11  218.88    6.60
  -4   0 -11   46.00    2.80
  -4   0 -11   42.90    3.30
   4   0  11   39.60    3.80
   4   0  11   37.50    3.10
   4   0  11   36.90    2.30
  -5   0 -11   -1.80    1.70
  -5   0 -11    0.00    1.90
   5   0  11    1.60    2.10
  -6   0 -11   15.70    3.20
   6   0  11   23.20    3.70
   7  -1 -11    4.50    2.20
  -7   1  11    6.20    3.60
  -7   1  11    4.20    4.10
   6  -1 -11   39.90    2.80
   6  -1 -11   44.20    3.90
   6  -1 -11   38.10    3.10
  -6   1  11   44.80    3.80
   5  -1 -11  133.59    5.70
   5  -1 -11  125.79    4.60
   5  -1 -11  131.19    4.80
  -5   1  11  133.49    5.40
  -5   1  11  125.79    5.60
  -5   1  11  125.39    5.30
   4  -1 -11  919.41   25.10
   4  -1 -11  925.91   25.40
   4  -1 -11  886.31   25.80
  -4   1  11  888.81   25.70
  -4   1  11  902.01   26.00
  -4   1  11  927.71   25.30
   3  -1 -11  290.47    8.70
   3  -1 -11  293.57    8.60
   3  -1 -11  287.37    8.20
   3  -1 -11  278.77    8.80
  -3   1  11  277.87    8.60
  -3   1  11  278.77    8.70
  -3   1  11  290.97    9.20
  -3   1  11  292.37    8.40
  -3   1  11  281.17    8.80
   2  -1 -11   27.40    1.80
   2  -1 -11   26.20    1.70
   2  -1 -11   26.60    1.60
   2  -1 -11   31.90    1.90
  -2   1  11   26.30    1.90
  -2   1  11   27.50    1.90
  -2   1  11   27.60    1.80
  -2   1  11   30.50    1.10
  -2   1  11   26.50    2.10
   1  -1 -11   47.80    2.10
   1  -1 -11   47.80    1.90
   1  -1 -11   48.60    2.20
   1  -1 -11   47.60    2.10
  -1   1  11   49.70    2.40
  -1   1  11   47.10    2.30
  -1   1  11   46.40    2.50
  -1   1  11   46.10    2.20
  -1   1  11   50.79    1.60
   0  -1 -11  830.72   23.70
   0  -1 -11  883.01   23.60
   0  -1 -11  831.12   23.50
   0  -1 -11  866.31   23.70
   0  -1 -11  861.51   23.40
   0  -1 -11  867.81   23.10
   0   1  11  850.61   23.80
   0   1  11  835.72   23.80
   0   1  11  862.91   23.50
   0   1  11  847.32   23.80
   0   1  11  830.62   23.60
  -1  -1 -11   46.40    2.30
  -1  -1 -11   44.40    2.20
  -1  -1 -11   48.30    2.20
  -1  -1 -11   45.50    2.10
  -1  -1 -11   47.80    1.90
  -1  -1 -11   40.00    2.70
   1   1  11   47.00    1.60
   1   1  11   46.50    2.60
   1   1  11   48.00    3.40
   1   1  11   45.40    2.30
   1   1  11   43.00    2.20
  -2  -1 -11 1122.79   31.10
  -2  -1 -11 1109.49   30.80
  -2  -1 -11 1143.29   30.70
  -2  -1 -11 1103.49   30.90
   2   1  11 1162.08   30.90
   2   1  11 1116.79   31.00
   2   1  11 1077.09   31.50
  -3  -1 -11   60.99    3.00
  -3  -1 -11   53.89    3.00
  -3  -1 -11   60.49    3.30
   3   1  11   54.49    3.80
   3   1  11   55.79    2.60
   3   1  11   57.29    3.10
  -4  -1 -11    5.20    1.60
  -4  -1 -11    8.90    2.00
   4   1  11    4.90    1.80
   4   1  11    5.20    1.20
  -5  -1 -11    1.00    2.40
  -5  -1 -11    0.60    1.90
   5   1  11    1.50    2.30
   7  -2 -11  131.99    5.70
  -7   2  11  128.39    8.00
  -7   2  11  127.29    6.50
   6  -2 -11  143.09    5.70
   6  -2 -11  145.39    6.80
   6  -2 -11  147.89    5.40
  -6   2  11  134.69    6.00
   5  -2 -11   85.59    4.70
   5  -2 -11   81.39    3.40
   5  -2 -11   84.29    4.10
  -5   2  11   82.99    4.10
  -5   2  11   84.69    3.80
   4  -2 -11  374.06   10.50
   4  -2 -11  385.26   11.40
   4  -2 -11  367.76   11.40
  -4   2  11  339.57   11.10
  -4   2  11  384.46   10.60
  -4   2  11  367.16   11.80
  -4   2  11  370.56   11.20
   3  -2 -11  203.18    6.60
   3  -2 -11  199.68    6.30
   3  -2 -11  198.88    5.60
   3  -2 -11  193.88    6.70
  -3   2  11  183.28    6.90
  -3   2  11  196.68    6.30
  -3   2  11  203.78    6.40
   2  -2 -11  206.88    6.40
   2  -2 -11  206.48    6.60
   2  -2 -11  202.68    6.20
   2  -2 -11  203.28    6.50
  -2   2  11  215.58    6.00
  -2   2  11  198.78    6.40
  -2   2  11  201.48    7.00
  -2   2  11  214.98    6.50
  -2   2  11  204.28    6.50
   1  -2 -11  220.88    6.80
   1  -2 -11  223.98    7.00
   1  -2 -11  221.88    6.90
   1  -2 -11  230.58    6.60
   1  -2 -11  220.28    6.90
  -1   2  11  219.08    6.90
  -1   2  11  226.58    7.30
  -1   2  11  225.48    6.30
  -1   2  11  226.98    7.00
  -1   2  11  217.88    6.90
   0  -2 -11  579.44   17.00
   0  -2 -11  602.84   16.90
   0  -2 -11  623.14   16.60
   0  -2 -11  609.74   16.80
   0  -2 -11  603.94   17.00
   0  -2 -11  570.74   16.80
   0   2  11  610.14   17.00
   0   2  11  594.84   17.10
   0   2  11  605.74   17.20
   0   2  11  599.04   17.00
   0   2  11  593.84   17.20
  -1  -2 -11   89.59    3.30
  -1  -2 -11   92.39    3.60
  -1  -2 -11   90.59    3.60
  -1  -2 -11   86.89    3.30
  -1  -2 -11   95.79    3.50
   1   2  11   93.89    3.70
   1   2  11   88.79    3.90
   1   2  11   92.19    3.70
  -2  -2 -11  124.09    4.70
  -2  -2 -11  124.19    4.50
  -2  -2 -11  119.99    4.50
  -2  -2 -11  122.49    4.20
   2   2  11  130.59    4.70
   2   2  11  111.99    5.10
   2   2  11  115.99    4.40
  -3  -2 -11  178.48    6.20
  -3  -2 -11  170.28    6.30
  -3  -2 -11  173.08    5.70
   3   2  11  167.88    7.10
   3   2  11  181.88    6.40
   3   2  11  171.08    5.70
  -4  -2 -11   80.79    4.30
  -4  -2 -11   71.79    4.60
   4   2  11   89.19    4.70
  -5  -2 -11   17.20    2.80
  -5  -2 -11   15.70    3.10
   5   2  11   20.90    3.20
   7  -3 -11   30.70    4.20
   7  -3 -11   28.40    2.70
   7  -3 -11   32.10    3.60
  -7   3  11   33.60    4.20
  -7   3  11   29.90    3.40
   6  -3 -11   57.29    4.50
   6  -3 -11   53.29    4.90
   6  -3 -11   60.59    3.30
  -6   3  11   52.29    3.90
   5  -3 -11   29.40    2.80
   5  -3 -11   32.20    2.10
   5  -3 -11   33.30    3.40
  -5   3  11   30.50    2.90
   4  -3 -11   54.99    3.60
   4  -3 -11   51.39    2.10
  -4   3  11   51.89    2.90
  -4   3  11   53.69    2.90
   3  -3 -11   20.20    2.20
   3  -3 -11   18.50    1.80
   3  -3 -11   18.60    2.00
  -3   3  11   17.70    1.90
  -3   3  11   20.40    1.70
  -3   3  11   19.10    1.90
   2  -3 -11  443.66   12.90
   2  -3 -11  432.96   12.80
  -2   3  11  429.36   13.40
  -2   3  11  449.56   12.40
  -2   3  11  426.46   12.60
  -2   3  11  454.15   12.80
   1  -3 -11  149.59    4.90
   1  -3 -11  137.79    4.30
   1  -3 -11  134.09    4.90
   1  -3 -11  137.69    4.90
   1  -3 -11  144.39    4.80
  -1   3  11  143.99    5.40
  -1   3  11  142.19    4.40
  -1   3  11  133.99    4.80
  -1   3  11  140.79    5.00
   0  -3 -11    2.90    0.90
   0  -3 -11    3.50    1.00
   0  -3 -11    1.90    1.00
   0  -3 -11    3.00    1.00
   0  -3 -11    3.00    1.30
   0   3  11    3.20    1.30
   0   3  11    1.60    1.20
   0   3  11    2.90    1.20
   0   3  11    2.00    0.80
   0   3  11    1.70    1.60
  -1  -3 -11   18.20    1.90
  -1  -3 -11   15.70    1.60
  -1  -3 -11   19.50    2.30
  -1  -3 -11   18.60    1.70
   1   3  11   19.60    1.90
   1   3  11   15.00    1.80
   1   3  11   16.70    1.40
   1   3  11   12.40    1.70
  -2  -3 -11    1.00    0.90
  -2  -3 -11   -1.00    1.20
  -2  -3 -11    0.10    1.30
   2   3  11   -0.50    1.30
   2   3  11    0.90    1.10
   2   3  11   -1.10    1.70
  -3  -3 -11    2.10    1.70
  -3  -3 -11   -0.60    1.60
   3   3  11    0.00    2.20
   3   3  11   -0.30    1.40
   3   3  11   -0.20    1.80
  -4  -3 -11  641.64   19.00
  -4  -3 -11  629.34   18.70
   4   3  11  604.74   18.40
   4   3  11  644.64   19.20
   7  -4 -11    4.50    2.40
   7  -4 -11    5.70    3.20
   7  -4 -11    0.00    3.50
  -7   4  11    5.50    2.40
   6  -4 -11  129.69    6.60
   6  -4 -11  136.49    6.70
   6  -4 -11  127.59    4.90
  -6   4  11  131.59    5.60
  -6   4  11  139.59    6.60
   5  -4 -11   58.39    2.60
   5  -4 -11   59.89    4.10
  -5   4  11   56.79    3.50
   4  -4 -11   43.40    1.80
   4  -4 -11   46.80    3.80
   4  -4 -11   41.70    3.20
  -4   4  11   43.00    2.60
  -4   4  11   40.80    2.80
  -4   4  11   42.20    2.70
   3  -4 -11  290.87   10.10
   3  -4 -11  292.27    9.80
  -3   4  11  294.67    8.80
  -3   4  11  280.97    8.70
  -3   4  11  295.17    8.90
   2  -4 -11  157.98    5.30
   2  -4 -11  154.28    5.40
  -2   4  11  150.48    5.20
  -2   4  11  155.78    5.30
  -2   4  11  155.48    5.10
   1  -4 -11   25.30    2.00
   1  -4 -11   25.70    2.10
   1  -4 -11   24.40    1.60
  -1   4  11   23.50    2.70
  -1   4  11   22.70    1.70
  -1   4  11   20.20    2.10
  -1   4  11   24.70    2.10
   0  -4 -11  245.38    9.30
   0  -4 -11  273.97    8.60
   0  -4 -11  258.77    8.40
   0  -4 -11  281.47    8.50
   0   4  11  288.87    8.90
   0   4  11  285.67    8.10
   0   4  11  293.97    9.00
  -1  -4 -11   82.39    3.70
  -1  -4 -11   79.79    3.30
  -1  -4 -11   79.69    3.50
   1   4  11   75.79    4.70
   1   4  11   84.59    4.30
   1   4  11   80.59    2.90
  -2  -4 -11  228.58    7.70
  -2  -4 -11  227.98    7.70
   2   4  11  220.88    7.10
   2   4  11  224.28    8.40
   2   4  11  238.68    8.30
  -3  -4 -11    2.20    2.00
  -3  -4 -11    1.20    1.80
   3   4  11    3.70    1.70
   3   4  11    6.60    2.40
  -4  -4 -11    3.80    2.70
  -4  -4 -11    4.00    2.70
   4   4  11   -3.30    3.00
   4   4  11    6.80    2.40
   6  -5 -11   17.70    3.40
   6  -5 -11   22.80    3.60
  -6   5  11   21.00    2.50
   5  -5 -11   70.69    4.60
   5  -5 -11   66.99    5.30
   5  -5 -11   76.09    3.40
  -5   5  11   75.19    3.80
  -5   5  11   71.29    4.10
   4  -5 -11   62.39    4.70
   4  -5 -11   68.29    4.00
  -4   5  11   61.79    3.50
  -4   5  11   60.09    3.20
   3  -5 -11  120.79    5.80
   3  -5 -11  107.69    4.80
  -3   5  11  118.59    4.60
  -3   5  11  109.99    4.30
  -3   5  11  122.19    4.50
  -3   5  11  120.79    5.20
   2  -5 -11   18.50    2.10
   2  -5 -11   15.80    1.80
   2  -5 -11   15.50    2.60
  -2   5  11   16.00    1.90
  -2   5  11   19.10    2.00
  -2   5  11   16.10    1.90
  -2   5  11   15.70    1.70
   1  -5 -11  100.69    3.40
   1  -5 -11  107.09    4.40
   1  -5 -11  106.69    4.00
  -1   5  11   96.49    4.90
  -1   5  11  106.69    4.00
  -1   5  11  110.49    4.50
  -1   5  11  110.49    4.30
   0  -5 -11  160.28    5.60
   0  -5 -11  152.68    5.70
   0  -5 -11  166.38    5.90
   0   5  11  162.08    5.30
   0   5  11  169.58    6.20
   0   5  11  166.68    6.50
  -1  -5 -11   18.30    2.00
  -1  -5 -11   21.10    2.30
   1   5  11   15.00    1.40
   1   5  11   14.80    2.50
   1   5  11   16.30    2.50
  -2  -5 -11    4.50    1.80
  -2  -5 -11    4.40    1.90
   2   5  11    5.30    2.50
   2   5  11    5.60    1.60
   2   5  11    2.60    2.60
  -3  -5 -11   -2.60    2.10
  -3  -5 -11   -3.40    2.20
   3   5  11    1.80    2.80
   6  -6 -11   77.69    5.90
   6  -6 -11   65.89    6.50
  -6   6  11   65.39    6.40
  -6   6  11   65.09    5.10
  -6   6  11   61.59    4.10
   5  -6 -11   27.60    3.40
   5  -6 -11   19.30    3.40
  -5   6  11   23.70    2.40
  -5   6  11   23.30    2.80
  -5   6  11   29.60    3.70
   4  -6 -11    5.20    2.10
   4  -6 -11    3.00    2.60
  -4   6  11    2.30    1.80
  -4   6  11    3.80    1.50
  -4   6  11    1.80    2.20
   3  -6 -11   11.80    2.00
   3  -6 -11   11.90    3.00
  -3   6  11    7.70    2.10
  -3   6  11   10.90    1.80
  -3   6  11   10.10    1.80
   2  -6 -11  291.47    8.90
   2  -6 -11  279.27   10.40
   2  -6 -11  303.57    9.60
  -2   6  11  295.87    9.60
  -2   6  11  285.57    9.30
  -2   6  11  298.17    9.20
   1  -6 -11   41.60    3.20
   1  -6 -11   38.70    2.60
  -1   6  11   34.80    3.40
  -1   6  11   40.00    3.00
  -1   6  11   40.50    2.90
   0  -6 -11   29.10    2.60
   0  -6 -11   31.10    3.20
   0   6  11   37.10    4.00
   0   6  11   30.40    2.50
  -1  -6 -11   20.50    2.60
  -1  -6 -11   14.00    2.00
   1   6  11   14.50    3.10
   1   6  11   19.00    3.10
  -2  -6 -11    2.00    2.30
  -2  -6 -11    0.40    2.20
   2   6  11    0.70    2.90
   5  -7 -11    6.90    3.60
   5  -7 -11    6.00    2.90
  -5   7  11    6.20    2.60
  -5   7  11    7.20    3.40
   4  -7 -11  200.98    7.90
   4  -7 -11  192.88    9.20
  -4   7  11  197.78    7.70
  -4   7  11  202.08    8.30
   3  -7 -11   80.09    6.20
   3  -7 -11   79.09    4.80
  -3   7  11   94.99    5.40
  -3   7  11   82.69    4.50
   2  -7 -11   31.60    4.00
   2  -7 -11   41.40    3.70
  -2   7  11   39.50    3.50
  -2   7  11   40.30    3.70
  -2   7  11   47.80    4.00
   1  -7 -11   28.40    2.80
   1  -7 -11   39.90    4.50
   1  -7 -11   25.30    2.60
  -1   7  11   30.30    2.70
  -1   7  11   25.90    2.60
  -1   7  11   30.00    3.20
   0  -7 -11   15.50    2.50
   0  -7 -11   11.10    2.00
   0   7  11   14.90    3.20
  -1  -7 -11    2.50    2.50
  -1  -7 -11    9.30    2.20
   1   7  11   -0.50    3.40
   3  -8 -11   36.40    4.80
   3  -8 -11   48.70    4.70
  -3   8  11   65.79    5.60
  -3   8  11   49.10    4.60
   2  -8 -11   34.40    3.30
   2  -8 -11   37.40    5.20
  -2   8  11   31.90    3.50
  -2   8  11   36.00    4.20
   1  -8 -11    2.20    2.40
  -1   8  11    6.60    2.40
   1   8 -12   28.50    5.10
   1   8 -12   35.80    3.40
  -1  -8  12   30.80    3.00
   0   8 -12   29.00    3.20
   0   8 -12   30.50    4.70
   0  -8  12   29.50    3.00
  -1   8 -12   14.50    2.80
  -1   8 -12   17.20    4.20
   1  -8  12   11.60    2.40
   1  -8  12   12.80    2.30
  -2   8 -12   28.80    3.40
  -2   8 -12   37.70    3.60
  -2   8 -12   32.60    4.70
   2  -8  12   30.10    3.20
   2  -8  12   30.20    3.10
  -3   8 -12    3.20    2.70
  -3   8 -12    1.80    3.00
  -3   8 -12    4.70    3.90
   3  -8  12    2.50    2.70
   3  -8  12   -0.80    2.60
   2   7 -12    8.00    4.20
  -2  -7  12   11.00    1.80
  -2  -7  12   11.40    2.00
   1   7 -12    7.90    3.90
   1   7 -12    8.60    2.20
  -1  -7  12    8.90    2.00
   0   7 -12   -0.30    2.90
   0   7 -12   -2.40    3.10
   0  -7  12    0.80    1.30
   0  -7  12   -1.90    1.60
  -1   7 -12  103.49    6.60
   1  -7  12  102.99    5.00
   1  -7  12  103.19    4.50
  -2   7 -12  109.79    5.50
  -2   7 -12  113.79    5.50
  -2   7 -12  122.69    6.80
   2  -7  12  115.59    5.50
   2  -7  12  116.69    5.20
  -3   7 -12   10.70    3.10
  -3   7 -12    7.80    2.30
  -3   7 -12    5.70    2.40
   3  -7  12   11.60    2.60
   3  -7  12    9.70    2.40
  -4   7 -12    5.70    2.60
  -4   7 -12    0.80    3.50
  -4   7 -12    4.80    2.90
   4  -7  12    1.20    2.70
   4  -7  12    2.10    2.40
   4   6 -12   30.80    3.60
  -4  -6  12   21.60    4.80
  -4  -6  12   31.20    3.10
   3   6 -12    7.40    2.40
   3   6 -12    9.10    3.60
  -3  -6  12    5.40    1.80
  -3  -6  12    7.00    1.70
   2   6 -12    2.20    2.90
  -2  -6  12   -0.70    1.30
  -2  -6  12   -1.30    1.20
   1   6 -12   96.49    4.30
   1   6 -12   99.59    6.10
  -1  -6  12  100.39    3.90
  -1  -6  12   97.99    3.40
  -1  -6  12  101.29    4.30
   0   6 -12   64.09    3.50
   0   6 -12   71.59    5.10
   0  -6  12   57.69    2.90
   0  -6  12   60.99    3.00
   0  -6  12   69.49    3.70
  -1   6 -12   23.00    2.70
  -1   6 -12   21.20    3.00
   1  -6  12   19.40    2.10
   1  -6  12   21.00    2.40
  -2   6 -12    1.10    2.40
  -2   6 -12    3.90    1.70
  -2   6 -12   -0.30    1.60
   2  -6  12    1.70    1.50
   2  -6  12    2.20    1.60
   2  -6  12   -0.50    1.40
  -3   6 -12   -2.40    2.40
  -3   6 -12   -1.40    1.70
  -3   6 -12    1.10    2.00
   3  -6  12    0.90    1.80
   3  -6  12    2.10    1.80
   3  -6  12   -0.30    1.90
  -4   6 -12    1.10    2.00
  -4   6 -12    4.70    2.10
  -4   6 -12    0.30    2.30
  -4   6 -12    0.60    2.70
   4  -6  12    1.30    2.00
   4  -6  12    0.90    2.00
  -5   6 -12   32.10    4.20
  -5   6 -12   43.20    4.40
   5  -6  12   35.50    3.90
   5  -6  12   41.80    4.50
   4   5 -12   34.40    3.20
  -4  -5  12   36.30    3.60
  -4  -5  12   27.00    3.10
   3   5 -12   90.59    6.10
   3   5 -12   88.19    4.50
  -3  -5  12   89.69    3.90
  -3  -5  12   88.79    4.20
   2   5 -12    7.60    2.70
   2   5 -12    8.30    1.70
  -2  -5  12    7.20    1.40
  -2  -5  12    6.90    1.40
   1   5 -12   89.39    3.80
   1   5 -12   93.79    5.20
   1   5 -12   93.49    3.70
  -1  -5  12   90.29    3.90
  -1  -5  12   93.49    3.10
  -1  -5  12   96.29    3.70
   0   5 -12   38.30    3.70
   0   5 -12   32.00    2.30
   0   5 -12   35.70    3.40
   0  -5  12   29.90    1.50
   0  -5  12   36.00    2.30
   0  -5  12   33.00    2.00
   0  -5  12   36.90    2.60
  -1   5 -12    5.50    1.90
  -1   5 -12    2.90    1.30
   1  -5  12    2.60    1.00
   1  -5  12    4.40    1.20
   1  -5  12    3.30    1.30
   1  -5  12    3.70    1.20
  -2   5 -12    9.40    2.20
  -2   5 -12   12.90    1.80
   2  -5  12   12.20    1.80
   2  -5  12   10.60    1.60
   2  -5  12   13.50    1.80
  -3   5 -12  184.48    6.60
  -3   5 -12  188.78    6.80
  -3   5 -12  199.18    6.80
  -3   5 -12  193.38    7.60
   3  -5  12  185.18    6.80
   3  -5  12  181.18    6.90
   3  -5  12  193.58    6.70
  -4   5 -12   18.30    2.20
  -4   5 -12   21.70    3.10
   4  -5  12   19.90    2.60
   4  -5  12   17.10    2.30
  -5   5 -12   33.20    3.70
  -5   5 -12   33.50    3.00
   5  -5  12   32.60    3.70
   5  -5  12   31.80    3.30
   5   4 -12   29.20    3.00
  -5  -4  12   25.00    4.40
  -5  -4  12   34.40    3.80
   4   4 -12    3.40    1.80
   4   4 -12    4.10    2.80
  -4  -4  12    1.80    1.40
  -4  -4  12    2.80    1.80
   3   4 -12   74.89    5.20
   3   4 -12   78.19    3.80
   3   4 -12   83.69    3.00
  -3  -4  12   79.49    3.90
  -3  -4  12   77.79    3.60
  -3  -4  12   82.59    3.60
   2   4 -12    1.20    1.20
   2   4 -12    0.90    2.10
  -2  -4  12   -1.00    1.10
  -2  -4  12    0.30    1.00
  -2  -4  12   -0.80    1.20
  -2  -4  12   -0.80    0.80
   1   4 -12  126.49    4.40
   1   4 -12  119.59    5.40
   1   4 -12  126.59    4.20
  -1  -4  12  124.79    4.50
  -1  -4  12  128.09    3.90
  -1  -4  12  129.19    4.60
  -1  -4  12  121.69    3.60
   0   4 -12   34.30    2.90
   0   4 -12   30.60    3.10
   0   4 -12   31.00    1.90
   0  -4  12   31.40    2.20
   0  -4  12   31.90    2.10
   0  -4  12   33.10    1.80
  -1   4 -12  119.79    5.20
  -1   4 -12  115.59    5.10
  -1   4 -12  117.49    4.20
   1  -4  12  118.39    4.30
   1  -4  12  119.69    4.30
   1  -4  12  120.99    4.50
  -2   4 -12   67.99    3.10
  -2   4 -12   70.69    4.00
  -2   4 -12   67.99    3.10
  -2   4 -12   65.99    3.50
   2  -4  12   65.79    3.40
   2  -4  12   69.59    3.20
  -3   4 -12  271.07    9.50
  -3   4 -12  288.47    8.80
  -3   4 -12  288.37    8.00
  -3   4 -12  284.37    9.10
   3  -4  12  281.57    9.10
   3  -4  12  290.37    9.10
   3  -4  12  284.97    9.40
  -4   4 -12  402.36   12.10
  -4   4 -12  393.56   11.80
  -4   4 -12  386.26   11.20
   4  -4  12  385.66   12.80
   4  -4  12  394.86   12.30
   4  -4  12  404.16   12.10
  -5   4 -12   -0.70    2.00
  -5   4 -12    1.10    1.60
   5  -4  12    0.60    1.70
   5  -4  12   -0.80    2.30
   6   3 -12    5.70    2.60
  -6  -3  12    2.90    4.20
  -6  -3  12    8.60    2.90
   5   3 -12  161.68    6.30
   5   3 -12  160.68    5.90
  -5  -3  12  161.98    6.30
  -5  -3  12  154.38    6.60
   4   3 -12   46.40    4.30
   4   3 -12   51.99    3.20
   4   3 -12   53.19    2.60
  -4  -3  12   46.40    3.50
  -4  -3  12   51.39    3.20
   3   3 -12  271.07    8.50
   3   3 -12  253.57   10.20
   3   3 -12  276.07    7.70
  -3  -3  12  277.17    8.40
  -3  -3  12  253.57    8.20
  -3  -3  12  282.27    8.30
  -3  -3  12  266.07    8.60
   2   3 -12  105.49    4.80
   2   3 -12   96.49    3.90
  -2  -3  12  102.79    3.90
  -2  -3  12  102.09    3.80
  -2  -3  12  100.89    3.40
  -2  -3  12  104.79    3.60
   1   3 -12  119.19    4.10
   1   3 -12  127.39    5.10
  -1  -3  12  119.89    4.20
  -1  -3  12  118.79    3.60
  -1  -3  12  116.89    4.20
   0   3 -12    6.20    1.30
   0   3 -12    6.80    0.70
   0   3 -12    5.50    1.40
   0  -3  12    3.70    1.50
   0  -3  12    7.00    1.20
   0  -3  12    5.30    0.90
   0  -3  12    5.30    1.10
  -1   3 -12  256.87    8.20
  -1   3 -12  263.17    7.60
  -1   3 -12  253.77    7.20
  -1   3 -12  237.88    8.30
  -1   3 -12  265.77    8.50
   1  -3  12  254.67    7.50
   1  -3  12  258.47    7.80
   1  -3  12  268.47    8.00
   1  -3  12  253.97    8.20
   1  -3  12  262.97    8.00
  -2   3 -12    7.10    0.80
  -2   3 -12    7.70    1.40
  -2   3 -12    6.90    1.70
   2  -3  12    8.00    1.40
   2  -3  12    6.00    1.60
   2  -3  12    6.00    1.30
   2  -3  12    7.50    1.30
  -3   3 -12   70.59    3.30
  -3   3 -12   78.19    2.80
  -3   3 -12   79.69    3.10
  -3   3 -12   77.99    3.70
   3  -3  12   73.59    3.40
   3  -3  12   74.49    3.60
   3  -3  12   76.99    4.00
   3  -3  12   68.89    3.80
  -4   3 -12   35.40    2.40
  -4   3 -12   36.70    2.40
  -4   3 -12   41.00    3.20
   4  -3  12   34.70    3.20
   4  -3  12   33.30    3.70
   4  -3  12   37.60    2.70
  -5   3 -12  274.57    8.60
  -5   3 -12  276.17    9.40
  -5   3 -12  278.17    8.80
   5  -3  12  280.27    9.60
   5  -3  12  280.77    9.00
   5  -3  12  286.47    9.30
  -6   3 -12   14.90    3.00
   6  -3  12   13.40    3.00
   6   2 -12   45.90    4.20
  -6  -2  12   51.09    5.30
  -6  -2  12   41.00    4.60
  -6  -2  12   59.29    4.70
   5   2 -12    1.60    1.30
   5   2 -12    1.70    1.60
  -5  -2  12    0.40    1.90
  -5  -2  12    2.70    1.80
   4   2 -12    2.10    2.00
   4   2 -12    4.20    1.30
   4   2 -12    4.30    1.00
  -4  -2  12    2.60    1.50
  -4  -2  12    3.50    1.40
  -4  -2  12    1.70    1.60
   3   2 -12    0.60    0.60
   3   2 -12    0.20    1.20
   3   2 -12   -0.30    0.90
   3   2 -12    0.40    1.40
  -3  -2  12    1.80    1.10
  -3  -2  12   -1.30    1.10
  -3  -2  12    1.10    0.90
  -3  -2  12    0.50    0.90
   2   2 -12  548.55   15.80
   2   2 -12  549.74   15.40
   2   2 -12  582.44   16.50
   2   2 -12  552.74   15.80
  -2  -2  12  566.84   16.00
  -2  -2  12  506.55   16.10
  -2  -2  12  560.54   16.00
  -2  -2  12  545.45   15.90
  -2  -2  12  584.84   15.40
  -2  -2  12  576.34   15.60
   1   2 -12 1099.59   29.70
   1   2 -12 1087.69   29.80
   1   2 -12 1106.89   30.50
  -1  -2  12 1091.79   29.50
  -1  -2  12 1074.29   30.00
  -1  -2  12 1045.10   30.00
  -1  -2  12 1103.09   29.90
  -1  -2  12 1077.59   30.00
   0   2 -12   29.30    2.20
   0   2 -12   27.70    2.30
   0   2 -12   28.80    1.10
   0   2 -12   27.30    2.20
   0   2 -12   27.30    1.40
   0  -2  12   29.00    2.00
   0  -2  12   30.00    1.80
   0  -2  12   29.30    2.10
   0  -2  12   23.10    2.20
   0  -2  12   28.60    1.90
   0  -2  12   28.60    1.60
  -1   2 -12   60.19    3.40
  -1   2 -12   66.19    2.30
  -1   2 -12   61.79    3.10
  -1   2 -12   62.59    3.10
  -1   2 -12   61.39    2.20
   1  -2  12   63.29    2.60
   1  -2  12   68.79    2.80
   1  -2  12   59.79    2.90
   1  -2  12   61.69    2.20
   1  -2  12   63.29    2.90
  -2   2 -12   75.19    3.30
  -2   2 -12   75.89    2.70
   2  -2  12   76.59    3.20
   2  -2  12   72.59    3.30
   2  -2  12   74.69    3.60
   2  -2  12   77.69    2.80
   2  -2  12   76.89    3.10
  -3   2 -12  177.48    6.10
  -3   2 -12  172.88    5.50
   3  -2  12  165.28    5.70
   3  -2  12  179.98    6.20
   3  -2  12  173.38    5.70
   3  -2  12  169.48    6.60
  -4   2 -12   21.00    1.90
  -4   2 -12   24.70    1.80
  -4   2 -12   17.70    2.00
   4  -2  12   20.60    2.00
   4  -2  12   21.10    2.40
   4  -2  12   18.60    2.20
   4  -2  12   15.10    2.50
  -5   2 -12   13.10    2.10
  -5   2 -12   18.70    2.60
   5  -2  12   15.30    2.20
   5  -2  12   14.50    2.50
   5  -2  12   15.60    1.80
  -6   2 -12  188.08    7.60
  -6   2 -12  197.48    8.00
   6  -2  12  205.68    8.20
   6   1 -12   37.20    3.60
   6   1 -12   33.40    3.10
  -6  -1  12   36.90    3.90
  -6  -1  12   35.90    4.30
   5   1 -12   10.20    1.50
   5   1 -12   11.50    1.80
  -5  -1  12    7.50    1.90
  -5  -1  12   11.80    2.20
   4   1 -12   31.00    3.10
   4   1 -12   30.60    1.80
   4   1 -12   33.50    2.30
   4   1 -12   34.60    3.10
  -4  -1  12   31.60    2.80
  -4  -1  12   33.60    2.20
  -4  -1  12   30.10    2.70
   3   1 -12  448.06   13.00
   3   1 -12  453.05   12.60
   3   1 -12  456.25   13.30
   3   1 -12  448.36   13.60
   3   1 -12  460.75   12.50
   3   1 -12  439.56   12.40
  -3  -1  12  459.55   13.40
  -3  -1  12  432.26   13.40
  -3  -1  12  470.45   12.70
  -3  -1  12  455.95   13.40
  -3  -1  12  447.66   13.00
   2   1 -12  258.67    7.40
   2   1 -12  261.37    8.20
   2   1 -12  255.57    7.80
   2   1 -12  260.47    7.60
  -2  -1  12  258.77    7.60
  -2  -1  12  251.77    8.00
  -2  -1  12  250.17    8.00
  -2  -1  12  271.57    7.20
  -2  -1  12  250.67    8.00
  -2  -1  12  260.97    7.70
   1   1 -12  150.78    4.70
   1   1 -12  149.69    4.80
   1   1 -12  149.09    5.20
   1   1 -12  148.59    5.10
  -1  -1  12  148.29    5.00
  -1  -1  12  149.88    5.00
  -1  -1  12  152.88    4.70
  -1  -1  12  156.88    4.60
  -1  -1  12  143.19    5.10
   0   1 -12   28.40    2.10
   0   1 -12   26.80    1.50
   0   1 -12   29.00    2.10
   0   1 -12   26.30    2.10
   0   1 -12   26.80    1.90
   0  -1  12   25.90    1.10
   0  -1  12   26.30    2.20
   0  -1  12   26.80    1.60
   0  -1  12   24.10    1.90
   0  -1  12   24.60    1.70
   0  -1  12   27.90    1.70
   0  -1  12   27.00    1.50
  -1   1 -12   18.80    1.90
  -1   1 -12   17.30    1.80
  -1   1 -12   21.00    2.20
  -1   1 -12   18.40    1.30
   1  -1  12   17.90    1.60
   1  -1  12   17.50    1.90
   1  -1  12   17.10    1.30
   1  -1  12   17.80    1.60
  -2   1 -12   72.09    3.80
  -2   1 -12   81.09    3.50
  -2   1 -12   78.09    2.90
   2  -1  12   75.69    3.00
   2  -1  12   80.99    3.10
   2  -1  12   77.59    3.00
   2  -1  12   77.99    3.30
   2  -1  12   77.39    3.70
  -3   1 -12   14.90    1.40
  -3   1 -12   11.20    2.20
   3  -1  12   11.00    2.10
   3  -1  12   14.00    1.70
   3  -1  12   15.80    1.60
   3  -1  12   14.20    1.70
  -4   1 -12   14.40    1.80
  -4   1 -12   14.20    2.10
   4  -1  12   15.70    1.50
   4  -1  12   18.30    2.30
   4  -1  12   11.10    2.40
   4  -1  12   17.00    1.90
  -5   1 -12  213.68    7.90
  -5   1 -12  220.48    7.40
   5  -1  12  212.58    7.80
   5  -1  12  207.48    7.30
   5  -1  12  210.28    8.00
   7   0 -12   19.00    2.90
   7   0 -12   21.90    2.80
  -7   0  12   16.80    3.00
  -7   0  12   16.70    4.50
   6   0 -12    6.50    1.90
  -6   0  12    6.80    2.20
   5   0 -12  529.75   15.30
   5   0 -12  538.45   14.70
   5   0 -12  534.95   16.10
  -5   0  12  513.55   16.40
  -5   0  12  508.85   15.90
   4   0 -12  374.06   11.10
   4   0 -12  355.06   10.20
   4   0 -12  356.16   10.30
  -4   0  12  330.37   10.70
  -4   0  12  352.76   11.10
  -4   0  12  339.47   10.90
   3   0 -12   82.39    3.20
   3   0 -12   83.09    3.00
   3   0 -12   86.69    3.60
   3   0 -12   87.09    3.60
  -3   0  12   77.69    3.40
  -3   0  12   79.29    3.50
  -3   0  12   81.79    3.40
  -3   0  12   80.99    3.70
   2   0 -12   18.60    1.40
   2   0 -12   14.80    1.80
   2   0 -12   19.00    1.70
   2   0 -12   19.30    1.80
   2   0 -12   18.20    1.10
  -2   0  12   17.20    1.70
  -2   0  12   18.10    1.90
  -2   0  12   21.20    1.40
  -2   0  12   19.20    1.60
  -2   0  12   14.00    1.50
   1   0 -12   52.39    1.80
   1   0 -12   51.29    2.50
   1   0 -12   47.90    2.70
   1   0 -12   52.79    2.30
   1   0 -12   51.09    2.30
   1   0 -12   51.49    2.50
  -1   0  12   45.80    2.50
  -1   0  12   51.09    2.50
  -1   0  12   52.19    2.00
  -1   0  12   54.99    2.50
  -1   0  12   51.09    2.20
   0   0 -12    0.30    0.90
   0   0 -12   -0.60    1.00
   0   0 -12    0.30    0.60
   0   0 -12    4.40    0.90
   0   0 -12    0.30    0.90
   0   0  12    0.50    0.90
   0   0  12   -0.10    0.60
   0   0  12    1.20    1.00
   0   0  12    0.80    0.80
   0   0  12    0.50    0.70
   0   0  12    0.20    0.60
   0   0  12   -1.30    0.70
  -1   0 -12 1002.60   28.00
  -1   0 -12  995.20   28.40
  -1   0 -12 1012.80   28.30
  -1   0 -12 1024.20   28.20
   1   0  12 1029.60   28.50
   1   0  12 1032.50   28.20
   1   0  12 1026.80   28.00
  -2   0 -12  264.97    8.50
  -2   0 -12  267.07    8.20
  -2   0 -12  271.27    8.50
   2   0  12  268.07    8.90
   2   0  12  276.27    8.30
   2   0  12  287.57    8.20
  -3   0 -12  181.48    6.10
  -3   0 -12  175.48    6.60
  -3   0 -12  187.48    6.50
   3   0  12  204.78    6.50
   3   0  12  182.88    7.20
   3   0  12  193.78    6.00
  -4   0 -12    1.90    1.80
  -4   0 -12    1.20    1.50
   4   0  12    0.60    1.80
   4   0  12    3.40    1.10
   4   0  12    2.20    2.20
  -5   0 -12   16.00    2.40
  -5   0 -12   17.40    2.80
   5   0  12   15.40    2.70
   7  -1 -12   11.20    2.50
  -7   1  12   13.90    4.00
  -7   1  12    6.90    2.70
   6  -1 -12   77.69    4.00
   6  -1 -12   83.49    5.70
  -6   1  12   79.39    4.70
   5  -1 -12   26.30    2.80
   5  -1 -12   28.40    2.30
   5  -1 -12   26.30    2.50
  -5   1  12   29.20    3.20
  -5   1  12   29.50    3.50
  -5   1  12   26.10    2.90
   4  -1 -12    7.80    1.70
   4  -1 -12    7.40    1.10
   4  -1 -12    9.40    1.50
  -4   1  12    7.10    1.80
  -4   1  12    7.20    1.50
  -4   1  12    6.70    1.50
   3  -1 -12  295.07    8.40
   3  -1 -12  290.77    8.90
   3  -1 -12  295.77    9.00
   3  -1 -12  292.57    9.10
   3  -1 -12  294.07    8.70
  -3   1  12  302.07    9.50
  -3   1  12  296.67    9.10
  -3   1  12  291.57    8.70
   2  -1 -12    0.20    0.80
   2  -1 -12    0.20    0.80
   2  -1 -12   -0.60    0.70
  -2   1  12    0.40    0.90
  -2   1  12    0.30    1.10
  -2   1  12    0.00    0.90
  -2   1  12   -0.10    0.80
   1  -1 -12  191.78    5.90
   1  -1 -12  187.98    6.00
   1  -1 -12  180.48    5.90
   1  -1 -12  192.98    5.70
   1  -1 -12  198.18    5.90
   1  -1 -12  186.98    6.20
  -1   1  12  194.48    5.40
  -1   1  12  185.98    6.30
  -1   1  12  188.38    6.10
  -1   1  12  189.68    5.90
  -1   1  12  177.28    6.10
   0  -1 -12  313.17    9.60
   0  -1 -12  308.57    9.40
   0  -1 -12  312.87    9.60
   0  -1 -12  331.87    9.30
   0  -1 -12  330.27    8.90
   0  -1 -12  325.27    9.40
   0   1  12  306.87    9.70
   0   1  12  329.37    9.50
   0   1  12  323.07    9.70
   0   1  12  320.97    9.70
   0   1  12  319.47    9.40
  -1  -1 -12   51.19    2.70
  -1  -1 -12   55.39    2.20
  -1  -1 -12   54.29    2.40
  -1  -1 -12   54.09    2.60
   1   1  12   51.19    2.50
   1   1  12   50.69    2.90
   1   1  12   54.69    2.60
   1   1  12   53.49    1.90
  -2  -1 -12    1.20    1.10
  -2  -1 -12    1.00    1.10
  -2  -1 -12   -0.70    0.90
  -2  -1 -12    0.80    1.10
   2   1  12    0.70    1.10
   2   1  12    1.10    1.40
   2   1  12   -0.60    0.90
  -3  -1 -12   31.70    3.40
  -3  -1 -12   31.30    2.70
  -3  -1 -12   37.10    2.90
   3   1  12   34.40    2.40
   3   1  12   33.70    3.40
   3   1  12   33.50    2.80
  -4  -1 -12   28.30    3.00
  -4  -1 -12   27.10    2.80
   4   1  12   27.50    2.70
   4   1  12   28.80    3.70
   4   1  12   26.70    3.00
  -5  -1 -12   23.40    3.30
  -5  -1 -12   20.20    2.70
   5   1  12   20.00    3.10
   7  -2 -12   14.10    2.50
   7  -2 -12   12.50    4.00
  -7   2  12   14.80    3.10
  -7   2  12   26.10    4.30
   6  -2 -12    3.90    1.60
   6  -2 -12    3.30    2.90
   6  -2 -12    1.60    2.00
  -6   2  12    2.30    1.90
   5  -2 -12   -1.50    1.60
   5  -2 -12   -0.20    1.00
   5  -2 -12   -0.60    1.80
  -5   2  12    0.50    1.40
   4  -2 -12  116.69    4.70
   4  -2 -12  108.99    3.70
   4  -2 -12  111.09    4.70
  -4   2  12  110.79    4.50
  -4   2  12  100.39    5.20
  -4   2  12  114.19    3.80
   3  -2 -12   47.80    2.70
   3  -2 -12   48.50    1.70
   3  -2 -12   51.09    3.10
   3  -2 -12   48.40    2.80
  -3   2  12   50.99    2.10
  -3   2  12   49.60    2.80
  -3   2  12   49.30    2.70
  -3   2  12   45.00    3.30
   2  -2 -12  242.18    7.70
   2  -2 -12  248.58    7.30
   2  -2 -12  248.48    7.50
  -2   2  12  251.57    7.70
  -2   2  12  237.08    7.60
  -2   2  12  246.98    7.00
  -2   2  12  254.77    8.30
   1  -2 -12   94.09    3.80
   1  -2 -12  101.79    3.70
   1  -2 -12   91.89    3.40
   1  -2 -12   92.39    3.20
   1  -2 -12   93.99    3.50
  -1   2  12   88.89    4.00
  -1   2  12   91.09    3.70
  -1   2  12   88.09    3.60
  -1   2  12   91.29    3.80
   0  -2 -12   91.19    3.50
   0  -2 -12   91.59    3.50
   0  -2 -12   96.29    3.20
   0  -2 -12   96.39    3.50
   0  -2 -12   94.49    3.70
   0   2  12   95.39    2.80
   0   2  12   87.89    3.80
   0   2  12   95.89    3.70
   0   2  12   96.69    4.00
  -1  -2 -12   91.39    3.60
  -1  -2 -12   76.89    3.50
  -1  -2 -12   87.09    3.40
  -1  -2 -12   86.29    3.20
  -1  -2 -12   85.69    3.30
   1   2  12   85.39    3.60
   1   2  12   83.79    3.70
   1   2  12   80.59    3.90
  -2  -2 -12   24.40    2.20
  -2  -2 -12   23.10    2.30
  -2  -2 -12   26.00    2.40
  -2  -2 -12   24.50    2.50
   2   2  12   26.50    2.70
   2   2  12   29.10    2.50
   2   2  12   26.50    2.60
  -3  -2 -12  194.48    6.70
  -3  -2 -12  190.58    6.90
   3   2  12  182.08    7.60
   3   2  12  196.38    7.00
   3   2  12  189.58    6.40
  -4  -2 -12  112.09    5.30
  -4  -2 -12  124.29    5.80
   4   2  12  126.09    5.80
  -5  -2 -12   66.89    5.00
   5   2  12   54.59    5.60
   7  -3 -12   12.60    2.30
   7  -3 -12   17.90    4.20
  -7   3  12   15.50    3.90
   6  -3 -12   -2.30    1.30
   6  -3 -12   -0.50    2.20
   6  -3 -12    2.80    2.70
  -6   3  12    0.70    1.90
   5  -3 -12  156.78    6.30
   5  -3 -12  156.68    6.40
   5  -3 -12  148.49    4.90
  -5   3  12  141.39    5.70
   4  -3 -12  176.08    6.70
   4  -3 -12  176.88    6.40
  -4   3  12  163.68    6.00
  -4   3  12  168.28    6.20
   3  -3 -12  290.87    9.10
   3  -3 -12  300.37    9.60
   3  -3 -12  277.57    9.00
  -3   3  12  289.47    8.90
  -3   3  12  283.67    8.80
  -3   3  12  284.07    9.80
  -3   3  12  295.37    8.60
   2  -3 -12   35.60    1.40
   2  -3 -12   39.00    2.40
   2  -3 -12   40.50    2.70
  -2   3  12   36.70    2.50
  -2   3  12   36.00    1.80
  -2   3  12   31.80    3.10
  -2   3  12   34.00    2.30
   1  -3 -12   26.10    2.40
   1  -3 -12   34.60    2.20
   1  -3 -12   27.40    1.50
   1  -3 -12   27.90    2.00
  -1   3  12   27.20    2.60
  -1   3  12   25.60    2.20
  -1   3  12   30.10    2.90
  -1   3  12   30.50    1.50
   0  -3 -12   -0.70    1.40
   0  -3 -12    0.60    1.00
   0  -3 -12    1.20    1.00
   0  -3 -12    3.20    1.00
   0  -3 -12    1.40    1.00
   0   3  12    2.40    0.90
   0   3  12   -1.80    1.30
   0   3  12    2.60    1.30
   0   3  12    3.20    1.20
  -1  -3 -12   38.70    2.60
  -1  -3 -12   39.30    2.80
  -1  -3 -12   42.50    2.40
   1   3  12   40.30    1.90
   1   3  12   40.60    3.10
   1   3  12   40.70    3.00
   1   3  12   41.10    2.90
  -2  -3 -12   15.40    1.50
  -2  -3 -12   16.40    2.00
  -2  -3 -12   19.10    2.10
   2   3  12   18.70    2.10
   2   3  12   14.50    1.90
   2   3  12   14.50    2.00
   2   3  12   13.60    2.20
  -3  -3 -12   68.59    3.90
  -3  -3 -12   65.69    4.20
   3   3  12   59.89    4.80
   3   3  12   62.19    4.30
   3   3  12   53.79    3.40
  -4  -3 -12   31.00    3.20
  -4  -3 -12   28.50    3.30
   4   3  12   28.90    3.00
   4   3  12   38.40    3.70
   7  -4 -12   30.90    4.10
  -7   4  12   21.90    3.30
   6  -4 -12  175.38    7.60
   6  -4 -12  163.98    7.70
   6  -4 -12  166.28    6.30
  -6   4  12  163.88    6.50
   5  -4 -12   -2.90    1.90
   5  -4 -12    2.20    1.00
   5  -4 -12    1.70    2.20
  -5   4  12   -2.10    1.40
   4  -4 -12   81.19    4.70
   4  -4 -12   80.09    4.20
  -4   4  12   79.79    3.70
  -4   4  12   78.89    3.60
  -4   4  12   74.59    3.60
   3  -4 -12   91.49    4.10
   3  -4 -12   87.69    4.80
  -3   4  12   90.99    3.80
  -3   4  12   89.79    3.60
  -3   4  12   89.69    3.70
   2  -4 -12  265.57    9.80
   2  -4 -12  298.67    8.80
  -2   4  12  292.17    8.80
  -2   4  12  286.07    8.50
  -2   4  12  272.67    8.80
   1  -4 -12  141.09    6.00
   1  -4 -12  158.68    5.30
  -1   4  12  161.68    5.30
  -1   4  12  150.88    5.50
  -1   4  12  150.48    5.00
   0  -4 -12  120.39    4.80
   0  -4 -12  121.49    4.60
   0  -4 -12  121.79    4.70
   0   4  12  121.19    5.00
   0   4  12  123.49    5.10
   0   4  12  125.09    4.10
  -1  -4 -12  169.98    5.90
  -1  -4 -12  150.68    5.40
  -1  -4 -12  167.98    5.90
   1   4  12  165.68    6.30
   1   4  12  165.28    5.00
   1   4  12  165.48    6.50
  -2  -4 -12   32.70    3.20
  -2  -4 -12   30.90    3.10
   2   4  12   30.40    2.50
   2   4  12   30.30    3.30
   2   4  12   34.70    3.20
  -3  -4 -12    4.60    2.00
  -3  -4 -12    0.60    2.10
   3   4  12    5.70    2.50
   3   4  12    6.80    2.00
   6  -5 -12   -3.00    2.90
   6  -5 -12    3.90    3.00
  -6   5  12    2.60    1.90
   5  -5 -12    5.30    2.80
   5  -5 -12   14.10    2.90
  -5   5  12    7.70    2.00
  -5   5  12   10.40    1.90
   4  -5 -12    9.30    2.60
   4  -5 -12    8.90    2.00
  -4   5  12    8.00    1.70
  -4   5  12    8.40    1.70
   3  -5 -12  260.57    8.90
   3  -5 -12  279.67    9.90
  -3   5  12  252.07    8.60
  -3   5  12  263.97    8.50
  -3   5  12  276.07    8.50
  -3   5  12  284.57    9.10
   2  -5 -12  101.19    4.50
   2  -5 -12  101.69    5.50
   2  -5 -12  107.49    4.20
  -2   5  12   95.29    4.50
  -2   5  12   98.99    4.00
  -2   5  12  105.89    4.60
  -2   5  12  104.09    4.20
   1  -5 -12  167.48    5.80
   1  -5 -12  170.38    6.10
  -1   5  12  164.28    5.70
  -1   5  12  174.28    5.90
  -1   5  12  172.88    6.20
   0  -5 -12    8.00    1.50
   0  -5 -12    6.50    1.70
   0   5  12    8.80    2.10
   0   5  12    5.80    2.00
   0   5  12    7.10    1.30
  -1  -5 -12  153.58    5.90
  -1  -5 -12  155.38    5.80
   1   5  12  144.39    6.40
   1   5  12  147.59    6.60
  -2  -5 -12   14.50    2.30
  -2  -5 -12   12.40    2.20
   2   5  12   13.30    3.10
   2   5  12   15.10    2.80
  -3  -5 -12   33.50    3.40
  -3  -5 -12   21.70    3.10
   3   5  12   29.80    3.90
   6  -6 -12   31.60    4.60
   6  -6 -12   26.90    3.90
  -6   6  12   36.30    3.70
  -6   6  12   34.40    3.60
  -6   6  12   26.00    4.30
   5  -6 -12   19.20    3.80
   5  -6 -12   17.00    3.00
  -5   6  12   22.50    3.60
  -5   6  12   17.40    2.60
  -5   6  12   22.70    2.40
   4  -6 -12  166.18    8.00
   4  -6 -12  159.78    6.70
  -4   6  12  161.68    5.90
  -4   6  12  163.48    6.40
  -4   6  12  160.78    7.00
   3  -6 -12   67.79    5.60
   3  -6 -12   64.19    4.20
  -3   6  12   68.29    3.70
  -3   6  12   60.19    4.40
  -3   6  12   64.89    3.70
   2  -6 -12   21.60    2.50
   2  -6 -12   18.70    3.20
   2  -6 -12   22.20    2.00
  -2   6  12   19.70    2.30
  -2   6  12   21.40    2.50
  -2   6  12   22.30    2.60
   1  -6 -12   39.00    3.40
   1  -6 -12   33.70    2.80
  -1   6  12   37.90    3.10
  -1   6  12   30.20    2.80
  -1   6  12   37.20    3.50
   0  -6 -12   44.40    3.10
   0  -6 -12   42.20    3.70
   0   6  12   44.20    4.40
  -1  -6 -12   16.40    2.30
  -1  -6 -12   21.30    2.80
   1   6  12   22.70    3.40
   1   6  12   15.20    3.10
  -2  -6 -12   47.60    5.10
  -2  -6 -12   53.69    4.50
   2   6  12   42.60    4.60
   5  -7 -12    4.00    4.20
   5  -7 -12    2.70    3.20
  -5   7  12    3.30    2.70
  -5   7  12    4.00    3.50
   4  -7 -12  164.28    7.40
   4  -7 -12  171.88    8.90
  -4   7  12  161.08    7.60
  -4   7  12  175.58    7.10
  -4   7  12  186.18    8.40
   3  -7 -12   13.60    2.60
   3  -7 -12    5.50    3.30
  -3   7  12    8.50    2.20
  -3   7  12    5.10    2.00
  -3   7  12    7.20    2.60
   2  -7 -12   42.10    4.10
   2  -7 -12   39.20    4.50
  -2   7  12   39.00    3.60
  -2   7  12   38.70    3.40
  -2   7  12   40.20    4.00
   1  -7 -12    7.60    2.30
   1  -7 -12    6.90    1.80
   1  -7 -12    0.50    3.30
  -1   7  12    7.50    2.80
  -1   7  12    7.40    2.00
   0  -7 -12   28.30    2.60
   0  -7 -12   32.00    3.30
   0   7  12   32.40    4.00
   0   8 -13  118.79    6.10
   0   8 -13  122.19    8.80
   0  -8  13  124.99    6.10
  -1   8 -13    0.70    2.50
  -1   8 -13   -2.80    3.70
   1  -8  13   -0.50    2.00
   1  -8  13    1.40    2.20
  -2   8 -13   49.90    5.20
  -2   8 -13   51.19    5.80
  -2   8 -13   50.99    5.20
   2  -8  13   53.39    4.50
   2  -8  13   58.49    4.90
   2   7 -13    2.00    4.20
  -2  -7  13    4.40    1.80
  -2  -7  13   -0.50    1.80
   1   7 -13   10.50    4.10
   1   7 -13    2.80    2.10
  -1  -7  13    8.70    2.10
  -1  -7  13    6.00    1.90
   0   7 -13  128.69    7.70
   0   7 -13  127.49    6.60
   0  -7  13  135.49    4.90
   0  -7  13  141.79    5.70
  -1   7 -13   25.40    3.80
  -1   7 -13   13.30    3.70
   1  -7  13   17.80    2.50
  -2   7 -13   19.40    2.60
  -2   7 -13   25.00    2.90
  -2   7 -13   25.90    4.00
   2  -7  13   23.20    2.50
   2  -7  13   19.80    2.60
  -3   7 -13   13.10    3.60
  -3   7 -13   10.40    2.60
  -3   7 -13   11.70    2.70
   3  -7  13   11.00    2.60
   3  -7  13    5.40    2.30
  -4   7 -13   -4.80    3.80
  -4   7 -13   -0.40    2.90
  -4   7 -13    5.30    2.70
   4  -7  13   -2.00    2.70
   4  -7  13    0.50    2.30
   3   6 -13    8.30    2.50
   3   6 -13    6.20    4.20
  -3  -6  13    7.50    1.90
  -3  -6  13   10.00    2.00
   2   6 -13   70.19    6.50
  -2  -6  13   72.09    3.80
  -2  -6  13   66.19    3.40
   1   6 -13   48.70    5.20
   1   6 -13   45.10    3.20
  -1  -6  13   40.00    2.60
  -1  -6  13   38.40    3.10
   0   6 -13   18.60    3.30
   0   6 -13   14.50    1.90
   0  -6  13   13.60    1.50
   0  -6  13   10.20    1.80
   0  -6  13   14.00    1.70
  -1   6 -13    4.20    2.70
  -1   6 -13    1.10    1.60
   1  -6  13    4.30    1.40
   1  -6  13    3.10    1.70
   1  -6  13    1.60    1.40
  -2   6 -13    2.00    2.50
  -2   6 -13    3.20    1.80
  -2   6 -13   -0.40    1.70
   2  -6  13    2.00    1.60
   2  -6  13    0.80    1.60
   2  -6  13   -0.30    1.60
  -3   6 -13    9.00    3.10
  -3   6 -13   10.20    2.60
  -3   6 -13    9.90    2.20
   3  -6  13    5.20    1.80
   3  -6  13   11.10    2.40
   3  -6  13    8.50    2.10
  -4   6 -13   20.40    3.00
  -4   6 -13   20.30    2.70
  -4   6 -13   17.40    3.80
  -4   6 -13   22.30    3.00
   4  -6  13   20.80    2.90
   4  -6  13   18.20    2.70
   4   5 -13   20.50    4.60
   4   5 -13   19.40    2.70
  -4  -5  13   16.80    2.20
  -4  -5  13   17.90    2.50
   3   5 -13   13.60    3.50
   3   5 -13   13.10    2.20
  -3  -5  13   12.50    2.00
  -3  -5  13   15.20    1.80
   2   5 -13   55.59    5.20
  -2  -5  13   49.30    3.00
  -2  -5  13   51.59    3.10
   1   5 -13   15.10    2.70
   1   5 -13   19.00    1.70
  -1  -5  13   23.00    2.40
  -1  -5  13   19.70    2.00
  -1  -5  13   20.00    1.50
   0   5 -13   16.60    1.60
   0   5 -13   15.70    2.60
   0   5 -13   15.80    2.40
   0  -5  13   15.30    1.80
   0  -5  13   15.80    1.60
   0  -5  13   15.10    1.70
  -1   5 -13   16.00    1.80
  -1   5 -13   18.20    2.70
   1  -5  13   16.40    1.90
   1  -5  13   14.20    1.70
   1  -5  13   15.80    1.70
   1  -5  13   12.90    1.60
  -2   5 -13   21.10    2.70
  -2   5 -13   26.70    2.60
  -2   5 -13   24.00    2.60
   2  -5  13   27.00    2.80
   2  -5  13   23.50    2.30
  -3   5 -13  156.58    5.70
  -3   5 -13  136.19    6.50
  -3   5 -13  143.19    5.80
  -3   5 -13  151.38    6.60
   3  -5  13  152.18    5.90
   3  -5  13  149.29    5.90
   3  -5  13  147.29    6.00
  -4   5 -13   88.69    5.60
  -4   5 -13   86.79    4.20
  -4   5 -13   82.09    4.80
   4  -5  13   90.49    4.60
   4  -5  13   82.39    4.80
   4  -5  13   78.79    5.10
  -5   5 -13   17.50    3.70
  -5   5 -13   15.20    2.50
  -5   5 -13   19.60    2.90
   5  -5  13   16.90    2.60
   5  -5  13   19.00    3.30
   5   4 -13    6.90    2.60
  -5  -4  13    7.30    2.40
  -5  -4  13    9.20    2.40
   4   4 -13   50.19    3.80
   4   4 -13   56.89    5.60
  -4  -4  13   55.09    3.50
  -4  -4  13   54.79    3.70
   3   4 -13   77.99    4.00
   3   4 -13   78.49    5.40
  -3  -4  13   80.09    3.90
  -3  -4  13   79.09    3.70
   2   4 -13    4.10    2.40
  -2  -4  13    6.30    1.00
  -2  -4  13    8.20    1.50
  -2  -4  13    4.90    1.30
   1   4 -13    1.60    1.90
   1   4 -13    0.50    1.30
  -1  -4  13   -0.10    0.60
  -1  -4  13    0.00    0.50
  -1  -4  13   -0.60    1.70
  -1  -4  13    0.10    1.00
   0   4 -13   79.89    3.10
   0   4 -13   80.39    4.10
   0  -4  13   81.09    3.10
   0  -4  13   81.29    3.40
  -1   4 -13   16.70    2.30
  -1   4 -13   14.50    1.40
   1  -4  13   15.30    1.70
   1  -4  13   15.60    1.40
   1  -4  13   16.10    1.70
   1  -4  13   15.80    1.80
  -2   4 -13  479.85   14.50
  -2   4 -13  482.15   14.90
  -2   4 -13  476.75   14.00
   2  -4  13  490.35   14.30
   2  -4  13  481.25   14.40
   2  -4  13  494.35   14.20
  -3   4 -13  132.29    4.80
  -3   4 -13  127.99    3.90
  -3   4 -13  131.29    5.80
   3  -4  13  126.79    5.20
   3  -4  13  131.49    5.10
   3  -4  13  125.89    5.50
  -4   4 -13   42.40    3.00
  -4   4 -13   49.30    3.70
   4  -4  13   48.40    4.30
   4  -4  13   50.89    3.50
   4  -4  13   46.70    3.80
  -5   4 -13   47.60    3.60
  -5   4 -13   61.09    4.50
   5  -4  13   42.20    4.50
   5  -4  13   52.69    3.90
   5  -4  13   51.79    3.90
   5   3 -13   51.59    4.00
  -5  -3  13   53.89    4.20
  -5  -3  13   48.30    4.10
   4   3 -13    6.40    1.50
   4   3 -13    5.70    2.50
   4   3 -13    4.20    1.60
  -4  -3  13    4.20    1.70
   3   3 -13  128.59    6.10
   3   3 -13  130.69    5.00
  -3  -3  13  126.79    4.70
  -3  -3  13  141.49    4.80
  -3  -3  13  129.89    4.90
  -3  -3  13  135.49    5.10
   2   3 -13  785.52   23.40
   2   3 -13  807.22   22.50
   2   3 -13  783.82   21.80
  -2  -3  13  792.12   22.60
  -2  -3  13  821.32   22.20
  -2  -3  13  818.42   22.60
  -2  -3  13  791.82   22.00
   1   3 -13   43.70    2.10
   1   3 -13   47.60    3.40
   1   3 -13   43.20    2.50
  -1  -3  13   40.80    2.40
  -1  -3  13   43.80    2.40
   0   3 -13  234.68    6.70
   0   3 -13  223.98    7.60
   0   3 -13  245.98    6.80
   0   3 -13  246.48    8.10
   0  -3  13  234.58    7.40
   0  -3  13  231.28    7.40
   0  -3  13  237.88    7.10
  -1   3 -13   14.10    2.10
  -1   3 -13   21.60    2.10
  -1   3 -13   17.30    1.10
  -1   3 -13   20.30    1.60
  -1   3 -13   14.20    1.90
   1  -3  13   17.60    1.90
   1  -3  13   17.80    1.90
   1  -3  13   21.00    1.80
   1  -3  13   16.70    2.00
  -2   3 -13    1.50    1.50
  -2   3 -13    0.30    0.70
  -2   3 -13   -0.90    1.30
   2  -3  13    2.40    1.60
   2  -3  13    2.20    1.10
   2  -3  13    0.30    1.20
   2  -3  13    1.30    0.80
   2  -3  13    0.20    1.00
  -3   3 -13   34.50    1.90
  -3   3 -13   27.60    2.10
  -3   3 -13   29.80    3.00
   3  -3  13   39.00    2.90
   3  -3  13   31.30    3.10
   3  -3  13   27.80    3.20
   3  -3  13   33.20    2.30
   3  -3  13   30.60    2.90
  -4   3 -13   14.90    2.30
  -4   3 -13   16.40    1.60
  -4   3 -13   14.20    1.60
   4  -3  13   14.00    2.60
   4  -3  13   14.40    2.10
   4  -3  13   13.50    2.30
   4  -3  13   13.20    1.80
  -5   3 -13   59.19    4.40
  -5   3 -13   54.09    3.50
   5  -3  13   48.50    4.60
   5  -3  13   51.39    4.10
   5  -3  13   53.19    3.60
   6   2 -13    1.70    2.30
  -6  -2  13    0.70    2.60
  -6  -2  13    3.50    4.40
  -6  -2  13    5.80    2.60
   5   2 -13   20.40    2.30
   5   2 -13   25.10    2.50
  -5  -2  13   22.80    2.70
  -5  -2  13   24.80    2.70
   4   2 -13   44.40    4.00
   4   2 -13   44.10    2.10
   4   2 -13   45.70    2.90
  -4  -2  13   44.00    2.80
  -4  -2  13   49.70    3.30
  -4  -2  13   42.60    3.20
   3   2 -13   51.39    3.60
   3   2 -13   47.60    3.00
   3   2 -13   47.80    2.60
  -3  -2  13   45.90    2.80
  -3  -2  13   49.00    2.70
  -3  -2  13   50.49    3.00
  -3  -2  13   54.29    2.40
   2   2 -13  129.79    4.50
   2   2 -13  131.49    4.50
   2   2 -13  136.79    5.30
   2   2 -13  126.29    4.10
  -2  -2  13  134.59    4.70
  -2  -2  13  120.59    4.60
  -2  -2  13  125.79    4.70
  -2  -2  13  127.29    4.20
   1   2 -13   25.50    2.50
   1   2 -13   24.70    1.70
   1   2 -13   26.20    2.00
  -1  -2  13   26.70    1.90
  -1  -2  13   24.60    1.90
  -1  -2  13   26.70    2.10
  -1  -2  13   26.20    2.50
  -1  -2  13   27.10    1.50
   0   2 -13    0.00    1.10
   0   2 -13    2.00    0.70
   0   2 -13    1.60    1.20
   0   2 -13    1.70    1.30
   0  -2  13    1.00    0.90
   0  -2  13    1.70    1.20
   0  -2  13    1.50    0.90
   0  -2  13    0.90    0.70
   0  -2  13    1.60    1.00
  -1   2 -13   20.20    2.30
  -1   2 -13   23.40    2.30
  -1   2 -13   16.00    2.10
  -1   2 -13   21.30    1.30
  -1   2 -13   20.50    1.40
   1  -2  13   23.20    2.10
   1  -2  13   20.60    1.30
   1  -2  13   19.30    2.20
   1  -2  13   27.60    1.80
   1  -2  13   23.40    1.90
  -2   2 -13   13.00    1.80
  -2   2 -13   15.70    1.40
   2  -2  13   13.50    1.60
   2  -2  13   15.90    1.80
   2  -2  13   17.40    1.70
   2  -2  13   11.40    1.70
   2  -2  13   14.30    1.50
  -3   2 -13    7.70    1.20
  -3   2 -13    5.50    1.50
   3  -2  13    8.10    1.60
   3  -2  13    7.60    1.30
   3  -2  13    6.40    1.30
   3  -2  13    4.80    1.80
  -4   2 -13  260.17    8.70
  -4   2 -13  262.17    8.10
   4  -2  13  272.67    8.20
   4  -2  13  265.57    8.80
   4  -2  13  243.68    9.50
   4  -2  13  245.58    8.90
  -5   2 -13   89.79    5.00
  -5   2 -13   89.69    4.40
   5  -2  13   89.49    5.30
   5  -2  13   90.69    4.20
   5  -2  13   96.39    4.90
   6   1 -13   19.80    3.30
   6   1 -13   17.70    2.50
  -6  -1  13   15.80    3.00
  -6  -1  13   14.20    2.80
   5   1 -13  117.19    4.30
   5   1 -13  123.09    4.90
  -5  -1  13  121.29    5.70
  -5  -1  13  121.79    5.40
   4   1 -13  189.18    6.70
   4   1 -13  185.18    6.10
   4   1 -13  174.38    6.80
   4   1 -13  183.68    5.50
  -4  -1  13  176.78    6.60
  -4  -1  13  182.18    6.70
  -4  -1  13  188.68    5.80
   3   1 -13  210.38    7.30
   3   1 -13  202.38    6.30
   3   1 -13  210.48    6.00
   3   1 -13  217.38    5.90
   3   1 -13  213.78    7.00
   3   1 -13  208.48    6.00
   3   1 -13  215.78    6.60
  -3  -1  13  204.68    7.00
  -3  -1  13  218.48    6.20
  -3  -1  13  196.98    7.10
  -3  -1  13  201.38    6.60
  -3  -1  13  216.08    7.10
   2   1 -13   23.60    1.60
   2   1 -13   23.70    2.20
   2   1 -13   21.20    1.90
  -2  -1  13   24.30    2.00
  -2  -1  13   22.10    1.70
  -2  -1  13   23.10    1.90
  -2  -1  13   20.20    1.90
  -2  -1  13   21.80    2.00
   1   1 -13    9.50    1.20
   1   1 -13   12.20    1.20
   1   1 -13   11.40    1.50
  -1  -1  13    8.20    1.30
  -1  -1  13   11.50    1.40
  -1  -1  13    8.20    1.10
  -1  -1  13   13.10    1.20
  -1  -1  13   11.20    1.10
   0   1 -13  373.36   10.60
   0   1 -13  372.96   11.00
   0   1 -13  368.56   11.20
   0   1 -13  373.56   11.30
   0  -1  13  386.86   10.70
   0  -1  13  356.56   11.00
   0  -1  13  388.56   10.70
   0  -1  13  367.86   10.30
   0  -1  13  369.46   10.80
   0  -1  13  376.46   11.10
  -1   1 -13   45.50    2.80
  -1   1 -13   50.99    2.70
  -1   1 -13   43.50    2.00
   1  -1  13   44.60    2.00
   1  -1  13   45.40    2.40
   1  -1  13   42.70    2.60
   1  -1  13   47.00    2.30
  -2   1 -13 1433.46   40.10
  -2   1 -13 1446.76   39.60
   2  -1  13 1466.15   40.10
   2  -1  13 1459.35   39.70
   2  -1  13 1466.65   39.80
   2  -1  13 1428.26   39.50
   2  -1  13 1455.85   40.50
  -3   1 -13   97.59    3.80
  -3   1 -13  100.39    4.40
   3  -1  13   90.39    4.80
   3  -1  13   98.79    4.40
   3  -1  13   98.99    4.00
   3  -1  13  100.29    3.80
  -4   1 -13    0.70    1.60
   4  -1  13   -0.80    1.80
   4  -1  13    0.90    1.20
   4  -1  13   -2.50    2.20
  -5   1 -13    8.70    2.10
  -5   1 -13   13.80    2.60
   5  -1  13   13.30    2.80
   5  -1  13   18.60    2.70
   6   0 -13    3.00    1.80
  -6   0  13    2.80    2.10
   5   0 -13  353.76   10.70
   5   0 -13  360.96   11.60
  -5   0  13  363.46   11.80
  -5   0  13  335.67   11.30
   4   0 -13  264.77    7.90
   4   0 -13  266.37    8.80
   4   0 -13  264.27    7.90
  -4   0  13  273.77    8.90
  -4   0  13  246.88    8.40
  -4   0  13  249.48    8.50
   3   0 -13   46.10    2.10
   3   0 -13   45.00    2.10
   3   0 -13   47.60    2.90
   3   0 -13   46.00    2.80
   3   0 -13   45.40    2.10
   3   0 -13   45.30    2.50
  -3   0  13   44.00    3.00
  -3   0  13   43.50    2.70
  -3   0  13   47.50    2.70
   2   0 -13    8.40    0.90
   2   0 -13    7.50    1.10
   2   0 -13    8.30    1.30
   2   0 -13    6.30    1.20
  -2   0  13    6.90    1.20
  -2   0  13    6.20    1.20
  -2   0  13   10.00    1.40
  -2   0  13    9.50    1.00
   1   0 -13    2.70    1.00
   1   0 -13    1.60    0.90
   1   0 -13    2.20    1.00
   1   0 -13    2.90    0.60
   1   0 -13    1.80    1.20
  -1   0  13    3.70    0.80
  -1   0  13    3.10    0.90
  -1   0  13    2.40    0.90
  -1   0  13    2.20    0.90
   0   0 -13  249.38    7.80
   0   0 -13  247.08    7.90
   0   0 -13  250.97    7.50
   0   0 -13  248.38    7.80
   0   0  13  249.58    7.50
   0   0  13  252.87    7.90
   0   0  13  246.38    7.40
   0   0  13  251.47    7.80
   0   0  13  256.87    7.30
   0   0  13  258.37    7.30
  -1   0 -13  564.34   16.60
  -1   0 -13  589.44   16.20
  -1   0 -13  554.54   15.90
  -1   0 -13  564.84   16.60
   1   0  13  591.84   16.50
   1   0  13  595.94   16.00
   1   0  13  579.94   16.90
   1   0  13  577.24   16.20
  -2   0 -13   54.29    3.80
  -2   0 -13   58.29    2.50
  -2   0 -13   50.79    2.60
  -2   0 -13   47.50    3.30
   2   0  13   52.89    2.60
   2   0  13   50.49    2.70
   2   0  13   49.60    3.30
  -3   0 -13   71.99    3.30
  -3   0 -13   66.99    3.70
  -3   0 -13   63.09    4.00
   3   0  13   68.39    3.50
   3   0  13   66.79    3.10
   3   0  13   58.39    4.10
  -4   0 -13    2.40    1.60
  -4   0 -13   -0.50    1.80
   4   0  13    1.10    1.30
   4   0  13    2.20    1.90
   4   0  13    0.20    2.30
  -5   0 -13    3.60    2.50
  -5   0 -13    1.90    2.00
   5   0  13    2.20    2.50
   7  -1 -13   32.50    3.10
  -7   1  13   39.90    5.00
  -7   1  13   42.30    4.30
   6  -1 -13    0.00    2.70
   6  -1 -13    0.90    1.60
  -6   1  13    1.30    2.10
   5  -1 -13    6.90    1.40
   5  -1 -13    9.70    1.70
   5  -1 -13    6.40    2.40
  -5   1  13    4.00    1.60
  -5   1  13    4.10    2.10
   4  -1 -13  185.08    6.50
   4  -1 -13  175.18    6.00
   4  -1 -13  169.08    5.40
  -4   1  13  164.38    5.80
  -4   1  13  171.38    6.20
   3  -1 -13  158.18    4.90
   3  -1 -13  159.58    5.20
   3  -1 -13  160.88    5.60
   3  -1 -13  161.48    5.40
   3  -1 -13  163.08    5.70
  -3   1  13  160.78    5.60
  -3   1  13  168.38    6.20
   2  -1 -13  283.27    8.20
   2  -1 -13  285.67    8.60
   2  -1 -13  284.27    8.70
  -2   1  13  270.77    8.50
  -2   1  13  289.57    8.80
  -2   1  13  285.37    9.10
   1  -1 -13  556.44   15.10
   1  -1 -13  529.65   15.40
   1  -1 -13  549.45   15.50
   1  -1 -13  541.85   15.50
   1  -1 -13  559.74   15.80
  -1   1  13  522.05   15.40
  -1   1  13  553.14   14.90
  -1   1  13  535.75   15.70
  -1   1  13  538.05   15.90
   0  -1 -13  172.28    5.90
   0  -1 -13  170.68    5.40
   0  -1 -13  162.28    5.50
   0  -1 -13  204.38    7.00
   0   1  13  172.18    5.90
   0   1  13  175.38    5.10
   0   1  13  173.58    5.90
   0   1  13  167.68    5.50
   0   1  13  171.08    5.70
  -1  -1 -13  198.58    6.60
  -1  -1 -13  207.88    6.10
  -1  -1 -13  207.48    6.50
  -1  -1 -13  213.48    6.90
   1   1  13  206.28    6.60
   1   1  13  209.28    5.90
   1   1  13  200.18    7.10
   1   1  13  210.48    6.70
  -2  -1 -13   13.30    1.70
  -2  -1 -13   12.40    1.50
  -2  -1 -13   16.10    1.60
  -2  -1 -13   11.00    1.60
   2   1  13   10.00    1.50
   2   1  13   15.50    1.70
   2   1  13   11.60    2.10
  -3  -1 -13   11.70    2.00
  -3  -1 -13   11.80    1.80
  -3  -1 -13    9.80    1.90
   3   1  13    9.60    1.80
   3   1  13   11.70    1.60
   3   1  13    2.70    2.10
  -4  -1 -13  311.77   10.40
  -4  -1 -13  321.67   10.00
   4   1  13  312.27   10.40
   4   1  13  297.97   11.40
  -5  -1 -13   15.60    3.30
  -5  -1 -13   21.90    2.90
   5   1  13   22.90    3.40
   7  -2 -13   37.30    4.80
   7  -2 -13   37.00    3.80
  -7   2  13   35.30    4.90
  -7   2  13   36.90    4.30
   6  -2 -13   34.60    3.00
   6  -2 -13   38.30    3.80
   6  -2 -13   36.20    4.00
  -6   2  13   35.70    3.50
   5  -2 -13   43.80    2.50
   5  -2 -13   45.50    3.60
   5  -2 -13   38.50    4.10
  -5   2  13   39.00    3.10
   4  -2 -13    3.00    1.50
   4  -2 -13    2.00    1.70
   4  -2 -13    4.10    0.90
  -4   2  13    3.20    1.40
  -4   2  13    3.60    1.90
   3  -2 -13  180.08    5.60
   3  -2 -13  179.58    6.50
   3  -2 -13  178.48    6.00
   3  -2 -13  185.28    6.30
  -3   2  13  183.68    6.10
  -3   2  13  174.48    6.90
   2  -2 -13   34.60    1.90
   2  -2 -13   34.80    2.20
   2  -2 -13   36.20    2.30
  -2   2  13   35.30    1.40
  -2   2  13   35.50    3.00
  -2   2  13   34.80    2.30
   1  -2 -13   67.29    3.10
   1  -2 -13   59.09    2.70
   1  -2 -13   60.59    2.80
   1  -2 -13   59.79    2.50
  -1   2  13   61.89    3.00
  -1   2  13   64.39    3.50
   0  -2 -13   17.90    1.80
   0  -2 -13   13.20    1.50
   0  -2 -13   15.50    1.60
   0  -2 -13   16.70    1.40
   0   2  13   16.60    1.80
   0   2  13   15.40    0.90
   0   2  13   14.60    1.80
   0   2  13   15.40    1.60
  -1  -2 -13    5.80    1.30
  -1  -2 -13    5.70    1.20
  -1  -2 -13    3.30    1.30
  -1  -2 -13    4.60    1.30
   1   2  13    4.70    1.50
   1   2  13    3.80    1.50
   1   2  13    5.90    1.30
  -2  -2 -13  274.07    8.60
  -2  -2 -13  269.47    8.90
  -2  -2 -13  283.47    8.80
  -2  -2 -13  265.37    8.50
   2   2  13  279.27    9.60
   2   2  13  278.87    8.80
   2   2  13  294.07    9.00
  -3  -2 -13  301.87    9.60
  -3  -2 -13  313.67    9.90
   3   2  13  289.77   10.60
   3   2  13  289.77    9.40
   3   2  13  300.87   10.00
  -4  -2 -13    7.90    2.30
  -4  -2 -13   -0.30    2.30
   4   2  13    0.20    2.50
   7  -3 -13   83.29    9.10
  -7   3  13   77.49    7.60
  -7   3  13   77.59    5.00
   6  -3 -13  113.59    4.60
   6  -3 -13  126.19    7.00
   6  -3 -13  131.59    6.30
  -6   3  13  121.69    5.50
   5  -3 -13  205.28    6.30
   5  -3 -13  210.18    7.80
   5  -3 -13  203.68    7.90
  -5   3  13  204.98    7.20
   4  -3 -13   48.70    1.90
   4  -3 -13   49.99    3.80
   4  -3 -13   48.40    3.60
  -4   3  13   46.70    2.60
  -4   3  13   46.90    2.90
   3  -3 -13   53.79    3.50
   3  -3 -13   53.59    4.30
   3  -3 -13   61.29    3.90
  -3   3  13   65.39    4.20
  -3   3  13   57.29    3.00
  -3   3  13   60.49    2.60
   2  -3 -13   43.80    2.90
   2  -3 -13   44.80    1.90
   2  -3 -13   47.90    2.80
  -2   3  13   46.60    2.00
  -2   3  13   44.40    3.70
  -2   3  13   45.40    2.70
   1  -3 -13  121.79    4.60
   1  -3 -13  115.19    4.60
   1  -3 -13  126.39    4.00
   1  -3 -13  126.09    4.60
  -1   3  13  120.69    5.30
  -1   3  13  126.99    4.70
   0  -3 -13  200.68    6.90
   0  -3 -13  208.38    6.90
   0  -3 -13  215.78    6.60
   0   3  13  206.38    7.10
   0   3  13  216.08    7.50
   0   3  13  212.68    6.30
   0   3  13  206.68    7.20
  -1  -3 -13  171.18    6.00
  -1  -3 -13  178.08    6.00
  -1  -3 -13  176.28    6.10
   1   3  13  169.48    6.30
   1   3  13  176.68    6.60
   1   3  13  171.28    6.40
   1   3  13  174.98    5.30
  -2  -3 -13   66.79    3.70
  -2  -3 -13   67.29    3.60
   2   3  13   64.29    4.00
   2   3  13   63.89    3.10
   2   3  13   60.19    3.90
   2   3  13   68.29    4.40
  -3  -3 -13   13.90    2.30
  -3  -3 -13   18.60    2.50
   3   3  13   16.10    2.00
   3   3  13   13.30    3.00
   3   3  13   18.50    2.90
  -4  -3 -13   76.39    5.20
  -4  -3 -13   83.29    5.60
   4   3  13   80.59    6.10
   4   3  13   85.09    5.20
   6  -4 -13    0.90    2.90
   6  -4 -13    3.00    3.00
  -6   4  13    2.00    1.80
   5  -4 -13   60.19    4.50
   5  -4 -13   64.59    4.90
  -5   4  13   64.19    3.60
   4  -4 -13   39.70    4.00
   4  -4 -13   42.00    3.50
  -4   4  13   37.30    2.90
  -4   4  13   44.10    2.80
   3  -4 -13   19.70    3.40
   3  -4 -13   14.40    2.00
  -3   4  13   19.80    2.10
  -3   4  13   17.60    1.90
  -3   4  13   20.90    2.30
   2  -4 -13   38.70    2.90
   2  -4 -13   44.30    2.90
  -2   4  13   39.10    2.20
  -2   4  13   42.90    2.70
   1  -4 -13   73.09    3.40
   1  -4 -13   65.09    3.40
   1  -4 -13   64.69    2.50
  -1   4  13   65.29    3.40
  -1   4  13   72.49    3.30
  -1   4  13   67.29    2.80
   0  -4 -13   54.99    3.20
   0  -4 -13   60.19    3.50
   0  -4 -13   53.89    3.20
   0   4  13   59.09    2.60
   0   4  13   60.59    5.20
   0   4  13   55.29    3.70
  -1  -4 -13   37.90    3.10
  -1  -4 -13   33.70    2.90
   1   4  13   34.20    3.60
   1   4  13   40.00    3.60
  -2  -4 -13   14.20    2.20
  -2  -4 -13   13.30    2.00
   2   4  13   19.60    2.80
   2   4  13   13.30    2.90
  -3  -4 -13   -4.20    2.20
  -3  -4 -13    2.40    2.30
   3   4  13    2.40    2.80
   6  -5 -13    8.80    3.20
   6  -5 -13   12.60    3.70
  -6   5  13   14.50    2.80
  -6   5  13   12.30    2.40
   5  -5 -13    6.20    2.70
   5  -5 -13    5.10    2.80
  -5   5  13   10.40    2.10
  -5   5  13    5.70    1.80
   4  -5 -13   22.20    3.40
   4  -5 -13   25.00    2.90
  -4   5  13   24.20    2.80
  -4   5  13   26.30    2.70
   3  -5 -13   65.79    5.20
   3  -5 -13   61.89    3.90
  -3   5  13   66.49    3.30
  -3   5  13   63.49    3.40
   2  -5 -13   30.20    3.30
   2  -5 -13   32.90    3.10
   2  -5 -13   32.20    2.80
  -2   5  13   32.70    2.80
  -2   5  13   28.70    2.30
  -2   5  13   28.60    3.10
   1  -5 -13  369.56   11.70
   1  -5 -13  374.26   11.50
  -1   5  13  381.46   11.40
  -1   5  13  386.66   11.90
  -1   5  13  390.56   11.30
   0  -5 -13   12.50    1.80
   0  -5 -13   12.10    1.90
   0   5  13   15.10    2.60
   0   5  13   11.60    2.30
  -1  -5 -13   32.60    3.40
  -1  -5 -13   28.50    3.10
   1   5  13   30.50    3.30
   1   5  13   32.10    3.20
  -2  -5 -13   82.09    4.80
  -2  -5 -13   75.89    5.00
   2   5  13   86.19    6.00
   2   5  13   92.19    5.70
   5  -6 -13  206.98    9.30
   5  -6 -13  200.48    8.50
  -5   6  13  203.88    7.80
  -5   6  13  200.08    7.20
  -5   6  13  193.48    8.80
   4  -6 -13    6.70    2.30
   4  -6 -13   10.60    3.30
  -4   6  13    5.30    1.90
  -4   6  13   10.50    2.10
  -4   6  13    4.70    2.50
   3  -6 -13  245.98    9.80
   3  -6 -13  225.48    8.40
  -3   6  13  225.28    7.80
  -3   6  13  237.88    7.90
  -3   6  13  239.98    8.60
   2  -6 -13   52.89    5.40
   2  -6 -13   58.39    3.50
   2  -6 -13   60.49    4.10
  -2   6  13   54.99    3.80
  -2   6  13   61.89    3.50
  -2   6  13   62.59    4.10
   1  -6 -13    6.70    2.20
   1  -6 -13    4.70    1.60
  -1   6  13    3.20    2.20
  -1   6  13    7.90    1.70
  -1   6  13    4.20    1.90
   0  -6 -13   27.20    3.10
   0  -6 -13   18.10    2.50
   0   6  13   21.80    3.20
  -1  -6 -13   39.60    4.30
  -1  -6 -13   48.20    3.90
   1   6  13   50.79    4.60
   1   6  13   46.50    5.30
   4  -7 -13   14.50    4.10
   4  -7 -13   16.20    3.10
  -4   7  13    7.60    3.30
  -4   7  13    7.80    2.30
  -4   7  13    9.40    2.50
   3  -7 -13   20.30    4.40
   3  -7 -13   18.70    3.10
  -3   7  13   16.80    2.60
  -3   7  13   17.10    2.50
  -3   7  13   18.10    3.20
   2  -7 -13   35.80    3.50
   2  -7 -13   33.50    4.60
  -2   7  13   39.10    3.50
  -2   7  13   34.40    3.30
  -2   7  13   35.10    3.60
   1  -7 -13  136.39    8.50
   1  -7 -13  159.58    6.80
  -1   7  13  152.28    6.10
  -1   7  13  153.58    7.00
   0  -7 -13   20.40    2.50
   0   7  13   21.60    3.70
  -2  -7  14   31.10    3.20
  -2  -7  14   31.60    3.70
   1   7 -14    0.00    3.70
  -1  -7  14    0.30    1.80
  -1  -7  14   -1.40    1.90
   0   7 -14    2.40    3.70
   0   7 -14    1.20    2.50
   0  -7  14    0.60    1.90
  -1   7 -14   18.10    3.10
  -1   7 -14   31.40    4.60
   1  -7  14   28.30    3.00
   1  -7  14   26.40    3.00
  -2   7 -14    5.40    2.40
  -2   7 -14    5.00    3.60
   2  -7  14    4.90    2.10
   2  -7  14    2.20    2.00
  -3   7 -14   81.29    6.70
  -3   7 -14   76.29    5.30
  -3   7 -14   79.79    5.20
   3  -7  14   75.99    5.00
   3  -7  14   70.89    5.00
   3   6 -14    9.00    4.40
  -3  -6  14    4.90    1.90
  -3  -6  14    8.00    2.00
   2   6 -14    6.30    3.80
  -2  -6  14    5.40    1.80
  -2  -6  14    5.30    1.60
   1   6 -14  105.59    6.80
  -1  -6  14  112.29    4.80
  -1  -6  14  106.39    4.30
   0   6 -14    0.60    1.60
   0   6 -14   -1.50    2.70
   0  -6  14    2.00    1.20
   0  -6  14   -0.40    1.60
   0  -6  14   -2.30    1.30
  -1   6 -14   12.40    3.20
  -1   6 -14   10.70    1.90
   1  -6  14   11.00    1.80
   1  -6  14    9.00    1.90
   1  -6  14   11.80    1.60
  -2   6 -14    7.70    3.00
  -2   6 -14    6.10    2.00
   2  -6  14    3.20    1.90
   2  -6  14    3.20    1.80
   2  -6  14    2.60    1.70
  -3   6 -14  192.68    8.70
  -3   6 -14  202.18    7.40
   3  -6  14  199.68    7.60
   3  -6  14  210.98    7.60
   3  -6  14  196.18    7.60
  -4   6 -14    0.30    2.70
  -4   6 -14    2.00    3.40
  -4   6 -14   -3.00    2.10
  -4   6 -14   -0.80    2.60
   4  -6  14    1.50    2.10
   4  -6  14   -1.50    2.30
   4   5 -14   93.79    5.60
   4   5 -14   85.19    7.40
  -4  -5  14   96.69    5.00
  -4  -5  14  100.29    5.00
   3   5 -14  138.69    7.90
   3   5 -14  137.29    5.90
  -3  -5  14  137.79    5.50
  -3  -5  14  141.19    5.60
   2   5 -14   30.50    3.90
  -2  -5  14   34.00    2.90
  -2  -5  14   36.20    2.80
   1   5 -14    6.30    2.60
  -1  -5  14    8.50    1.50
  -1  -5  14    7.40    1.60
  -1  -5  14    8.80    1.00
   0   5 -14   14.50    2.80
   0   5 -14   10.00    1.40
   0  -5  14    8.40    1.60
   0  -5  14   10.30    1.30
   0  -5  14   14.30    1.90
  -1   5 -14  544.95   17.20
  -1   5 -14  542.35   15.90
   1  -5  14  555.14   16.10
   1  -5  14  567.34   16.40
   1  -5  14  564.94   16.00
  -2   5 -14   83.39    4.00
  -2   5 -14   89.89    5.40
   2  -5  14   97.69    4.40
   2  -5  14   85.59    4.20
   2  -5  14   83.99    4.10
  -3   5 -14   33.10    3.10
  -3   5 -14   30.60    3.40
  -3   5 -14   29.70    3.40
  -3   5 -14   28.60    2.90
   3  -5  14   36.10    3.20
   3  -5  14   29.30    2.90
   3  -5  14   34.80    3.30
  -4   5 -14    4.00    2.30
  -4   5 -14    3.20    2.00
  -4   5 -14    3.10    3.10
   4  -5  14    4.70    2.50
   4  -5  14    4.30    2.00
   4  -5  14    3.50    2.20
   5   4 -14    6.60    2.50
  -5  -4  14    0.00    2.40
   4   4 -14    1.30    3.10
   4   4 -14    2.30    2.00
  -4  -4  14    1.30    1.70
  -4  -4  14    2.00    1.80
   3   4 -14   22.40    2.30
   3   4 -14   21.00    3.60
  -3  -4  14   15.60    2.00
  -3  -4  14   20.70    2.10
   2   4 -14   36.90    4.20
  -2  -4  14   40.30    2.70
  -2  -4  14   40.90    2.70
  -2  -4  14   39.10    2.70
   1   4 -14  261.27    9.20
   1   4 -14  246.38    8.00
  -1  -4  14  249.58    8.00
  -1  -4  14  252.37    7.10
  -1  -4  14  262.07    8.10
   0   4 -14  166.08    5.20
   0   4 -14  148.89    6.20
   0   4 -14  169.68    6.80
   0  -4  14  166.98    5.70
   0  -4  14  165.18    5.30
   0  -4  14  171.88    5.80
  -1   4 -14   12.30    1.40
  -1   4 -14    9.30    2.20
   1  -4  14   12.80    1.70
   1  -4  14   11.00    1.40
   1  -4  14   12.50    1.60
   1  -4  14   12.80    1.00
   1  -4  14   11.60    1.30
  -2   4 -14   33.50    3.60
  -2   4 -14   29.40    2.50
   2  -4  14   22.10    2.70
   2  -4  14   30.40    2.80
   2  -4  14   30.60    2.90
   2  -4  14   29.90    1.80
  -3   4 -14   17.70    2.40
  -3   4 -14   15.30    2.70
   3  -4  14   13.90    2.40
   3  -4  14   16.90    1.60
   3  -4  14   11.90    1.90
   3  -4  14   14.30    2.10
  -4   4 -14   43.10    4.70
  -4   4 -14   44.70    3.10
  -4   4 -14   38.70    3.80
   4  -4  14   38.90    3.80
   4  -4  14   39.30    3.60
   4  -4  14   37.40    3.70
   4  -4  14   40.40    3.40
  -5   4 -14  102.19    5.80
   5  -4  14  115.29    5.30
   5  -4  14   98.09    6.00
   5  -4  14   99.19    5.40
   5   3 -14   82.99    4.80
  -5  -3  14   79.89    4.90
  -5  -3  14   83.49    5.10
   4   3 -14   -0.90    1.40
   4   3 -14    2.20    2.40
  -4  -3  14    1.40    1.50
   3   3 -14   26.20    2.50
   3   3 -14   29.40    3.20
  -3  -3  14   26.00    2.60
  -3  -3  14   22.50    2.50
  -3  -3  14   25.30    2.30
  -3  -3  14   23.30    2.20
   2   3 -14  220.78    6.60
  -2  -3  14  227.28    6.70
  -2  -3  14  226.58    8.20
  -2  -3  14  221.78    7.30
   1   3 -14   44.60    2.20
   1   3 -14   40.30    2.70
   1   3 -14   48.20    3.60
  -1  -3  14   45.90    1.80
  -1  -3  14   39.30    3.00
  -1  -3  14   43.20    2.40
   0   3 -14   77.69    2.60
   0   3 -14   74.59    2.70
   0   3 -14   74.89    3.80
   0   3 -14   78.39    4.10
   0  -3  14   66.99    3.60
   0  -3  14   80.39    3.10
   0  -3  14   76.49    3.30
  -1   3 -14   38.40    3.00
  -1   3 -14   33.60    1.90
  -1   3 -14   26.60    1.80
   1  -3  14   32.60    2.40
   1  -3  14   31.60    1.40
   1  -3  14   32.90    2.20
  -2   3 -14   33.80    1.60
  -2   3 -14   28.20    4.30
  -2   3 -14   31.20    3.20
   2  -3  14   29.80    2.40
   2  -3  14   29.10    1.80
   2  -3  14   28.50    2.60
   2  -3  14   29.40    3.30
   2  -3  14   32.20    2.80
  -3   3 -14  144.99    4.80
  -3   3 -14  157.98    5.90
   3  -3  14  150.98    5.80
   3  -3  14  148.99    6.20
   3  -3  14  153.18    5.50
   3  -3  14  147.19    5.10
  -4   3 -14  159.68    6.30
  -4   3 -14  157.78    5.40
   4  -3  14  158.68    6.40
   4  -3  14  152.08    5.70
   4  -3  14  153.58    7.10
   4  -3  14  156.08    5.80
  -5   3 -14  227.58    8.40
   5  -3  14  224.98    8.80
   5  -3  14  225.38    7.80
   5  -3  14  231.78    8.10
   6   2 -14    4.00    2.50
  -6  -2  14    3.60    3.00
  -6  -2  14    4.70    2.40
   5   2 -14  135.19    5.50
  -5  -2  14  133.49    6.20
  -5  -2  14  131.99    5.90
   4   2 -14  540.65   15.70
   4   2 -14  549.25   16.70
  -4  -2  14  506.35   16.00
  -4  -2  14  547.35   16.10
   3   2 -14   22.30    2.60
   3   2 -14   21.70    2.10
   3   2 -14   21.20    2.10
  -3  -2  14   25.70    1.80
  -3  -2  14   20.90    2.40
  -3  -2  14   26.00    2.40
   2   2 -14  153.88    5.40
   2   2 -14  158.58    5.00
   2   2 -14  169.38    6.20
  -2  -2  14  156.78    5.60
  -2  -2  14  165.08    5.60
  -2  -2  14  153.18    5.00
   1   2 -14   37.00    2.50
   1   2 -14   39.70    2.10
   1   2 -14   39.30    2.90
  -1  -2  14   40.40    2.40
  -1  -2  14   39.30    2.50
  -1  -2  14   37.50    2.40
  -1  -2  14   39.50    1.90
   0   2 -14   92.99    4.10
   0   2 -14   92.69    3.20
   0   2 -14   96.09    4.30
   0   2 -14   97.39    4.30
   0  -2  14   94.19    3.20
   0  -2  14   90.89    3.70
   0  -2  14   87.69    3.90
   0  -2  14   96.39    3.70
   0  -2  14   92.99    3.80
  -1   2 -14 1253.77   33.90
  -1   2 -14 1226.68   33.80
  -1   2 -14 1193.68   32.80
  -1   2 -14 1208.68   32.70
   1  -2  14 1152.68   33.60
   1  -2  14 1202.08   32.70
   1  -2  14 1195.08   33.30
   1  -2  14 1199.88   33.40
   1  -2  14 1218.48   33.40
  -2   2 -14  396.66   11.10
  -2   2 -14  381.26   12.40
   2  -2  14  411.46   11.60
   2  -2  14  382.46   12.10
   2  -2  14  390.16   11.60
   2  -2  14  365.46   11.90
   2  -2  14  400.76   11.20
  -3   2 -14    0.40    1.60
  -3   2 -14    1.40    1.10
   3  -2  14   -0.60    1.50
   3  -2  14    1.00    1.20
   3  -2  14    0.30    1.80
   3  -2  14    0.60    1.50
  -4   2 -14   13.80    2.30
  -4   2 -14   21.50    2.10
   4  -2  14   26.20    2.80
   4  -2  14   17.90    2.60
   4  -2  14   16.70    1.90
   4  -2  14   21.20    3.20
  -5   2 -14    7.70    2.10
  -5   2 -14    5.30    2.40
   5  -2  14    4.30    2.20
   5  -2  14    4.40    1.80
   5  -2  14    3.40    2.60
   6   1 -14  146.89    6.10
  -6  -1  14  124.39    8.70
  -6  -1  14  164.38    7.40
   5   1 -14   86.89    4.60
   5   1 -14   86.39    3.60
  -5  -1  14   86.89    4.60
  -5  -1  14   87.09    5.20
   4   1 -14   24.30    1.60
   4   1 -14   20.30    2.40
   4   1 -14   21.70    2.20
   4   1 -14   17.70    2.50
  -4  -1  14   20.60    2.30
  -4  -1  14   28.10    2.00
  -4  -1  14   15.30    2.00
   3   1 -14    5.80    1.20
   3   1 -14    4.90    1.10
   3   1 -14    3.60    1.70
   3   1 -14    3.30    1.50
  -3  -1  14    3.30    1.40
  -3  -1  14    3.70    0.90
  -3  -1  14    3.50    1.50
   2   1 -14  155.88    5.60
   2   1 -14  146.19    5.20
   2   1 -14  145.99    4.80
  -2  -1  14  151.38    5.40
  -2  -1  14  152.48    4.90
  -2  -1  14  147.59    5.30
  -2  -1  14  148.99    5.00
   1   1 -14   30.30    1.90
   1   1 -14   26.80    2.10
   1   1 -14   28.10    2.40
  -1  -1  14   26.90    2.20
  -1  -1  14   27.90    1.90
  -1  -1  14   28.30    1.80
  -1  -1  14   27.70    2.10
  -1  -1  14   24.50    2.20
   0   1 -14 1750.52   48.30
   0   1 -14 1786.62   48.50
   0   1 -14 1696.33   48.10
   0   1 -14 1739.53   47.70
   0  -1  14 1815.32   47.70
   0  -1  14 1770.72   48.10
   0  -1  14 1800.22   47.80
   0  -1  14 1739.43   48.30
   0  -1  14 1704.53   47.90
  -1   1 -14  382.36   11.80
  -1   1 -14  392.06   10.70
  -1   1 -14  381.86   11.80
  -1   1 -14  388.66   11.10
   1  -1  14  407.76   11.60
   1  -1  14  398.36   11.10
   1  -1  14  385.06   11.30
   1  -1  14  380.56   11.80
  -2   1 -14   33.70    2.80
  -2   1 -14   35.30    2.10
   2  -1  14   33.80    2.30
   2  -1  14   36.10    2.40
   2  -1  14   35.10    2.10
   2  -1  14   33.10    3.00
  -3   1 -14   21.20    2.20
  -3   1 -14   30.70    3.00
   3  -1  14   19.80    2.60
   3  -1  14   24.30    2.30
   3  -1  14   27.20    2.60
  -4   1 -14   94.89    4.80
  -4   1 -14   91.69    4.20
   4  -1  14   82.49    5.60
   4  -1  14   90.19    4.00
   4  -1  14   89.49    4.50
  -5   1 -14   54.29    4.10
  -5   1 -14   44.10    4.70
   5  -1  14   52.79    4.60
   6   0 -14    3.40    1.90
  -6   0  14   -0.80    2.70
  -6   0  14    4.10    2.20
   5   0 -14   49.99    3.10
   5   0 -14   55.79    4.50
  -5   0  14   59.49    4.70
  -5   0  14   51.79    3.60
   4   0 -14  117.89    4.30
   4   0 -14  111.89    4.10
   4   0 -14  109.09    3.80
   4   0 -14  114.79    4.90
   4   0 -14  116.59    5.20
  -4   0  14  118.99    5.30
  -4   0  14  118.69    3.80
  -4   0  14  112.19    5.00
  -4   0  14  117.99    4.90
   3   0 -14   59.89    3.00
   3   0 -14   60.79    3.30
   3   0 -14   61.49    3.40
   3   0 -14   57.69    2.50
   3   0 -14   56.69    2.30
   3   0 -14   60.39    2.50
  -3   0  14   54.79    3.20
  -3   0  14   54.89    3.50
  -3   0  14   61.69    2.00
  -3   0  14   59.29    3.10
   2   0 -14  639.34   17.80
   2   0 -14  651.53   17.30
   2   0 -14  639.94   18.10
   2   0 -14  631.14   18.30
  -2   0  14  627.64   18.40
  -2   0  14  648.14   17.70
  -2   0  14  633.14   18.30
  -2   0  14  614.54   17.90
   1   0 -14    6.40    1.30
   1   0 -14    7.40    1.10
   1   0 -14    6.00    1.30
   1   0 -14    8.30    1.60
  -1   0  14    6.00    1.20
  -1   0  14    5.90    0.90
  -1   0  14    5.80    1.30
  -1   0  14    7.10    1.20
   0   0 -14    2.70    1.30
   0   0 -14    3.10    0.90
   0   0 -14    6.70    1.30
   0   0  14    4.60    1.10
   0   0  14    4.50    1.20
   0   0  14    6.00    1.00
   0   0  14    5.90    0.90
   0   0  14    3.80    0.90
   0   0  14    5.90    1.20
  -1   0 -14  165.78    5.20
  -1   0 -14  153.08    5.60
  -1   0 -14  158.98    4.70
   1   0  14  168.88    5.60
   1   0  14  157.68    5.00
   1   0  14  157.78    5.90
   1   0  14  157.28    5.20
  -2   0 -14   24.00    2.50
  -2   0 -14   23.20    2.00
  -2   0 -14   19.50    2.00
   2   0  14   21.00    2.20
   2   0  14   26.20    2.20
   2   0  14   17.00    2.30
  -3   0 -14  221.68    7.70
  -3   0 -14  214.18    7.60
   3   0  14  216.88    8.30
   3   0  14  215.38    7.10
   3   0  14  224.98    7.40
  -4   0 -14   19.10    2.50
  -4   0 -14   24.20    2.40
   4   0  14   22.40    2.70
   4   0  14   27.10    3.70
   4   0  14   21.80    2.00
  -5   0 -14    3.50    2.50
  -5   0 -14    0.00    2.30
   5   0  14    7.30    2.80
   6  -1 -14   21.40    2.20
   6  -1 -14   27.20    3.70
  -6   1  14   19.70    2.60
   5  -1 -14    8.90    1.50
   5  -1 -14    7.50    2.40
   5  -1 -14    5.50    1.80
  -5   1  14    6.50    2.40
  -5   1  14    9.10    1.90
   4  -1 -14  156.68    6.20
   4  -1 -14  163.98    5.80
   4  -1 -14  159.48    5.10
  -4   1  14  151.88    5.90
  -4   1  14  157.88    5.50
  -4   1  14  165.08    6.70
   3  -1 -14    6.00    1.40
   3  -1 -14    4.60    0.80
   3  -1 -14    3.60    1.10
   3  -1 -14    2.30    1.20
   3  -1 -14    4.20    1.50
  -3   1  14    3.00    1.30
  -3   1  14    3.00    0.60
   2  -1 -14  129.59    4.60
   2  -1 -14  132.39    4.20
   2  -1 -14  127.49    4.60
   2  -1 -14  130.19    4.80
  -2   1  14  134.89    5.30
  -2   1  14  129.59    4.80
   1  -1 -14   11.30    1.50
   1  -1 -14   16.30    1.60
   1  -1 -14   12.40    1.40
   1  -1 -14   11.20    1.30
   1  -1 -14   14.20    1.80
  -1   1  14   13.50    1.10
  -1   1  14   14.70    1.80
  -1   1  14   11.60    1.40
   0  -1 -14   40.50    2.20
   0  -1 -14   42.20    2.40
   0  -1 -14   47.10    2.50
   0  -1 -14   50.19    2.90
   0   1  14   43.90    2.00
   0   1  14   41.10    2.70
   0   1  14   43.50    2.30
   0   1  14   43.80    2.80
   0   1  14   42.80    1.80
  -1  -1 -14  101.19    3.90
  -1  -1 -14  102.49    3.40
   1   1  14  103.19    4.50
   1   1  14  102.19    3.30
   1   1  14  101.49    4.20
   1   1  14  100.99    4.00
  -2  -1 -14   40.20    2.60
  -2  -1 -14   36.40    3.00
  -2  -1 -14   39.80    2.60
   2   1  14   38.60    2.90
   2   1  14   40.80    2.80
  -3  -1 -14    7.50    1.80
  -3  -1 -14    6.30    1.70
   3   1  14    5.80    1.60
   3   1  14    6.80    2.30
  -4  -1 -14   69.29    4.30
  -4  -1 -14   63.69    4.60
   4   1  14   64.49    5.50
   4   1  14   71.79    4.70
   6  -2 -14  237.08    7.60
   6  -2 -14  232.68    9.50
  -6   2  14  227.28    8.40
   5  -2 -14    2.10    1.20
   5  -2 -14    2.30    2.20
   5  -2 -14    1.90    2.00
  -5   2  14    0.40    1.50
   4  -2 -14  109.59    3.60
   4  -2 -14  110.39    4.70
   4  -2 -14  112.69    5.00
   4  -2 -14  114.19    5.00
  -4   2  14  103.79    4.60
  -4   2  14  122.89    5.90
   3  -2 -14   -0.10    1.30
   3  -2 -14    0.80    1.40
   3  -2 -14   -0.20    1.50
   3  -2 -14    1.40    1.00
  -3   2  14   -0.10    1.70
  -3   2  14   -0.10    1.10
  -3   2  14    1.30    0.70
   2  -2 -14   14.40    1.40
   2  -2 -14   16.40    1.70
   2  -2 -14   14.80    1.60
  -2   2  14   10.80    1.50
  -2   2  14   16.80    2.30
   1  -2 -14  100.39    4.20
   1  -2 -14  101.49    3.60
   1  -2 -14   97.19    3.70
   1  -2 -14   93.49    3.80
  -1   2  14   99.39    4.10
  -1   2  14   96.59    4.50
   0  -2 -14  114.89    4.40
   0  -2 -14  125.49    4.70
   0  -2 -14  115.09    4.40
   0   2  14  117.79    4.80
   0   2  14  126.29    4.60
   0   2  14  123.29    5.00
  -1  -2 -14   15.50    2.60
  -1  -2 -14   17.10    1.60
  -1  -2 -14   17.40    1.90
   1   2  14   16.70    2.00
   1   2  14   21.20    2.00
   1   2  14   16.70    2.20
  -2  -2 -14   40.40    3.00
  -2  -2 -14   39.90    3.10
   2   2  14   33.60    3.60
   2   2  14   38.20    3.30
  -3  -2 -14   51.69    3.70
  -3  -2 -14   51.49    3.80
   3   2  14   59.49    4.30
   3   2  14   50.89    3.70
   3   2  14   44.10    4.50
  -4  -2 -14   47.20    4.20
  -4  -2 -14   46.10    4.80
   4   2  14   44.50    4.10
   6  -3 -14   20.90    3.70
  -6   3  14   13.60    2.30
   5  -3 -14    2.80    1.20
   5  -3 -14    2.20    2.30
   5  -3 -14    5.80    2.50
  -5   3  14    3.20    1.70
   4  -3 -14   44.10    3.60
   4  -3 -14   42.50    4.00
  -4   3  14   43.30    2.60
  -4   3  14   41.70    2.90
   3  -3 -14   31.30    2.90
   3  -3 -14   28.00    2.80
   3  -3 -14   22.30    2.30
  -3   3  14   25.20    3.00
  -3   3  14   26.00    2.40
  -3   3  14   24.30    1.80
   2  -3 -14  169.08    6.00
   2  -3 -14  153.68    5.90
   2  -3 -14  159.28    5.10
  -2   3  14  173.88    5.10
  -2   3  14  175.08    5.90
  -2   3  14  173.48    6.90
   1  -3 -14    6.70    1.90
   1  -3 -14    6.60    1.50
   1  -3 -14    4.60    1.50
   1  -3 -14    5.90    1.00
  -1   3  14    5.10    1.90
  -1   3  14    4.40    1.40
   0  -3 -14   45.70    2.80
   0   3  14   42.20    3.10
   0   3  14   45.20    2.30
   0   3  14   44.80    3.60
   0   3  14   38.00    3.10
  -1  -3 -14    0.10    1.40
  -1  -3 -14   -0.30    1.40
   1   3  14    1.10    1.70
   1   3  14   -1.00    1.80
   1   3  14   -1.40    1.60
  -2  -3 -14  105.09    4.80
  -2  -3 -14  106.49    4.70
   2   3  14   99.09    5.00
   2   3  14  102.79    4.00
   2   3  14  110.09    5.20
   2   3  14  102.39    5.60
  -3  -3 -14    7.00    2.10
  -3  -3 -14    5.20    2.20
   3   3  14    9.80    3.20
   3   3  14    7.00    2.60
   3   3  14    5.60    3.10
   6  -4 -14    3.80    3.20
   6  -4 -14    5.40    3.10
  -6   4  14    8.30    2.30
   5  -4 -14   24.40    3.00
   5  -4 -14   32.90    3.60
  -5   4  14   33.00    3.10
  -5   4  14   31.50    3.10
   4  -4 -14  182.58    7.20
   4  -4 -14  187.88    7.70
  -4   4  14  184.48    6.60
  -4   4  14  191.08    6.30
   3  -4 -14   91.89    5.20
   3  -4 -14   90.39    4.40
  -3   4  14   85.99    4.00
  -3   4  14   83.69    3.50
   2  -4 -14  582.94   17.20
   2  -4 -14  583.74   17.10
  -2   4  14  604.64   16.50
  -2   4  14  577.84   17.10
   1  -4 -14   58.99    3.40
   1  -4 -14   59.09    2.50
   1  -4 -14   56.79    3.40
  -1   4  14   56.49    3.20
  -1   4  14   58.09    3.50
   0  -4 -14   81.39    4.00
   0  -4 -14   80.29    3.90
   0   4  14   81.09    3.10
   0   4  14   81.19    4.30
   0   4  14   85.69    4.50
  -1  -4 -14   22.00    2.30
  -1  -4 -14   20.30    2.20
   1   4  14   19.30    2.70
   1   4  14   22.60    2.90
  -2  -4 -14    0.80    1.70
  -2  -4 -14    2.40    2.10
   2   4  14    2.00    2.40
   2   4  14   -1.50    2.40
  -3  -4 -14   84.19    5.30
   3   4  14   75.39    6.40
   3   4  14  102.19    6.50
   6  -5 -14   71.89    7.80
   6  -5 -14   62.69    6.80
  -6   5  14   62.59    4.90
  -6   5  14   68.09    4.40
   5  -5 -14    0.60    3.00
   5  -5 -14   -2.50    2.80
  -5   5  14    0.20    1.70
  -5   5  14    2.60    1.80
   4  -5 -14  186.38    7.50
   4  -5 -14  199.38    8.30
  -4   5  14  191.28    6.80
  -4   5  14  194.88    6.80
   3  -5 -14    7.40    2.70
   3  -5 -14    5.60    2.20
  -3   5  14    9.00    1.80
  -3   5  14    5.90    1.50
  -3   5  14    7.70    2.30
   2  -5 -14  138.59    5.30
   2  -5 -14  130.29    5.50
  -2   5  14  135.99    5.60
  -2   5  14  135.29    5.40
  -2   5  14  127.99    4.80
   1  -5 -14   44.00    3.50
  -1   5  14   46.70    3.60
  -1   5  14   46.70    3.30
   0  -5 -14   32.90    3.40
   0  -5 -14   31.80    3.10
   0   5  14   37.40    3.90
  -1  -5 -14   74.29    4.30
  -1  -5 -14   78.59    4.60
   1   5  14   69.19    5.20
   1   5  14   70.79    5.30
  -2  -5 -14  212.88    8.30
  -2  -5 -14  214.28    8.30
   2   5  14  224.18    9.10
   2   5  14  220.68    9.60
   5  -6 -14   61.69    5.60
   5  -6 -14   59.89    6.60
  -5   6  14   63.99    6.30
  -5   6  14   64.99    4.10
  -5   6  14   55.99    4.50
   4  -6 -14   15.00    3.60
   4  -6 -14   15.50    2.60
  -4   6  14   13.50    2.30
  -4   6  14   16.70    3.10
  -4   6  14   13.30    2.20
   3  -6 -14   10.70    2.60
   3  -6 -14    8.50    3.30
  -3   6  14    8.60    1.80
  -3   6  14    8.50    2.60
  -3   6  14   11.10    2.10
   2  -6 -14   95.69    4.60
   2  -6 -14   90.59    5.10
   2  -6 -14   78.69    6.50
  -2   6  14   86.39    4.80
  -2   6  14   91.09    4.90
  -2   6  14   92.89    4.20
   1  -6 -14   37.30    4.00
   1  -6 -14   36.40    3.40
  -1   6  14   34.90    3.40
   0  -6 -14  327.77   10.50
   0  -6 -14  326.77   10.90
   0   6  14  325.67   11.50
  -1  -6 -14   46.30    5.60
  -1  -6 -14   50.69    4.20
   1   6  14   41.80    4.50
   1   6  14   58.89    6.00
   3  -7 -14   27.30    4.60
   3  -7 -14   25.00    3.50
  -3   7  14   32.70    3.70
  -3   7  14   30.20    3.00
  -3   7  14   28.70    3.80
   2  -7 -14  152.68    7.10
   2  -7 -14  145.09    8.80
  -2   7  14  153.88    6.80
  -2   7  14  165.68    6.30
  -1   7  14    9.70    3.10
   1   7 -15   49.60    5.70
  -1  -7  15   65.59    3.90
  -1  -7  15   60.49    4.40
   0   7 -15   51.19    5.10
   0   7 -15   43.10    5.00
   0  -7  15   60.29    4.30
  -1   7 -15    6.20    4.10
  -1   7 -15   12.10    2.50
   1  -7  15    9.80    2.50
   1  -7  15   13.40    2.00
  -2   7 -15    3.00    2.60
  -2   7 -15    1.90    4.10
   2  -7  15    2.30    2.20
   2  -7  15    2.10    2.40
   3   6 -15   29.80    5.90
  -3  -6  15   34.80    3.70
  -3  -6  15   31.20    3.30
   2   6 -15    1.80    3.90
  -2  -6  15    1.80    1.80
  -2  -6  15    1.30    1.60
   1   6 -15    5.20    3.60
  -1  -6  15    2.80    1.60
  -1  -6  15    1.60    1.70
   0   6 -15   40.70    4.50
   0   6 -15   42.50    3.20
   0  -6  15   38.80    2.50
   0  -6  15   38.60    3.00
   0  -6  15   40.20    3.50
  -1   6 -15   48.30    3.40
  -1   6 -15   60.89    5.60
   1  -6  15   48.60    3.80
   1  -6  15   47.20    3.30
  -2   6 -15   49.60    3.90
  -2   6 -15   38.50    4.10
   2  -6  15   41.40    3.60
   2  -6  15   43.10    3.60
   2  -6  15   52.09    4.20
  -3   6 -15   62.89    5.60
  -3   6 -15   80.89    6.40
   3  -6  15   74.39    5.00
   3  -6  15   71.29    4.60
   3  -6  15   67.09    4.80
   4   5 -15   12.80    3.00
   4   5 -15    6.00    4.60
  -4  -5  15    9.00    2.50
  -4  -5  15    7.80    2.30
   3   5 -15    1.50    3.70
  -3  -5  15    3.00    1.70
  -3  -5  15    1.70    1.60
   2   5 -15  230.18    9.50
  -2  -5  15  225.28    7.60
  -2  -5  15  211.78    7.50
   1   5 -15  147.69    7.30
  -1  -5  15  149.19    5.40
  -1  -5  15  147.09    5.60
   0   5 -15   14.00    3.20
   0   5 -15   10.70    1.50
   0  -5  15   11.90    1.70
   0  -5  15    9.80    1.90
   0  -5  15   11.50    1.40
  -1   5 -15    2.80    2.60
  -1   5 -15    3.60    1.40
   1  -5  15    4.40    1.50
   1  -5  15    4.20    1.40
   1  -5  15    4.10    1.60
  -2   5 -15   -2.40    2.40
  -2   5 -15   -1.50    1.50
   2  -5  15   -1.20    1.70
   2  -5  15   -2.40    1.60
   2  -5  15    1.10    1.70
  -3   5 -15   15.20    2.70
  -3   5 -15   14.60    3.10
  -3   5 -15   14.50    2.30
   3  -5  15   13.40    2.70
   3  -5  15   14.50    2.30
   3  -5  15   15.60    2.30
  -4   5 -15   78.09    4.40
  -4   5 -15   70.19    6.30
  -4   5 -15   80.89    5.40
   4  -5  15   72.69    5.00
   4  -5  15   71.69    4.80
   4  -5  15   72.89    5.40
   4  -5  15   78.49    4.40
   4   4 -15   41.50    3.90
   4   4 -15   36.70    4.30
  -4  -4  15   42.30    3.90
  -4  -4  15   49.20    3.60
   3   4 -15  182.98    6.60
   3   4 -15  183.08    8.20
  -3  -4  15  175.28    6.50
  -3  -4  15  173.08    6.50
   2   4 -15   96.39    5.70
  -2  -4  15   98.99    4.20
  -2  -4  15  100.29    4.30
   1   4 -15    9.60    2.60
  -1  -4  15   12.00    1.80
  -1  -4  15    9.60    1.60
   0   4 -15  136.79    4.30
   0   4 -15  145.29    6.30
   0   4 -15  126.19    5.70
   0  -4  15  129.09    5.10
   0  -4  15  134.99    5.00
   0  -4  15  127.69    4.50
  -1   4 -15  280.07    8.50
  -1   4 -15  287.77    9.90
   1  -4  15  289.67    8.80
   1  -4  15  275.37    9.10
   1  -4  15  290.97    9.10
  -2   4 -15    8.00    2.40
  -2   4 -15    9.70    2.10
  -2   4 -15   11.40    1.70
   2  -4  15   11.30    1.20
   2  -4  15   10.60    2.00
   2  -4  15   10.80    1.70
   2  -4  15    9.40    1.70
  -3   4 -15   82.99    5.30
  -3   4 -15   93.59    5.00
   3  -4  15   86.49    4.40
   3  -4  15   89.89    3.70
   3  -4  15   87.39    4.30
   3  -4  15   83.99    4.90
  -4   4 -15   67.59    5.30
  -4   4 -15   64.69    4.60
   4  -4  15   68.49    3.80
   4  -4  15   54.89    5.30
   4  -4  15   64.39    4.70
   4  -4  15   58.19    3.90
   5   3 -15  118.79    5.70
  -5  -3  15  116.99    5.90
  -5  -3  15  131.69    6.30
   4   3 -15    0.50    2.60
   4   3 -15    4.40    1.80
  -4  -3  15    4.00    2.10
  -4  -3  15    5.80    1.90
   3   3 -15   70.89    4.90
   3   3 -15   57.89    3.40
  -3  -3  15   62.19    3.60
  -3  -3  15   62.19    3.50
   2   3 -15  151.28    6.40
  -2  -3  15  153.48    5.50
  -2  -3  15  142.79    5.40
  -2  -3  15  142.09    4.70
   1   3 -15   90.29    4.90
   1   3 -15   91.69    3.40
   1   3 -15   89.19    4.00
  -1  -3  15   94.09    3.90
  -1  -3  15   90.89    3.10
  -1  -3  15   89.69    3.80
   0   3 -15  382.36   10.50
   0   3 -15  379.36   10.30
   0   3 -15  379.76   12.00
   0   3 -15  349.57   11.40
   0  -3  15  370.16   11.20
   0  -3  15  362.06   11.20
  -1   3 -15  243.48    8.30
  -1   3 -15  229.68    7.80
  -1   3 -15  242.68    6.90
  -1   3 -15  237.98    8.40
   1  -3  15  242.18    7.60
   1  -3  15  236.58    6.80
   1  -3  15  242.78    7.90
   1  -3  15  245.48    7.80
  -2   3 -15    8.10    2.20
  -2   3 -15    8.70    1.40
  -2   3 -15    9.80    1.00
  -2   3 -15    9.70    2.00
   2  -3  15   10.10    1.20
   2  -3  15    8.40    1.60
   2  -3  15    7.90    1.50
   2  -3  15    9.80    1.90
  -3   3 -15   26.80    1.90
  -3   3 -15   20.30    2.50
  -3   3 -15   21.60    2.80
   3  -3  15   20.10    2.60
   3  -3  15   25.00    2.80
   3  -3  15   22.10    2.30
   3  -3  15   25.20    2.90
  -4   3 -15   34.70    3.20
   4  -3  15   32.50    3.60
   4  -3  15   32.80    3.10
   4  -3  15   33.30    3.20
   4  -3  15   32.70    3.20
  -5   3 -15   46.60    5.00
   5  -3  15   46.60    4.10
   5  -3  15   47.20    4.40
  -6  -2  15   28.10    4.20
   5   2 -15   48.00    3.90
  -5  -2  15   47.20    4.70
  -5  -2  15   51.79    3.90
   4   2 -15  124.09    5.00
   4   2 -15  134.79    6.40
  -4  -2  15  129.69    5.80
  -4  -2  15  123.59    5.30
   3   2 -15   46.70    2.80
   3   2 -15   49.99    3.30
  -3  -2  15   51.59    3.30
  -3  -2  15   45.90    3.10
  -3  -2  15   46.30    3.20
  -3  -2  15   53.79    2.70
   2   2 -15   -0.10    1.10
   2   2 -15    1.70    1.70
   2   2 -15   -0.70    1.30
  -2  -2  15   -0.50    1.10
  -2  -2  15   -1.00    1.00
  -2  -2  15    1.10    1.10
   1   2 -15 1120.59   30.60
   1   2 -15 1157.58   31.30
   1   2 -15 1108.29   30.40
  -1  -2  15 1137.89   30.20
  -1  -2  15 1085.09   30.80
  -1  -2  15 1005.30   31.20
   0   2 -15   15.40    2.10
   0   2 -15   16.40    1.60
   0   2 -15   16.40    2.10
   0  -2  15   11.60    1.60
  -1   2 -15  186.78    5.60
  -1   2 -15  186.58    6.70
  -1   2 -15  190.88    5.30
   1  -2  15  185.48    6.40
   1  -2  15  155.78    7.00
   1  -2  15  190.28    5.50
   1  -2  15  181.58    6.50
  -2   2 -15   12.60    1.30
  -2   2 -15   15.20    2.10
  -2   2 -15    9.50    1.90
   2  -2  15   11.30    1.90
   2  -2  15   12.60    1.80
   2  -2  15   10.80    1.20
   2  -2  15   11.40    1.50
   2  -2  15   13.40    2.10
  -3   2 -15  206.58    6.60
  -3   2 -15  214.38    7.60
   3  -2  15  209.48    7.50
   3  -2  15  207.98    8.10
   3  -2  15  213.18    7.00
   3  -2  15  210.08    6.90
  -4   2 -15   18.00    2.70
  -4   2 -15   18.20    2.10
   4  -2  15   21.10    2.30
   4  -2  15   18.80    2.80
   4  -2  15   22.30    2.20
   4  -2  15   18.30    3.20
  -5   2 -15  107.59    6.20
   5  -2  15  105.39    5.70
   6   1 -15    1.10    2.10
  -6  -1  15    2.40    2.20
  -6  -1  15    1.80    2.80
   5   1 -15   15.50    2.90
   5   1 -15   10.90    2.50
  -5  -1  15   10.20    2.00
  -5  -1  15   14.10    2.70
   4   1 -15   17.80    2.60
   4   1 -15   16.30    2.40
   4   1 -15   11.90    1.60
  -4  -1  15   15.50    2.30
  -4  -1  15   13.90    2.00
   3   1 -15  269.17    8.00
   3   1 -15  260.77    8.00
   3   1 -15  260.07    7.70
   3   1 -15  269.07    9.10
   3   1 -15  268.97    8.70
  -3  -1  15  271.37    8.90
  -3  -1  15  256.97    8.60
   2   1 -15    3.80    1.10
   2   1 -15    1.70    1.50
   2   1 -15    1.20    1.20
  -2  -1  15    0.40    1.20
  -2  -1  15    3.10    1.30
  -2  -1  15    2.00    1.20
  -2  -1  15    4.10    2.30
   1   1 -15   71.09    3.00
   1   1 -15   70.99    3.30
   1   1 -15   72.29    3.70
  -1  -1  15   72.89    3.40
  -1  -1  15   67.19    2.90
  -1  -1  15   64.59    3.20
  -1  -1  15   64.49    2.90
   0   1 -15  355.86   10.90
   0   1 -15  356.76   10.30
   0   1 -15  342.27   11.10
   0  -1  15  360.16   10.70
   0  -1  15  365.36   10.40
   0  -1  15  341.87   10.50
   0  -1  15  355.96   10.80
   0  -1  15  349.37   10.30
  -1   1 -15    1.40    1.40
  -1   1 -15    1.40    0.90
  -1   1 -15    2.60    1.40
   1  -1  15    1.80    1.30
   1  -1  15    1.40    0.80
   1  -1  15    3.00    1.10
   1  -1  15    0.90    1.30
  -2   1 -15    5.80    1.80
  -2   1 -15    4.40    1.10
   2  -1  15    4.10    1.70
   2  -1  15    6.70    1.30
  -3   1 -15   31.20    3.40
  -3   1 -15   33.50    2.60
   3  -1  15   35.70    2.80
   3  -1  15   31.70    3.30
   3  -1  15   26.60    3.20
  -4   1 -15   14.90    2.60
  -4   1 -15   13.20    2.10
   4  -1  15   16.40    2.40
   4  -1  15   10.70    3.10
   4  -1  15   15.00    2.00
   6   0 -15   22.60    3.60
   6   0 -15   20.70    2.40
  -6   0  15   20.00    3.60
  -6   0  15   14.20    2.40
   5   0 -15   32.30    3.40
   5   0 -15   28.10    2.80
  -5   0  15   27.10    2.80
  -5   0  15   22.40    3.00
   4   0 -15   90.99    3.60
   4   0 -15   91.09    4.60
   4   0 -15   99.09    4.90
   4   0 -15   97.59    3.90
  -4   0  15   97.39    4.40
  -4   0  15   90.89    5.10
   3   0 -15    8.40    0.90
   3   0 -15    8.30    1.70
   3   0 -15   10.60    1.80
   3   0 -15    7.60    1.60
   3   0 -15    7.00    1.30
  -3   0  15    6.50    1.40
  -3   0  15    6.20    1.70
   2   0 -15   22.60    1.10
   2   0 -15   23.20    2.40
   2   0 -15   24.70    2.30
   2   0 -15   20.10    2.10
  -2   0  15   20.90    2.10
  -2   0  15   23.50    1.90
   1   0 -15  332.57   10.60
   1   0 -15  314.67   10.00
   1   0 -15  337.77   10.00
   1   0 -15  348.27   10.40
  -1   0  15  342.27   10.30
  -1   0  15  329.57    9.90
  -1   0  15  347.87    9.60
  -1   0  15  329.87   10.40
   0   0 -15   68.29    3.90
   0   0 -15   70.39    3.00
   0   0 -15   77.09    3.50
   0   0  15   65.39    3.40
   0   0  15   71.19    3.40
   0   0  15   71.59    3.30
   0   0  15   75.29    2.80
   0   0  15   70.59    3.00
   0   0  15   72.09    2.70
  -1   0 -15    6.60    1.60
  -1   0 -15    9.30    1.10
  -1   0 -15    7.40    1.20
   1   0  15    7.70    1.30
   1   0  15    9.40    1.50
   1   0  15   10.70    1.30
   1   0  15    9.40    1.80
  -2   0 -15   -0.90    1.20
  -2   0 -15    1.10    1.50
   2   0  15   -0.20    1.60
   2   0  15   -0.90    1.20
   2   0  15   -0.60    1.20
  -3   0 -15  403.06   12.20
  -3   0 -15  405.76   12.80
   3   0  15  386.86   13.50
   3   0  15  432.56   12.30
  -4   0 -15    5.80    2.30
  -4   0 -15    5.40    2.10
   4   0  15    7.10    2.30
   4   0  15    8.20    3.20
   6  -1 -15  197.98    6.90
   6  -1 -15  200.28    8.80
   5  -1 -15    5.90    2.70
   5  -1 -15    8.00    2.00
   5  -1 -15    4.20    1.40
  -5   1  15    6.30    1.80
  -5   1  15    5.40    2.40
   4  -1 -15    3.70    1.00
   4  -1 -15    4.00    1.80
   4  -1 -15    0.10    1.80
  -4   1  15    1.20    2.10
  -4   1  15    2.20    1.50
   3  -1 -15  247.98    8.10
   3  -1 -15  239.38    7.30
   3  -1 -15  248.08    8.10
   3  -1 -15  246.18    7.80
  -3   1  15  243.78    8.00
  -3   1  15  244.88    8.70
   2  -1 -15  154.48    5.30
   2  -1 -15  156.98    4.70
   2  -1 -15  160.28    5.40
   2  -1 -15  139.69    5.20
  -2   1  15  147.59    5.40
  -2   1  15  129.19    6.40
   1  -1 -15  144.09    4.70
   1  -1 -15  141.79    5.10
   1  -1 -15  152.58    5.20
   1  -1 -15  150.08    5.60
  -1   1  15  154.28    5.70
  -1   1  15  142.69    5.30
  -1   1  15  143.59    4.40
   0  -1 -15    4.10    1.10
   0  -1 -15    4.70    1.30
   0  -1 -15    4.40    1.10
   0   1  15    3.50    1.10
   0   1  15    4.10    0.80
   0   1  15    1.90    1.30
   0   1  15    3.30    1.00
   0   1  15    1.40    1.40
  -1  -1 -15  168.28    5.30
  -1  -1 -15  172.38    6.30
  -1  -1 -15  170.08    5.80
   1   1  15  170.98    6.50
   1   1  15  180.78    6.30
   1   1  15  169.28    5.20
   1   1  15  183.78    6.00
  -2  -1 -15   16.70    1.80
  -2  -1 -15   21.80    2.40
   2   1  15   21.10    2.10
   2   1  15   14.30    2.30
   2   1  15   22.20    2.10
  -3  -1 -15   32.60    3.10
  -3  -1 -15   33.90    3.00
   3   1  15   33.60    3.30
   3   1  15   25.90    3.20
   3   1  15   32.50    3.60
  -4  -1 -15    0.40    2.00
  -4  -1 -15   -1.20    2.40
   4   1  15   -3.30    2.70
   4   1  15    2.50    2.40
   6  -2 -15    2.60    3.20
  -6   2  15    5.40    2.20
   5  -2 -15   96.79    3.70
   5  -2 -15  103.69    5.20
   5  -2 -15  100.39    5.70
  -5   2  15   97.29    4.70
  -5   2  15   93.49    6.10
   4  -2 -15  213.48    6.20
   4  -2 -15  210.58    7.80
   4  -2 -15  221.18    7.80
  -4   2  15  214.38    6.50
  -4   2  15  207.38    8.40
  -4   2  15  208.78    7.30
   3  -2 -15    0.30    1.70
   3  -2 -15    0.50    1.40
   3  -2 -15    0.40    1.10
   3  -2 -15    1.80    1.40
  -3   2  15    1.90    1.90
  -3   2  15   -1.50    1.20
  -3   2  15   -0.20    0.60
   2  -2 -15   57.19    3.00
   2  -2 -15   63.29    2.80
   2  -2 -15   59.79    3.20
  -2   2  15   58.59    4.10
  -2   2  15   55.99    3.10
   1  -2 -15   67.99    2.90
   1  -2 -15   56.59    2.90
   1  -2 -15   54.79    3.30
   1  -2 -15   57.89    3.00
  -1   2  15   61.59    3.20
  -1   2  15   53.59    4.30
   0  -2 -15    1.20    1.30
   0  -2 -15    2.50    1.50
   0  -2 -15    1.70    1.30
   0   2  15    0.20    1.50
   0   2  15   -0.70    1.20
   0   2  15    0.80    1.20
  -1  -2 -15  611.74   17.40
  -1  -2 -15  606.34   17.70
   1   2  15  595.54   17.50
   1   2  15  593.04   18.10
   1   2  15  607.84   17.80
  -2  -2 -15    1.30    1.70
  -2  -2 -15    2.50    1.60
   2   2  15    1.70    2.00
   2   2  15    3.20    1.80
   2   2  15    2.60    1.90
  -3  -2 -15    1.00    2.00
  -3  -2 -15   -1.20    1.80
   3   2  15   -2.40    2.20
   3   2  15    0.70    2.50
  -4  -2 -15    2.20    2.40
   4   2  15    3.00    3.10
   6  -3 -15   72.09    6.30
  -6   3  15   63.19    4.40
   5  -3 -15    6.00    2.60
   5  -3 -15    4.60    2.90
  -5   3  15    2.30    1.80
   4  -3 -15    7.40    2.40
   4  -3 -15    7.40    2.00
  -4   3  15    6.40    1.30
  -4   3  15    9.90    1.70
   3  -3 -15  119.59    5.60
   3  -3 -15  115.39    5.00
  -3   3  15  113.29    3.80
  -3   3  15  115.89    6.10
  -3   3  15  114.49    4.60
   2  -3 -15    5.20    1.70
   2  -3 -15    2.20    2.00
   2  -3 -15    5.80    1.10
  -2   3  15    5.40    0.80
  -2   3  15    2.70    1.40
  -2   3  15    1.90    2.20
   1  -3 -15  355.56   10.40
   1  -3 -15  379.56   11.00
  -1   3  15  346.67   11.80
  -1   3  15  347.07   11.10
   0  -3 -15   30.50    2.80
   0  -3 -15   34.20    2.80
   0   3  15   31.00    2.10
   0   3  15   31.90    3.00
   0   3  15   30.30    3.70
   0   3  15   32.90    3.10
  -1  -3 -15   -0.10    1.60
  -1  -3 -15    2.70    1.60
   1   3  15   -2.50    2.00
   1   3  15   -1.40    1.70
   1   3  15   -0.20    1.90
  -2  -3 -15    4.10    1.90
  -2  -3 -15    1.80    1.80
   2   3  15    2.60    2.20
   2   3  15    3.20    2.20
   2   3  15    5.30    2.50
  -3  -3 -15   40.20    4.20
  -3  -3 -15   40.60    4.30
   3   3  15   48.80    5.00
   3   3  15   35.70    4.50
   6  -4 -15   -0.10    3.30
   6  -4 -15   -1.90    3.20
  -6   4  15    3.10    2.20
   5  -4 -15    6.10    3.00
   5  -4 -15    0.60    2.60
  -5   4  15    2.10    1.70
  -5   4  15    3.00    1.80
   4  -4 -15   38.80    3.90
   4  -4 -15   35.70    3.90
  -4   4  15   36.40    2.60
  -4   4  15   32.20    3.00
   3  -4 -15  159.68    7.20
   3  -4 -15  161.08    6.40
  -3   4  15  168.28    6.00
  -3   4  15  159.08    5.30
   2  -4 -15   40.80    3.30
   2  -4 -15   38.90    3.30
  -2   4  15   44.80    3.00
  -2   4  15   44.10    2.20
   1  -4 -15    5.30    1.60
   1  -4 -15    7.90    1.20
   1  -4 -15    9.20    1.90
  -1   4  15    7.10    1.70
  -1   4  15    9.90    1.80
   0  -4 -15   88.39    4.30
   0  -4 -15   79.59    4.20
   0   4  15   79.19    4.60
  -1  -4 -15  247.18    8.40
  -1  -4 -15  244.58    8.40
   1   4  15  250.07    9.00
   1   4  15  235.88    9.10
  -2  -4 -15    1.60    2.10
  -2  -4 -15    0.00    2.20
   2   4  15    4.30    2.70
   2   4  15   -5.20    2.60
   5  -5 -15   80.49    6.70
   5  -5 -15   86.99    6.00
  -5   5  15   83.49    4.50
   4  -5 -15  152.78    6.80
   4  -5 -15  165.08    7.80
  -4   5  15  155.48    5.80
  -4   5  15  157.58    6.10
   3  -5 -15    9.40    2.50
   3  -5 -15   14.90    3.40
  -3   5  15    8.30    1.60
  -3   5  15    8.00    1.90
  -3   5  15    5.90    2.40
   2  -5 -15  269.37    9.10
  -2   5  15  258.07    8.90
  -2   5  15  264.27    8.10
  -2   5  15  261.57    8.80
   1  -5 -15  182.78    6.70
   1  -5 -15  180.58    6.90
  -1   5  15  178.08    7.00
   0  -5 -15   26.00    2.60
   0  -5 -15   30.60    2.90
   0   5  15   28.40    3.20
  -1  -5 -15  100.89    5.20
  -1  -5 -15  101.89    5.50
   1   5  15  102.89    6.40
   1   5  15  109.59    6.40
   4  -6 -15    4.80    2.60
   4  -6 -15    4.10    3.60
  -4   6  15    2.10    1.90
  -4   6  15    2.80    3.00
   3  -6 -15  232.68    8.80
   3  -6 -15  237.48   10.40
  -3   6  15  227.08    8.10
  -3   6  15  234.48    7.80
  -3   6  15  227.98    8.80
   2  -6 -15   41.90    3.90
   2  -6 -15   54.19    4.40
   2  -6 -15   41.20    4.50
  -2   6  15   51.39    3.30
  -2   6  15   45.50    5.10
  -2   6  15   45.60    4.10
   1  -6 -15    2.10    2.30
   1  -6 -15   -0.60    2.00
  -1   6  15   -1.10    2.40
   0  -6 -15   41.30    4.10
   0  -6 -15   39.00    4.30
   0   6  15   45.30    5.20
   0   7 -16    4.90    4.60
   0  -7  16    4.80    2.40
  -1   7 -16  111.69    9.30
   1  -7  16  129.39    6.40
   2   6 -16   12.60    4.70
  -2  -6  16   11.30    2.30
  -2  -6  16    6.60    1.80
   1   6 -16   -3.50    3.50
  -1  -6  16   -1.00    1.70
  -1  -6  16   -0.90    1.60
   0   6 -16   40.20    4.60
   0  -6  16   55.59    4.20
   0  -6  16   49.99    3.40
  -1   6 -16    3.20    3.60
   1  -6  16    2.70    1.90
   1  -6  16    2.00    1.60
   1  -6  16    2.30    2.00
  -2   6 -16   54.39    6.10
   2  -6  16   69.99    4.60
   2  -6  16   64.89    4.40
   2  -6  16   70.39    4.20
  -3   6 -16   11.30    4.00
   3  -6  16   14.10    2.70
   3  -6  16   15.90    3.00
   3  -6  16   20.20    2.90
   3   5 -16   98.29    7.90
  -3  -5  16  106.39    5.00
  -3  -5  16   91.49    4.70
   2   5 -16   53.99    6.00
  -2  -5  16   54.39    3.70
  -2  -5  16   49.60    3.40
   1   5 -16    4.40    3.00
  -1  -5  16    3.90    1.50
  -1  -5  16    6.90    1.80
   0   5 -16  305.77   10.00
   0   5 -16  294.77   11.00
   0  -5  16  286.67    9.30
   0  -5  16  291.07    9.60
   0  -5  16  294.67    8.90
  -1   5 -16   15.00    2.10
  -1   5 -16   11.30    3.10
   1  -5  16   15.50    2.10
   1  -5  16   16.90    2.20
  -2   5 -16   56.39    5.40
  -2   5 -16   46.40    4.50
   2  -5  16   44.90    3.50
   2  -5  16   49.50    3.80
   2  -5  16   56.29    3.90
  -3   5 -16    1.40    3.00
  -3   5 -16    2.90    2.60
   3  -5  16    4.30    2.40
   3  -5  16   -0.30    1.90
   3  -5  16    3.00    2.30
  -4   5 -16   32.90    3.80
   4  -5  16   23.00    3.30
   4  -5  16   27.70    3.10
   4  -5  16   31.90    3.90
   4   4 -16   19.70    2.80
   4   4 -16   30.60    4.70
  -4  -4  16   14.40    2.40
  -4  -4  16   19.00    2.70
   3   4 -16    3.50    3.00
  -3  -4  16    1.00    1.70
  -3  -4  16    1.40    1.60
   2   4 -16  198.68    8.40
  -2  -4  16  194.28    6.90
  -2  -4  16  200.78    7.00
   1   4 -16   56.69    4.70
  -1  -4  16   60.89    3.40
  -1  -4  16   55.19    3.20
   0   4 -16    2.40    2.30
   0   4 -16   -0.10    1.00
   0  -4  16   -0.30    1.30
   0  -4  16    0.30    1.10
   0  -4  16    1.00    1.30
  -1   4 -16   89.49    5.10
  -1   4 -16   81.59    3.20
   1  -4  16   77.89    4.00
   1  -4  16   73.69    3.60
   1  -4  16   83.29    4.00
  -2   4 -16  250.67    8.00
  -2   4 -16  255.97    9.10
  -2   4 -16  249.68    9.50
   2  -4  16  275.57    8.70
   2  -4  16  263.57    8.50
   2  -4  16  247.18    8.80
  -3   4 -16   14.40    2.50
  -3   4 -16   17.30    3.20
  -3   4 -16   15.70    2.70
   3  -4  16   20.30    2.90
   3  -4  16   17.20    2.20
   3  -4  16   18.50    2.10
   3  -4  16   16.20    2.40
  -4   4 -16   74.29    5.30
  -4   4 -16   83.79    6.20
   4  -4  16   81.39    4.60
   4  -4  16   69.89    5.80
   4  -4  16   88.09    5.10
   5   3 -16  169.78    7.00
  -5  -3  16  166.08    7.20
  -5  -3  16  180.18    7.70
   4   3 -16  197.28    8.60
   4   3 -16  186.98    7.00
  -4  -3  16  195.58    7.50
  -4  -3  16  180.68    7.10
   3   3 -16   79.99    5.50
  -3  -3  16   76.39    4.00
  -3  -3  16   85.19    4.20
   2   3 -16   29.50    3.20
  -2  -3  16   23.30    2.70
  -2  -3  16   26.10    2.40
   1   3 -16   14.20    2.20
   1   3 -16   18.20    1.60
   1   3 -16   20.90    2.90
  -1  -3  16   18.10    1.90
  -1  -3  16   13.40    1.70
   0   3 -16  440.76   12.40
   0   3 -16  441.36   13.90
   0  -3  16  439.86   13.20
   0  -3  16  437.46   13.20
  -1   3 -16  118.99    3.80
  -1   3 -16  117.69    3.80
  -1   3 -16  116.49    5.50
  -1   3 -16  118.39    5.50
   1  -3  16  117.69    4.80
   1  -3  16  116.69    4.90
   1  -3  16  120.89    4.60
  -2   3 -16   96.79    3.60
  -2   3 -16  108.69    5.40
  -2   3 -16  102.69    3.90
  -2   3 -16  100.09    5.10
   2  -3  16  103.49    3.70
   2  -3  16  104.09    4.90
   2  -3  16  105.79    4.50
   2  -3  16  103.69    4.50
  -3   3 -16   24.20    2.90
  -3   3 -16   25.90    3.20
   3  -3  16   24.40    2.60
   3  -3  16   20.70    2.80
   3  -3  16   24.00    2.50
   3  -3  16   21.70    2.20
  -4   3 -16    1.90    2.40
   4  -3  16    1.80    2.40
   4  -3  16    0.70    1.90
   4  -3  16   -2.30    1.70
   4  -3  16   -3.50    2.40
   5   2 -16   69.89    4.30
  -5  -2  16   69.59    5.30
  -5  -2  16   64.99    4.70
   4   2 -16   36.80    3.70
  -4  -2  16   34.90    3.90
  -4  -2  16   30.20    3.20
   3   2 -16   22.80    2.40
   3   2 -16   19.00    3.00
  -3  -2  16   15.60    2.10
  -3  -2  16   17.00    2.10
   2   2 -16   -0.80    2.10
   2   2 -16    3.10    1.50
   2   2 -16    3.50    2.20
  -2  -2  16    0.90    1.20
  -2  -2  16    2.10    1.50
  -2  -2  16    0.80    1.30
   1   2 -16    1.20    1.10
   1   2 -16    1.30    1.60
   1   2 -16    1.50    1.60
  -1  -2  16   -0.10    1.20
  -1  -2  16    2.30    1.20
  -1  -2  16    1.40    1.10
   0   2 -16   11.00    1.30
   0  -2  16    9.40    1.70
   0  -2  16   13.40    1.70
  -1   2 -16   35.10    3.40
  -1   2 -16   33.40    3.30
  -1   2 -16   31.60    2.00
   1  -2  16   33.60    2.70
   1  -2  16   31.20    2.70
   1  -2  16   31.00    1.80
   1  -2  16   29.70    2.60
  -2   2 -16    4.70    2.10
  -2   2 -16    2.50    1.90
  -2   2 -16    5.70    1.20
   2  -2  16    5.70    1.50
   2  -2  16    6.40    1.30
   2  -2  16    4.30    1.70
  -3   2 -16   30.60    2.50
  -3   2 -16   26.80    2.90
   3  -2  16   27.30    2.70
   3  -2  16   24.70    3.00
   3  -2  16   26.00    2.90
   3  -2  16   22.30    2.60
  -4   2 -16   17.50    2.90
  -4   2 -16   19.30    2.70
   4  -2  16   16.50    2.20
   4  -2  16   15.70    2.80
   4  -2  16   18.50    2.50
   4  -2  16   15.80    3.20
   6   1 -16   11.20    2.50
  -6  -1  16    7.00    3.30
  -6  -1  16    8.00    2.50
   5   1 -16  109.99    4.90
   5   1 -16  115.19    6.30
  -5  -1  16  110.59    5.40
  -5  -1  16  111.19    6.50
   4   1 -16   26.40    2.80
   4   1 -16   31.40    2.60
   4   1 -16   24.10    4.60
  -4  -1  16   23.50    2.70
  -4  -1  16   27.20    3.10
   3   1 -16   -0.40    1.30
   3   1 -16    0.40    1.70
   3   1 -16   -1.70    2.00
  -3  -1  16    0.50    1.30
  -3  -1  16    0.90    1.70
   2   1 -16  320.57    9.60
   2   1 -16  323.27    9.90
   2   1 -16  336.77   10.50
  -2  -1  16  331.87   10.30
  -2  -1  16  310.87   10.00
  -2  -1  16  319.07    9.70
  -2  -1  16  313.27    9.60
   1   1 -16  612.84   17.50
   1   1 -16  589.54   17.60
   1   1 -16  647.14   18.20
  -1  -1  16  632.44   18.00
  -1  -1  16  614.84   17.40
  -1  -1  16  616.44   17.40
  -1  -1  16  606.44   17.90
   0   1 -16   31.80    3.00
   0   1 -16   30.40    2.20
   0   1 -16   33.50    3.10
   0  -1  16   32.10    2.60
   0  -1  16   29.70    2.70
   0  -1  16   32.70    2.40
  -1   1 -16    4.30    2.00
  -1   1 -16    6.20    1.20
  -1   1 -16    5.40    1.80
   1  -1  16    7.70    1.70
   1  -1  16    6.90    1.20
   1  -1  16    7.90    1.80
   1  -1  16    5.40    1.40
  -2   1 -16   56.59    2.90
  -2   1 -16   53.29    3.90
   2  -1  16   56.49    3.90
   2  -1  16   59.39    3.00
   2  -1  16   61.59    3.30
  -3   1 -16   25.40    2.60
  -3   1 -16   17.00    2.50
   3  -1  16   23.10    2.20
   3  -1  16   26.90    2.90
   3  -1  16   18.10    2.70
  -4   1 -16   74.89    4.20
  -4   1 -16   75.99    5.10
   4  -1  16   77.19    4.20
   4  -1  16   80.59    4.70
   6   0 -16   14.00    3.70
   6   0 -16   13.50    2.30
  -6   0  16   12.30    3.60
  -6   0  16   10.20    2.40
   5   0 -16    4.60    2.70
   5   0 -16   11.40    1.80
  -5   0  16   11.90    2.20
  -5   0  16   14.50    3.00
   4   0 -16  401.36   12.70
   4   0 -16  399.26   11.70
   4   0 -16  406.86   11.80
   4   0 -16  393.06   12.50
  -4   0  16  385.96   12.40
  -4   0  16  408.16   13.00
   3   0 -16  257.27    8.60
   3   0 -16  265.87    8.70
   3   0 -16  253.47    7.80
  -3   0  16  251.07    8.50
  -3   0  16  262.17    9.00
   2   0 -16   78.39    3.60
   2   0 -16   81.69    3.70
   2   0 -16   83.39    4.00
  -2   0  16   82.19    3.30
  -2   0  16   84.69    4.30
  -2   0  16   74.99    3.70
   1   0 -16    4.20    1.30
   1   0 -16    4.50    1.50
  -1   0  16    3.30    1.40
  -1   0  16    4.00    1.40
  -1   0  16    4.90    1.10
   0   0 -16    1.40    1.60
   0   0 -16    0.40    1.30
   0   0 -16    1.40    1.10
   0   0  16    1.20    1.30
   0   0  16   -0.10    1.30
   0   0  16    0.80    1.00
   0   0  16    1.30    1.20
  -1   0 -16    0.90    1.00
  -1   0 -16    2.80    1.60
  -1   0 -16    1.00    1.60
   1   0  16    2.50    2.50
   1   0  16    1.60    1.50
   1   0  16    1.20    1.10
  -2   0 -16   79.99    4.40
  -2   0 -16   83.49    3.60
   2   0  16   74.39    4.50
   2   0  16   83.89    3.70
  -3   0 -16   -2.40    1.50
  -3   0 -16    1.30    1.90
   3   0  16    0.60    1.70
   3   0  16    0.10    1.90
   3   0  16    1.30    2.40
  -4   0 -16    9.50    2.20
  -4   0 -16    9.40    2.70
   4   0  16    3.50    2.90
   4   0  16    6.60    2.50
   6  -1 -16   12.80    3.80
  -6   1  16   11.40    2.40
   5  -1 -16  172.28    5.80
   5  -1 -16  175.48    7.70
  -5   1  16  168.68    7.90
  -5   1  16  168.18    6.70
   4  -1 -16   23.50    2.70
   4  -1 -16   28.70    2.60
   4  -1 -16   25.60    1.90
  -4   1  16   21.10    2.90
  -4   1  16   24.40    2.80
   3  -1 -16   36.60    3.70
   3  -1 -16   35.40    2.80
   3  -1 -16   36.30    2.80
  -3   1  16   41.90    3.90
  -3   1  16   33.90    2.70
   2  -1 -16   22.00    2.40
   2  -1 -16   24.30    2.20
   2  -1 -16   20.00    1.80
  -2   1  16   20.50    2.30
  -2   1  16   18.50    2.30
   1  -1 -16   27.80    3.10
   1  -1 -16   29.80    1.90
   1  -1 -16   28.80    2.30
   1  -1 -16   25.90    2.40
  -1   1  16   26.10    2.50
  -1   1  16   25.80    1.80
  -1   1  16   23.90    2.40
   0  -1 -16  222.88    7.10
   0  -1 -16  205.18    7.40
   0  -1 -16  212.18    6.90
   0   1  16  199.28    8.10
   0   1  16  205.78    7.30
   0   1  16  213.98    6.30
   0   1  16  226.58    6.80
   0   1  16  203.88    6.50
  -1  -1 -16    9.30    1.90
  -1  -1 -16   11.70    2.50
   1   1  16   10.80    2.10
   1   1  16   11.90    1.60
   1   1  16    9.60    2.40
  -2  -1 -16   40.80    3.00
  -2  -1 -16   42.50    3.60
   2   1  16   33.30    3.70
   2   1  16   44.40    3.30
   2   1  16   38.90    3.40
  -3  -1 -16   -1.10    2.20
  -3  -1 -16    2.10    1.70
   3   1  16    2.40    2.40
   3   1  16    3.70    2.20
   3   1  16   -0.20    2.00
  -4  -1 -16    2.40    2.30
   4   1  16   -1.90    2.70
   4   1  16   -1.00    2.70
   6  -2 -16    0.80    3.40
  -6   2  16    2.30    2.20
   5  -2 -16    8.70    2.40
   5  -2 -16    7.60    2.50
  -5   2  16    6.30    2.00
  -5   2  16    6.80    2.90
   4  -2 -16   48.50    4.10
   4  -2 -16   46.50    4.20
  -4   2  16   44.10    4.90
  -4   2  16   47.20    3.30
   3  -2 -16   31.70    2.50
   3  -2 -16   37.90    3.70
   3  -2 -16   38.20    3.20
  -3   2  16   35.30    3.40
  -3   2  16   35.20    2.70
   2  -2 -16  282.77    8.50
   2  -2 -16  279.97    9.00
   2  -2 -16  267.17    8.50
  -2   2  16  283.27    9.00
  -2   2  16  283.97    9.80
   1  -2 -16   15.40    1.80
   1  -2 -16   15.70    1.70
   1  -2 -16   18.30    2.20
   1  -2 -16   16.40    1.70
  -1   2  16   13.20    1.90
  -1   2  16   14.30    2.30
   0  -2 -16   24.20    2.40
   0  -2 -16   22.60    2.30
   0  -2 -16   19.30    1.90
   0  -2 -16   29.00    2.90
   0   2  16   21.20    2.30
   0   2  16   29.20    3.40
   0   2  16   24.00    2.60
  -1  -2 -16   20.70    2.30
  -1  -2 -16   26.10    2.70
   1   2  16   24.00    2.80
   1   2  16   25.60    2.40
  -2  -2 -16   24.70    2.50
  -2  -2 -16   23.00    2.60
   2   2  16   25.10    2.70
   2   2  16   26.10    2.70
   2   2  16   26.00    3.20
  -3  -2 -16   15.90    2.70
  -3  -2 -16   15.60    2.40
   3   2  16   21.80    3.00
   3   2  16   15.20    3.40
   6  -3 -16   -4.70    3.10
  -6   3  16   -0.20    2.10
   5  -3 -16   32.70    3.60
   5  -3 -16   53.39    5.10
  -5   3  16   47.70    3.50
   4  -3 -16  167.08    7.30
   4  -3 -16  171.48    6.90
  -4   3  16  149.49    7.60
  -4   3  16  163.08    6.20
   3  -3 -16  134.79    5.70
   3  -3 -16  144.79    6.30
  -3   3  16  133.19    6.80
  -3   3  16  129.19    5.30
   2  -3 -16   34.40    3.10
   2  -3 -16   33.50    2.20
  -2   3  16   29.20    3.20
  -2   3  16   33.80    2.80
   1  -3 -16   44.60    2.60
   1  -3 -16   51.49    3.60
   1  -3 -16   42.20    3.20
  -1   3  16   51.09    4.40
  -1   3  16   49.60    3.30
   0  -3 -16   34.30    3.20
   0  -3 -16   32.70    2.90
   0   3  16   29.80    3.20
   0   3  16   35.40    4.10
   0   3  16   33.60    3.40
  -1  -3 -16   41.00    3.50
  -1  -3 -16   44.50    3.50
   1   3  16   45.20    4.50
   1   3  16   48.00    4.00
   1   3  16   40.10    3.90
  -2  -3 -16   59.79    4.70
  -2  -3 -16   75.79    4.30
   2   3  16   76.69    5.30
   2   3  16   79.59    5.00
   2   3  16   68.09    5.40
  -3  -3 -16    2.30    2.50
  -3  -3 -16    2.60    4.20
   3   3  16    1.70    2.90
   3   3  16    3.30    3.10
   5  -4 -16  189.28    8.20
   5  -4 -16  187.88    8.60
  -5   4  16  197.18    7.20
   4  -4 -16   27.10    3.00
   4  -4 -16   34.30    3.90
  -4   4  16   34.30    3.20
   3  -4 -16  178.28    7.10
   3  -4 -16  183.98    7.90
  -3   4  16  178.98    6.60
   2  -4 -16    0.80    1.70
  -2   4  16    1.10    1.70
   1  -4 -16   25.10    2.60
   1  -4 -16   30.20    2.70
  -1   4  16   26.20    3.40
  -1   4  16   25.10    2.60
  -1   4  16   28.50    3.10
   0  -4 -16   90.79    4.70
   0  -4 -16   99.69    4.90
   0   4  16  101.89    5.30
  -1  -4 -16   36.90    3.20
  -1  -4 -16   39.40    3.90
   1   4  16   38.70    3.60
   1   4  16   32.90    3.60
  -2  -4 -16   70.39    4.90
  -2  -4 -16   64.39    4.80
   2   4  16   63.29    5.60
   2   4  16   74.19    5.80
   5  -5 -16   19.70    3.80
   5  -5 -16   19.10    3.90
  -5   5  16   23.20    2.70
   4  -5 -16  172.08    8.40
   4  -5 -16  170.08    7.50
  -4   5  16  171.38    6.60
   3  -5 -16  120.69    6.00
   3  -5 -16  125.09    7.20
  -3   5  16  129.39    6.30
  -3   5  16  121.49    5.40
   2  -5 -16    6.30    2.30
   2  -5 -16    3.10    2.10
  -2   5  16    2.90    1.90
  -2   5  16    2.80    2.20
   1  -5 -16  235.48    8.40
   1  -5 -16  230.18    8.10
  -1   5  16  224.78    8.40
   0  -5 -16  162.88    6.60
   0  -5 -16  159.98    6.70
   0   5  16  156.58    7.10
  -1  -5 -16   75.39    5.40
  -1  -5 -16   82.39    5.30
   1   5  16   82.39    6.30
   1   5  16   89.89    6.40
   4  -6 -16    6.10    3.80
   3  -6 -16   31.50    4.60
   3  -6 -16   32.70    3.70
  -3   6  16   35.50    3.70
  -3   6  16   29.90    3.10
   2  -6 -16  110.59    5.90
   2  -6 -16  102.79    7.80
  -2   6  16  117.29    5.80
   1  -6 -16  230.28    9.20
   1  -6 -16  249.58    8.90
  -1   6  16  246.48    9.30
  -2  -6  17   40.90    3.40
  -2  -6  17   41.60    4.40
   1   6 -17   15.90    4.40
  -1  -6  17   30.60    3.20
  -1  -6  17   25.40    2.60
   0   6 -17    0.70    3.70
   0  -6  17    5.60    2.00
   0  -6  17    4.90    2.20
  -1   6 -17   46.90    5.10
   1  -6  17   59.09    4.50
   1  -6  17   50.19    3.80
   1  -6  17   50.49    3.60
  -2   6 -17    3.70    3.40
   2  -6  17    0.10    2.10
   2  -6  17    3.50    2.10
   2  -6  17    3.00    2.30
   3   5 -17   51.19    5.50
  -3  -5  17   55.59    4.50
  -3  -5  17   57.09    3.90
   2   5 -17    1.00    3.60
  -2  -5  17    2.50    1.60
  -2  -5  17   -1.20    1.80
   1   5 -17   23.10    3.70
  -1  -5  17   30.70    3.40
  -1  -5  17   29.00    2.90
   0   5 -17  134.29    7.40
   0  -5  17  132.79    5.70
   0  -5  17  140.89    4.90
   0  -5  17  132.49    5.40
  -1   5 -17   49.90    5.60
   1  -5  17   48.40    3.60
   1  -5  17   51.59    3.30
   1  -5  17   54.69    3.90
  -2   5 -17    4.80    3.40
   2  -5  17    7.60    2.10
   2  -5  17    6.70    2.20
   2  -5  17    6.30    2.20
  -3   5 -17    3.90    3.50
  -3   5 -17    9.50    3.00
   3  -5  17    4.20    2.30
   3  -5  17    3.60    2.60
   3  -5  17    1.20    2.50
   4   4 -17  132.99    6.20
   4   4 -17  134.29    8.70
  -4  -4  17  122.99    7.10
  -4  -4  17  149.49    6.70
   3   4 -17    2.30    3.10
  -3  -4  17    0.60    1.90
  -3  -4  17    0.60    1.70
   2   4 -17    3.00    2.80
  -2  -4  17    0.10    1.70
  -2  -4  17    1.60    1.50
   1   4 -17  200.98    8.70
  -1  -4  17  210.58    7.40
  -1  -4  17  229.98    7.60
   0   4 -17   68.89    5.30
   0  -4  17   68.79    3.90
   0  -4  17   64.69    3.70
  -1   4 -17   69.59    5.30
   1  -4  17   77.89    4.10
   1  -4  17   77.39    3.70
   1  -4  17   73.49    4.00
  -2   4 -17   -2.60    2.60
  -2   4 -17    3.00    2.60
   2  -4  17   -2.30    1.80
   2  -4  17   -2.60    1.70
   2  -4  17    0.00    1.80
  -3   4 -17   48.40    5.60
  -3   4 -17   50.89    4.90
   3  -4  17   49.20    4.10
   3  -4  17   60.79    4.10
   3  -4  17   52.09    4.60
   4   3 -17   43.10    3.80
   4   3 -17   34.80    4.30
  -4  -3  17   36.50    3.60
  -4  -3  17   49.10    4.70
   3   3 -17   15.90    3.40
  -3  -3  17   13.20    2.00
  -3  -3  17   11.50    2.10
   2   3 -17    8.90    2.60
   2   3 -17   10.40    1.80
  -2  -3  17   11.80    2.10
  -2  -3  17   12.40    1.80
   1   3 -17    0.70    2.10
   1   3 -17    2.60    1.30
  -1  -3  17    0.20    1.40
  -1  -3  17    2.30    1.40
   0   3 -17   54.49    2.70
   0   3 -17   53.69    4.40
   0  -3  17   53.59    3.30
   0  -3  17   59.89    3.50
  -1   3 -17    3.10    2.20
  -1   3 -17    4.10    2.30
   1  -3  17    1.30    1.50
   1  -3  17    2.40    1.50
  -2   3 -17   59.29    4.60
  -2   3 -17   60.79    4.90
   2  -3  17   63.09    3.80
   2  -3  17   64.09    3.80
   2  -3  17   60.69    4.00
  -3   3 -17   -3.00    2.20
  -3   3 -17    3.10    3.00
   3  -3  17    0.90    2.10
   3  -3  17    2.70    2.00
   3  -3  17    2.70    1.70
  -4   3 -17   -4.20    2.60
   4  -3  17    3.40    2.10
   4  -3  17    1.50    2.70
   5   2 -17    0.80    2.10
  -5  -2  17    3.10    2.80
  -5  -2  17    3.30    2.20
   4   2 -17    7.60    2.80
   4   2 -17   10.20    2.00
  -4  -2  17   13.20    2.70
  -4  -2  17   10.70    2.10
   3   2 -17  111.69    6.20
   3   2 -17  110.79    5.10
  -3  -2  17  116.09    5.30
  -3  -2  17  106.79    4.90
   2   2 -17  204.88    8.00
   2   2 -17  210.28    7.10
  -2  -2  17  213.78    7.30
  -2  -2  17  216.08    7.50
   1   2 -17  346.07   11.30
   1   2 -17  379.06   10.90
   1   2 -17  377.06   12.00
  -1  -2  17  370.66   11.40
  -1  -2  17  377.66   11.50
  -1  -2  17  360.06   10.80
   0   2 -17   24.20    2.70
   0   2 -17   20.20    2.00
   0  -2  17   21.60    2.20
   0  -2  17   21.90    2.20
  -1   2 -17   25.50    2.80
  -1   2 -17   26.30    2.70
  -1   2 -17   33.70    2.20
   1  -2  17   33.80    2.10
   1  -2  17   31.00    2.80
   1  -2  17   30.70    2.80
  -2   2 -17    3.10    2.20
  -2   2 -17    2.40    2.10
  -2   2 -17    3.70    1.20
   2  -2  17    2.10    1.90
   2  -2  17    3.10    1.60
   2  -2  17    2.90    1.20
  -3   2 -17  119.19    4.60
  -3   2 -17  133.29    6.00
   3  -2  17  118.89    5.10
   3  -2  17  113.19    6.10
   3  -2  17  125.79    4.80
  -4   2 -17    2.30    2.90
   4  -2  17    4.20    2.20
   4  -2  17    5.30    2.10
   4  -2  17    5.70    3.20
   5   1 -17   32.30    3.30
   5   1 -17   34.70    3.80
  -5  -1  17   36.70    4.00
   4   1 -17   19.00    2.80
   4   1 -17   21.40    2.00
   4   1 -17   22.90    3.00
  -4  -1  17   22.20    3.00
  -4  -1  17   16.70    2.20
   3   1 -17    1.50    1.50
   3   1 -17    2.40    2.20
   3   1 -17    1.70    2.00
  -3  -1  17    0.30    1.70
  -3  -1  17   -0.50    1.30
   2   1 -17   47.20    3.30
   2   1 -17   46.80    3.90
   2   1 -17   55.49    3.90
  -2  -1  17   43.90    3.00
  -2  -1  17   47.60    3.50
  -2  -1  17   48.00    3.10
   1   1 -17   15.70    2.20
   1   1 -17   17.10    1.70
  -1  -1  17   18.00    2.10
  -1  -1  17   18.20    2.20
  -1  -1  17   14.30    1.70
  -1  -1  17   17.20    1.70
   0   1 -17   70.49    4.80
   0   1 -17   79.29    3.30
   0   1 -17   71.89    4.20
   0  -1  17   70.39    3.70
   0  -1  17   67.09    3.40
   0  -1  17   72.89    4.20
   0  -1  17   73.59    3.80
  -1   1 -17  195.68    7.40
  -1   1 -17  195.88    6.30
  -1   1 -17  204.98    7.30
   1  -1  17  200.28    6.90
   1  -1  17  193.38    7.30
   1  -1  17  197.68    6.20
  -2   1 -17   32.40    3.10
  -2   1 -17   30.30    2.50
  -2   1 -17   35.20    3.70
   2  -1  17   34.30    3.60
   2  -1  17   35.20    2.70
   2  -1  17   29.10    3.00
  -3   1 -17   15.20    2.80
  -3   1 -17   18.40    2.10
   3  -1  17   14.10    2.20
   3  -1  17   16.20    2.60
   3  -1  17   12.90    2.90
  -4   1 -17   60.89    5.40
  -4   1 -17   66.79    4.40
   4  -1  17   61.99    5.70
   4  -1  17   62.69    4.60
   4  -1  17   70.39    4.90
   5   0 -17    1.40    2.70
   5   0 -17    2.60    1.50
  -5   0  17    2.60    2.10
  -5   0  17    4.00    3.00
   4   0 -17   25.80    2.30
   4   0 -17   28.70    3.00
   4   0 -17   23.20    3.00
  -4   0  17   25.90    3.20
  -4   0  17   26.40    2.90
   3   0 -17    4.00    3.00
   3   0 -17    3.50    1.90
  -3   0  17    2.70    2.00
  -3   0  17    4.00    1.50
   2   0 -17   31.00    3.00
   2   0 -17   30.30    2.80
   2   0 -17   23.80    2.80
  -2   0  17   28.00    2.50
  -2   0  17   22.30    2.40
   1   0 -17   59.79    3.60
   1   0 -17   56.79    3.10
  -1   0  17   53.19    3.20
  -1   0  17   56.99    3.70
   0   0 -17   33.90    2.40
   0   0 -17   31.60    3.00
   0   0 -17   32.20    3.00
   0   0  17   36.50    3.10
   0   0  17   29.80    2.70
   0   0  17   31.90    2.80
  -1   0 -17  446.96   14.00
  -1   0 -17  447.06   13.30
  -1   0 -17  458.75   13.90
   1   0  17  466.25   13.80
   1   0  17  465.55   13.20
   1   0  17  445.96   14.10
  -2   0 -17   50.99    4.10
  -2   0 -17   46.60    3.10
   2   0  17   43.10    4.00
   2   0  17   47.00    3.20
   2   0  17   50.19    3.60
  -3   0 -17   11.30    2.10
  -3   0 -17    9.80    2.70
   3   0  17    8.20    2.70
   3   0  17   12.80    2.30
   3   0  17   14.50    2.40
   6  -1 -17   97.19    7.20
  -6   1  17   97.79    5.40
   5  -1 -17    0.60    2.80
  -5   1  17    1.30    1.80
  -5   1  17    1.60    2.70
   4  -1 -17    2.00    2.00
   4  -1 -17    3.90    2.30
  -4   1  17    5.30    1.70
  -4   1  17    2.00    2.50
   3  -1 -17   44.70    3.60
   3  -1 -17   41.90    3.20
  -3   1  17   44.80    3.10
  -3   1  17   46.30    4.30
   2  -1 -17    2.70    1.40
  -2   1  17    2.40    1.30
  -2   1  17    1.50    2.00
   1  -1 -17  147.39    5.40
   1  -1 -17  151.18    6.10
   1  -1 -17  148.29    5.50
  -1   1  17  148.19    6.20
  -1   1  17  148.69    5.70
   0  -1 -17  180.08    6.40
   0  -1 -17  182.78    6.80
   0   1  17  174.38    6.90
   0   1  17  175.78    6.60
  -1  -1 -17    4.60    2.10
  -1  -1 -17    3.90    1.50
   1   1  17    1.90    1.80
   1   1  17    4.30    1.90
   1   1  17    2.90    1.60
  -2  -1 -17   12.00    2.30
  -2  -1 -17   13.00    1.90
   2   1  17    7.10    2.30
   2   1  17   11.60    2.20
  -3  -1 -17    7.40    2.10
  -3  -1 -17    3.60    2.60
   3   1  17    0.70    2.30
   3   1  17    1.50    2.40
   3   1  17    3.10    2.60
   6  -2 -17   11.90    3.90
  -6   2  17    5.60    2.30
   5  -2 -17    8.30    3.00
  -5   2  17    4.90    2.10
  -5   2  17    6.10    3.40
   4  -2 -17   37.90    4.10
   4  -2 -17   45.90    4.60
  -4   2  17   40.20    3.20
  -4   2  17   34.70    4.00
   3  -2 -17   13.30    2.10
   3  -2 -17   13.00    1.70
  -3   2  17    9.50    2.70
  -3   2  17   12.40    1.90
   2  -2 -17  224.08    7.20
   2  -2 -17  234.18    7.70
  -2   2  17  226.08    8.70
  -2   2  17  212.18    7.60
   1  -2 -17    1.20    1.40
   1  -2 -17   -0.30    1.60
   1  -2 -17    1.90    1.50
  -1   2  17    1.30    1.50
  -1   2  17    0.20    2.10
   0  -2 -17   92.69    4.60
   0  -2 -17   96.49    4.10
   0  -2 -17   89.79    4.20
   0   2  17   88.39    5.10
   0   2  17   90.09    4.50
  -1  -2 -17   22.80    2.30
  -1  -2 -17   20.00    2.70
   1   2  17   17.90    2.80
   1   2  17   19.40    2.20
   1   2  17   20.60    2.70
  -2  -2 -17   25.20    2.90
  -2  -2 -17   30.70    2.80
   2   2  17   19.40    3.00
   2   2  17   26.80    3.10
   2   2  17   33.70    3.10
  -3  -2 -17   72.89    6.80
  -3  -2 -17   75.09    4.70
   3   2  17   75.49    5.40
   3   2  17   62.79    5.70
   5  -3 -17   12.30    3.30
   5  -3 -17    9.00    3.30
  -5   3  17   13.00    2.30
   4  -3 -17  184.58    7.50
   4  -3 -17  188.38    7.90
  -4   3  17  167.58    8.30
  -4   3  17  177.08    6.70
   3  -3 -17   11.00    2.30
   3  -3 -17   14.20    2.90
  -3   3  17   14.90    2.10
  -3   3  17   14.20    3.10
   2  -3 -17   87.09    4.40
  -2   3  17   84.69    4.30
  -2   3  17   88.39    5.90
   1  -3 -17   79.49    3.50
   1  -3 -17   84.39    4.30
   1  -3 -17   80.49    4.60
  -1   3  17   77.19    5.50
  -1   3  17   84.39    4.30
   0  -3 -17   78.19    4.20
   0  -3 -17   78.29    4.50
   0  -3 -17   77.59    3.80
   0   3  17   79.39    4.70
   0   3  17   85.39    5.40
  -1  -3 -17   98.29    4.80
  -1  -3 -17   88.39    4.90
   1   3  17   94.39    5.40
   1   3  17   93.39    5.80
   1   3  17   96.09    5.10
  -2  -3 -17  282.97    9.60
  -2  -3 -17  282.97    9.90
   2   3  17  252.97   10.60
   2   3  17  287.97    9.90
   5  -4 -17  131.89    7.90
   5  -4 -17  135.19    7.10
  -5   4  17  137.49    6.00
   4  -4 -17    1.80    3.20
   4  -4 -17    6.20    2.80
  -4   4  17   10.40    2.10
   3  -4 -17   66.59    5.60
   3  -4 -17   64.99    4.50
  -3   4  17   55.09    3.80
   2  -4 -17  122.69    5.60
  -2   4  17  120.89    5.40
   1  -4 -17  127.09    5.70
   1  -4 -17  137.09    6.00
  -1   4  17  123.79    6.90
  -1   4  17  124.69    5.60
   0  -4 -17  190.78    7.30
   0  -4 -17  182.18    7.10
   0   4  17  182.28    7.60
  -1  -4 -17   40.90    4.30
  -1  -4 -17   36.00    3.30
   1   4  17   35.00    4.00
   1   4  17   35.30    3.80
   4  -5 -17   13.30    2.90
   4  -5 -17   14.90    4.00
  -4   5  17   14.50    2.40
   3  -5 -17   10.70    3.70
   3  -5 -17    2.30    2.70
  -3   5  17    1.40    1.90
  -3   5  17    3.50    2.90
   2  -5 -17  143.99    6.40
  -2   5  17  137.09    6.10
   1  -5 -17   -3.20    2.40
   1  -5 -17    1.80    2.20
  -1   5  17    0.90    2.30
   0  -5 -17    3.80    2.30
   0  -5 -17    3.00    2.40
   0   5  17    7.70    2.90
   0   6 -18    4.80    4.70
   0  -6  18   -0.20    2.30
   0  -6  18    1.60    2.00
   1  -6  18   14.90    2.60
   2   5 -18   10.60    4.40
  -2  -5  18    8.40    2.30
  -2  -5  18    7.50    2.00
   1   5 -18   12.50    3.60
  -1  -5  18   10.80    2.00
  -1  -5  18   11.10    2.20
   0   5 -18  148.09    8.10
   0  -5  18  154.48    6.00
   0  -5  18  147.79    6.20
  -1   5 -18  114.69    7.40
   1  -5  18  114.79    4.90
   1  -5  18  118.69    5.50
   1  -5  18  112.99    5.30
  -2   5 -18   64.69    6.30
   2  -5  18   65.49    4.30
   2  -5  18   59.59    4.50
   2  -5  18   68.79    4.70
   3   4 -18   11.90    4.20
  -3  -4  18   11.90    2.20
  -3  -4  18    6.20    2.30
   2   4 -18   13.80    3.70
  -2  -4  18   13.50    2.30
  -2  -4  18   12.50    2.00
   1   4 -18   76.49    5.80
  -1  -4  18   75.29    4.10
  -1  -4  18   78.79    4.30
   0   4 -18    3.50    2.70
   0  -4  18    6.00    1.80
   0  -4  18    4.90    2.00
  -1   4 -18  132.29    6.90
   1  -4  18  130.59    5.60
   1  -4  18  125.39    5.50
  -2   4 -18   36.10    4.20
  -2   4 -18   33.60    3.70
   2  -4  18   33.90    3.60
   2  -4  18   35.90    3.90
   2  -4  18   34.30    3.50
  -3   4 -18    3.80    3.60
  -3   4 -18    6.50    3.00
   3  -4  18    3.20    2.10
   3  -4  18    4.10    2.80
   3  -4  18    3.80    2.50
   4   3 -18   16.20    3.90
  -4  -3  18   19.60    3.30
   3   3 -18   -3.20    3.00
  -3  -3  18   -1.70    1.80
  -3  -3  18   -0.50    1.50
   2   3 -18  140.89    7.20
  -2  -3  18  143.99    6.00
  -2  -3  18  145.19    5.60
   1   3 -18   99.09    5.70
  -1  -3  18   99.19    4.80
  -1  -3  18   96.79    4.40
   0   3 -18    6.70    2.60
   0  -3  18    1.10    1.40
   0  -3  18    2.30    1.60
  -1   3 -18   13.20    2.70
   1  -3  18   15.00    2.10
   1  -3  18   10.40    2.10
  -2   3 -18    8.10    2.70
  -2   3 -18   13.00    2.80
   2  -3  18   12.00    2.20
   2  -3  18    6.60    2.10
  -3   3 -18   27.90    3.70
  -3   3 -18   33.50    3.60
   3  -3  18   30.50    2.80
   3  -3  18   27.00    3.50
   3  -3  18   29.10    3.10
  -5  -2  18   20.00    3.60
   4   2 -18    2.20    2.90
  -4  -2  18    0.10    2.60
  -4  -2  18    0.60    1.90
   3   2 -18  332.77   11.80
   3   2 -18  331.67   10.60
  -3  -2  18  319.17   10.60
  -3  -2  18  329.67   11.00
   2   2 -18   76.19    4.00
   2   2 -18   79.59    5.30
  -2  -2  18   67.29    3.80
  -2  -2  18   79.79    4.40
   1   2 -18    5.10    1.70
   1   2 -18    2.00    2.10
  -1  -2  18    1.60    1.60
  -1  -2  18    1.40    1.40
   0   2 -18   59.29    3.00
   0   2 -18   62.69    4.40
   0  -2  18   63.19    3.80
   0  -2  18   61.09    3.70
  -1   2 -18    9.00    1.50
  -1   2 -18    8.30    2.30
  -1   2 -18   12.30    2.60
   1  -2  18   10.20    1.90
   1  -2  18   11.60    2.20
  -2   2 -18   38.50    4.20
  -2   2 -18   31.40    3.30
   2  -2  18   39.80    3.90
   2  -2  18   41.00    3.50
  -3   2 -18   98.99    6.00
  -3   2 -18   97.99    5.80
   3  -2  18   93.49    5.90
   3  -2  18   89.29    4.70
   5   1 -18   95.79    6.80
   5   1 -18  112.89    5.00
  -5  -1  18   99.89    5.40
  -5  -1  18  121.69    7.30
   4   1 -18    0.50    2.50
   4   1 -18    7.10    2.50
  -4  -1  18    2.50    2.40
  -4  -1  18    2.10    1.80
   3   1 -18   22.70    3.00
   3   1 -18   20.20    2.70
  -3  -1  18   14.70    2.20
  -3  -1  18   15.40    2.70
   2   1 -18    4.80    1.80
  -2  -1  18    4.50    1.50
  -2  -1  18    4.40    2.00
   1   1 -18    1.30    1.40
   1   1 -18    1.90    2.20
  -1  -1  18   -0.20    1.50
  -1  -1  18    1.10    1.50
   0   1 -18  139.79    6.20
   0   1 -18  134.69    4.90
   0   1 -18  138.49    6.00
   0  -1  18  135.89    5.60
   0  -1  18  131.19    5.60
  -1   1 -18   27.40    3.00
  -1   1 -18   25.00    2.80
  -1   1 -18   25.20    2.40
   1  -1  18   16.90    2.40
   1  -1  18   26.20    3.10
  -2   1 -18   -0.20    2.30
  -2   1 -18   -4.70    2.10
  -2   1 -18    0.60    1.40
   2  -1  18    1.40    2.00
   2  -1  18    1.00    1.60
   2  -1  18    0.00    1.50
  -3   1 -18   27.10    2.50
  -3   1 -18   30.60    3.50
   3  -1  18   26.10    3.90
   3  -1  18   27.20    2.70
   3  -1  18   26.90    2.70
   5   0 -18   27.10    3.70
  -5   0  18   24.40    4.00
  -5   0  18   19.00    2.70
   4   0 -18   13.40    2.90
   4   0 -18   15.60    2.70
  -4   0  18   13.50    2.30
  -4   0  18   12.50    3.00
   3   0 -18    3.00    1.90
   3   0 -18    2.70    2.10
  -3   0  18   -1.60    2.20
  -3   0  18    2.70    1.60
   2   0 -18   26.30    2.60
   2   0 -18   31.90    3.00
  -2   0  18   29.40    3.00
  -2   0  18   23.50    2.60
   1   0 -18   83.39    3.90
   1   0 -18   83.69    4.40
  -1   0  18   76.49    4.50
  -1   0  18   71.29    3.90
   0   0 -18   66.49    4.50
   0   0 -18   68.99    3.50
   0   0  18   67.79    4.10
   0   0  18   65.29    3.90
  -1   0 -18   67.29    4.50
  -1   0 -18   70.49    4.40
  -1   0 -18   66.99    4.20
   1   0  18   71.29    4.10
   1   0  18   71.49    4.40
   1   0  18   64.89    3.40
  -2   0 -18    1.50    2.30
  -2   0 -18    1.60    1.60
   2   0  18   -0.40    1.70
   2   0  18    2.00    1.90
   2   0  18    1.90    2.10
  -3   0 -18    6.90    2.10
  -3   0 -18    8.30    3.00
   3   0  18    8.90    2.50
   3   0  18    6.50    2.80
   3   0  18   11.80    2.50
   5  -1 -18   32.70    3.90
  -5   1  18   33.90    3.40
  -5   1  18   34.70    4.30
   4  -1 -18    5.00    2.40
   4  -1 -18    8.30    2.50
   4  -1 -18    2.70    2.00
  -4   1  18    7.30    2.00
  -4   1  18    4.00    2.80
   3  -1 -18  335.77   10.90
   3  -1 -18  343.47   10.60
  -3   1  18  334.37   11.60
  -3   1  18  318.77   10.60
   2  -1 -18    2.10    1.70
   2  -1 -18    0.10    1.60
  -2   1  18    0.50    1.50
  -2   1  18    3.10    2.10
   1  -1 -18   84.59    4.10
   1  -1 -18   83.69    4.70
   1  -1 -18   79.89    3.90
  -1   1  18   78.19    4.20
  -1   1  18   83.49    5.00
   0  -1 -18    2.80    1.50
   0  -1 -18    6.10    2.20
   0  -1 -18    5.50    1.70
   0   1  18    2.60    2.10
   0   1  18    4.10    1.80
  -1  -1 -18   12.80    2.00
  -1  -1 -18   15.80    2.70
  -1  -1 -18   14.20    2.30
   1   1  18   15.70    2.60
   1   1  18   14.80    2.10
   1   1  18   10.20    2.40
  -2  -1 -18   56.39    4.60
  -2  -1 -18   53.89    3.70
   2   1  18   47.60    4.70
   2   1  18   48.10    4.10
   2   1  18   57.49    4.60
  -3  -1 -18   17.70    2.70
   3   1  18   14.40    3.20
   3   1  18   25.10    3.30
   5  -2 -18  114.89    6.60
  -5   2  18  106.09    7.40
  -5   2  18   92.29    5.10
   4  -2 -18   13.40    2.80
   4  -2 -18   11.50    3.00
  -4   2  18    6.20    1.90
  -4   2  18   10.10    3.60
   3  -2 -18  226.38    8.10
  -3   2  18  219.78    7.90
  -3   2  18  228.98    9.30
   2  -2 -18    1.70    1.60
   2  -2 -18    2.70    1.80
  -2   2  18    1.20    1.60
  -2   2  18    1.00    2.40
   1  -2 -18   15.80    2.00
   1  -2 -18   20.30    2.10
   1  -2 -18   19.10    2.60
  -1   2  18   18.40    2.90
  -1   2  18   15.00    2.20
   0  -2 -18   94.09    4.30
   0  -2 -18   84.69    4.20
   0  -2 -18   86.49    4.90
   0   2  18   87.69    4.80
   0   2  18   88.39    5.40
  -1  -2 -18  169.38    7.10
  -1  -2 -18  168.68    6.40
   1   2  18  177.48    7.40
   1   2  18  160.78    7.30
   1   2  18  178.18    6.70
  -2  -2 -18   96.29    4.90
  -2  -2 -18   98.29    5.70
   2   2  18  100.69    5.50
   2   2  18   99.79    6.20
   2   2  18   89.79    5.90
   5  -3 -18   77.39    7.90
   5  -3 -18   75.69    6.20
  -5   3  18   81.29    4.70
   4  -3 -18  121.89    6.30
   4  -3 -18  117.79    6.80
  -4   3  18  121.59    7.40
  -4   3  18  113.99    5.30
   3  -3 -18   52.49    5.10
   3  -3 -18   61.49    4.30
  -3   3  18   55.29    3.70
  -3   3  18   40.40    4.30
   2  -3 -18    4.30    2.00
  -2   3  18   -0.30    2.70
  -2   3  18    2.60    1.70
   1  -3 -18  183.28    6.90
   1  -3 -18  190.88    7.50
  -1   3  18  179.48    7.10
  -1   3  18  190.28    8.40
   0  -3 -18    2.80    1.90
   0  -3 -18   -1.20    1.60
   0  -3 -18   -0.40    2.10
   0   3  18    1.70    2.10
   0   3  18   -1.10    2.50
  -1  -3 -18   58.89    4.70
  -1  -3 -18   55.69    4.20
   1   3  18   56.39    5.70
   1   3  18   69.99    4.80
   4  -4 -18   77.19    5.60
   4  -4 -18   80.59    6.80
  -4   4  18   87.19    4.80
   3  -4 -18  110.29    5.90
   3  -4 -18  114.09    6.80
  -3   4  18  102.59    5.20
   2  -4 -18   -0.70    2.20
  -2   4  18    1.60    2.00
   1  -4 -18  128.09    6.10
   1  -4 -18  122.79    5.90
  -1   4  18  116.99    7.20
  -1   4  18  120.39    5.90
   0  -4 -18    6.40    2.50
   0  -4 -18    5.60    2.30
   0   4  18    4.00    2.50
   3  -5 -18   92.49    7.30
   3  -5 -18   76.09    5.90
  -3   5  18   90.49    5.10
  -3   5  18   95.69    6.20
   2  -5 -18  175.48    7.50
  -2   5  18  172.48    7.30
   1  -5 -18   54.49    5.30
   1  -5 -18   65.89    5.30
  -1   5  18   56.19    5.10
   1   5 -19    1.50    4.00
  -1  -5  19    4.70    2.00
  -1  -5  19    6.00    2.30
   0   5 -19   87.89    7.30
   0  -5  19   86.19    5.20
   0  -5  19   86.09    4.60
  -1   5 -19    0.40    3.70
   1  -5  19    1.10    2.20
   1  -5  19    1.40    2.00
   3   4 -19   23.30    4.80
  -3  -4  19   30.30    3.40
   2   4 -19  149.49    8.20
  -2  -4  19  133.49    6.20
  -2  -4  19  126.49    5.60
   1   4 -19   23.40    3.90
  -1  -4  19   20.90    2.40
  -1  -4  19   25.80    2.90
   0   4 -19   22.50    3.80
   0  -4  19   20.40    2.60
   0  -4  19   22.20    2.60
  -1   4 -19   10.30    3.40
   1  -4  19   11.50    2.40
   1  -4  19    8.70    2.20
  -2   4 -19    0.20    3.30
   2  -4  19    2.30    2.30
   2  -4  19    5.20    2.10
   2  -4  19    6.30    2.30
   3   3 -19   25.40    4.20
  -3  -3  19   17.50    2.30
  -3  -3  19   19.90    2.90
   2   3 -19   21.30    3.60
  -2  -3  19   29.20    3.00
  -2  -3  19   27.00    2.80
   1   3 -19    2.00    2.90
  -1  -3  19    3.60    2.00
  -1  -3  19    1.50    1.50
   0   3 -19   49.40    4.80
   0  -3  19   42.10    3.70
   0  -3  19   44.10    3.40
  -1   3 -19   22.20    3.40
   1  -3  19   25.00    2.80
   1  -3  19   31.80    3.40
  -2   3 -19   55.79    5.40
  -2   3 -19   56.39    5.60
   2  -3  19   57.19    4.20
   2  -3  19   55.19    4.40
   4   2 -19   25.70    3.80
   4   2 -19   28.10    3.70
  -4  -2  19   33.10    3.70
  -4  -2  19   26.00    2.90
   3   2 -19   12.50    2.70
   3   2 -19   12.40    3.40
  -3  -2  19    8.00    2.60
  -3  -2  19    6.10    1.90
   2   2 -19    3.40    2.10
   2   2 -19    8.40    3.00
  -2  -2  19    7.90    1.80
  -2  -2  19   10.00    2.40
   1   2 -19    2.90    1.70
   1   2 -19   -1.70    2.40
  -1  -2  19    1.70    1.50
  -1  -2  19    0.00    1.60
   0   2 -19   33.30    2.90
   0   2 -19   34.10    3.50
   0  -2  19   33.00    3.40
   0  -2  19   34.40    3.20
  -1   2 -19   18.00    2.90
  -1   2 -19   14.10    2.90
   1  -2  19   12.80    2.40
   1  -2  19   11.90    2.10
  -2   2 -19   31.20    3.60
  -2   2 -19   31.50    3.60
   2  -2  19   28.10    3.20
   2  -2  19   32.20    3.70
  -3   2 -19    2.50    3.20
  -3   2 -19   -1.20    3.10
   3  -2  19   -0.60    2.00
   3  -2  19    3.20    2.60
   4   1 -19    4.70    2.90
   4   1 -19   -3.40    2.60
  -4  -1  19    1.40    2.70
  -4  -1  19    0.70    2.50
   3   1 -19    6.70    2.70
   3   1 -19    1.90    2.30
  -3  -1  19    1.70    2.40
  -3  -1  19    4.30    1.70
   2   1 -19   19.70    2.90
   2   1 -19   28.00    2.70
  -2  -1  19   15.80    2.60
  -2  -1  19   24.70    2.60
   1   1 -19    7.60    2.30
   1   1 -19    9.60    1.80
  -1  -1  19   10.00    2.20
  -1  -1  19    9.10    2.00
   0   1 -19  552.14   16.50
   0   1 -19  521.45   15.50
   0   1 -19  543.15   16.70
   0  -1  19  517.35   16.30
   0  -1  19  548.65   16.20
  -1   1 -19   13.20    2.60
  -1   1 -19   16.80    3.00
  -1   1 -19   12.40    1.80
   1  -1  19   12.00    2.30
   1  -1  19   11.10    2.10
  -2   1 -19   62.19    5.00
  -2   1 -19   55.09    5.10
  -2   1 -19   50.99    3.90
   2  -1  19   57.29    4.50
   2  -1  19   49.00    4.10
  -3   1 -19   13.60    5.30
   3  -1  19    8.80    2.60
   3  -1  19   10.40    2.90
   5   0 -19   14.90    3.80
  -5   0  19   17.70    4.10
  -5   0  19   12.80    2.30
   4   0 -19   52.89    5.50
   4   0 -19   58.79    5.40
  -4   0  19   66.39    5.90
  -4   0  19   66.29    6.30
   3   0 -19    7.60    2.40
   3   0 -19    7.30    2.50
  -3   0  19    3.50    2.50
  -3   0  19    7.20    1.80
   2   0 -19  110.99    5.00
   2   0 -19  108.49    5.20
  -2   0  19  107.89    4.90
  -2   0  19  113.79    5.90
   1   0 -19   -2.00    2.40
  -1   0  19    1.40    2.10
  -1   0  19    1.50    1.60
   0   0 -19  169.38    6.70
   0   0 -19  154.08    7.00
   0   0  19  159.38    6.50
   0   0  19  166.78    6.80
  -1   0 -19    0.40    2.10
  -1   0 -19    2.50    2.50
  -1   0 -19    1.90    1.60
   1   0  19    1.90    2.20
   1   0  19    0.10    2.00
  -2   0 -19   82.69    4.20
  -2   0 -19   83.09    5.50
  -2   0 -19   79.59    5.30
   2   0  19   71.49    5.20
   2   0  19   74.99    5.00
   5  -1 -19   31.70    4.10
  -5   1  19   25.10    4.30
  -5   1  19   23.30    2.90
   4  -1 -19  100.49    5.80
  -4   1  19  102.69    6.90
  -4   1  19  103.89    6.50
   3  -1 -19    7.40    2.20
   3  -1 -19    7.90    2.20
  -3   1  19    3.00    1.70
  -3   1  19    6.70    2.90
   2  -1 -19   29.80    3.30
   2  -1 -19   29.10    2.70
  -2   1  19   29.10    3.40
  -2   1  19   31.40    3.00
   1  -1 -19   93.19    5.60
   1  -1 -19  112.49    4.80
   1  -1 -19  113.79    5.00
  -1   1  19   96.09    4.80
  -1   1  19  102.89    5.80
   0  -1 -19  100.09    5.50
   0  -1 -19   94.59    4.80
   0  -1 -19   92.69    4.40
   0   1  19   92.89    5.40
   0   1  19   89.09    4.80
  -1  -1 -19   40.90    3.90
  -1  -1 -19   41.50    3.80
  -1  -1 -19   42.50    3.40
   1   1  19   41.40    4.50
   1   1  19   43.70    4.30
   1   1  19   39.80    3.50
  -2  -1 -19  192.28    8.30
  -2  -1 -19  194.78    7.20
   2   1  19  197.38    8.20
   2   1  19  194.08    8.30
   2   1  19  203.38    7.50
   5  -2 -19  223.38    9.70
  -5   2  19  241.98   13.00
  -5   2  19  229.18    8.50
   4  -2 -19    4.90    3.10
   4  -2 -19    4.60    2.60
  -4   2  19    5.90    3.80
   3  -2 -19   84.89    5.00
  -3   2  19   77.79    4.40
  -3   2  19   85.19    6.50
   2  -2 -19   66.19    4.40
  -2   2  19   68.89    4.00
  -2   2  19   64.39    5.80
   1  -2 -19   14.30    2.10
   1  -2 -19   17.60    2.70
   1  -2 -19   18.80    2.30
  -1   2  19   15.80    2.50
  -1   2  19   11.50    2.90
   0  -2 -19  205.28    8.20
   0  -2 -19  194.78    7.30
   0  -2 -19  216.28    7.50
   0   2  19  212.78    8.10
   0   2  19  210.08    8.60
  -1  -2 -19  144.89    6.20
  -1  -2 -19  159.68    7.20
  -1  -2 -19  165.68    6.60
   1   2  19  138.19    7.10
   1   2  19  165.08    7.50
   1   2  19  166.08    6.50
   4  -3 -19   47.60    4.70
   4  -3 -19   37.20    3.70
  -4   3  19   44.10    4.40
  -4   3  19   30.30    4.20
   3  -3 -19   -0.20    3.10
   3  -3 -19   -0.30    2.30
  -3   3  19   -3.10    3.10
  -3   3  19    0.80    1.80
   2  -3 -19  111.69    5.40
  -2   3  19   96.19    4.90
  -2   3  19   91.69    6.90
   1  -3 -19   49.90    4.10
   1  -3 -19   56.79    4.80
  -1   3  19   55.39    5.90
  -1   3  19   53.59    4.00
   0  -3 -19   -0.60    2.10
   0  -3 -19    0.10    2.50
   0   3  19    1.20    2.90
  -1  -3 -19   10.30    2.60
  -1  -3 -19    5.90    2.90
   1   3  19   11.50    3.60
   1   3  19   10.60    3.10
   1   3  19   12.40    3.00
   3  -4 -19   48.00    4.90
   3  -4 -19   48.90    4.90
  -3   4  19   48.40    5.50
   2  -4 -19   69.59    5.00
  -2   4  19   61.79    4.50
   1  -4 -19  117.69    5.90
   1  -4 -19  116.29    6.10
  -1   4  19   95.19    7.40
   2   4 -20   97.19    8.10
  -2  -4  20   89.29    5.50
  -2  -4  20   88.09    5.80
   1   4 -20   11.00    3.80
  -1  -4  20   13.70    2.50
  -1  -4  20   16.60    2.40
   0   4 -20    3.10    3.40
   0  -4  20    2.90    2.00
   0  -4  20    1.50    2.10
  -1   4 -20    3.50    3.30
   1  -4  20   -1.30    2.10
   1  -4  20    3.00    2.30
   3   3 -20    9.50    4.00
  -3  -3  20    9.50    2.70
  -3  -3  20    8.10    2.30
   2   3 -20   20.10    3.90
  -2  -3  20   11.80    2.10
  -2  -3  20   17.20    2.80
   1   3 -20    3.50    3.10
  -1  -3  20    1.50    1.70
  -1  -3  20   -0.60    1.90
   0   3 -20   26.40    3.70
   0  -3  20   26.00    3.00
   0  -3  20   29.80    3.30
  -1   3 -20   81.39    6.20
   1  -3  20   81.49    5.00
   1  -3  20   84.79    5.00
  -2   3 -20   34.40    4.30
  -2   3 -20   35.20    4.10
   2  -3  20   43.90    4.20
   2  -3  20   26.50    3.40
   3   2 -20    9.70    3.50
  -3  -2  20    6.20    2.90
  -3  -2  20    2.70    2.60
   2   2 -20    1.00    2.80
  -2  -2  20    6.70    2.10
  -2  -2  20    5.20    2.30
   1   2 -20  170.28    7.70
  -1  -2  20  168.88    6.70
  -1  -2  20  174.38    7.00
   0   2 -20    3.40    2.90
   0  -2  20    1.60    1.90
   0  -2  20    0.80    2.10
  -1   2 -20    6.80    3.00
  -1   2 -20   13.40    3.20
   1  -2  20   13.70    2.50
   1  -2  20   16.70    2.80
  -2   2 -20    9.90    3.50
  -2   2 -20   10.80    3.30
   2  -2  20    0.90    2.40
   2  -2  20    7.20    2.40
   4   1 -20   17.60    3.60
   4   1 -20   10.50    3.40
  -4  -1  20    7.60    2.10
  -4  -1  20    9.30    3.40
   3   1 -20   21.40    3.20
   3   1 -20   23.90    3.50
  -3  -1  20   19.30    3.60
  -3  -1  20   20.20    3.20
   2   1 -20   31.20    3.30
   2   1 -20   30.10    3.50
  -2  -1  20   27.10    3.30
  -2  -1  20   22.10    2.50
   1   1 -20   34.80    3.50
   1   1 -20   36.50    3.40
  -1  -1  20   37.20    4.20
  -1  -1  20   41.00    3.60
   0   1 -20   -1.40    2.50
   0   1 -20    3.40    2.50
   0   1 -20    3.10    1.80
   0  -1  20    0.80    1.90
   0  -1  20    2.30    2.00
  -1   1 -20   63.19    5.00
  -1   1 -20   52.89    3.60
  -1   1 -20   55.19    5.40
   1  -1  20   53.39    4.80
   1  -1  20   65.59    4.50
  -2   1 -20   33.20    4.00
  -2   1 -20   29.00    4.00
   2  -1  20   29.40    3.40
   2  -1  20   38.40    4.30
   4   0 -20   38.20    4.00
  -4   0  20   29.50    3.40
  -4   0  20   38.40    4.30
   3   0 -20   66.09    5.30
   3   0 -20   74.19    5.00
  -3   0  20   65.89    5.80
  -3   0  20   66.69    5.10
   2   0 -20  145.89    6.40
   2   0 -20  142.69    6.00
  -2   0  20  154.88    7.10
  -2   0  20  135.09    5.90
   1   0 -20   13.00    2.60
   1   0 -20   17.80    2.30
  -1   0  20   13.10    2.30
  -1   0  20   13.50    2.90
   0   0 -20   95.89    5.30
   0   0 -20   88.39    4.40
   0   0 -20   90.89    5.70
   0   0  20   94.19    5.50
   0   0  20   89.59    4.80
  -1   0 -20   51.89    4.60
  -1   0 -20   56.09    3.70
  -1   0 -20   52.19    5.10
   1   0  20   61.19    4.80
   1   0  20   38.90    4.60
  -2   0 -20   60.59    4.20
  -2   0 -20   57.89    5.60
   2   0  20   57.29    5.30
   4  -1 -20  147.89    7.10
  -4   1  20  132.79    8.20
  -4   1  20  126.49    5.90
   3  -1 -20   13.40    2.80
  -3   1  20    9.00    3.40
   2  -1 -20    1.70    2.00
   2  -1 -20    0.50    2.00
  -2   1  20    3.30    2.90
  -2   1  20    1.40    1.80
   1  -1 -20   80.69    4.60
   1  -1 -20   90.19    4.80
  -1   1  20   90.09    4.80
  -1   1  20   80.79    5.90
   0  -1 -20   33.10    3.70
   0  -1 -20   28.10    3.10
   0  -1 -20   32.00    3.40
   0   1  20   29.70    4.00
   0   1  20   25.30    3.40
  -1  -1 -20   36.90    3.70
  -1  -1 -20   46.90    4.50
  -1  -1 -20   38.90    3.90
   1   1  20   39.70    4.30
   1   1  20   46.40    5.20
   4  -2 -20   26.80    3.70
  -4   2  20   27.00    4.70
  -4   2  20   23.00    2.80
   3  -2 -20   20.70    2.90
  -3   2  20   26.60    4.70
  -3   2  20   20.30    3.80
   2  -2 -20   83.29    5.00
  -2   2  20   87.59    6.70
  -2   2  20   84.19    5.00
   1  -2 -20   62.19    5.30
   1  -2 -20   59.29    4.10
  -1   2  20   52.49    5.10
  -1   2  20   61.39    5.80
   0  -2 -20   37.40    3.70
   0  -2 -20   38.90    3.80
   0  -2 -20   44.70    4.00
   0   2  20   44.70    5.30
   0   2  20   30.70    3.30
  -1  -2 -20    6.40    2.60
  -1  -2 -20    5.30    2.30
  -1  -2 -20    3.90    3.10
   1   2  20    5.50    3.30
   1   2  20    4.40    2.50
   3  -3 -20   37.30    4.60
   3  -3 -20   46.10    4.60
  -3   3  20   41.00    3.80
  -3   3  20   36.80    4.90
   2  -3 -20  266.57    9.50
  -2   3  20  245.38    9.40
  -2   3  20  264.57   11.20
   1  -3 -20   19.70    2.90
   1  -3 -20   23.40    3.50
  -1   3  20   21.00    4.00
  -1   3  20   12.50    2.40
   0  -3 -20   -3.80    3.00
   0  -3 -20    2.10    2.30
   0   3  20    0.20    2.50
   0   3  20    3.30    3.60
   2   3 -21   13.30    4.20
  -2  -3  21    6.40    2.30
  -2  -3  21    9.10    3.50
   1   3 -21   27.80    4.20
  -1  -3  21   29.20    3.20
  -1  -3  21   28.50    5.00
   0   3 -21   84.79    6.90
   0  -3  21   84.19    5.30
   3   2 -21   56.29    5.30
  -3  -2  21   50.09    3.90
  -3  -2  21   38.50    4.60
   2   2 -21   45.70    4.40
  -2  -2  21   32.50    3.50
  -2  -2  21   36.40    3.70
   1   2 -21   14.30    3.50
  -1  -2  21   14.80    2.70
   0   2 -21   30.30    3.90
   0  -2  21   13.10    3.30
   0  -2  21   17.40    2.80
  -1   2 -21   64.09    6.20
  -1   2 -21   64.19    6.20
   1  -2  21   62.49    4.90
   1  -2  21   67.39    5.00
   3   1 -21   50.89    5.50
   3   1 -21   55.79    6.00
  -3  -1  21   42.00    3.60
  -3  -1  21   53.19    6.00
   2   1 -21   71.49    4.80
   2   1 -21   63.69    5.40
  -2  -1  21   59.09    4.10
  -2  -1  21   65.09    5.60
   1   1 -21   95.19    5.80
  -1  -1  21   89.49    5.80
   0   1 -21    4.10    3.00
   0  -1  21    6.70    2.20
   0  -1  21    6.10    2.70
  -1   1 -21   25.10    3.60
  -1   1 -21   16.30    3.60
   1  -1  21   20.50    3.00
   1  -1  21   17.90    3.00
   3   0 -21   12.60    3.60
   3   0 -21   13.70    3.10
  -3   0  21   10.50    3.40
  -3   0  21   13.50    2.40
   2   0 -21   17.90    2.80
   2   0 -21   26.90    3.40
  -2   0  21   17.40    2.50
  -2   0  21   23.90    3.50
   1   0 -21   -0.60    2.20
   1   0 -21    1.70    2.60
  -1   0  21   -0.70    1.90
  -1   0  21    2.10    2.70
   0   0 -21  120.19    5.40
   0   0 -21  123.99    6.30
   0   0 -21  113.49    6.70
   0   0  21  111.89    6.50
  -1   0 -21  591.34   17.40
  -1   0 -21  602.94   18.30
   1   0  21  613.24   18.50
   1   0  21  564.14   18.60
   3  -1 -21    0.40    2.90
  -3   1  21    2.60    2.00
  -3   1  21    0.10    3.30
   2  -1 -21  146.59    6.40
  -2   1  21  151.58    7.80
  -2   1  21  132.29    6.10
   1  -1 -21  146.09    6.40
   1  -1 -21  141.19    6.20
  -1   1  21  132.69    6.30
  -1   1  21  143.69    7.60
   0  -1 -21   27.50    2.80
   0  -1 -21   26.20    3.30
   0  -1 -21   21.60    3.50
   0   1  21   19.40    3.50
   0   1  21   23.20    3.10
   3  -2 -21  116.39    6.40
   3  -2 -21  119.79    7.60
  -3   2  21  125.49   10.40
  -3   2  21  120.09    5.70
   2  -2 -21   33.20    3.40
  -2   2  21   22.60    4.20
  -2   2  21   24.40    2.80
   1  -2 -21   16.80    3.60
   1  -2 -21   15.60    2.70
  -1   2  21   15.90    2.70
  -1   2  21    9.20    3.50
   2   1 -22   28.00    4.00
  -2  -1  22   26.00    2.90
   1   1 -22  138.19    7.50
  -1  -1  22  143.49    6.40
  -1  -1  22  132.79    7.50
   2   0 -22   49.80    5.00
   2   0 -22   49.10    5.90
  -2   0  22   49.30    4.00
   1   0 -22   39.40    3.30
   1   0 -22   42.00    3.90
  -1   0  22   34.90    3.80
  -1   0  22   28.40    4.00
_computing_structure_solution     'SHELXT 2014/4 (Sheldrick, 2014)'
;
_shelx_hkl_checksum              98048
_shelx_res_file
;
TITL 2a.res in P-1
CELL 0.71073 6.0349 7.3474 16.6718 93.255 98.722 104.473
ZERR 1.0000 0.0002 0.0002 0.0005 0.001 0.001 0.001
LATT 1
SFAC C H N CL
UNIT 30 22 4 4
BOND $H
ACTA 50
FMAP 2 1 53
PLAN 3 0 0
SIZE 0.35 0.22 0.12
TEMP -173.150
L.S. 100
WGHT    0.031400    0.348700
EXTI    0.019919
FVAR       0.90800
CL1   4    0.650577   -0.130466    0.200767    11.00000    0.02534    0.02041 =
         0.04718    0.00242    0.00448    0.01208
CL2   4    0.185513    0.841850    0.568784    11.00000    0.03450    0.02809 =
         0.01493   -0.00535    0.00564    0.00857
N1    3    0.037640    0.538876    0.177317    11.00000    0.01846    0.01708 =
         0.01007    0.00148    0.00152    0.00349
N2    3    0.013030    0.446015    0.100131    11.00000    0.01959    0.01847 =
         0.01004    0.00066    0.00069    0.00481
C1    1    0.151550    0.472678    0.235585    11.00000    0.01458    0.01398 =
         0.01123    0.00188    0.00256    0.00144
C2    1    0.276907    0.325147    0.225424    11.00000    0.01523    0.01394 =
         0.01135   -0.00041   -0.00049    0.00254
C3    1    0.430219    0.333508    0.170069    11.00000    0.01971    0.01544 =
         0.01580    0.00218    0.00384    0.00327
AFIX  43
H3    2    0.455486    0.435814    0.137244    11.00000   -1.20000
AFIX   0
C4    1    0.546298    0.193872    0.162437    11.00000    0.01816    0.01873 =
         0.02136   -0.00073    0.00491    0.00379
AFIX  43
H4    2    0.651746    0.200451    0.125118    11.00000   -1.20000
AFIX   0
C5    1    0.505337    0.044872    0.210282    11.00000    0.01688    0.01403 =
         0.02457   -0.00187   -0.00140    0.00493
C6    1    0.354316    0.032286    0.265436    11.00000    0.02270    0.01455 =
         0.02178    0.00455    0.00056    0.00331
AFIX  43
H6    2    0.327770   -0.071486    0.297427    11.00000   -1.20000
AFIX   0
C7    1    0.242199    0.173881    0.273244    11.00000    0.01984    0.01724 =
         0.01498    0.00219    0.00314    0.00305
AFIX  43
H7    2    0.140142    0.167942    0.311729    11.00000   -1.20000
AFIX   0
C8    1    0.155575    0.555501    0.319244    11.00000    0.01619    0.01283 =
         0.01076    0.00290    0.00254    0.00299
C9    1    0.347457    0.573815    0.380385    11.00000    0.01691    0.01897 =
         0.01367    0.00099    0.00174    0.00705
AFIX  43
H9    2    0.472162    0.524325    0.369473    11.00000   -1.20000
AFIX   0
C10   1    0.358280    0.663798    0.457214    11.00000    0.02045    0.02030 =
         0.01286    0.00033   -0.00151    0.00650
AFIX  43
H10   2    0.490677    0.678445    0.498335    11.00000   -1.20000
AFIX   0
C11   1    0.173673    0.731313    0.472645    11.00000    0.02362    0.01554 =
         0.01137   -0.00011    0.00475    0.00406
C12   1   -0.021142    0.712415    0.413438    11.00000    0.01787    0.02003 =
         0.01891    0.00104    0.00511    0.00693
AFIX  43
H12   2   -0.147164    0.759157    0.425155    11.00000   -1.20000
AFIX   0
C13   1   -0.028853    0.624265    0.336959    11.00000    0.01611    0.01869 =
         0.01494    0.00207    0.00069    0.00556
AFIX  43
H13   2   -0.161533    0.610493    0.296054    11.00000   -1.20000
AFIX   0
C14   1    0.021352    0.551825    0.041112    11.00000    0.01555    0.01782 =
         0.01161    0.00101   -0.00046    0.00430
C15   1    0.072841    0.762646    0.049804    11.00000    0.04714    0.01716 =
         0.01314    0.00117    0.00132    0.00610
AFIX 137
H15A  2    0.038933    0.805423    0.102251    11.00000   -1.50000
H15B  2   -0.023845    0.803436    0.005379    11.00000   -1.50000
H15C  2    0.237169    0.817208    0.047479    11.00000   -1.50000
AFIX   0
HKLF 4
REM  2a.res in P-1
REM R1 =  0.0277 for    3138 Fo > 4sig(Fo)  and  0.0316 for all    3475 data
REM    174 parameters refined using      0 restraints
END
WGHT      0.0308      0.3531
REM Highest difference peak  0.384,  deepest hole -0.235,  1-sigma level  0.046
Q1    1   0.0000  0.5000  0.0000  10.50000  0.05    0.38
Q2    1   0.1643  0.5165  0.2794  11.00000  0.05    0.37
Q3    1   0.0987  0.7402  0.4402  11.00000  0.05    0.34
;
_shelx_res_checksum              17645
loop_
_space_group_symop_operation_xyz
'x, y, z'
'-x, -y, -z'
loop_
_atom_site_type_symbol
_atom_site_label
_atom_site_fract_x
_atom_site_fract_y
_atom_site_fract_z
_atom_site_U_iso_or_equiv
_atom_site_adp_type
_atom_site_calc_flag
_atom_site_occupancy
Cl Cl1 0.65058(6) -0.13047(4) 0.20077(2) 0.03010(10) Uani d 1
Cl Cl2 0.18551(6) 0.84185(4) 0.56878(2) 0.02592(9) Uani d 1
N N1 0.03764(17) 0.53888(13) 0.17732(5) 0.01551(19) Uani d 1
N N2 0.01303(17) 0.44601(14) 0.10013(6) 0.0163(2) Uani d 1
C C1 0.15155(19) 0.47268(15) 0.23559(6) 0.0136(2) Uani d 1
C C2 0.27691(19) 0.32515(15) 0.22542(6) 0.0141(2) Uani d 1
C C3 0.4302(2) 0.33351(16) 0.17007(7) 0.0171(2) Uani d 1
H H3 0.455486 0.435814 0.137244 0.021 Uiso calc 1
C C4 0.5463(2) 0.19387(17) 0.16244(7) 0.0195(2) Uani d 1
H H4 0.651746 0.200451 0.125118 0.023 Uiso calc 1
C C5 0.5053(2) 0.04487(16) 0.21028(7) 0.0190(2) Uani d 1
C C6 0.3543(2) 0.03229(17) 0.26544(7) 0.0202(2) Uani d 1
H H6 0.327770 -0.071486 0.297427 0.024 Uiso calc 1
C C7 0.2422(2) 0.17388(16) 0.27324(7) 0.0176(2) Uani d 1
H H7 0.140142 0.167942 0.311729 0.021 Uiso calc 1
C C8 0.15558(19) 0.55550(15) 0.31924(6) 0.0133(2) Uani d 1
C C9 0.3475(2) 0.57382(16) 0.38038(7) 0.0162(2) Uani d 1
H H9 0.472162 0.524325 0.369473 0.019 Uiso calc 1
C C10 0.3583(2) 0.66380(17) 0.45721(7) 0.0182(2) Uani d 1
H H10 0.490677 0.678445 0.498335 0.022 Uiso calc 1
C C11 0.1737(2) 0.73131(16) 0.47265(7) 0.0169(2) Uani d 1
C C12 -0.0211(2) 0.71241(17) 0.41344(7) 0.0184(2) Uani d 1
H H12 -0.147164 0.759157 0.425155 0.022 Uiso calc 1
C C13 -0.0289(2) 0.62426(16) 0.33696(7) 0.0166(2) Uani d 1
H H13 -0.161533 0.610493 0.296054 0.020 Uiso calc 1
C C14 0.02135(19) 0.55182(16) 0.04111(6) 0.0153(2) Uani d 1
C C15 0.0728(3) 0.76265(17) 0.04980(7) 0.0267(3) Uani d 1
H H15A 0.038933 0.805423 0.102251 0.040 Uiso calc 1
H H15B -0.023845 0.803436 0.005379 0.040 Uiso calc 1
H H15C 0.237169 0.817208 0.047479 0.040 Uiso calc 1
loop_
_atom_site_aniso_label
_atom_site_aniso_U_11
_atom_site_aniso_U_22
_atom_site_aniso_U_33
_atom_site_aniso_U_12
_atom_site_aniso_U_13
_atom_site_aniso_U_23
Cl1 0.02534(17) 0.02041(16) 0.0472(2) 0.01208(12) 0.00448(14) 0.00242(13)
Cl2 0.03450(18) 0.02809(17) 0.01493(14) 0.00857(13) 0.00564(11) -0.00535(11)
N1 0.0185(5) 0.0171(5) 0.0101(4) 0.0035(4) 0.0015(3) 0.0015(3)
N2 0.0196(5) 0.0185(5) 0.0100(4) 0.0048(4) 0.0007(3) 0.0007(3)
C1 0.0146(5) 0.0140(5) 0.0112(5) 0.0014(4) 0.0026(4) 0.0019(4)
C2 0.0152(5) 0.0139(5) 0.0114(5) 0.0025(4) -0.0005(4) -0.0004(4)
C3 0.0197(6) 0.0154(5) 0.0158(5) 0.0033(4) 0.0038(4) 0.0022(4)
C4 0.0182(6) 0.0187(5) 0.0214(6) 0.0038(4) 0.0049(4) -0.0007(4)
C5 0.0169(5) 0.0140(5) 0.0246(6) 0.0049(4) -0.0014(4) -0.0019(4)
C6 0.0227(6) 0.0145(5) 0.0218(6) 0.0033(4) 0.0006(5) 0.0046(4)
C7 0.0198(6) 0.0172(5) 0.0150(5) 0.0031(4) 0.0031(4) 0.0022(4)
C8 0.0162(5) 0.0128(5) 0.0108(5) 0.0030(4) 0.0025(4) 0.0029(4)
C9 0.0169(5) 0.0190(5) 0.0137(5) 0.0071(4) 0.0017(4) 0.0010(4)
C10 0.0204(6) 0.0203(5) 0.0129(5) 0.0065(4) -0.0015(4) 0.0003(4)
C11 0.0236(6) 0.0155(5) 0.0114(5) 0.0041(4) 0.0048(4) -0.0001(4)
C12 0.0179(6) 0.0200(5) 0.0189(5) 0.0069(4) 0.0051(4) 0.0010(4)
C13 0.0161(5) 0.0187(5) 0.0149(5) 0.0056(4) 0.0007(4) 0.0021(4)
C14 0.0155(5) 0.0178(5) 0.0116(5) 0.0043(4) -0.0005(4) 0.0010(4)
C15 0.0471(8) 0.0172(6) 0.0131(5) 0.0061(6) 0.0013(5) 0.0012(4)
loop_
_atom_type_symbol
_atom_type_description
_atom_type_scat_dispersion_real
_atom_type_scat_dispersion_imag
_atom_type_scat_source
C C 0.0033 0.0016 'International Tables Vol C Tables 4.2.6.8 and 6.1.1.4'
H H 0.0000 0.0000 'International Tables Vol C Tables 4.2.6.8 and 6.1.1.4'
N N 0.0061 0.0033 'International Tables Vol C Tables 4.2.6.8 and 6.1.1.4'
Cl Cl 0.1484 0.1585 'International Tables Vol C Tables 4.2.6.8 and 6.1.1.4'
loop_
_geom_angle_atom_site_label_1
_geom_angle_atom_site_label_2
_geom_angle_atom_site_label_3
_geom_angle_site_symmetry_1
_geom_angle_site_symmetry_3
_geom_angle
C1 N1 N2 . . 115.11(9)
C14 N2 N1 . . 115.54(9)
N1 C1 C8 . . 115.64(10)
N1 C1 C2 . . 125.79(10)
C8 C1 C2 . . 118.57(9)
C3 C2 C7 . . 118.83(10)
C3 C2 C1 . . 122.13(10)
C7 C2 C1 . . 119.04(10)
C4 C3 C2 . . 120.74(11)
C4 C3 H3 . . 119.6
C2 C3 H3 . . 119.6
C5 C4 C3 . . 118.74(11)
C5 C4 H4 . . 120.6
C3 C4 H4 . . 120.6
C6 C5 C4 . . 121.90(11)
C6 C5 Cl1 . . 119.27(9)
C4 C5 Cl1 . . 118.82(10)
C5 C6 C7 . . 118.75(11)
C5 C6 H6 . . 120.6
C7 C6 H6 . . 120.6
C6 C7 C2 . . 121.02(11)
C6 C7 H7 . . 119.5
C2 C7 H7 . . 119.5
C13 C8 C9 . . 118.88(10)
C13 C8 C1 . . 120.25(10)
C9 C8 C1 . . 120.80(10)
C10 C9 C8 . . 120.76(11)
C10 C9 H9 . . 119.6
C8 C9 H9 . . 119.6
C11 C10 C9 . . 118.92(11)
C11 C10 H10 . . 120.5
C9 C10 H10 . . 120.5
C10 C11 C12 . . 121.60(10)
C10 C11 Cl2 . . 119.04(9)
C12 C11 Cl2 . . 119.36(9)
C13 C12 C11 . . 118.93(11)
C13 C12 H12 . . 120.5
C11 C12 H12 . . 120.5
C12 C13 C8 . . 120.88(10)
C12 C13 H13 . . 119.6
C8 C13 H13 . . 119.6
N2 C14 C14 . 2_565 114.54(12)
N2 C14 C15 . . 125.67(10)
C14 C14 C15 2_565 . 119.78(12)
C14 C15 H15A . . 109.5
C14 C15 H15B . . 109.5
H15A C15 H15B . . 109.5
C14 C15 H15C . . 109.5
H15A C15 H15C . . 109.5
H15B C15 H15C . . 109.5
loop_
_geom_bond_atom_site_label_1
_geom_bond_atom_site_label_2
_geom_bond_site_symmetry_2
_geom_bond_distance
Cl1 C5 . 1.7426(12)
Cl2 C11 . 1.7384(11)
N1 C1 . 1.2927(14)
N1 N2 . 1.3911(13)
N2 C14 . 1.2874(14)
C1 C8 . 1.4840(14)
C1 C2 . 1.4846(15)
C2 C3 . 1.3959(16)
C2 C7 . 1.3963(15)
C3 C4 . 1.3896(16)
C3 H3 . 0.9500
C4 C5 . 1.3855(17)
C4 H4 . 0.9500
C5 C6 . 1.3807(18)
C6 C7 . 1.3857(17)
C6 H6 . 0.9500
C7 H7 . 0.9500
C8 C13 . 1.3947(16)
C8 C9 . 1.3952(15)
C9 C10 . 1.3924(15)
C9 H9 . 0.9500
C10 C11 . 1.3792(17)
C10 H10 . 0.9500
C11 C12 . 1.3881(17)
C12 C13 . 1.3858(16)
C12 H12 . 0.9500
C13 H13 . 0.9500
C14 C14 2_565 1.484(2)
C14 C15 . 1.4957(16)
C15 H15A . 0.9800
C15 H15B . 0.9800
C15 H15C . 0.9800

_cod_database_fobs_code 2021346
