#------------------------------------------------------------------------------
#$Date: 2018-02-28 09:18:30 +0200 (Wed, 28 Feb 2018) $
#$Revision: 206693 $
#$URL: file:///home/coder/svn-repositories/cod/cif/2/02/10/2021048.cif $
#------------------------------------------------------------------------------
#
# This file is available in the Crystallography Open Database (COD),
# http://www.crystallography.net/. The original data for this entry
# were provided by IUCr Journals, http://journals.iucr.org/.
#
# The file may be used within the scientific community so long as
# proper attribution is given to the journal article from which the
# data were obtained.
#
data_2021048
loop_
_publ_author_name
'Szczesio, Ma\/lgorzata'
'Go\/lka, Jolanta'
'Korona-G\/lowniak, Izabela'
'Orlewska, Czes\/lawa'
'Gobis, Katarzyna'
'Olczak, Andrzej'
_publ_section_title
;
 Planarity of heteroaryldithiocarbazic acid derivatives showing
 tuberculostatic activity: structure--activity relationships
;
_journal_coeditor_code           FN3253
_journal_issue                   3
_journal_name_full               'Acta Crystallographica Section C'
_journal_page_first
;
;
_journal_paper_doi               10.1107/S205322961800284X
_journal_volume                  74
_journal_year                    2018
_chemical_formula_iupac          'C9 H12 N4 S2'
_chemical_formula_moiety         'C9 H12 N4 S2'
_chemical_formula_sum            'C9 H12 N4 S2'
_chemical_formula_weight         240.35
_chemical_name_systematic
;
(<i>Z</i>)-Methyl
2-[amino(pyridin-2-yl)methylidene]-1-methylhydrazinecarbodithioate
;
_space_group_crystal_system      triclinic
_space_group_IT_number           2
_space_group_name_Hall           '-P 1'
_space_group_name_H-M_alt        'P -1'
_symmetry_space_group_name_Hall  '-P 1'
_symmetry_space_group_name_H-M   'P -1'
_atom_sites_solution_hydrogens   mixed
_audit_creation_method           SHELXL-2014
_cell_angle_alpha                79.167(2)
_cell_angle_beta                 71.019(2)
_cell_angle_gamma                84.080(2)
_cell_formula_units_Z            2
_cell_length_a                   7.3230(2)
_cell_length_b                   8.5983(2)
_cell_length_c                   10.0343(2)
_cell_measurement_reflns_used    21672
_cell_measurement_temperature    100.01(10)
_cell_measurement_theta_max      78.7410
_cell_measurement_theta_min      4.7090
_cell_volume                     586.21(3)
_computing_cell_refinement
;
CrysAlis PRO (Rigaku OD, 2015)
;
_computing_data_collection
;
CrysAlis PRO (Rigaku OD, 2015)
;
_computing_data_reduction
;
CrysAlis PRO (Rigaku OD, 2015)
;
_computing_molecular_graphics
;
PLATON (Spek, 2009) and Mercury (Macrae <i>et al.</i>,  2008)
;
_computing_publication_material
;
PLATON (Spek, 2009)
;
_computing_structure_refinement
;
SHELXL2014 (Sheldrick, 2015)
;
_computing_structure_solution
;
SHELXS97 (Sheldrick, 2008)
;
_diffrn_ambient_temperature      100(10)
_diffrn_measured_fraction_theta_full 0.999
_diffrn_measured_fraction_theta_max 0.954
_diffrn_measurement_device_type  'XtaLAB Synergy, Dualflex, Pilatus 300K'
_diffrn_measurement_method       '\w scans'
_diffrn_radiation_monochromator  mirror
_diffrn_radiation_type           CuK\a
_diffrn_radiation_wavelength     1.54184
_diffrn_reflns_av_R_equivalents  0.0604
_diffrn_reflns_limit_h_max       9
_diffrn_reflns_limit_h_min       -9
_diffrn_reflns_limit_k_max       10
_diffrn_reflns_limit_k_min       -10
_diffrn_reflns_limit_l_max       12
_diffrn_reflns_limit_l_min       -12
_diffrn_reflns_number            24172
_diffrn_reflns_theta_full        67.684
_diffrn_reflns_theta_max         79.020
_diffrn_reflns_theta_min         4.724
_exptl_absorpt_coefficient_mu    3.906
_exptl_absorpt_correction_T_max  1.000
_exptl_absorpt_correction_T_min  0.176
_exptl_absorpt_correction_type   gaussian
_exptl_absorpt_process_details
;
(CrysAlis PRO; Rigaku OD, 2015)
;
_exptl_crystal_colour            colourless
_exptl_crystal_density_diffrn    1.362
_exptl_crystal_description       needle
_exptl_crystal_F_000             252
_exptl_crystal_size_max          0.50
_exptl_crystal_size_mid          0.40
_exptl_crystal_size_min          0.15
_refine_diff_density_max         0.558
_refine_diff_density_min         -0.300
_refine_ls_extinction_coef       0.0147(15)
_refine_ls_extinction_expression Fc^*^=kFc[1+0.001xFc^2^\l^3^/sin(2\q)]^-1/4^
_refine_ls_extinction_method
;
SHELXL2014 (Sheldrick, 2015)
;
_refine_ls_goodness_of_fit_ref   1.038
_refine_ls_hydrogen_treatment    mixed
_refine_ls_matrix_type           full
_refine_ls_number_parameters     145
_refine_ls_number_reflns         2417
_refine_ls_number_restraints     0
_refine_ls_restrained_S_all      1.038
_refine_ls_R_factor_all          0.0353
_refine_ls_R_factor_gt           0.0350
_refine_ls_shift/su_max          0.001
_refine_ls_shift/su_mean         0.000
_refine_ls_structure_factor_coef Fsqd
_refine_ls_weighting_details
'w=1/[\s^2^(Fo^2^)+(0.0656P)^2^+0.3090P] where P=(Fo^2^+2Fc^2^)/3'
_refine_ls_weighting_scheme      calc
_refine_ls_wR_factor_gt          0.0983
_refine_ls_wR_factor_ref         0.0985
_reflns_number_gt                2393
_reflns_number_total             2417
_reflns_threshold_expression     'I > 2\s(I)'
_cod_data_source_file            fn3253sup1.cif
_cod_data_source_block           S3
_cod_database_code               2021048
_shelx_space_group_comment
;
The symmetry employed for this shelxl refinement is uniquely defined
by the following loop, which should always be used as a source of
symmetry information in preference to the above space-group names.
They are only intended as comments.
;
_shelx_hkl_file
;
   0   0   1   46.08    1.28
   0   0  -1   49.87    1.29
   0   0   1   49.04    1.24
   0   0   1   43.97    1.43
   0   0   1   49.31    1.32
   0   0   1   48.71    1.31
   0   0  -1   49.19    1.51
   0   0   1   42.53    1.40
   0   0  -1   46.89    1.46
   0   0  -1   48.09    1.49
   0   0  -1   51.67    1.45
   0   0   1   47.66    1.30
   0   0  -1   52.75    1.62
   0   0  -1   48.96    1.49
   0   0   1   42.38    1.41
   0   0   1   43.26    1.42
   0   0   1   42.05    1.39
   0   0  -1   49.83    1.50
   0   0   2 2747.02   22.05
   0   0   2 2804.69   21.94
   0   0   2 2999.00   23.82
   0   0  -2 3505.97   22.55
   0   0   2 3109.56   24.13
   0   0  -2 3260.18   23.81
   0   0   2 2824.73   22.18
   0   0  -2 3290.36   24.90
   0   0  -2 3040.09   24.22
   0   0  -2 3168.62   24.47
   0   0  -2 3182.88   24.44
   0   0  -2 3404.11   25.49
   0   0   2 2867.88   23.67
   0   0  -2 3192.83   24.61
   0   0   2 2902.69   23.79
   0   0  -2 3169.00   22.17
   0   0   2 3038.85   22.38
   0   0   2 3038.57   23.88
   0   0   2 2906.53   22.44
   0   0   3 1415.42   16.04
   0   0   3 1294.01   13.61
   0   0  -3 1372.16   13.80
   0   0   3 1287.16   15.19
   0   0   3 1283.69   15.14
   0   0   3 1293.98   14.29
   0   0   3 1284.10   15.30
   0   0  -3 1266.88   14.58
   0   0  -3 1346.27   14.89
   0   0  -3 1282.29   13.27
   0   0  -3 1309.32   14.82
   0   0  -3 1326.60   14.89
   0   0  -3 1391.04   15.56
   0   0   3 1264.39   14.78
   0   0   3 1317.28   15.26
   0   0  -3 1356.63   14.86
   0   0  -4  480.51    9.55
   0   0   4  521.27   10.05
   0   0   4  512.13    9.98
   0   0  -4  575.80    7.16
   0   0  -4  481.59    9.76
   0   0  -4  478.56    9.53
   0   0  -4  519.90    8.81
   0   0   4  450.35    5.83
   0   0  -4  500.47    8.55
   0   0   4  508.53    9.88
   0   0  -4  528.94    8.98
   0   0   4  530.22    9.87
   0   0   4  503.63    9.84
   0   0  -4  429.82    7.18
   0   0   4  497.74    9.71
   0   0  -4  488.88    9.65
   0   0  -4  489.46    9.56
   0   0  -5 2872.90   30.07
   0   0  -5 2651.97   29.85
   0   0   5 2878.50   30.04
   0   0   5 2690.62   26.60
   0   0  -5 2842.05   21.78
   0   0   5 2920.29   30.58
   0   0  -5 2576.08   35.58
   0   0   5 2461.74   30.51
   0   0  -5 2835.15   30.05
   0   0  -5 2859.96   27.37
   0   0  -5 2499.11   34.20
   0   0   5 2892.48   30.73
   0   0   5 2820.33   30.10
   0   0  -5 2533.65   25.31
   0   0   5 2898.57   30.68
   0   0  -5 2829.04   27.73
   0   0   5 2663.07   29.75
   0   0  -5 2480.32   33.07
   0   0  -5 2443.70   33.56
   0   0   5 2904.11   30.60
   0   0  -5 2778.34   30.03
   0   0   5 2355.67   28.86
   0   0  -5 2832.89   30.18
   0   0   5 2454.78   29.99
   0   0   6  316.90    9.98
   0   0   6  266.50    8.78
   0   0   6  296.21    9.66
   0   0   6  344.02   10.20
   0   0  -6  315.09    9.93
   0   0  -6  279.44   12.38
   0   0   6  311.82    7.97
   0   0   6  325.05    8.30
   0   0   6  280.22   10.42
   0   0  -6  321.06    9.86
   0   0   6  283.48   10.22
   0   0   6  279.08   10.26
   0   0  -6  259.90    9.95
   0   0  -6  276.69   10.42
   0   0  -6  323.00   10.01
   0   0   6  303.05    9.73
   0   0  -6  313.52    9.82
   0   0  -6  284.38   11.96
   0   0  -6  272.93   11.30
   0   0   6  303.98    9.75
   0   0  -6  250.49    8.67
   0   0   6  262.67    9.37
   0   0   6  325.89    9.99
   0   0   6  256.53    9.42
   0   0   6  306.54    9.72
   0   0  -6  280.97   12.10
   0   0  -6  308.22   10.07
   0   0  -7   52.64    5.87
   0   0  -7   54.99    5.91
   0   0   7   52.76    5.41
   0   0   7   48.59    4.87
   0   0   7   56.04    4.68
   0   0  -7   59.81    5.95
   0   0   7   64.99    4.87
   0   0   7   51.94    4.69
   0   0   7   52.79    4.95
   0   0  -7   54.81    4.39
   0   0  -7   48.28    4.71
   0   0   7   56.02    4.33
   0   0   7   62.42    3.79
   0   0   7   52.27    4.81
   0   0  -7   49.19    4.74
   0   0  -7   54.09    6.04
   0   0  -8   22.95    4.16
   0   0   8   16.93    2.94
   0   0  -8   12.23    2.43
   0   0  -8   21.46    3.99
   0   0  -8   12.54    2.50
   0   0   8   16.32    2.97
   0   0  -8   21.69    4.17
   0   0   8   11.23    2.28
   0   0   8   15.48    2.35
   0   0   8   13.88    2.42
   0   0   8   13.22    2.81
   0   0  -8   20.30    3.67
   0   0  -9  169.53   10.34
   0   0  -9  174.90   11.43
   0   0   9  180.27    8.39
   0   0   9  184.13    9.78
   0   0  -9  195.56   11.96
   0   0  -9  180.32   11.85
   0   0   9  203.61    7.71
   0   0   9  168.72    8.22
   0   0   9  188.95   10.25
   0   0  10  249.64    9.12
   0   0  10  231.54   10.30
   0   0 -10  230.55   11.67
   0   0 -10  255.09   12.75
   0   0  10  251.00    9.27
   0   0  10  239.51   10.00
   0   0  10  253.65    8.24
   0   0 -10  250.98   12.14
   0   0 -11    6.92    1.68
   0   0  11    7.15    1.42
   0   0  11    7.23    1.30
   0   0 -11    7.37    1.73
   0   1 -11   40.99    3.50
   0  -1  11   41.97    2.85
   0   1 -11   46.44    3.74
   0   1 -10  233.31   10.37
   0  -1  10  204.85    9.37
   0  -1  10  243.50    8.91
   0   1 -10  239.53   11.30
   0  -1  10  236.73    7.70
   0   1 -10  210.32    9.71
   0   1 -10  211.24   10.61
   0  -1  10  218.09    9.25
   0  -1   9 1058.05   21.30
   0  -1   9 1028.48   23.47
   0  -1   9 1016.67   24.24
   0   1  -9 1011.27   27.15
   0   1  -9 1096.35   26.68
   0   1  -9  940.39   23.63
   0   1  -9  998.15   27.09
   0  -1   9 1123.84   23.18
   0  -1   9  933.21   19.36
   0  -1   8    3.03    1.33
   0   1  -8    2.52    1.71
   0   1  -8    3.87    1.96
   0  -1   8    4.26    1.54
   0   1  -8    3.21    1.27
   0  -1   8    3.95    1.74
   0  -1   8    4.12    1.69
   0   1  -8    1.61    1.39
   0  -1   8    2.80    1.07
   0  -1   8    3.36    1.27
   0  -1   7   45.62    4.03
   0   1  -7   32.10    4.69
   0  -1   7   40.14    4.15
   0  -1   7   36.75    4.34
   0   1  -7   34.77    3.88
   0  -1   7   36.01    4.28
   0  -1   7   43.82    3.83
   0  -1   7   36.69    4.19
   0  -1   7   37.30    4.02
   0  -1   7   36.73    3.74
   0   1  -7   36.23    4.98
   0   1  -7   41.65    5.12
   0  -1   7   43.96    4.22
   0   1  -6   53.96    3.94
   0   1  -6   64.98    2.85
   0  -1   6   57.10    4.16
   0  -1   6   58.21    4.18
   0  -1   6   56.86    4.14
   0   1  -6   56.86    4.42
   0   1  -6   59.22    4.00
   0   1  -6   61.49    4.45
   0  -1   6   64.50    3.27
   0  -1   6   47.65    4.46
   0  -1   6   60.31    3.44
   0  -1   6   55.74    4.10
   0  -1   6   53.82    4.03
   0  -1   6   57.65    4.51
   0   1  -6   50.00    5.05
   0   1  -6   51.43    5.29
   0   1  -6   53.59    5.44
   0   1  -6   56.24    4.27
   0   1  -6   63.23    4.12
   0  -1   6   57.27    4.74
   0   1  -6   55.77    4.26
   0   1  -6   54.43    4.21
   0  -1   6   61.21    4.23
   0  -1   6   62.00    4.61
   0  -1   6   55.45    4.82
   0  -1   6   46.61    3.80
   0  -1   6   61.92    5.43
   0  -1   6   52.81    4.33
   0   1  -5  481.32   10.15
   0   1  -5  428.03   10.99
   0  -1   5  504.71    8.70
   0  -1   5  431.64   11.24
   0  -1   5  383.10    9.69
   0  -1   5  441.58   10.65
   0   1  -5  438.79   13.64
   0   1  -5  447.11   10.96
   0   1  -5  454.76   11.05
   0  -1   5  502.85   11.91
   0   1  -5  436.49   13.16
   0  -1   5  435.61   10.63
   0   1  -5  441.85   11.01
   0   1  -5  419.24   13.22
   0  -1   5  424.58   11.76
   0  -1   5  428.70   10.49
   0   1  -5  459.07   10.14
   0  -1   5  429.05   12.72
   0   1  -5  441.46   10.99
   0  -1   5  436.87   11.67
   0  -1   5  424.14   10.62
   0  -1   5  415.47   11.67
   0   1  -5  449.04   10.89
   0  -1   5  415.79   10.36
   0   1  -4 3441.90   32.97
   0  -1   4 3489.19   32.60
   0   1  -4 3541.28   31.33
   0  -1   4 3488.31   32.98
   0   1  -4 3785.89   34.79
   0  -1   4 3835.76   34.26
   0   1  -4 3292.06   32.75
   0  -1   4 3521.97   32.68
   0  -1   4 3728.15   28.38
   0   1  -4 3466.27   33.25
   0  -1   4 3566.92   32.85
   0   1  -4 3454.13   30.71
   0   1  -4 3604.80   33.36
   0   1  -4 3486.56   33.25
   0  -1   4 3854.23   34.67
   0   1  -4 3516.23   33.40
   0  -1   4 3350.14   31.93
   0   1  -3 2159.43   21.71
   0   1  -3 2135.34   21.83
   0   1  -3 2130.75   21.50
   0  -1   3 2213.20   21.64
   0   1  -3 2269.75   22.30
   0   1  -3 2140.29   21.53
   0   1  -3 2025.81   19.76
   0   1  -3 2123.77   19.34
   0  -1   3 2117.80   21.14
   0  -1   3 2127.68   21.11
   0  -1   3 2331.48   22.22
   0   1  -3 2153.75   21.55
   0  -1   3 2177.75   21.20
   0  -1   3 2134.36   21.18
   0   1  -3 2019.14   18.96
   0   1  -3 2083.14   18.62
   0  -1   2 6745.60   48.60
   0   1  -2 7898.69   52.03
   0   1  -2 7847.77   51.08
   0  -1   2 7595.78   50.28
   0   1  -2 7042.82   52.27
   0  -1   2 7331.26   50.74
   0   1  -2 8086.33   51.96
   0   1  -2 7942.83   51.85
   0  -1   2 7762.37   51.10
   0  -1   2 7583.62   51.10
   0  -1   2 7426.25   50.86
   0  -1   2 7687.67   51.29
   0   1  -2 7623.31   50.59
   0   1  -2 7660.74   51.42
   0  -1   2 6740.94   48.16
   0   1  -2 7936.61   51.95
   0   1  -1 2215.47   16.86
   0  -1   1 2080.17   17.42
   0   1  -1 2209.05   16.26
   0  -1   1 2112.95   16.34
   0   1  -1 2062.70   16.52
   0   1  -1 2041.65   16.22
   0  -1   1 1832.96   15.59
   0  -1   1 2062.75   16.22
   0  -1   1 2142.71   16.57
   0   1  -1 2089.82   16.54
   0   1  -1 2057.97   16.29
   0  -1   1 2044.76   15.65
   0  -1   1 2045.31   16.26
   0   1  -1 2056.30   16.57
   0  -1   1 2020.02   16.30
   0   1  -1 2130.40   16.41
   0  -1   1 2104.89   16.20
   0   1  -1 2140.43   16.40
   0   1  -1 2075.96   16.36
   0  -1   1 2119.81   16.32
   0   1  -1 2101.93   16.63
   0   1  -1 2117.31   16.03
   0  -1   1 2102.21   16.21
   0   1  -1 2228.02   17.03
   0  -1   1 2073.67   16.16
   0   1  -1 2065.25   17.23
   0   1  -1 2096.95   15.43
   0  -1   1 2017.76   16.09
   0  -1   1 2058.02   15.71
   0  -1   1 2112.07   16.36
   0   1  -1 2173.25   16.56
   0   1  -1 2114.12   17.49
   0   1   0  212.42    2.65
   0  -1   0  187.79    2.38
   0  -1   0  198.04    2.57
   0   1   0  204.24    2.57
   0  -1   0  202.05    3.09
   0  -1   0  207.24    2.63
   0  -1   0  213.97    2.68
   0  -1   0  216.73    2.65
   0  -1   0  207.25    2.66
   0   1   0  230.69    2.54
   0   1   0  212.80    2.63
   0   1   0  201.02    3.32
   0   1   0  209.07    2.71
   0  -1   0  211.24    2.67
   0   1   0  218.40    2.69
   0   1   0  205.97    2.66
   0   1   0  204.03    2.56
   0   1   0  195.97    2.59
   0  -1   0  212.77    2.68
   0   1   0  197.81    2.56
   0  -1   0  216.84    2.67
   0  -1   0  196.58    3.35
   0   1   0  203.17    2.58
   0   1   0  203.23    2.58
   0  -1   0  224.12    2.74
   0  -1   0  219.63    2.81
   0   1   1 2913.92   17.00
   0  -1  -1 2771.04   18.87
   0   1   1 2567.17   18.47
   0   1   1 2683.39   18.68
   0  -1  -1 2847.98   18.96
   0   1   1 2835.56   18.68
   0   1   1 2669.92   18.59
   0   1   1 2844.99   18.67
   0  -1  -1 2726.88   18.48
   0   1   1 2564.16   18.63
   0  -1  -1 2667.47   17.39
   0  -1  -1 2926.60   18.80
   0  -1  -1 2822.90   18.99
   0  -1  -1 2789.09   18.70
   0  -1  -1 2774.93   16.97
   0   1   1 2569.56   18.83
   0  -1  -1 2813.91   18.90
   0   1   1 2474.91   18.07
   0   1   1 2810.11   18.68
   0  -1  -1 2793.83   18.71
   0   1   1 2630.71   18.56
   0  -1  -1 2610.59   19.94
   0  -1  -1 2750.80   18.82
   0   1   1 2529.59   18.27
   0   1   1 2777.73   18.61
   0  -1  -1 2894.79   18.77
   0  -1  -1 2640.94   18.81
   0  -1  -1 2789.06   18.89
   0   1   1 2870.72   18.73
   0   1   2  247.77    4.93
   0   1   2  231.19    4.69
   0   1   2  282.12    4.84
   0   1   2  223.66    3.45
   0  -1  -2  268.99    5.63
   0  -1  -2  254.09    4.59
   0   1   2  269.40    4.78
   0   1   2  245.00    4.26
   0  -1  -2  255.45    5.02
   0  -1  -2  256.13    5.12
   0   1   2  258.62    4.70
   0  -1  -2  275.77    4.22
   0   1   2  227.03    4.62
   0  -1  -2  267.70    3.56
   0  -1  -2  252.20    4.68
   0   1   2  264.94    4.10
   0  -1  -2  246.22    4.93
   0   1   2  222.13    4.44
   0  -1  -2  260.30    4.60
   0  -1  -2  257.02    5.07
   0  -1  -2  264.58    4.60
   0  -1  -2  260.32    4.63
   0   1   2  237.91    4.78
   0  -1  -2  250.69    4.39
   0   1   2  269.49    4.73
   0  -1  -2  276.54    4.72
   0  -1  -2  248.10    4.94
   0   1   2  252.05    4.55
   0   1   2  276.35    4.80
   0   1   2  231.91    4.67
   0  -1  -3 1610.40   15.00
   0  -1  -3 1549.34   15.96
   0   1   3 1681.53   16.33
   0  -1  -3 1410.21   11.52
   0   1   3 1493.21   11.79
   0   1   3 1683.51   16.33
   0  -1  -3 1555.51   15.70
   0  -1  -3 1596.50   15.69
   0  -1  -3 1523.67   15.67
   0   1   3 1596.81   15.93
   0   1   3 1661.21   16.36
   0   1   3 1641.92   16.25
   0  -1  -3 1371.14   10.91
   0   1   3 1634.45   16.57
   0  -1  -3 1480.73   11.96
   0  -1  -3 1550.51   15.69
   0   1   3 1584.80   16.22
   0   1   4   46.52    2.75
   0   1   4   48.00    2.86
   0  -1  -4   49.90    2.85
   0   1   4   47.58    2.85
   0  -1  -4   52.64    1.82
   0   1   4   48.29    2.86
   0  -1  -4   50.09    2.59
   0  -1  -4   49.16    2.83
   0  -1  -4   38.64    1.39
   0  -1  -4   46.84    2.76
   0  -1  -4   46.66    2.88
   0   1   4   48.19    2.87
   0  -1  -4   48.38    2.79
   0   1   4   48.73    2.92
   0   1   4   49.04    2.81
   0   1   5  781.10   13.11
   0   1   5  843.37   14.32
   0  -1  -5  730.73   17.25
   0   1   5  754.69   13.50
   0   1   5  854.07   14.29
   0  -1  -5  802.62   13.95
   0  -1  -5  810.17   13.69
   0  -1  -5  694.94   16.57
   0   1   5  831.88   14.17
   0   1   5  706.15    8.59
   0   1   5  694.01   14.08
   0   1   5  801.00   13.88
   0  -1  -5  802.19   13.54
   0  -1  -5  807.85   13.59
   0   1   5  811.75   13.64
   0  -1  -5  800.36    8.46
   0  -1  -5  832.08   13.76
   0   1   5  772.59   14.47
   0   1   5  861.25   14.36
   0  -1  -6   23.54    3.54
   0  -1  -6   31.87    3.07
   0   1   6   32.46    3.08
   0  -1  -6   27.27    2.76
   0   1   6   23.61    2.95
   0   1   6   25.13    2.86
   0  -1  -6   29.25    2.87
   0  -1  -6   20.85    2.45
   0   1   6   30.30    2.98
   0  -1  -6   21.99    3.11
   0   1   6   31.84    3.07
   0   1   6   30.60    2.82
   0  -1  -6   31.92    2.99
   0  -1  -6   22.52    3.14
   0   1   6   30.36    3.02
   0   1   6   22.93    3.08
   0   1   6   22.87    2.72
   0  -1  -6   22.07    3.39
   0   1   6   29.53    2.93
   0   1   6   25.19    2.70
   0  -1  -6   29.13    2.83
   0   1   6   28.09    2.78
   0  -1  -6   30.30    3.99
   0  -1  -6   24.77    2.39
   0   1   6   31.20    3.27
   0  -1  -7  582.89   19.27
   0   1   7  611.36   16.20
   0  -1  -7  566.24   20.04
   0   1   7  619.39   14.74
   0  -1  -7  564.82   17.56
   0  -1  -7  564.79   17.46
   0   1   7  545.18   15.16
   0   1   7  541.04   16.10
   0  -1  -7  436.96   12.14
   0  -1  -7  697.72   14.51
   0   1   7  549.41   14.69
   0   1   7  585.33   11.65
   0  -1  -7  577.34   19.44
   0  -1  -7  582.75   17.74
   0   1   7  677.16   14.22
   0   1   7  529.80   15.40
   0   1   7  570.45   17.03
   0  -1  -8    7.31    2.11
   0   1   8    6.01    1.79
   0   1   8    7.85    1.74
   0   1   8   13.02    2.38
   0  -1  -8    5.94    1.93
   0   1   8    5.79    1.69
   0   1   8    6.68    1.89
   0  -1  -8    8.22    1.98
   0  -1  -8    6.18    2.24
   0   1   8    7.04    2.02
   0  -1  -8    9.14    2.76
   0   1   8    7.64    2.17
   0  -1  -8    5.81    1.92
   0  -1  -8    5.63    2.32
   0  -1  -9  339.40   13.73
   0  -1  -9  384.14   17.21
   0   1   9  308.30   11.54
   0  -1  -9  380.62   17.46
   0  -1  -9  349.11   16.07
   0  -1  -9  331.47   13.37
   0   1   9  354.15   13.32
   0   1   9  331.20   12.78
   0   1   9  319.36   11.40
   0  -1  -9  414.23   13.42
   0  -1  -9  381.65   14.63
   0   1   9  317.24   11.87
   0   1   9  332.39   13.47
   0   1   9  344.45   10.56
   0  -1 -10   49.11    5.43
   0   1  10   45.12    3.75
   0   1  10   46.55    4.48
   0   1  10   46.87    3.58
   0  -1 -10   47.95    5.64
   0  -1 -10   54.55    4.50
   0  -1 -10   48.73    5.75
   0   1  10   40.86    4.33
   0   1  11   23.73    2.56
   0  -1 -11   21.93    2.98
   0  -1 -11   27.09    3.42
   0   1  11   18.13    2.35
   0  -2  10   64.77    4.91
   0   2 -10   76.29    5.63
   0   2 -10   78.81    5.84
   0  -2  10   81.26    4.95
   0   2 -10   65.30    4.42
   0  -2  10   71.91    4.93
   0  -2   9  291.36   10.01
   0  -2   9  251.30   11.52
   0   2  -9  260.58   12.65
   0   2  -9  275.58   12.56
   0  -2   9  241.69   10.87
   0   2  -9  251.02   11.03
   0   2  -9  243.15   11.65
   0   2  -9  260.65   12.59
   0  -2   8    1.03    0.92
   0   2  -8    1.45    1.36
   0   2  -8    0.46    0.86
   0  -2   8    0.14    0.89
   0   2  -8    0.37    0.92
   0   2  -8    0.91    0.92
   0  -2   8    0.35    0.77
   0  -2   8    0.13    0.90
   0  -2   8    0.18    0.53
   0   2  -8   -0.18    1.15
   0  -2   8    0.15    0.87
   0  -2   8    0.31    0.70
   0  -2   7  891.01   19.76
   0   2  -7  821.76   23.05
   0   2  -7  734.25   19.39
   0   2  -7  835.73   24.06
   0  -2   7 1069.15   20.79
   0  -2   7  976.97   21.01
   0  -2   7  912.36   18.53
   0   2  -7  792.62   21.38
   0   2  -7  807.45   23.40
   0  -2   7  790.46   21.26
   0  -2   7  763.74   19.13
   0  -2   7  834.20   21.14
   0  -2   7  995.05   18.49
   0  -2   6    4.42    1.26
   0   2  -6    1.76    1.09
   0   2  -6    2.89    1.41
   0   2  -6    2.61    1.39
   0   2  -6    2.73    1.03
   0  -2   6    1.63    0.90
   0  -2   6    0.84    0.91
   0  -2   6    2.99    1.32
   0   2  -6    4.85    1.41
   0  -2   6    2.24    1.02
   0  -2   6    4.12    1.41
   0   2  -6    2.25    0.88
   0  -2   6    2.17    1.14
   0  -2   5   29.55    2.97
   0   2  -5   41.89    3.40
   0   2  -5   36.96    4.01
   0  -2   5   29.30    2.85
   0  -2   5   26.98    3.10
   0  -2   5   27.06    2.95
   0   2  -5   27.87    3.01
   0  -2   5   32.42    3.04
   0   2  -5   26.78    3.15
   0  -2   5   30.38    2.91
   0  -2   5   26.72    2.75
   0   2  -5   30.39    2.66
   0  -2   5   36.62    3.12
   0  -2   5   29.18    3.18
   0  -2   5   28.29    2.70
   0  -2   5   26.39    2.70
   0  -2   5   31.45    3.19
   0   2  -5   29.84    3.61
   0  -2   5   30.41    2.88
   0   2  -4  861.19   14.99
   0  -2   4  830.33   14.11
   0   2  -4  771.89   16.15
   0   2  -4  871.63   15.10
   0   2  -4  920.24   15.79
   0  -2   4  763.09   14.67
   0  -2   4  866.49   14.59
   0  -2   4  814.72   14.03
   0  -2   4  866.16    8.76
   0  -2   4  811.69   13.97
   0   2  -4  798.15   12.75
   0  -2   4  821.60   14.13
   0  -2   4  753.32   14.82
   0   2  -4  867.06   15.02
   0   2  -4  768.86   13.39
   0   2  -4  844.20   15.10
   0   2  -3 2354.51   23.84
   0  -2   3 2152.80   22.38
   0   2  -3 2055.65   22.30
   0  -2   3 2165.91   22.38
   0   2  -3 2349.55   23.94
   0  -2   3 2194.41   22.52
   0   2  -3 2639.19   20.93
   0  -2   3 2154.74   22.63
   0   2  -3 2358.24   24.12
   0   2  -3 2202.56   21.25
   0   2  -3 2269.72   23.64
   0   2  -3 2202.35   25.54
   0  -2   3 2280.43   18.24
   0   2  -3 2318.66   23.69
   0   2  -3 2219.25   20.36
   0  -2   3 2209.50   22.58
   0   2  -2 8628.51   57.66
   0   2  -2 8293.60   58.08
   0   2  -2 7843.36   54.48
   0   2  -2 8512.22   60.57
   0  -2   2 8074.21   56.11
   0   2  -2 8747.68   57.77
   0   2  -2 8632.26   57.52
   0  -2   2 7939.36   56.11
   0   2  -2 7773.35   55.11
   0  -2   2 7969.56   56.12
   0   2  -2 9377.43   57.93
   0  -2   2 8560.52   55.77
   0  -2   2 8022.00   56.40
   0   2  -2 9270.61   56.83
   0  -2   2 7953.96   56.01
   0   2  -2 8330.87   57.19
   0   2  -1 1426.53   15.27
   0  -2   1 1354.01   13.00
   0  -2   1 1369.81   13.01
   0  -2   1 1388.80   13.13
   0  -2   1 1321.35   12.88
   0   2  -1 1425.59   13.78
   0   2  -1 1364.53   14.68
   0   2  -1 1422.65   13.79
   0   2  -1 1404.32   13.78
   0  -2   1 1360.43   12.99
   0   2  -1 1410.21   13.79
   0   2  -1 1333.83   15.61
   0  -2   1 1345.17   14.16
   0  -2   1 1354.19   13.03
   0  -2   1 1350.33   13.05
   0  -2   1 1345.65   14.16
   0   2  -1 1424.25   14.74
   0  -2   1 1365.61   13.06
   0   2  -1 1367.29   13.16
   0  -2   1 1432.39   14.20
   0   2  -1 1417.30   13.77
   0  -2   1 1329.82   13.05
   0  -2   1 1303.95   12.82
   0   2  -1 1390.36   15.57
   0  -2   0 1543.37   12.76
   0  -2   0 1404.45   11.99
   0  -2   0 1631.96   13.04
   0   2   0 1584.67   16.31
   0   2   0 1746.59   15.50
   0   2   0 1565.11   15.34
   0   2   0 1507.64   12.72
   0  -2   0 1527.41   12.86
   0   2   0 1557.79   12.72
   0   2   0 1745.91   12.35
   0   2   0 1512.10   12.77
   0  -2   0 1681.04   13.23
   0  -2   0 1545.42   15.61
   0   2   0 1615.52   13.05
   0   2   0 1647.87   13.31
   0   2   0 1467.28   12.66
   0   2   0 1524.41   15.93
   0   2   0 1539.92   12.79
   0  -2   0 1649.72   13.05
   0   2   0 1368.25   12.45
   0   2   0 1609.55   12.83
   0  -2   0 1665.34   13.10
   0  -2   0 1583.12   13.18
   0   2   0 1549.11   12.83
   0   2   0 1623.46   12.99
   0  -2   0 1547.44   12.74
   0  -2   0 1548.16   12.88
   0  -2   0 1723.88   13.31
   0  -2  -1 2552.14   20.16
   0  -2  -1 2512.97   18.15
   0   2   1 2191.67   17.28
   0   2   1 2718.99   19.36
   0   2   1 2202.55   17.23
   0   2   1 2296.90   17.58
   0   2   1 2144.40   18.19
   0  -2  -1 2350.49   17.76
   0   2   1 2186.33   17.28
   0  -2  -1 2383.36   17.90
   0   2   1 2544.85   18.26
   0  -2  -1 2423.54   18.05
   0   2   1 2649.28   21.86
   0   2   1 2323.02   17.84
   0   2   1 2058.54   17.02
   0  -2  -1 2506.15   18.21
   0   2   1 2263.40   17.54
   0   2   1 2181.99   17.53
   0  -2  -1 2357.23   18.06
   0  -2  -1 2337.73   18.05
   0   2   1 2240.53   17.50
   0  -2  -1 2468.53   18.11
   0   2   1 2251.82   17.57
   0  -2  -1 2623.49   19.33
   0   2   1 2297.17   17.58
   0  -2  -1 2426.92   18.43
   0  -2  -1 2470.56   18.06
   0   2   1 2225.08   17.32
   0  -2  -1 2238.33   17.73
   0   2   2   29.52    1.62
   0   2   2   28.05    1.58
   0  -2  -2   33.54    2.04
   0  -2  -2   29.40    1.71
   0  -2  -2   28.24    1.67
   0   2   2   27.71    1.81
   0   2   2   28.62    1.59
   0  -2  -2   31.87    1.68
   0   2   2   29.56    1.69
   0  -2  -2   31.28    2.07
   0  -2  -2   29.36    1.72
   0  -2  -2   28.70    1.68
   0  -2  -2   29.50    1.62
   0   2   2   28.80    1.59
   0  -2  -2   31.06    1.71
   0  -2  -2   23.67    0.79
   0   2   2   25.70    0.82
   0  -2  -2   30.39    1.64
   0  -2  -2   28.06    1.18
   0  -2  -2   29.47    1.70
   0   2   2   33.80    1.97
   0   2   2   27.51    1.57
   0  -2  -2   28.24    1.67
   0  -2  -3 2174.07   19.25
   0  -2  -3 2177.71   19.30
   0   2   3 2055.95   19.27
   0  -2  -3 2243.59   19.33
   0   2   3 2121.31   19.26
   0  -2  -3 2220.61   19.30
   0   2   3 2157.66   19.32
   0  -2  -3 2026.01   18.92
   0   2   3 1960.83   16.33
   0  -2  -3 2092.69   19.68
   0   2   3 2079.22   18.89
   0   2   3 2260.01   19.76
   0   2   3 2171.64   19.50
   0   2   3 2167.58   20.77
   0  -2  -3 2131.51   19.46
   0   2   3 2174.55   19.37
   0   2   3 2115.88   19.33
   0  -2  -3 2239.11   17.95
   0  -2  -4  941.73   11.35
   0   2   4 1087.88   14.76
   0   2   4 1080.71   14.52
   0   2   4 1104.49   14.68
   0  -2  -4  999.75   13.97
   0  -2  -4  969.67   14.37
   0  -2  -4 1104.16    9.70
   0   2   4 1119.09   15.80
   0   2   4 1102.56   14.66
   0  -2  -4 1073.76   14.25
   0   2   4 1088.43   12.16
   0   2   4  983.11   14.05
   0  -2  -4  994.32   14.27
   0  -2  -4 1091.79   11.33
   0   2   4 1077.77   14.51
   0  -2  -4 1062.41   14.27
   0   2   4 1055.83   14.55
   0  -2  -4 1062.08   14.25
   0  -2  -4 1125.26   11.29
   0  -2  -5 1511.55   25.77
   0  -2  -5 1567.63   19.95
   0   2   5 1788.88   22.49
   0  -2  -5 1426.43   25.16
   0  -2  -5 1507.45   25.96
   0  -2  -5 1591.96   20.15
   0   2   5 1659.29   20.93
   0   2   5 1610.45   22.82
   0  -2  -5 1609.63   20.28
   0   2   5 1695.72   21.02
   0   2   5 1623.85   20.53
   0   2   5 1653.33   21.04
   0   2   5 1682.25   22.33
   0  -2  -5 1515.49   25.71
   0   2   5 1650.57   21.01
   0  -2  -5 1708.36   14.68
   0  -2  -5 1577.86   20.63
   0  -2  -5 1573.10   20.44
   0  -2  -5 1688.52   20.35
   0   2   5 1601.15   20.43
   0  -2  -5 1624.84   20.32
   0  -2  -5 1673.39   15.20
   0   2   5 1671.41   21.10
   0  -2  -6   36.45    3.26
   0   2   6   39.66    3.49
   0  -2  -6   28.19    3.27
   0   2   6   34.38    3.32
   0  -2  -6   36.16    3.09
   0  -2  -6   35.41    3.11
   0   2   6   32.77    3.18
   0   2   6   35.32    3.15
   0  -2  -6   33.84    3.96
   0   2   6   36.61    3.22
   0   2   6   35.48    3.03
   0   2   6   37.70    3.29
   0   2   6   38.18    3.31
   0  -2  -6   32.87    2.98
   0   2   6   54.95    4.41
   0  -2  -6   38.05    4.48
   0  -2  -6   44.71    3.30
   0  -2  -6   38.04    3.19
   0  -2  -6   30.56    3.35
   0   2   6   29.51    3.34
   0   2   6   38.21    3.31
   0  -2  -6   33.27    4.07
   0   2   6   31.64    3.16
   0  -2  -6   34.07    3.12
   0   2   6   36.16    3.25
   0  -2  -6   33.68    4.08
   0  -2  -6   33.58    3.01
   0  -2  -6   29.27    3.38
   0  -2  -7  436.67   13.44
   0   2   7  565.29   13.89
   0   2   7  554.05   14.96
   0   2   7  512.77   14.07
   0  -2  -7  502.17   17.78
   0   2   7  486.29   13.80
   0  -2  -7  499.87   17.24
   0  -2  -7  531.70   18.29
   0  -2  -7  537.63   15.95
   0   2   7  508.60   15.14
   0  -2  -7  610.27   13.59
   0  -2  -7  525.31   18.84
   0   2   7  513.05   15.36
   0  -2  -7  503.78   14.64
   0   2   8  235.73   11.14
   0   2   8  235.75   10.17
   0  -2  -8  278.04   11.02
   0   2   8  251.64   10.75
   0  -2  -8  245.69   13.91
   0  -2  -8  241.65   12.89
   0   2   8  245.75   11.09
   0  -2  -8  251.99   11.17
   0  -2  -8  247.04   13.74
   0   2   8  224.19    9.58
   0  -2  -8  192.08    8.85
   0   2   8  230.35   10.88
   0   2   9  595.65   17.83
   0  -2  -9  697.86   21.81
   0   2   9  609.09   17.74
   0  -2  -9  720.60   18.36
   0  -2  -9  662.62   20.80
   0   2   9  616.83   14.68
   0   2   9  660.91   17.89
   0  -2  -9  762.86   18.53
   0  -2  -9  661.18   20.99
   0  -2  -9  660.99   22.65
   0  -2  -9  693.68   23.45
   0  -2  -9  549.27   14.04
   0   2   9  586.84   15.20
   0   2  10    7.29    1.47
   0  -2 -10    8.07    2.49
   0  -2 -10    5.84    1.60
   0   2  10    6.81    1.60
   0  -2 -10    4.32    1.62
   0  -2 -10    8.28    2.13
   0   2  10    6.86    1.72
   0   2  10    3.74    1.34
   0   2  11   51.08    3.85
   0   2  11   52.00    3.27
   0   2  11   60.93    4.07
   0  -2 -11   60.59    5.01
   0   3 -10  158.33    6.96
   0   3 -10  172.99    7.43
   0  -3  10  169.10    6.43
   0  -3   9  295.22   11.14
   0   3  -9  309.33   12.37
   0  -3   9  362.89   10.43
   0  -3   9  358.62   11.90
   0  -3   9  307.45   11.91
   0   3  -9  331.43   12.75
   0   3  -9  293.94   11.47
   0  -3   8   55.00    4.43
   0  -3   8   54.70    5.54
   0  -3   8   48.37    5.02
   0  -3   8   60.41    4.86
   0  -3   8   58.90    5.44
   0   3  -8   50.83    5.66
   0   3  -8   45.42    5.06
   0   3  -8   40.78    5.09
   0   3  -8   41.06    4.19
   0  -3   7  964.44   23.27
   0  -3   7 1200.90   25.54
   0  -3   7 1159.86   22.43
   0   3  -7  920.19   23.27
   0   3  -7  925.11   21.62
   0  -3   7 1165.20   19.28
   0  -3   7 1264.65   23.15
   0  -3   7  973.02   23.94
   0   3  -7  956.28   25.56
   0   3  -7  892.09   22.37
   0  -3   7 1189.08   23.65
   0   3  -6 1909.21   35.30
   0  -3   6 2202.73   28.68
   0  -3   6 2582.77   36.14
   0  -3   6 2436.30   31.50
   0   3  -6 1936.83   33.66
   0  -3   6 2000.54   33.86
   0  -3   6 2290.42   33.47
   0   3  -6 1887.02   31.06
   0  -3   6 2123.37   30.65
   0  -3   6 2165.09   34.22
   0  -3   6 2482.96   32.17
   0  -3   6 2004.42   32.82
   0  -3   6 2148.04   28.19
   0  -3   6 1865.92   31.02
   0   3  -5 5216.29   48.63
   0  -3   5 4796.35   46.67
   0  -3   5 4693.29   49.16
   0   3  -5 4912.75   47.80
   0  -3   5 4790.18   44.44
   0  -3   5 4740.31   46.11
   0   3  -5 5263.18   48.93
   0  -3   5 4630.80   44.81
   0   3  -5 5698.12   51.75
   0  -3   5 4288.91   43.43
   0   3  -5 4633.31   51.80
   0   3  -5 4414.72   47.14
   0   3  -5 4359.00   52.11
   0  -3   5 4515.12   49.21
   0  -3   5 4587.34   44.84
   0  -3   5 4657.16   44.78
   0   3  -5 4990.64   47.06
   0   3  -5 5120.66   48.63
   0  -3   5 4091.94   39.58
   0   3  -5 4693.47   51.16
   0  -3   5 4582.49   50.29
   0  -3   5 4734.71   45.30
   0  -3   5 4602.14   49.34
   0   3  -5 4775.87   44.49
   0  -3   5 4606.06   44.91
   0   3  -5 4645.07   53.06
   0  -3   5 4834.08   51.35
   0   3  -5 5257.77   48.83
   0   3  -4  806.10   15.52
   0  -3   4  793.58   16.07
   0  -3   4  768.37   14.50
   0  -3   4  805.74   14.62
   0   3  -4  757.86   16.29
   0   3  -4  829.48   15.45
   0   3  -4  740.04   14.39
   0  -3   4  734.83   13.84
   0  -3   4  736.89   15.57
   0  -3   4  722.45   13.66
   0   3  -4  786.59   12.94
   0   3  -4  789.48   17.30
   0   3  -4  788.72   13.72
   0  -3   4  802.16   16.49
   0  -3   4  759.00   16.01
   0   3  -4  870.37   16.04
   0  -3   4  738.72   13.97
   0   3  -4  836.02   15.48
   0  -3   4  759.07    9.85
   0  -3   4  693.89   13.61
   0  -3   4  734.57   13.74
   0   3  -4  746.28   16.63
   0   3  -4  838.60   15.51
   0  -3   4  755.53   12.99
   0  -3   3  482.90   10.95
   0   3  -3  504.40   12.47
   0   3  -3  529.98   10.84
   0  -3   3  493.81    8.60
   0   3  -3  509.42   11.08
   0  -3   3  472.04    9.77
   0   3  -3  526.24   10.87
   0  -3   3  441.65    9.48
   0  -3   3  469.89    9.67
   0  -3   3  501.29   11.54
   0  -3   3  444.66    9.44
   0   3  -3  547.74   11.22
   0   3  -3  486.77    9.66
   0  -3   3  454.27    9.52
   0   3  -3  543.00   11.05
   0   3  -3  521.44   10.84
   0   3  -2 1846.88   19.58
   0   3  -2 1776.97   18.85
   0   3  -2 1821.12   19.59
   0  -3   2 1537.51   17.68
   0   3  -2 1820.80   19.57
   0  -3   2 1450.00   17.20
   0   3  -2 1812.83   18.43
   0   3  -2 1838.15   21.08
   0   3  -2 1775.13   22.74
   0  -3   2 1704.39   19.10
   0   3  -2 1860.88   19.81
   0  -3   2 1517.54   17.39
   0  -3   2 1489.89   17.44
   0  -3   2 1476.20   17.22
   0   3  -2 1836.67   19.61
   0   3  -1  115.74    3.88
   0   3  -1  119.20    4.82
   0   3  -1  112.16    3.85
   0   3  -1  117.49    3.94
   0   3  -1  113.74    3.89
   0   3  -1  124.78    3.94
   0  -3   1  129.53    4.75
   0   3  -1  110.71    3.85
   0   3  -1  110.17    3.82
   0  -3   1  105.82    4.10
   0  -3   0  940.80    9.91
   0   3   0 1054.28   11.11
   0   3   0  936.59   12.03
   0   3   0  968.25   11.00
   0  -3   0 1113.79   11.33
   0   3   0  972.38   11.13
   0   3   0 1003.86   11.23
   0  -3   0  978.55   13.82
   0   3   0 1099.50   11.75
   0   3   0 1056.72   11.23
   0  -3   0 1101.69   11.50
   0   3   0  905.66   11.81
   0  -3   0 1123.12   11.50
   0   3   0 1045.09   10.89
   0   3   0  971.54   10.60
   0   3   0 1033.95   11.00
   0  -3   0 1140.99   11.54
   0   3   0 1023.19   13.83
   0   3   0  985.84   11.17
   0   3   0  985.91   11.13
   0  -3   0 1120.42   11.77
   0   3   0 1044.27   11.74
   0  -3   0 1163.41   11.64
   0   3   0 1013.01   10.66
   0   3   0 1032.42    9.80
   0  -3   0 1089.05   15.02
   0  -3  -1   35.45    2.50
   0   3   1   35.45    1.72
   0   3   1   36.79    1.80
   0   3   1   36.57    1.81
   0  -3  -1   41.28    1.98
   0  -3  -1   46.23    2.95
   0  -3  -1   44.46    2.07
   0  -3  -1   43.07    2.01
   0  -3  -1   41.88    1.99
   0   3   1   38.75    2.13
   0   3   1   32.71    2.01
   0  -3  -1   41.77    2.00
   0   3   1   37.89    1.76
   0   3   1   33.76    1.67
   0  -3  -1   42.20    2.30
   0   3   1   42.61    1.80
   0   3   1   36.79    1.76
   0  -3  -1   43.34    2.05
   0   3   2  139.58    4.46
   0  -3  -2  156.59    5.61
   0  -3  -2  156.53    5.63
   0  -3  -2  152.33    4.23
   0   3   2  145.81    3.33
   0   3   2  164.36    4.84
   0  -3  -3   40.59    3.11
   0   3   3   40.88    2.52
   0   3   3   44.41    2.88
   0  -3  -4    2.23    0.73
   0  -3  -4    2.93    0.96
   0   3   4    3.18    0.83
   0  -3  -4    5.23    1.41
   0   3   4    2.92    0.86
   0   3   5  690.63   12.91
   0   3   5  669.83   13.33
   0   3   5  646.77   12.67
   0  -3  -5  518.18    9.45
   0   3   5  660.95   12.76
   0  -3  -5  574.13   15.63
   0   3   5  677.66   14.51
   0   3   5  657.63   12.79
   0  -3  -5  568.83   15.94
   0   3   5  638.33   12.58
   0  -3  -5  658.77   14.74
   0   3   5  723.29   14.87
   0  -3  -5  593.16   16.54
   0  -3  -5  583.02   16.52
   0  -3  -5  571.74   15.12
   0   3   5  671.27   12.86
   0  -3  -5  540.45   15.20
   0   3   6   17.53    2.30
   0   3   6   15.15    2.31
   0   3   6   16.50    2.11
   0   3   6   18.87    2.36
   0   3   6   17.17    2.42
   0  -3  -6   17.25    2.20
   0  -3  -6   17.72    3.01
   0   3   6   15.21    2.20
   0  -3  -6   16.27    2.25
   0  -3  -6   18.39    2.29
   0   3   6   20.02    2.55
   0  -3  -6   16.59    2.91
   0  -3  -6   15.19    2.80
   0   3   6   18.30    2.36
   0  -3  -6   16.76    2.22
   0  -3  -6   14.63    2.47
   0   3   6   17.17    2.36
   0  -3  -6   16.43    2.39
   0   3   6   16.25    2.24
   0  -3  -6   13.94    2.54
   0  -3  -6   16.82    2.11
   0  -3  -6   13.53    2.82
   0  -3  -6   16.44    2.16
   0   3   6   16.89    2.27
   0   3   6   18.09    2.60
   0  -3  -6   17.88    3.23
   0   3   7  673.67   16.11
   0  -3  -7  557.37   17.48
   0  -3  -7  612.64   19.71
   0   3   7  616.25   14.96
   0   3   7  622.43   14.59
   0   3   7  563.79   15.47
   0   3   7  531.55   14.06
   0  -3  -7  593.10   20.29
   0  -3  -7  600.47   20.63
   0  -3  -7  506.82   16.18
   0   3   7  589.91   16.36
   0  -3  -7  553.15   17.04
   0  -3  -7  589.35   15.96
   0  -3  -7  591.35   19.88
   0  -3  -8  340.10   12.48
   0   3   8  332.08   10.98
   0   3   8  369.85   12.67
   0  -3  -8  361.82   16.01
   0  -3  -8  343.94   16.08
   0   3   8  322.20   11.42
   0  -3  -8  319.73   12.69
   0  -3  -8  358.12   16.64
   0  -3  -8  367.53   14.71
   0   3   8  319.05   12.16
   0   3   8  340.89   11.62
   0   3   8  331.00   12.83
   0  -3  -8  373.05   16.89
   0  -3  -9  156.30    8.16
   0  -3  -9  186.26   10.05
   0  -3  -9  181.86   11.53
   0   3   9  158.19    7.72
   0   3   9  161.24    8.95
   0  -3  -9  173.98    8.90
   0   3   9  189.71    9.01
   0  -3  -9  159.42   10.88
   0  -3  -9  184.98   11.21
   0  -3  -9  166.87   11.27
   0   3  10   13.68    2.38
   0  -3 -10   13.78    2.96
   0   3  10   16.68    2.55
   0   3  10   11.42    2.09
   0  -3 -10   13.40    2.70
   0   3  10   18.85    2.21
   0  -3 -10   17.60    3.19
   0   3  11    5.91    1.29
   0   3  11    6.01    1.31
   0  -3 -11    6.47    1.66
   0  -3 -11    5.98    1.22
   0   3  11    5.74    1.27
   0   4  -9  246.62    8.77
   0   4  -9  282.87   10.13
   0  -4   9  249.00    9.05
   0   4  -9  298.30    9.31
   0   4  -9  261.20   10.19
   0  -4   8    2.52    1.17
   0  -4   8    1.32    0.96
   0  -4   8    0.88    0.76
   0   4  -8    1.12    1.06
   0   4  -8    1.33    1.03
   0   4  -8    0.80    0.73
   0  -4   8    2.17    1.23
   0   4  -8    0.84    0.82
   0   4  -8    1.45    0.99
   0  -4   7  142.64    8.04
   0  -4   7  144.58    8.65
   0   4  -7  117.41    7.83
   0   4  -7  126.78    8.24
   0  -4   7  132.24    8.53
   0   4  -7  113.84    8.27
   0  -4   7  133.31    8.34
   0  -4   7  170.26    8.13
   0   4  -7  108.55    7.02
   0   4  -7  125.78    8.47
   0  -4   6  712.16   19.12
   0  -4   6  844.22   16.29
   0  -4   6  777.17   20.06
   0   4  -6  587.32   18.11
   0  -4   6  886.89   20.98
   0  -4   6  790.88   17.58
   0   4  -6  695.37   19.21
   0  -4   6  853.15   18.96
   0  -4   6  722.08   20.04
   0   4  -6  649.06   17.51
   0  -4   6  902.17   18.99
   0  -4   6  877.07   20.49
   0  -4   5    5.48    1.29
   0  -4   5    6.76    1.70
   0  -4   5    6.20    1.27
   0  -4   5    5.91    1.33
   0   4  -5    6.16    1.51
   0   4  -5    5.97    1.46
   0  -4   5    5.61    1.74
   0  -4   5    4.58    1.19
   0  -4   5    6.78    1.89
   0  -4   5    5.98    1.51
   0   4  -5    6.19    1.48
   0  -4   5   12.36    2.49
   0  -4   5    5.01    1.65
   0  -4   5    6.29    1.37
   0   4  -5    7.71    1.60
   0  -4   5    7.13    1.79
   0  -4   5    6.48    1.41
   0  -4   5    7.55    1.81
   0   4  -5    6.29    1.49
   0  -4   5    6.95    1.55
   0   4  -5    4.67    1.38
   0  -4   4  111.00    5.17
   0   4  -4  119.21    5.66
   0   4  -4  118.70    5.28
   0   4  -4  133.46    6.26
   0  -4   4  127.99    5.61
   0   4  -4  114.23    6.39
   0   4  -4  113.82    6.78
   0   4  -4  122.71    5.79
   0   4  -4  116.42    5.67
   0  -4   4  109.36    5.15
   0  -4   4  135.35    7.08
   0  -4   4  108.73    5.15
   0   4  -4  113.67    5.99
   0  -4   4  109.90    5.32
   0  -4   4  127.32    5.99
   0  -4   4  101.26    6.48
   0   4  -4  121.08    5.79
   0   4  -4  122.61    7.37
   0  -4   4  129.65    5.67
   0  -4   4  116.05    6.54
   0  -4   4  102.87    4.91
   0   4  -4  118.95    5.69
   0  -4   4  125.57    6.17
   0   4  -4  120.66    5.82
   0  -4   4  109.09    5.14
   0   4  -3    4.45    1.21
   0  -4   3    3.32    0.84
   0  -4   3    3.44    0.94
   0   4  -3    4.28    1.02
   0   4  -3    3.95    0.99
   0   4  -3    3.85    0.99
   0  -4   3    3.15    0.82
   0  -4   3    3.61    1.15
   0  -4   3    3.38    0.87
   0   4  -3    3.46    1.12
   0   4  -3    5.15    1.48
   0  -4   3    4.11    1.08
   0  -4   3    3.66    0.90
   0   4  -3    4.16    0.95
   0  -4   3    3.52    0.99
   0  -4   3    3.13    1.06
   0   4  -3    3.29    0.90
   0   4  -3    3.43    0.93
   0  -4   3    3.09    1.04
   0  -4   3    3.37    0.87
   0   4  -3    4.01    1.03
   0  -4   3   10.22    1.44
   0   4  -2 2275.88   23.87
   0  -4   2 2176.66   25.19
   0  -4   2 2222.48   26.99
   0  -4   2 2123.35   22.60
   0  -4   2 2060.50   25.38
   0   4  -2 2315.58   24.10
   0  -4   2 2103.88   22.29
   0   4  -2 2215.87   28.83
   0  -4   2 1956.55   23.93
   0  -4   2 2094.07   22.19
   0  -4   2 2132.71   22.38
   0   4  -2 2087.63   23.71
   0   4  -2 2301.96   24.03
   0   4  -2 2208.76   26.62
   0   4  -2 2256.85   24.03
   0  -4   2 2117.57   25.43
   0  -4   2 2094.90   26.50
   0  -4   2 2103.50   22.29
   0   4  -2 2310.12   24.09
   0   4  -1 1278.60   15.54
   0   4  -1 1277.98   15.59
   0  -4   1 1122.03   13.99
   0  -4   1 1278.83   19.04
   0   4  -1 1283.65   15.57
   0  -4   1 1089.71   13.81
   0  -4   1 1090.95   13.78
   0   4  -1 1293.17   15.66
   0   4  -1 1149.30   18.52
   0   4  -1 1290.30   15.65
   0  -4   1 1153.92   14.00
   0   4  -1 1158.32   17.20
   0   4  -1 1167.12   15.45
   0  -4   1 1162.83   14.24
   0   4  -1 1130.17   15.69
   0  -4   1 1093.29   16.72
   0  -4   0   47.34    3.51
   0   4   0   38.84    2.53
   0   4   0   45.43    2.41
   0  -4   0   40.79    2.21
   0   4   0   41.25    2.68
   0  -4   0   39.93    2.18
   0   4   0   36.93    1.59
   0  -4   0   41.32    2.22
   0   4   0   45.77    2.43
   0  -4   0   39.97    2.14
   0  -4   0   38.15    2.95
   0   4   0   41.87    3.03
   0  -4   0   42.85    2.29
   0   4   0   42.53    2.38
   0   4   0   42.71    2.02
   0   4   0   43.90    2.40
   0   4   0   46.07    2.44
   0  -4  -1  715.93   13.81
   0   4   1  705.57    9.76
   0  -4  -1  767.32   14.94
   0   4   1  799.38   10.44
   0   4   1  721.96    9.87
   0   4   1  726.12    9.93
   0  -4  -1  710.45   10.09
   0  -4  -1  715.49   10.14
   0   4   1  713.73    9.83
   0  -4  -1  736.92   10.51
   0   4   1  774.51    9.84
   0   4   1  658.88   11.35
   0  -4  -1  713.33    9.96
   0   4   1  596.32   10.81
   0  -4  -1  724.28   10.03
   0   4   1  716.90    9.88
   0   4   2 1387.05   14.89
   0   4   2 1418.20   15.06
   0  -4  -2 1437.37   15.99
   0  -4  -2 1350.35   14.97
   0   4   2 1429.24   14.98
   0  -4  -2 1638.30   22.79
   0  -4  -2 1486.41   15.87
   0  -4  -2 1423.99   15.42
   0   4   2 1420.91   15.17
   0   4   2 1353.93   14.65
   0  -4  -2 1422.27   16.14
   0  -4  -2 1543.70   21.68
   0   4   2 1223.08   16.55
   0   4   2 1430.62   14.85
   0   4   2 1804.06   18.44
   0   4   2 1478.41   17.84
   0  -4  -3  307.63    8.01
   0   4   3  256.03    6.68
   0  -4  -3  315.17    7.94
   0  -4  -3  317.37    7.82
   0  -4  -3  322.51    7.71
   0   4   3  336.31    4.96
   0  -4  -3  322.15   10.36
   0   4   3  265.82    3.60
   0   4   3  275.58    6.78
   0   4   3  346.10    8.52
   0   4   3  268.16    6.73
   0   4   3  262.69    6.81
   0  -4  -3  328.61    7.73
   0   4   3  263.70    6.69
   0  -4  -3  320.51    9.91
   0  -4  -3  312.58   10.46
   0  -4  -3  286.69    8.65
   0  -4  -3  360.06   10.71
   0  -4  -4   28.89    3.16
   0  -4  -4   34.76    3.52
   0   4   4   25.08    2.26
   0   4   4   25.79    2.41
   0  -4  -4   30.58    2.75
   0  -4  -4   33.68    2.71
   0  -4  -4   30.78    3.53
   0  -4  -4   31.96    3.10
   0  -4  -4   34.03    2.73
   0   4   4   28.59    2.41
   0  -4  -4   31.38    2.71
   0   4   4   35.70    2.83
   0  -4  -4   25.18    2.99
   0   4   4   24.73    2.31
   0  -4  -4   28.97    2.77
   0  -4  -4   29.38    3.45
   0   4   4   40.13    3.37
   0  -4  -4   31.44    3.66
   0   4   4   26.05    2.30
   0  -4  -4   33.91    2.69
   0   4   4   25.43    2.23
   0  -4  -5   10.26    2.26
   0  -4  -5   10.82    1.68
   0  -4  -5   10.96    1.68
   0  -4  -5   10.58    2.10
   0  -4  -5   10.21    1.72
   0   4   5   11.31    1.69
   0  -4  -5   10.68    2.34
   0   4   5   12.10    1.95
   0   4   5   18.49    2.20
   0  -4  -5    8.56    1.53
   0   4   5    8.51    1.50
   0  -4  -5   10.19    1.71
   0  -4  -5   10.46    1.67
   0   4   5    9.49    1.56
   0   4   5   10.93    1.80
   0   4   5    9.88    1.62
   0  -4  -5    8.31    2.15
   0  -4  -5   10.12    2.32
   0   4   5   10.69    1.72
   0   4   5    9.92    1.60
   0  -4  -5   10.63    2.40
   0   4   5   10.13    1.65
   0  -4  -6   70.41    6.52
   0   4   6   78.35    4.89
   0  -4  -6   70.70    4.60
   0  -4  -6   68.97    6.66
   0  -4  -6   61.64    5.63
   0  -4  -6   74.30    4.72
   0  -4  -6   73.73    4.72
   0  -4  -6   68.92    6.16
   0   4   6   76.62    4.87
   0   4   6   75.98    4.88
   0   4   6   78.54    4.89
   0  -4  -6   80.43    5.14
   0  -4  -6   82.33    7.27
   0   4   6   84.91    5.72
   0  -4  -6   66.24    6.36
   0   4   6   75.74    4.84
   0   4   6   67.40    4.63
   0   4   6   74.68    5.13
   0  -4  -6   74.54    4.86
   0   4   6   72.05    4.68
   0  -4  -6   71.62    5.62
   0  -4  -6   72.40    5.52
   0  -4  -7 1347.53   29.77
   0  -4  -7 1253.68   28.07
   0   4   7 1508.49   24.19
   0  -4  -7 1362.85   32.53
   0  -4  -7 1246.07   18.98
   0  -4  -7 1348.42   32.12
   0   4   7 1180.80   21.25
   0   4   7 1462.14   24.94
   0  -4  -7 1163.07   24.88
   0   4   7 1317.43   24.92
   0  -4  -7 1307.28   27.33
   0   4   8  317.53   11.52
   0  -4  -8  261.54   11.55
   0  -4  -8  310.98   15.89
   0  -4  -8  290.29   13.01
   0   4   8  302.00   10.71
   0   4   8  295.56   10.30
   0  -4  -8  309.95   15.87
   0  -4  -8  278.59    8.31
   0  -4  -9    6.10    2.36
   0  -4  -9    7.32    1.92
   0   4   9    4.15    1.58
   0  -4  -9    3.37    1.36
   0  -4  -9    4.05    1.95
   0   4   9    5.96    1.65
   0   4   9    4.85    1.37
   0  -4 -10    9.80    1.75
   0  -4 -10    9.54    1.83
   0   4  10    8.79    1.90
   0   4  10    8.40    1.83
   0   4  10   11.08    2.00
   0  -4 -10   10.46    2.58
   0  -4 -10    8.70    2.39
   0   4  10   10.35    1.59
   0  -4 -11    6.42    1.21
   0   4  11    5.44    1.16
   0   4  11    5.43    1.18
   0   5  -9  121.78    4.67
   0   5  -8    5.96    1.58
   0   5  -8    6.63    1.65
   0  -5   8    8.85    1.65
   0   5  -8    5.79    1.68
   0  -5   8    6.33    1.54
   0  -5   8    8.68    1.60
   0   5  -8    6.23    1.55
   0   5  -7  700.75   18.49
   0   5  -7  602.10   15.14
   0   5  -7  632.85   18.45
   0   5  -7  704.40   18.50
   0  -5   7  690.44   18.15
   0  -5   6  141.04    8.36
   0  -5   6  179.68    8.80
   0  -5   6  183.51    9.41
   0  -5   6  193.69    8.68
   0   5  -6  120.42    8.09
   0   5  -6  123.07    8.19
   0   5  -6  122.07    7.08
   0   5  -6  138.75    8.32
   0  -5   6  166.50    8.84
   0   5  -5    1.67    1.00
   0  -5   5    1.85    1.11
   0  -5   5    2.74    1.33
   0   5  -5    1.68    1.18
   0  -5   5    3.51    1.13
   0   5  -5    1.57    1.13
   0  -5   5    5.57    1.45
   0   5  -5    1.21    0.85
   0  -5   5    1.98    0.81
   0  -5   5    3.17    1.31
   0  -5   5    0.72    0.90
   0  -5   5    2.90    1.32
   0  -5   4  164.31    8.06
   0  -5   4  155.24    8.16
   0   5  -4  141.18    8.04
   0  -5   4  172.26    6.99
   0  -5   4  174.91    8.81
   0  -5   4  175.56    7.08
   0  -5   4  152.05    7.92
   0  -5   4  185.31    7.87
   0  -5   4  171.80    8.57
   0  -5   4  174.85    7.90
   0  -5   4  184.99    7.64
   0   5  -4  161.05    8.20
   0   5  -3   48.76    4.04
   0  -5   3   49.78    3.80
   0  -5   3   45.62    4.11
   0  -5   3   48.55    4.02
   0   5  -3   50.11    3.55
   0  -5   3   48.96    4.43
   0  -5   3   46.78    3.41
   0   5  -3   49.59    4.73
   0  -5   3   49.84    3.91
   0   5  -3   48.60    3.71
   0   5  -3   47.98    4.29
   0   5  -3   45.52    3.97
   0  -5   3   53.33    4.07
   0  -5   2 1418.47   21.42
   0  -5   2 1375.51   17.74
   0   5  -2 1409.77   20.80
   0   5  -2 1513.68   19.14
   0  -5   2 1410.85   21.56
   0  -5   2 1461.44   21.70
   0  -5   2 1471.14   21.92
   0   5  -2 1491.16   19.01
   0   5  -2 1604.45   26.66
   0  -5   2 1518.76   22.02
   0   5  -2 1376.31   21.98
   0   5  -2 1534.18   19.39
   0   5  -2 1546.93   19.29
   0  -5   2 1439.50   18.24
   0   5  -2 1541.18   19.47
   0  -5   2 1432.14   18.03
   0   5  -2 1454.63   20.23
   0  -5   2 1451.33   18.19
   0  -5   2 1496.81   22.12
   0  -5   2 1524.36   24.47
   0  -5   2 1418.86   17.94
   0  -5   2 1468.16   20.14
   0  -5   1  380.14    7.93
   0   5  -1  400.42    8.40
   0  -5   1  368.02    9.68
   0  -5   1  402.12   10.62
   0  -5   1  395.24    9.84
   0  -5   1  425.37   11.64
   0   5  -1  386.05    8.22
   0  -5   1  364.19   10.27
   0  -5   1  397.28    9.61
   0   5  -1  399.55    8.40
   0  -5   1  378.58    7.93
   0  -5   1  368.50    7.78
   0   5  -1  401.39    8.43
   0   5  -1  413.85   12.00
   0   5  -1  404.55    8.48
   0   5  -1  371.45    9.64
   0  -5   1  391.11    8.03
   0  -5   1  368.59   10.33
   0  -5   1  365.91    7.76
   0  -5   1  411.80   10.48
   0  -5   1  354.40    7.74
   0   5   0   21.66    1.81
   0  -5   0   20.49    2.07
   0   5   0   23.48    1.89
   0   5   0   23.45    1.88
   0  -5   0   21.70    2.55
   0   5   0   21.09    2.17
   0  -5   0   21.48    1.73
   0  -5   0   19.90    2.37
   0  -5   0   21.30    2.45
   0   5   0   20.36    2.21
   0  -5   0   21.69    1.72
   0   5   0   23.27    1.88
   0  -5   0   20.48    1.69
   0  -5   0   25.00    2.39
   0  -5   0   25.63    3.08
   0  -5   0   23.46    2.39
   0  -5   0   20.91    1.72
   0  -5   0   21.07    1.71
   0   5   0   23.59    1.90
   0  -5   0   21.63    2.21
   0  -5   0   19.57    2.50
   0   5   1  323.20    6.97
   0   5   1  315.01    6.87
   0  -5  -1  282.72    8.70
   0   5   1  294.69    6.41
   0   5   1  310.63    6.76
   0   5   1  338.47    7.34
   0  -5  -1  310.81    6.95
   0  -5  -1  297.28    8.94
   0  -5  -1  312.75    6.89
   0  -5  -1  309.70    6.69
   0  -5  -1  293.45    9.14
   0   5   1  320.99    6.97
   0   5   1  288.51    8.45
   0  -5  -1  351.96   11.88
   0  -5  -1  307.44    6.79
   0   5   1  312.71    6.89
   0  -5  -1  282.06    8.17
   0  -5  -1  296.29    9.91
   0   5   1  256.19    7.82
   0  -5  -1  301.09    6.60
   0   5   1  327.20    8.87
   0  -5  -1  286.01    7.75
   0  -5  -1  300.19    9.76
   0  -5  -1  310.23    6.87
   0   5   2  370.72    9.80
   0   5   2  568.80   10.50
   0   5   2  442.40    8.52
   0  -5  -2  438.72   12.70
   0   5   2  449.12    8.64
   0  -5  -2  394.14   10.96
   0   5   2  501.53    9.78
   0   5   2  490.96   11.26
   0   5   2  468.48    8.84
   0   5   2  455.91    8.74
   0   5   2  438.31    8.50
   0  -5  -2  429.75   11.20
   0  -5  -2  464.12    9.24
   0  -5  -2  458.10    9.19
   0  -5  -2  453.61   12.92
   0  -5  -2  424.23   12.19
   0  -5  -2  468.81    9.11
   0  -5  -2  476.63    9.24
   0  -5  -2  479.22   13.43
   0  -5  -2  525.73   14.76
   0  -5  -2  485.09    9.63
   0  -5  -3 1441.44   18.61
   0  -5  -3 1509.17   19.95
   0  -5  -3 1443.62   23.37
   0   5   3 1354.31   17.89
   0  -5  -3 1538.17   24.14
   0  -5  -3 1285.78   22.33
   0  -5  -3 1447.96   25.64
   0  -5  -3 1669.74   27.52
   0   5   3 1425.52   18.42
   0  -5  -3 1533.08   27.03
   0   5   3 1401.89   17.92
   0  -5  -3 1601.96   20.32
   0  -5  -3 1553.13   19.83
   0  -5  -3 1649.18   21.97
   0   5   3 1842.77   22.05
   0   5   3 1347.10   17.46
   0  -5  -3 1523.38   19.45
   0   5   3 1378.44   20.82
   0   5   3 1593.59   15.06
   0   5   3 1391.01   17.84
   0   5   3 1725.87   22.76
   0  -5  -3 1541.33   24.53
   0   5   3 1358.95   17.80
   0   5   4  938.13   16.44
   0  -5  -4  794.28   15.32
   0  -5  -4  841.84   19.79
   0  -5  -4  780.25   14.36
   0  -5  -4  782.07   14.67
   0  -5  -4  753.88   18.71
   0  -5  -4  820.77   20.61
   0  -5  -4  793.94   19.58
   0  -5  -4  811.95   20.96
   0   5   4  789.32   15.69
   0   5   4  906.71   15.79
   0  -5  -4  762.73   14.26
   0  -5  -4  798.38   15.02
   0   5   4  567.47   11.79
   0   5   4  861.22   13.48
   0   5   4 1068.04   18.28
   0  -5  -4  796.87   18.79
   0   5   4  596.49   12.00
   0   5   4  544.20   11.72
   0   5   4  591.84   11.96
   0  -5  -4  797.13   19.16
   0   5   4  577.31   11.83
   0  -5  -5  176.83   10.36
   0  -5  -5  188.73    7.43
   0  -5  -5  187.34    7.60
   0  -5  -5  196.05    9.96
   0  -5  -5  179.97   10.16
   0  -5  -5  178.99    7.76
   0   5   5  139.69    6.13
   0  -5  -5  166.25    9.79
   0   5   5  138.40    6.13
   0  -5  -5  167.43    7.90
   0  -5  -5  193.36    7.53
   0  -5  -5  157.52    7.51
   0  -5  -5  181.28    7.54
   0   5   5  180.98    7.74
   0  -5  -5  180.08   10.61
   0   5   5  211.87    7.78
   0   5   5  142.40    6.17
   0   5   5  146.51    6.24
   0   5   5  133.32    6.11
   0  -5  -6    1.00    0.85
   0  -5  -6    1.92    1.24
   0   5   6    0.92    0.83
   0  -5  -6    6.52    2.31
   0   5   6    1.80    0.88
   0  -5  -6    2.34    1.44
   0  -5  -6    9.49    2.73
   0  -5  -6    7.97    2.54
   0  -5  -6    1.76    0.80
   0  -5  -6    3.70    1.78
   0  -5  -7  916.08   26.47
   0  -5  -7  850.07   21.79
   0  -5  -7  918.84   27.14
   0  -5  -7  904.23   26.96
   0  -5  -7  743.41   20.57
   0  -5  -7  829.25   15.45
   0   5   7  973.76   20.37
   0  -5  -7  893.38   25.01
   0   5   7 1078.17   20.52
   0  -5  -8   14.22    3.06
   0  -5  -8   15.40    2.62
   0   5   8   15.41    2.63
   0   5   8   13.43    2.22
   0  -5  -8   13.38    3.40
   0   5   8   16.97    2.53
   0  -5  -8   14.08    2.88
   0  -5  -8   12.27    2.61
   0  -5  -8   16.70    3.83
   0  -5  -8   13.92    1.83
   0  -5  -9   53.71    4.95
   0  -5  -9   62.94    4.85
   0   5   9   55.29    4.79
   0  -5  -9   60.60    6.82
   0  -5  -9   55.96    5.29
   0  -5  -9   62.40    6.81
   0   5   9   49.08    4.78
   0   5   9   57.90    4.65
   0  -5 -10  202.15   10.61
   0   5  10  207.57    7.75
   0   5  10  172.56    7.26
   0  -5 -10  194.72    7.80
   0   5  10  175.84    7.89
   0  -5 -10  207.06    7.71
   0   5  10  177.50    6.29
   0  -5 -11   29.00    2.20
   0   6  -8  196.38    7.04
   0   6  -8  210.55    7.10
   0   6  -7  110.50    5.52
   0  -6   7  118.31    5.94
   0   6  -7  110.69    6.49
   0   6  -7  112.81    5.67
   0   6  -7  128.25    6.90
   0  -6   6   71.53    5.51
   0  -6   6   58.02    4.65
   0   6  -6   57.36    5.16
   0  -6   6   70.14    4.92
   0   6  -6   44.92    4.04
   0   6  -6   44.21    4.53
   0   6  -5    1.49    0.99
   0  -6   5    0.38    0.75
   0   6  -5    0.39    0.80
   0  -6   5    1.19    0.95
   0  -6   5   -0.51    0.89
   0  -6   5    0.62    0.99
   0  -6   5    0.42    0.63
   0   6  -5    0.21    0.56
   0  -6   4  115.48    6.12
   0  -6   4  114.50    7.61
   0  -6   4   99.61    6.61
   0  -6   4   93.54    5.99
   0  -6   4  111.60    5.99
   0  -6   4  102.41    5.55
   0  -6   4  104.17    7.19
   0   6  -4   90.09    6.40
   0  -6   4  108.29    5.86
   0  -6   4  112.58    6.70
   0   6  -4   88.39    6.42
   0  -6   3    7.95    1.74
   0  -6   3   11.20    2.37
   0   6  -3    8.59    1.89
   0  -6   3    9.13    1.79
   0  -6   3   10.24    1.92
   0  -6   3   11.05    1.96
   0  -6   3    9.68    2.31
   0  -6   3   12.45    2.20
   0  -6   3   10.62    1.91
   0   6  -2  414.62   11.82
   0  -6   2  459.23   14.83
   0  -6   2  458.54   12.75
   0  -6   2  444.23   14.18
   0  -6   2  424.88   12.60
   0  -6   2  432.25   12.46
   0  -6   2  385.61   11.57
   0  -6   2  477.11   12.59
   0  -6   2  412.00   11.42
   0  -6   2  402.06   12.59
   0  -6   1   93.81    6.26
   0  -6   1   92.99    5.67
   0   6  -1   88.69    5.09
   0  -6   1   85.63    5.20
   0  -6   1   97.44    5.56
   0  -6   1   85.86    4.93
   0  -6   1   80.83    4.47
   0  -6   1   85.36    5.60
   0   6  -1   93.51    5.81
   0  -6   1   88.86    4.78
   0  -6   1   90.43    5.97
   0  -6   1   89.45    5.68
   0  -6   1   94.46    6.20
   0  -6   0   39.84    3.78
   0  -6   0   33.34    3.66
   0  -6   0   37.73    4.17
   0  -6   0   34.97    3.07
   0   6   0   39.73    3.66
   0   6   0   33.94    2.89
   0   6   0   31.49    3.13
   0   6   0   38.12    3.72
   0  -6   0   34.72    3.02
   0   6   0   29.63    2.95
   0  -6   0   38.43    3.72
   0  -6   0   40.02    3.39
   0   6   1  388.79   11.05
   0  -6  -1  371.26   13.00
   0   6   1  318.83   10.20
   0  -6  -1  386.89   12.04
   0  -6  -1  378.03   11.66
   0  -6  -1  417.07   14.33
   0  -6  -1  367.48    9.97
   0  -6  -1  335.67   10.64
   0   6   1  389.72   10.82
   0  -6  -2   12.50    2.37
   0   6   2   11.88    2.05
   0  -6  -2   10.04    1.88
   0   6   2   12.54    2.00
   0  -6  -2   11.21    2.43
   0   6   2   13.28    1.92
   0   6   2   10.14    1.50
   0  -6  -2    9.88    2.16
   0   6   2    9.10    1.74
   0  -6  -2   10.81    2.12
   0  -6  -2    9.14    2.11
   0   6   3  966.18   18.95
   0  -6  -3 1115.51   24.59
   0   6   3 1288.91   19.25
   0  -6  -3 1158.46   24.33
   0  -6  -3 1114.90   21.50
   0   6   3 1279.28   19.26
   0  -6  -3 1038.32   21.26
   0  -6  -3 1121.24   25.04
   0   6   4  129.48    6.36
   0   6   4  120.12    5.44
   0  -6  -4  114.10    8.44
   0  -6  -4   95.85    7.14
   0  -6  -4  114.92    8.24
   0  -6  -4  105.57    7.04
   0  -6  -4  121.54    6.21
   0  -6  -4  120.49    7.74
   0  -6  -4  119.98    6.21
   0  -6  -5  477.38   17.68
   0  -6  -5  450.82   16.52
   0  -6  -5  466.08   14.64
   0  -6  -5  387.12   14.91
   0  -6  -5  486.85   18.09
   0  -6  -5  444.61   16.71
   0  -6  -5  449.85   12.02
   0  -6  -5  465.03   18.20
   0  -6  -5  503.25   12.68
   0   6   5  550.53   13.49
   0  -6  -6 1017.54   22.15
   0   6   6 1180.71   21.75
   0  -6  -6 1060.54   29.27
   0  -6  -6 1145.73   19.00
   0  -6  -6  976.26   17.71
   0  -6  -6 1002.19   27.03
   0  -6  -6  857.58   23.22
   0   6   6 1109.17   19.80
   0  -6  -6  988.34   26.73
   0  -6  -7  942.82   26.37
   0  -6  -7  945.09   16.46
   0  -6  -7  972.33   21.42
   0  -6  -7  853.19   22.81
   0   6   7 1090.01   21.73
   0   6   7 1198.50   21.91
   0  -6  -7 1071.54   29.53
   0  -6  -7 1005.30   28.06
   0  -6  -8  347.56   16.32
   0  -6  -8  363.84   12.06
   0   6   8  385.43   12.16
   0  -6  -8  364.61   16.52
   0  -6  -8  336.13   14.48
   0   6   8  360.66   12.29
   0   6   8  362.40   11.00
   0   6   9   90.54    5.53
   0   6   9   99.54    5.76
   0  -6  -9  101.03    7.99
   0  -6  -9   92.23    6.55
   0  -6  -9   99.54    5.74
   0  -6  -9  100.01    8.05
   0   6   9   78.67    5.68
   0  -6 -10  398.70   10.52
   0  -6 -10  413.60   13.56
   0   6  10  389.30    9.69
   0  -6 -10  414.68    9.92
   0   6  11    0.81    0.47
   0  -6 -11    0.54    0.32
   0   7  -7   47.99    3.27
   0   7  -7   41.95    3.09
   0   7  -6  183.80    7.08
   0   7  -6  189.61    7.43
   0  -7   6  193.83    6.72
   0   7  -6  190.21    7.91
   0   7  -5    0.46    0.62
   0  -7   5    0.48    0.66
   0   7  -5    0.83    0.71
   0  -7   5    0.98    0.87
   0  -7   5    0.86    0.88
   0  -7   5    0.52    0.80
   0   7  -5    1.68    0.93
   0  -7   4  741.10   15.23
   0  -7   4  789.36   20.38
   0  -7   4  691.02   18.22
   0  -7   4  670.55   16.28
   0   7  -4  555.56   14.42
   0   7  -4  511.28   14.76
   0  -7   4  575.58   14.12
   0  -7   3    3.50    1.54
   0   7  -3    1.84    0.97
   0  -7   3    4.18    1.24
   0  -7   3    2.09    1.03
   0   7  -3    2.47    1.02
   0  -7   3    2.40    1.25
   0  -7   3    2.56    1.00
   0   7  -3    0.98    0.76
   0  -7   3    4.41    1.32
   0  -7   3    1.51    1.05
   0   7  -2  226.58    9.19
   0  -7   2  267.94    9.25
   0  -7   2  303.24   12.90
   0   7  -2  242.35    9.43
   0  -7   2  254.28   10.11
   0  -7   2  279.18   10.48
   0  -7   2  264.83   10.70
   0  -7   2  304.14   10.52
   0  -7   2  258.03   10.58
   0  -7   1   32.69    3.74
   0  -7   1   35.78    3.92
   0   7  -1   40.83    3.62
   0  -7   1   40.87    4.47
   0  -7   1   32.82    3.78
   0   7  -1   31.03    3.11
   0  -7   1   37.60    3.38
   0  -7   1   39.31    3.70
   0  -7   1   34.37    3.78
   0  -7   1   49.62    5.12
   0  -7   0  221.22   10.11
   0  -7   0  226.85   10.95
   0  -7   0  197.73    9.61
   0  -7   0  182.20    8.46
   0  -7   0  197.87    9.43
   0  -7   0  218.54    9.78
   0  -7   0  189.15    7.75
   0  -7   0  227.68    9.79
   0  -7   0  211.93    7.85
   0  -7  -1  404.12   14.17
   0  -7  -1  508.40   15.02
   0  -7  -1  511.23   16.84
   0  -7  -1  496.85   15.80
   0  -7  -1  474.27   15.30
   0  -7  -1  423.38   14.30
   0   7   1  535.27   13.26
   0  -7  -1  541.28   15.78
   0  -7  -1  485.96   13.77
   0  -7  -2  246.85   11.59
   0  -7  -2  201.87   10.26
   0  -7  -2  205.11   10.24
   0  -7  -2  238.05   10.74
   0  -7  -2  290.83   11.04
   0  -7  -2  235.99    9.85
   0  -7  -2  234.20   10.23
   0   7   2  259.60    8.91
   0  -7  -2  234.47   11.32
   0  -7  -3  855.26   21.87
   0  -7  -3  939.06   19.41
   0  -7  -3  686.96   19.75
   0   7   3  956.09   17.53
   0  -7  -3  842.85   21.45
   0  -7  -3  808.87   19.44
   0  -7  -3  963.03   20.02
   0  -7  -3  891.29   21.76
   0  -7  -3  772.05   20.77
   0  -7  -3  898.69   23.27
   0   7   4  289.89   10.13
   0   7   4  262.66    8.70
   0  -7  -4  254.31    9.62
   0  -7  -4  228.22   10.81
   0  -7  -4  238.23   10.78
   0  -7  -4  213.40   11.41
   0  -7  -4  227.95   10.53
   0  -7  -4  268.56   10.05
   0  -7  -4  251.77   13.14
   0  -7  -4  239.75   12.16
   0  -7  -5    2.37    1.33
   0  -7  -5    4.21    2.10
   0  -7  -5    6.16    1.89
   0  -7  -5    3.50    1.55
   0  -7  -5    2.53    1.06
   0  -7  -5    4.47    1.99
   0   7   5    3.22    1.19
   0  -7  -5    3.50    1.66
   0  -7  -5    3.37    1.20
   0  -7  -6  409.98   10.94
   0  -7  -6  331.40   12.89
   0  -7  -6  457.11   11.74
   0  -7  -6  408.05   15.91
   0  -7  -6  443.86   18.74
   0  -7  -6  427.15   16.73
   0  -7  -6  418.33   14.02
   0  -7  -6  358.81   14.76
   0   7   6  492.55   13.99
   0  -7  -6  422.30   17.39
   0   7   7  184.19    8.64
   0   7   7  193.99    8.63
   0   7   7  203.64    8.47
   0  -7  -7  171.33   10.71
   0  -7  -7  172.23    8.46
   0  -7  -7  172.84   10.38
   0  -7  -7  160.18   10.43
   0  -7  -7  146.09    8.85
   0  -7  -7  168.87    6.19
   0  -7  -8  137.95    8.82
   0   7   8  145.68    7.04
   0   7   8  143.47    6.21
   0  -7  -8  145.76    7.15
   0   7   8  154.52    7.19
   0   7   9    3.64    1.14
   0  -7  -9    3.39    1.40
   0   7   9    3.43    0.91
   0   7   9    4.00    1.05
   0  -7  -9    4.52    1.18
   0  -7  -9    4.76    1.48
   0   7   9    3.52    1.08
   0  -7 -10   19.32    1.85
   0  -7 -10   19.10    1.71
   0  -8   6   90.84    3.70
   0  -8   5   13.43    1.85
   0   8  -5    8.79    1.54
   0   8  -5   10.48    1.59
   0   8  -5    8.95    1.58
   0  -8   4  535.77   11.45
   0   8  -4  391.44   11.30
   0   8  -4  406.79   10.94
   0  -8   4  651.71   15.29
   0   8  -4  420.34   11.49
   0  -8   4  540.71   13.20
   0  -8   3   15.22    1.96
   0  -8   3   17.90    3.16
   0   8  -3   12.59    2.05
   0  -8   3   19.00    2.78
   0   8  -3   13.51    2.02
   0  -8   3   15.61    2.46
   0  -8   3   16.12    2.35
   0   8  -3   14.22    2.25
   0   8  -2  200.01    7.46
   0   8  -2  209.30    8.01
   0  -8   2  213.67    7.47
   0  -8   2  229.98    9.75
   0  -8   2  239.40    9.54
   0  -8   2  250.93   10.11
   0  -8   1  123.28    6.99
   0  -8   1  128.68    7.56
   0  -8   1  120.63    7.30
   0  -8   1  128.26    5.86
   0   8  -1  116.44    6.38
   0  -8   0   66.81    5.71
   0  -8   0   81.82    6.29
   0  -8   0   86.07    6.89
   0  -8   0   70.44    5.23
   0   8   0   73.04    4.85
   0   8   0   76.82    5.04
   0  -8   0   66.99    5.81
   0  -8  -1  309.32   12.49
   0  -8  -1  238.14   11.14
   0  -8  -1  245.21   11.17
   0  -8  -1  316.75   12.03
   0   8   1  280.92    9.00
   0   8   1  285.26    9.40
   0  -8  -2  257.54   12.06
   0  -8  -2  278.61   12.29
   0   8   3   50.22    4.33
   0  -8  -3   46.07    4.96
   0  -8  -3   61.62    5.92
   0  -8  -3   48.34    4.59
   0  -8  -3   33.63    4.44
   0   8   3   45.84    3.89
   0  -8  -3   45.07    4.21
   0  -8  -3   39.84    4.46
   0  -8  -4    2.27    1.27
   0  -8  -4    1.66    0.93
   0  -8  -4    2.08    1.45
   0   8   4    4.22    1.25
   0  -8  -4    0.75    1.12
   0   8   4    1.79    0.94
   0  -8  -5  786.86   19.04
   0  -8  -5  962.40   18.20
   0  -8  -5  781.37   21.18
   0  -8  -5  851.53   16.34
   0   8   5  871.62   17.89
   0  -8  -5  708.39   19.42
   0  -8  -6  263.45    7.84
   0   8   6  307.94   10.79
   0  -8  -6  243.14   11.21
   0  -8  -6  245.78   11.01
   0   8   6  309.51   10.49
   0  -8  -6  259.85   12.45
   0   8   6  314.12   10.46
   0  -8  -7   22.78    3.15
   0   8   7   30.19    3.15
   0   8   7   29.81    3.06
   0   8   7   29.83    2.88
   0  -8  -7   22.91    3.45
   0   8   7   34.04    3.31
   0   8   8   35.28    2.99
   0   8   8   29.83    2.77
   0   8   8   28.23    2.55
   0  -8  -8   27.66    2.66
   0  -8  -8   26.03    2.93
   0  -8  -8   25.07    3.14
   0  -8  -9   11.92    1.37
   0   8   9   13.54    1.41
   0  -8  -9   14.43    1.69
   0   8   9   16.88    1.81
   0  -9   4  528.75   10.18
   0  -9   3  312.89    9.06
   0  -9   3  311.91    8.10
   0   9  -2  131.17    5.84
   0   9  -2  114.25    4.87
   0  -9   2  155.86    6.80
   0  -9   2  159.49    7.06
   0  -9   1  408.02   12.40
   0   9  -1  387.76   10.31
   0  -9   1  420.54   12.66
   0  -9   0   52.62    4.85
   0  -9   0   55.99    4.85
   0   9   0   53.25    3.67
   0  -9  -1 1787.42   29.60
   0  -9  -1 1710.64   29.80
   0   9   2   69.36    4.65
   0  -9  -2   62.03    5.65
   0  -9  -2   65.58    5.61
   0   9   2   72.80    4.82
   0  -9  -3  452.87   15.16
   0  -9  -3  571.31   13.53
   0  -9  -3  488.75   15.28
   0   9   3  580.45   13.15
   0   9   3  568.68   12.79
   0  -9  -4  222.74    7.68
   0  -9  -4  195.74    9.47
   0   9   4  222.08    7.64
   0   9   4  223.98    8.98
   0  -9  -4  189.28    9.30
   0  -9  -5  583.25   15.91
   0  -9  -5  563.01   15.12
   0   9   5  748.14   15.40
   0   9   5  745.85   15.51
   0  -9  -5  638.43   11.85
   0  -9  -6  372.54   11.48
   0   9   6  408.76   10.15
   0   9   6  488.54   10.93
   0  -9  -6  370.09    6.87
   0   9   6  462.37   11.39
   0  -9  -7   54.01    3.76
   0   9   7   55.49    3.49
   0  -9  -8   55.34    2.95
   0   9   8   77.19    3.33
   0 -10   2   53.55    2.93
   0 -10   1   48.40    3.29
   0 -10   0   84.99    4.72
   0 -10   0   94.66    5.05
   0 -10  -1  142.84    6.81
   0 -10  -1  137.06    6.20
   0 -10  -2  102.88    5.47
   0 -10  -2   99.26    5.71
   0 -10  -3   16.99    2.28
   0  10   3   17.29    2.20
   0 -10  -3   18.39    2.41
   0 -10  -4   37.24    3.21
   0 -10  -4   35.34    3.07
   0 -10  -5   35.28    2.86
   0 -10  -6   43.79    2.60
  -1  10   5  200.63    5.59
   1 -10  -5  165.39    4.68
   1 -10  -4    3.46    0.88
   1 -10  -4    2.93    0.92
  -1  10   4    3.62    0.92
   1 -10  -3    6.41    1.42
  -1  10   3    6.78    1.27
   1 -10  -3    6.94    1.29
   1 -10  -2  264.11    9.08
  -1  10   2  259.90    7.99
  -1  10   2  257.73    6.99
   1 -10  -1    0.88    0.63
   1 -10  -1    1.12    0.77
  -1  10   1    0.75    0.74
   1 -10   0  455.83   10.00
   1 -10   0  429.77   10.60
   1 -10   1    5.52    1.07
   1  -9  -7  205.44    5.83
  -1   9   7  249.31    6.27
  -1   9   6  158.02    5.75
   1  -9  -6  157.48    6.29
  -1   9   5   95.96    4.82
  -1   9   5   92.50    5.21
  -1   9   5   93.80    4.88
   1  -9  -5   83.72    5.19
  -1   9   4   26.27    2.95
  -1   9   4   25.45    2.58
   1  -9  -4   16.71    2.84
  -1   9   4   21.47    2.29
   1  -9  -4   21.19    2.88
  -1   9   3  100.20    6.00
  -1   9   3  107.17    5.61
   1  -9  -3   89.44    6.01
  -1   9   3  103.57    5.15
  -1   9   2  832.90   15.93
  -1   9   2  847.76   16.74
   1  -9  -1   46.81    4.80
   1  -9  -1   49.88    4.53
  -1   9   0   90.00    5.01
   1  -9   0  102.93    6.26
  -1   9   0  113.34    5.90
  -1   9   0  109.00    5.24
   1  -9   0   88.66    6.23
  -1   9   0  115.93    5.02
  -1   9  -1    5.28    1.25
  -1   9  -1    9.39    1.78
   1  -9   1    5.25    1.46
  -1   9  -1    4.94    1.18
   1  -9   1    6.65    1.90
  -1   9  -2    4.77    1.28
  -1   9  -2    5.81    1.23
   1  -9   2    6.93    1.87
  -1   9  -2    6.05    1.28
   1  -9   2    4.76    1.24
   1  -9   2    5.73    1.41
  -1   9  -3  472.36   10.18
  -1   9  -3  487.56   10.78
  -1   8   8   58.02    3.33
  -1   8   8   61.80    3.67
   1  -8  -7  311.85   11.91
  -1   8   7  365.42    9.66
   1  -8  -7  304.41    9.82
  -1   8   7  398.04   10.99
  -1   8   7  322.73    9.21
  -1   8   7  361.17   10.20
   1  -8  -7  290.31    8.95
  -1   8   6  668.48   14.63
  -1   8   6  715.51   16.03
   1  -8  -6  574.71   18.02
  -1   8   6  692.28   15.43
   1  -8  -6  584.03   14.53
   1  -8  -6  562.20   15.33
   1  -8  -5    9.00    2.38
  -1   8   5   12.10    2.18
  -1   8   5   13.56    2.32
  -1   8   5   12.87    2.35
   1  -8  -5   11.10    2.76
   1  -8  -5    9.75    2.26
   1  -8  -5    8.03    2.54
   1  -8  -5   11.36    2.20
   1  -8  -4   -0.17    0.98
  -1   8   4    1.23    0.86
   1  -8  -4    0.69    0.54
  -1   8   4    0.42    1.07
   1  -8  -4    3.52    1.51
   1  -8  -4    0.81    0.97
  -1   8   4    0.38    0.63
  -1   8   4    1.23    0.91
   1  -8  -3   17.03    3.24
   1  -8  -3   13.34    2.83
   1  -8  -3   11.54    2.70
   1  -8  -3   15.79    3.30
   1  -8  -3   11.36    2.91
  -1   8   3   18.56    2.51
   1  -8  -3   13.58    3.08
   1  -8  -3   17.42    2.26
  -1   8   3   17.39    2.35
  -1   8   3   14.21    2.47
   1  -8  -2  811.82   21.07
   1  -8  -2  881.99   22.61
   1  -8  -2  855.52   24.65
   1  -8  -2  946.83   18.10
   1  -8  -2  867.53   21.93
   1  -8  -2  895.34   24.23
  -1   8   2 1059.74   19.43
   1  -8  -2  725.97   21.99
   1  -8  -1  112.11    7.52
   1  -8  -1  137.64    8.61
   1  -8  -1  120.92    8.48
   1  -8  -1  154.96    7.50
  -1   8   1  150.15    7.28
  -1   8   1  151.00    6.34
  -1   8   1  143.28    7.29
   1  -8   0    3.64    1.50
   1  -8   0    4.60    1.79
   1  -8   0    1.86    1.23
  -1   8   0    1.65    0.95
   1  -8   0    3.66    1.43
   1  -8   0    1.90    1.26
  -1   8   0    1.65    0.89
   1  -8   1   59.90    5.22
  -1   8  -1   66.04    4.71
   1  -8   1   71.45    5.59
  -1   8  -1   55.86    4.39
   1  -8   1   59.57    5.40
  -1   8  -2   16.42    2.21
  -1   8  -2   12.88    2.25
   1  -8   2   15.61    2.60
   1  -8   2   16.75    2.66
   1  -8   2   17.96    2.85
   1  -8   2   16.00    2.80
   1  -8   2   22.97    3.74
  -1   8  -3  413.02   10.17
   1  -8   3  447.36   12.99
  -1   8  -3  420.04   11.33
   1  -8   3  427.84   11.57
  -1   8  -3  437.08   12.37
  -1   8  -4   19.62    2.43
   1  -8   4   23.35    3.13
  -1   8  -4   19.89    2.52
   1  -8   4   26.23    3.60
  -1   8  -4   16.29    2.02
   1  -8   5    0.72    0.70
  -1   8  -5    0.64    0.55
  -1   8  -5    0.54    0.60
  -1   8  -5    0.32    0.36
   1  -8   6   24.84    1.91
  -1   7   9   80.84    4.35
  -1   7   9   77.98    3.96
  -1   7   8   26.89    2.65
   1  -7  -8   24.12    3.28
  -1   7   8   23.53    2.49
   1  -7  -8   24.30    2.65
  -1   7   8   22.18    2.63
   1  -7  -8   18.99    2.74
   1  -7  -8   21.40    3.19
   1  -7  -8   25.61    3.52
   1  -7  -7  220.23   11.39
  -1   7   7  242.03    8.82
   1  -7  -7  232.36   11.80
   1  -7  -7  233.91   12.82
   1  -7  -7  199.48   11.14
  -1   7   7  252.83    9.74
   1  -7  -7  224.05    9.07
  -1   7   7  266.17    9.40
  -1   7   6  161.45    7.41
   1  -7  -6  161.61   10.13
  -1   7   6  196.22    9.10
   1  -7  -6  159.56   10.76
   1  -7  -6  145.99    9.49
   1  -7  -6  164.84   10.29
  -1   7   6  167.97    7.93
   1  -7  -6  166.62   11.67
   1  -7  -6  158.40    8.21
   1  -7  -5  105.80    8.00
  -1   7   5  118.01    6.98
   1  -7  -5  103.48    8.01
   1  -7  -5  107.55    8.96
   1  -7  -5  107.12    9.45
  -1   7   5  127.35    6.94
   1  -7  -5   96.99    7.70
   1  -7  -5   87.73    7.63
   1  -7  -5  108.73    7.07
   1  -7  -5  108.15    9.29
  -1   7   4  282.69    9.36
   1  -7  -4  215.91   12.20
   1  -7  -4  233.80   12.62
   1  -7  -4  274.98    8.69
  -1   7   4  300.86   10.40
   1  -7  -4  231.54   11.06
  -1   7   4  315.51   10.99
   1  -7  -4  259.25   11.25
  -1   7   4  284.66   11.07
   1  -7  -4  260.43   14.38
   1  -7  -4  257.46   13.86
  -1   7   3   15.14    2.50
   1  -7  -3   18.31    2.40
   1  -7  -3   12.32    2.65
   1  -7  -3   12.32    2.95
   1  -7  -3   11.07    2.82
   1  -7  -3   15.20    3.19
  -1   7   3   15.80    2.39
   1  -7  -3   12.62    2.58
   1  -7  -3   10.19    2.70
  -1   7   3   11.71    2.32
   1  -7  -3   11.77    2.63
  -1   7   3   12.77    2.09
   1  -7  -2  744.02   20.15
   1  -7  -2  854.22   24.66
   1  -7  -2  761.24   20.40
   1  -7  -2  852.76   22.22
   1  -7  -2  807.11   20.11
   1  -7  -2  789.95   23.24
   1  -7  -2  870.39   23.57
   1  -7  -2  948.86   18.43
   1  -7  -2  846.01   23.79
   1  -7  -1  305.09   11.82
   1  -7  -1  267.37   11.61
   1  -7  -1  273.70   10.84
   1  -7  -1  338.02   11.18
   1  -7  -1  292.51   12.11
   1  -7  -1  254.17   12.20
   1  -7  -1  274.31   12.59
   1  -7  -1  318.45   13.84
  -1   7   1  352.85   11.43
  -1   7   1  328.16    9.60
  -1   7   0    1.09    0.84
   1  -7   0    0.16    0.74
   1  -7   0    0.41    0.70
   1  -7   0    0.75    0.97
   1  -7   0    1.16    0.86
   1  -7   0    0.56    0.92
   1  -7   0    0.12    0.59
   1  -7   0   -0.13    0.88
   1  -7   0    0.35    1.04
   1  -7   0    0.15    0.87
   1  -7   1  362.21   12.98
   1  -7   1  449.18   14.22
   1  -7   1  442.57   14.60
   1  -7   1  433.57   12.86
   1  -7   1  455.86   17.37
   1  -7   1  370.11   12.26
   1  -7   1  396.59   15.90
   1  -7   1  412.18   14.24
  -1   7  -1  440.39   11.91
  -1   7  -2  106.47    6.30
   1  -7   2  130.63    7.84
   1  -7   2  111.64    6.93
   1  -7   2  120.51    6.89
   1  -7   2  116.97    7.17
   1  -7   2  128.11    8.84
   1  -7   2  138.23    7.46
  -1   7  -2  129.28    6.85
   1  -7   2  129.34    6.70
   1  -7   2  109.05    6.01
  -1   7  -2  126.02    6.17
  -1   7  -3   94.37    6.03
   1  -7   3  108.87    7.14
   1  -7   3  118.93    6.80
   1  -7   3   99.68    5.91
   1  -7   3  100.84    6.55
  -1   7  -3   96.42    5.76
   1  -7   3  102.81    7.19
   1  -7   3  117.34    8.44
   1  -7   3  113.84    6.91
  -1   7  -3   98.17    6.16
  -1   7  -3  104.21    5.79
   1  -7   4   14.63    2.12
   1  -7   4   18.37    3.26
   1  -7   4   15.68    2.50
   1  -7   4   17.11    2.63
   1  -7   4   11.47    2.52
  -1   7  -4   12.87    2.28
  -1   7  -4   11.55    2.06
  -1   7  -4   12.54    2.19
   1  -7   4   12.70    2.37
   1  -7   4   13.40    2.62
   1  -7   5   36.53    4.11
  -1   7  -5   28.05    3.12
  -1   7  -5   29.63    3.40
   1  -7   5   39.88    4.40
   1  -7   5   31.37    3.68
  -1   7  -5   29.12    3.31
  -1   7  -6  153.06    6.74
  -1   7  -6  140.92    6.78
   1  -7   6  156.60    7.40
  -1   7  -6  141.42    6.45
  -1   7  -6  152.94    6.82
  -1   7  -7  337.40    8.82
  -1   7  -7  329.70    9.13
  -1   6  10   41.94    2.88
   1  -6 -10   28.26    2.07
  -1   6   9  141.25    6.49
   1  -6  -9  138.28    6.75
  -1   6   9  120.46    6.22
   1  -6  -9  141.27    8.48
   1  -6  -9  138.34    6.07
  -1   6   9  155.87    6.32
  -1   6   9  139.78    5.99
   1  -6  -9  139.42    8.40
  -1   6   8  982.00   19.80
  -1   6   8  956.33   18.08
   1  -6  -8  942.07   18.72
   1  -6  -8  911.97   25.43
   1  -6  -8  936.92   23.11
   1  -6  -8  943.95   25.91
  -1   6   8 1000.44   18.81
   1  -6  -7  262.36   10.36
   1  -6  -7  270.14   14.71
  -1   6   7  260.60    9.84
  -1   6   7  314.93   11.67
   1  -6  -7  247.13   12.07
   1  -6  -7  261.99   14.36
   1  -6  -7  289.52   15.26
   1  -6  -7  270.39   13.82
  -1   6   7  323.92   11.07
  -1   6   7  290.16   10.40
   1  -6  -6  300.52   13.62
   1  -6  -6  358.26   17.32
  -1   6   6  397.05   12.37
  -1   6   6  331.40   11.54
  -1   6   6  427.78   13.96
  -1   6   6  378.88   12.05
   1  -6  -6  338.92   17.29
   1  -6  -6  339.05   12.38
   1  -6  -6  335.58   16.14
   1  -6  -6  318.97   13.63
   1  -6  -5   48.50    4.72
  -1   6   5   46.86    4.37
   1  -6  -5   45.02    5.71
  -1   6   5   50.41    3.73
   1  -6  -5   38.20    5.35
   1  -6  -5   43.99    6.19
  -1   6   5   42.36    4.03
   1  -6  -5   46.83    6.08
   1  -6  -5   44.66    5.87
  -1   6   5   54.94    4.56
   1  -6  -5   40.43    5.07
   1  -6  -5   41.97    5.30
   1  -6  -4  179.36   10.65
   1  -6  -4  286.64    9.50
  -1   6   4  267.99    9.69
  -1   6   4  251.19    8.39
   1  -6  -4  233.60   11.98
  -1   6   4  250.97    9.83
   1  -6  -4  246.01   10.54
   1  -6  -4  214.66   11.38
   1  -6  -4  220.79   11.61
   1  -6  -4  208.98   11.58
   1  -6  -4  231.62   11.95
   1  -6  -4  221.40   13.20
  -1   6   4  273.91    9.85
   1  -6  -4  236.04   12.89
  -1   6   3  106.83    5.39
   1  -6  -3   91.00    6.96
   1  -6  -3  100.23    7.66
   1  -6  -3  101.80    6.68
   1  -6  -3  103.49    8.00
   1  -6  -3   98.79    6.86
   1  -6  -3   92.96    6.70
   1  -6  -3  127.37    6.45
   1  -6  -3   84.26    7.09
  -1   6   3  123.24    6.41
   1  -6  -3  102.97    8.34
   1  -6  -3   93.44    6.85
  -1   6   3  117.71    5.87
   1  -6  -2  536.47   16.83
   1  -6  -2  496.09   15.36
   1  -6  -2  529.31   17.50
   1  -6  -2  500.27   15.31
   1  -6  -2  525.34   17.00
   1  -6  -2  491.94   16.57
   1  -6  -2  517.87   14.97
  -1   6   1  226.15    7.38
  -1   6   1  179.96    7.70
   1  -6  -1  218.17   10.23
  -1   6   1  255.69    9.02
   1  -6  -1  209.00    9.19
   1  -6  -1  204.70    9.63
   1  -6  -1  204.46    9.46
   1  -6  -1  213.33   10.59
   1  -6  -1  239.61    9.70
  -1   6   1  243.23    7.81
   1  -6  -1  234.95   12.21
   1  -6   0   33.76    3.72
  -1   6   0   38.21    3.45
  -1   6   0   35.19    2.95
   1  -6   0   39.05    3.88
   1  -6   0   34.74    3.42
   1  -6   0   36.62    4.31
   1  -6   0   34.14    3.57
  -1   6   0   32.37    2.97
  -1   6  -1 1236.41   20.21
  -1   6  -1 1248.07   18.92
   1  -6   1 1290.79   22.59
   1  -6   1 1292.85   23.01
   1  -6   1 1331.94   27.54
   1  -6   1 1259.59   21.92
   1  -6   1 1244.71   26.72
   1  -6   1 1149.29   22.80
   1  -6   1 1280.83   23.27
   1  -6   1 1123.04   21.08
   1  -6   1 1236.60   23.41
   1  -6   2   45.87    3.23
   1  -6   2   53.46    5.49
  -1   6  -2   47.43    4.05
   1  -6   2   50.26    4.54
   1  -6   2   51.26    4.24
  -1   6  -2   51.02    4.01
   1  -6   2   50.57    4.66
   1  -6   2   50.45    5.25
   1  -6   2   53.99    4.67
   1  -6   2   43.68    4.08
   1  -6   2   43.38    3.80
   1  -6   2   46.02    4.14
  -1   6  -2   45.02    3.74
   1  -6   2   50.47    4.40
   1  -6   3  348.68    9.55
  -1   6  -3  377.88   11.80
   1  -6   3  361.08   12.66
   1  -6   3  382.25   14.78
   1  -6   3  327.50   10.67
   1  -6   3  400.04   11.94
   1  -6   3  400.72   12.74
  -1   6  -3  379.99   12.07
   1  -6   3  321.25   12.50
   1  -6   3  394.68   13.03
   1  -6   4   91.73    6.73
   1  -6   4  107.19    6.02
   1  -6   4  102.81    6.99
   1  -6   4  108.79    6.64
   1  -6   4  100.20    7.44
   1  -6   4  122.97    5.82
  -1   6  -4   85.21    6.04
  -1   6  -4   96.37    6.35
   1  -6   4  107.77    6.71
   1  -6   4  109.63    6.73
   1  -6   4  120.43    6.11
   1  -6   5  190.42    9.80
  -1   6  -5  151.91    8.29
   1  -6   5  170.96    9.30
   1  -6   5  174.51    7.99
  -1   6  -5  151.59    8.20
   1  -6   5  175.76    9.18
  -1   6  -5  159.77    8.49
   1  -6   5  185.79    8.53
   1  -6   5  151.64    6.71
   1  -6   5  171.30    8.23
   1  -6   6  113.55    7.23
   1  -6   6   95.71    5.16
  -1   6  -6  100.11    6.10
  -1   6  -6  100.61    6.57
  -1   6  -6  101.55    6.60
   1  -6   7   28.68    2.52
  -1   6  -7   34.29    3.50
   1  -6   7   32.63    3.51
  -1   6  -7   29.91    3.41
  -1   6  -7   34.66    3.25
  -1   6  -8  183.44    7.15
   1  -6   8  216.05    6.30
  -1   6  -8  189.13    7.14
   1  -6   8  213.67    7.44
  -1   6  -8  183.41    7.01
   1  -5 -10   57.69    4.89
   1  -5 -10   54.72    4.72
  -1   5  10   48.80    3.36
  -1   5  10   53.41    3.40
   1  -5 -10   59.41    3.48
  -1   5   9   11.45    1.87
   1  -5  -9    8.41    2.42
  -1   5   9    9.60    1.77
   1  -5  -9    7.75    1.65
   1  -5  -9    6.18    1.64
   1  -5  -9    9.10    2.63
  -1   5   9    7.45    1.61
  -1   5   9    8.49    1.88
  -1   5   9   10.14    2.07
  -1   5   8  734.34   16.39
   1  -5  -8  769.86   17.21
  -1   5   8  788.40   17.47
   1  -5  -8  724.38   24.40
  -1   5   8  686.77   16.53
  -1   5   8  742.69   18.24
   1  -5  -8  635.36   18.13
   1  -5  -8  745.11   22.22
  -1   5   8  681.91   13.66
   1  -5  -8  723.55   24.68
   1  -5  -7  103.70    9.02
   1  -5  -7  104.73    9.62
   1  -5  -7   93.94    6.97
  -1   5   7   92.30    6.37
   1  -5  -7  110.36    9.33
  -1   5   7  120.25    6.88
   1  -5  -7  108.16    6.65
   1  -5  -7  106.23    8.55
  -1   5   7  110.66    6.41
   1  -5  -7   94.57    7.31
  -1   5   7  110.91    6.76
  -1   5   7  117.70    7.31
   1  -5  -7  114.03   10.09
   1  -5  -6   35.94    5.09
   1  -5  -6   26.98    3.97
   1  -5  -6   36.22    5.43
  -1   5   6   40.48    4.22
  -1   5   6   40.71    3.84
   1  -5  -6   33.02    3.99
   1  -5  -6   38.48    4.02
   1  -5  -6   40.59    5.80
  -1   5   6   40.65    3.91
   1  -5  -6   35.51    4.58
  -1   5   6   39.35    4.24
   1  -5  -6   34.60    5.29
   1  -5  -6   38.00    5.68
   1  -5  -5    0.57    0.88
   1  -5  -5    0.20    0.91
   1  -5  -5    0.60    0.89
   1  -5  -5    1.72    1.25
  -1   5   5    1.58    0.97
  -1   5   5    1.41    0.87
   1  -5  -5    0.42    0.70
  -1   5   5    0.67    0.58
  -1   5   5    4.18    1.37
   1  -5  -5    1.73    1.21
  -1   5   4  405.93   11.26
  -1   5   4  598.65   13.99
   1  -5  -4  471.29   17.72
  -1   5   4  404.65   11.20
   1  -5  -4  429.96   15.27
  -1   5   4  579.65   13.78
   1  -5  -4  519.36   13.74
  -1   5   4  532.06   12.86
   1  -5  -4  485.62   17.06
   1  -5  -4  547.86   13.71
   1  -5  -4  451.71   15.26
   1  -5  -4  507.97   14.06
   1  -5  -4  520.22   13.81
  -1   5   4  588.47   13.51
   1  -5  -4  517.88   13.26
   1  -5  -4  561.92   17.41
  -1   5   4  413.54   11.40
   1  -5  -4  472.47   17.69
  -1   5   4  403.00   11.41
   1  -5  -4  477.94   17.36
  -1   5   4  394.92   11.15
   1  -5  -4  492.30   17.19
  -1   5   4  547.49   12.06
  -1   5   4  521.82   11.33
  -1   5   4  535.56   13.07
  -1   5   3  265.31    8.69
  -1   5   3  368.27    9.15
   1  -5  -3  347.79   12.85
   1  -5  -3  337.75   12.25
   1  -5  -3  300.23   11.28
  -1   5   3  279.70    8.80
   1  -5  -3  377.19   14.20
  -1   5   3  444.55   11.17
   1  -5  -3  353.14   14.05
   1  -5  -3  339.14   10.14
  -1   5   3  271.97    8.64
   1  -5  -3  316.13   10.46
   1  -5  -3  342.76   10.58
   1  -5  -3  355.33   14.53
  -1   5   3  268.92    8.63
  -1   5   3  428.85   11.15
   1  -5  -3  333.24   12.48
   1  -5  -3  336.73   10.59
   1  -5  -3  341.72   13.38
   1  -5  -3  360.96   12.92
  -1   5   3  276.76    8.80
   1  -5  -3  358.18   10.57
  -1   5   3  382.90   10.51
   1  -5  -2  388.05   10.97
  -1   5   2  399.99    8.08
   1  -5  -2  381.16   10.99
   1  -5  -2  334.97    9.56
   1  -5  -2  357.81   11.57
   1  -5  -2  353.33   12.56
   1  -5  -2  400.57   11.23
   1  -5  -2  364.23   11.29
  -1   5   2  498.62   11.55
  -1   5   2  300.61    8.59
   1  -5  -2  375.68   11.77
   1  -5  -2  442.02   15.17
  -1   5   2  321.43    9.29
  -1   5   2  453.13   10.16
   1  -5  -2  399.48   11.08
   1  -5  -2  379.89   11.06
  -1   5   2  387.38   10.36
  -1   5   2  339.41    9.43
  -1   5   2  454.86   10.69
   1  -5  -2  353.96   11.68
  -1   5   2  311.72    9.20
  -1   5   2  332.76    9.37
   1  -5  -2  397.42   11.67
   1  -5  -2  443.76   15.09
  -1   5   2  325.13    9.28
   1  -5  -1  231.87    7.97
  -1   5   1  225.75    7.37
  -1   5   1  220.84    7.28
   1  -5  -1  267.67   11.12
  -1   5   1  217.76    7.69
   1  -5  -1  242.56    8.43
   1  -5  -1  261.59   11.29
  -1   5   1  263.02    7.39
   1  -5  -1  241.04    8.31
   1  -5  -1  243.13    8.32
   1  -5  -1  235.23    9.65
  -1   5   1  267.26    7.87
   1  -5  -1  252.35    8.59
   1  -5  -1  242.37    9.44
  -1   5   1  215.70    7.18
   1  -5  -1  230.75    7.90
  -1   5   1  194.72    6.21
   1  -5  -1  216.41    9.34
   1  -5  -1  228.49    8.97
  -1   5   1  213.21    7.21
   1  -5  -1  255.78    8.90
  -1   5   1  262.28    6.95
   1  -5  -1  253.58    8.72
  -1   5   1  204.20    7.55
   1  -5  -1  223.30    8.35
  -1   5   1  218.53    7.21
   1  -5   0  900.96   17.42
  -1   5   0  920.64   15.81
  -1   5   0  958.12   16.51
   1  -5   0  915.12   17.63
   1  -5   0  985.27   16.94
   1  -5   0  939.93   19.86
  -1   5   0  926.09   15.79
  -1   5   0 1031.83   17.17
   1  -5   0  932.38   17.11
  -1   5   0  912.91   15.59
   1  -5   0  892.07   15.82
  -1   5   0  920.59   14.54
  -1   5   0  897.83   15.57
   1  -5   0  932.16   16.52
   1  -5   0  992.02   17.13
   1  -5   0  941.69   16.58
  -1   5   0  831.51   15.53
   1  -5   0 1010.85   17.69
   1  -5   0  980.12   17.74
   1  -5   0  854.94   16.89
  -1   5   0  920.19   15.81
   1  -5   0 1052.48   22.42
   1  -5   0  940.79   16.21
  -1   5   0  794.50   15.38
   1  -5   0  828.38   17.84
   1  -5   1  109.28    5.39
   1  -5   1  102.39    5.10
   1  -5   1  106.54    5.27
   1  -5   1  109.72    5.65
  -1   5  -1  112.42    5.48
  -1   5  -1  111.63    5.44
   1  -5   1  107.23    5.19
  -1   5  -1  112.59    5.13
  -1   5  -1  106.97    5.35
   1  -5   1  102.95    5.18
   1  -5   1  102.58    5.87
   1  -5   1  119.79    6.08
  -1   5  -1  119.26    6.18
   1  -5   1  111.26    5.33
   1  -5   1  111.59    6.08
  -1   5  -1   99.13    4.65
   1  -5   1  111.86    5.76
  -1   5  -1  105.28    5.29
   1  -5   1  131.50    7.49
  -1   5  -1   94.83    4.84
  -1   5  -1   94.04    5.06
   1  -5   1  101.80    5.50
  -1   5  -1   99.24    5.23
  -1   5  -1  115.11    5.50
   1  -5   2  123.77    6.08
  -1   5  -2   95.77    5.35
   1  -5   2   93.13    4.33
   1  -5   2   88.17    4.96
  -1   5  -2   97.38    5.48
  -1   5  -2   88.65    5.06
   1  -5   2   95.29    5.57
  -1   5  -2   97.22    5.27
   1  -5   2   93.39    5.14
   1  -5   2   94.54    5.15
  -1   5  -2   85.64    4.84
  -1   5  -2   94.91    5.22
   1  -5   2   97.38    5.31
  -1   5  -2   94.96    5.25
   1  -5   2   88.67    4.95
   1  -5   2   88.36    4.98
   1  -5   2  110.40    6.69
  -1   5  -2  100.72    6.10
  -1   5  -2   94.00    5.27
   1  -5   2   98.77    5.86
   1  -5   2   91.62    5.41
  -1   5  -2   79.94    5.41
  -1   5  -2   83.39    4.95
   1  -5   2   96.35    5.43
   1  -5   3   13.56    1.99
   1  -5   3    9.52    1.82
   1  -5   3    7.21    1.51
  -1   5  -3    8.74    1.70
   1  -5   3    8.27    1.54
   1  -5   3    9.04    1.73
   1  -5   3    6.14    1.41
   1  -5   3    6.60    1.47
   1  -5   3    7.99    1.43
  -1   5  -3    7.19    1.54
   1  -5   3    8.07    1.59
   1  -5   3    8.87    1.78
  -1   5  -3    7.62    1.81
   1  -5   3   11.89    2.17
  -1   5  -3    7.05    1.53
  -1   5  -3    8.32    1.77
   1  -5   3    8.28    1.60
  -1   5  -3    8.02    1.84
  -1   5  -3    6.79    1.52
   1  -5   3    8.18    1.82
  -1   5  -3    7.17    1.52
  -1   5  -3    9.00    1.70
   1  -5   3    7.40    1.42
   1  -5   4   67.70    5.37
   1  -5   4   62.38    5.21
   1  -5   4   70.44    5.21
  -1   5  -4   62.35    4.96
   1  -5   4   64.77    4.78
   1  -5   4   74.32    5.02
  -1   5  -4   61.74    4.46
   1  -5   4   80.01    5.45
   1  -5   4   65.77    4.33
   1  -5   4   74.40    5.96
   1  -5   5 1443.08   24.62
   1  -5   5 1527.40   25.87
   1  -5   5 1419.03   26.86
  -1   5  -5 1363.62   26.78
  -1   5  -5 1280.90   25.00
   1  -5   5 1418.93   26.67
  -1   5  -5 1376.42   24.13
   1  -5   5 1461.80   25.23
   1  -5   5 1266.69   23.36
   1  -5   5 1482.33   23.92
   1  -5   5 1324.43   22.41
   1  -5   6    3.59    1.46
  -1   5  -6    2.82    1.39
   1  -5   6    1.96    1.07
   1  -5   6    4.54    1.67
  -1   5  -6    2.69    1.43
   1  -5   6    2.08    1.32
   1  -5   6    1.77    0.94
   1  -5   6    5.75    1.69
  -1   5  -6    3.20    1.28
  -1   5  -7  210.70    9.78
   1  -5   7  226.92   10.28
  -1   5  -7  196.28    9.92
   1  -5   7  194.71    8.34
  -1   5  -7  180.50    9.19
   1  -5   7  270.00   10.31
  -1   5  -7  176.49    7.93
  -1   5  -7  197.22    8.78
   1  -5   7  273.72   11.68
   1  -5   7  241.93    9.38
  -1   5  -8  351.49   12.04
  -1   5  -8  341.63   11.26
   1  -5   8  323.99    9.66
  -1   5  -8  348.20   10.85
  -1   5  -9   11.37    1.71
  -1   5  -9   11.28    1.87
   1  -5   9   12.22    1.73
   1  -4 -11   19.76    1.39
  -1   4  10   16.33    2.09
  -1   4  10   14.24    1.87
   1  -4 -10   18.32    2.97
   1  -4 -10   19.40    2.19
   1  -4 -10   19.14    3.07
  -1   4  10   25.45    2.80
   1  -4  -9  212.83    8.51
   1  -4  -9  181.92    8.11
  -1   4   9  193.61    8.95
   1  -4  -9  207.10   10.51
   1  -4  -9  208.68   12.33
  -1   4   9  202.17    8.41
  -1   4   9  211.45    9.39
  -1   4   9  199.34    8.36
   1  -4  -9  207.77   12.16
  -1   4   8  667.48   18.49
   1  -4  -8  749.00   20.36
   1  -4  -8  777.84   19.88
   1  -4  -8  788.64   26.51
  -1   4   8  825.36   18.27
  -1   4   8  834.45   20.04
   1  -4  -8  809.25   26.25
   1  -4  -8  790.40   22.15
  -1   4   8  727.39   18.20
   1  -4  -8  829.64   23.51
  -1   4   8  756.51   14.66
  -1   4   8  812.34   18.42
   1  -4  -7    1.12    1.22
   1  -4  -7    4.42    1.82
  -1   4   7    2.07    1.23
  -1   4   7    1.96    0.88
  -1   4   7    1.46    1.05
   1  -4  -7    3.38    1.66
   1  -4  -7    1.23    1.19
   1  -4  -7    1.41    1.59
   1  -4  -7    2.31    1.74
  -1   4   7    2.38    1.15
   1  -4  -7    2.47    1.29
  -1   4   7    1.85    1.17
  -1   4   7    1.29    0.92
   1  -4  -7    2.61    1.29
  -1   4   6   94.49    6.46
   1  -4  -6   91.56    8.05
  -1   4   6  115.30    6.90
  -1   4   6  120.04    6.80
   1  -4  -6  111.88    8.08
   1  -4  -6   84.87    6.66
   1  -4  -6  104.30    8.41
   1  -4  -6  100.12    7.76
   1  -4  -6  118.26    9.60
  -1   4   6  110.03    6.14
   1  -4  -6   99.42    8.90
   1  -4  -6  101.52    8.04
   1  -4  -6  124.05    7.88
  -1   4   5   12.69    2.04
   1  -4  -5   10.21    2.62
  -1   4   5   11.76    2.08
  -1   4   5   15.58    1.95
   1  -4  -5   15.46    3.29
   1  -4  -5   13.54    2.10
  -1   4   5   13.99    2.09
   1  -4  -5   13.09    2.24
  -1   4   5   13.46    2.28
  -1   4   5   12.33    2.10
  -1   4   5   13.92    2.15
  -1   4   5   14.06    2.11
   1  -4  -5   12.64    2.03
   1  -4  -5   13.88    2.28
  -1   4   5   12.60    2.03
   1  -4  -5   12.13    2.79
  -1   4   5   11.62    1.95
   1  -4  -5   17.23    2.36
  -1   4   5   13.29    1.76
   1  -4  -5    8.32    2.18
   1  -4  -5   13.13    2.57
   1  -4  -5   13.94    2.94
  -1   4   5   15.41    2.30
  -1   4   5   13.75    2.13
   1  -4  -5   10.60    2.74
   1  -4  -5   12.82    2.11
   1  -4  -4  788.62   21.00
   1  -4  -4 1009.76   20.52
  -1   4   4  898.77   16.16
   1  -4  -4  824.80   21.49
   1  -4  -4 1075.13   18.22
   1  -4  -4 1009.81   17.50
   1  -4  -4  774.39   19.07
  -1   4   4 1075.03   18.23
  -1   4   4  883.46   16.78
   1  -4  -4 1060.44   18.47
   1  -4  -4 1006.96   18.46
   1  -4  -4  861.78   22.03
  -1   4   4  902.28   16.49
  -1   4   4  915.26   16.61
  -1   4   4  895.19   16.65
  -1   4   4 1009.09   17.22
  -1   4   4 1076.41   18.55
  -1   4   4  957.45   14.62
   1  -4  -4  841.99   18.01
  -1   4   4  906.94   14.48
  -1   4   4  834.80   15.61
   1  -4  -4  858.13   21.74
   1  -4  -4  970.92   18.67
  -1   4   4  902.26   16.58
   1  -4  -4 1058.67   18.24
  -1   4   4  975.69   16.20
   1  -4  -3   22.29    2.37
   1  -4  -3   26.61    3.30
  -1   4   3   19.29    2.11
   1  -4  -3   21.39    3.00
   1  -4  -3   24.99    2.59
   1  -4  -3   27.45    3.34
   1  -4  -3   23.30    3.06
  -1   4   3   24.54    2.10
   1  -4  -3   22.22    3.15
  -1   4   3   19.38    2.11
   1  -4  -3   22.31    2.44
  -1   4   3   18.93    2.10
  -1   4   3   23.59    2.28
   1  -4  -3   25.44    2.51
   1  -4  -3   24.76    2.67
  -1   4   3   18.85    2.13
   1  -4  -3   20.65    2.75
   1  -4  -3   20.25    2.52
  -1   4   3   28.77    2.63
   1  -4  -3   22.87    3.32
  -1   4   3   27.48    2.57
  -1   4   3   18.62    2.10
   1  -4  -3   20.06    2.71
   1  -4  -2   74.83    4.23
  -1   4   2   61.87    3.64
  -1   4   2   66.16    3.77
   1  -4  -2   84.28    5.83
   1  -4  -2   69.62    4.27
  -1   4   2   88.10    3.17
   1  -4  -2   69.07    3.88
   1  -4  -2   76.06    4.15
   1  -4  -2   69.94    4.74
   1  -4  -2   69.61    4.04
  -1   4   2   66.99    3.74
   1  -4  -2   73.21    4.55
   1  -4  -2   71.91    4.67
  -1   4   2   68.16    3.74
   1  -4  -2   67.91    3.96
  -1   4   2   67.10    3.70
  -1   4   2   80.62    4.04
  -1   4   2   82.31    3.88
   1  -4  -2   75.47    4.32
   1  -4  -2   69.75    5.09
   1  -4  -2   68.19    4.88
   1  -4  -1 1919.04   27.00
  -1   4   1 1492.00   19.15
  -1   4   1 1601.25   19.65
  -1   4   1 1536.01   19.55
   1  -4  -1 1711.89   22.01
   1  -4  -1 1684.39   20.98
  -1   4   1 1624.26   19.73
   1  -4  -1 1531.74   20.04
  -1   4   1 1820.57   18.68
  -1   4   1 1553.39   19.60
  -1   4   1 1894.12   19.50
  -1   4   1 1418.59   18.29
   1  -4  -1 1491.70   19.84
   1  -4  -1 1561.80   19.90
   1  -4  -1 1408.49   18.54
  -1   4   1 1593.01   19.89
  -1   4   0  158.50    5.61
   1  -4   0  157.42    6.88
   1  -4   0  158.95    5.92
   1  -4   0  160.10    5.96
  -1   4   0  145.81    5.36
  -1   4   0  133.31    5.23
  -1   4   0  163.48    3.36
  -1   4   0  156.16    5.55
  -1   4   0  156.13    5.59
   1  -4   0  159.52    6.05
  -1   4   0  169.88    5.71
  -1   4   0  150.86    5.50
   1  -4   0  160.83    5.84
   1  -4   0  168.89    6.00
  -1   4   0  155.19    5.55
  -1   4  -1 3609.43   33.81
   1  -4   1 3257.37   26.65
   1  -4   1 3336.20   33.11
   1  -4   1 3399.16   33.39
   1  -4   1 3501.68   33.80
  -1   4  -1 3491.17   33.39
  -1   4  -1 3600.81   34.63
   1  -4   1 2913.01   32.84
   1  -4   1 3475.05   33.54
  -1   4  -1 3734.15   34.38
   1  -4   1 3270.19   33.30
  -1   4  -1 3648.08   33.69
  -1   4  -1 3235.71   31.90
  -1   4  -1 3154.21   31.51
   1  -4   1 3440.92   32.87
   1  -4   1 3343.33   32.83
  -1   4  -1 3612.07   33.66
   1  -4   1 3527.54   35.75
   1  -4   2   19.92    2.26
  -1   4  -2   18.31    2.19
   1  -4   2   19.76    2.32
   1  -4   2   15.93    1.96
  -1   4  -2   17.56    2.11
  -1   4  -2   18.65    2.17
   1  -4   2   16.15    1.96
   1  -4   2   21.33    2.30
   1  -4   2   17.45    2.04
   1  -4   2   15.77    1.94
   1  -4   2   18.20    2.12
  -1   4  -2   18.67    2.18
  -1   4  -2   20.62    2.37
   1  -4   2   19.79    2.14
  -1   4  -2   18.66    2.18
  -1   4  -2   13.94    1.78
   1  -4   2   20.11    2.27
  -1   4  -2   17.33    1.98
  -1   4  -2   18.54    2.17
  -1   4  -2   18.07    2.03
   1  -4   3  154.39    6.51
   1  -4   3  159.00    6.02
   1  -4   3  150.63    6.41
  -1   4  -3  149.60    6.20
   1  -4   3  168.47    6.97
  -1   4  -3  159.14    6.75
  -1   4  -3  163.85    6.97
   1  -4   3  156.53    5.83
   1  -4   3  156.51    6.07
   1  -4   3  153.58    6.70
  -1   4  -3  152.15    6.68
  -1   4  -3  160.25    6.79
   1  -4   3  152.86    6.55
   1  -4   3  168.62    6.86
   1  -4   3  156.66    6.71
   1  -4   3  170.21    6.64
   1  -4   3  151.21    6.40
  -1   4  -3  133.50    6.10
  -1   4  -3  147.68    6.81
  -1   4  -3  153.41    6.71
  -1   4  -3  159.87    6.28
   1  -4   3  152.25    6.45
  -1   4  -3  159.11    6.78
  -1   4  -3  160.95    7.17
   1  -4   3  141.15    6.26
  -1   4  -4  911.91   16.70
   1  -4   4  816.81   16.35
   1  -4   4  962.94   17.40
  -1   4  -4  891.42   17.49
  -1   4  -4  826.19   18.31
  -1   4  -4  907.32   17.88
  -1   4  -4  838.01   15.79
   1  -4   4  903.69   14.94
   1  -4   4  886.68   16.45
  -1   4  -4  904.05   17.64
   1  -4   4  845.42   16.68
  -1   4  -4  768.16   16.75
  -1   4  -4  879.77   17.56
   1  -4   4  798.35   16.15
   1  -4   4  836.18   16.52
   1  -4   4  823.08   16.43
  -1   4  -4  877.43   17.51
   1  -4   4  896.54   15.05
  -1   4  -4  857.49   17.91
  -1   4  -4  924.97   19.10
   1  -4   4  917.05   18.22
  -1   4  -4  903.54   16.87
  -1   4  -4  884.56   17.54
   1  -4   4  915.32   18.61
   1  -4   5 1009.57   19.45
   1  -4   5  943.58   18.87
  -1   4  -5  976.79   19.91
   1  -4   5 1075.71   20.27
  -1   4  -5  996.84   19.73
  -1   4  -5  984.62   18.57
   1  -4   5 1098.34   20.07
  -1   4  -5  965.88   19.75
   1  -4   5  938.34   18.83
  -1   4  -5  953.51   20.43
   1  -4   5 1051.91   21.52
   1  -4   5  968.05   20.17
   1  -4   5  899.69   18.40
  -1   4  -5  973.11   19.65
   1  -4   5  930.38   18.71
   1  -4   5  996.48   20.66
   1  -4   5  946.68   19.18
  -1   4  -5 1015.30   20.59
  -1   4  -5  946.54   21.51
   1  -4   5 1081.77   19.70
   1  -4   5 1147.80   20.74
   1  -4   5 1066.13   20.44
  -1   4  -5 1014.24   20.20
   1  -4   5 1010.58   21.07
  -1   4  -5  994.47   20.35
   1  -4   6 3461.07   41.41
  -1   4  -6 3193.23   42.33
   1  -4   6 3122.61   37.12
   1  -4   6 3188.29   40.07
  -1   4  -6 3016.67   43.30
  -1   4  -6 3048.54   39.84
   1  -4   6 3525.68   44.63
  -1   4  -6 3011.39   38.34
   1  -4   6 3376.81   40.74
   1  -4   6 3217.30   42.53
   1  -4   6 3403.87   41.00
   1  -4   6 3359.55   43.37
   1  -4   6 3430.88   39.41
  -1   4  -6 2940.02   40.84
   1  -4   7  132.33    8.08
  -1   4  -7   98.58    5.95
  -1   4  -7  110.97    7.10
  -1   4  -7  114.25    7.59
   1  -4   7  121.53    5.97
  -1   4  -7  103.28    6.61
  -1   4  -7  107.27    7.71
   1  -4   7  128.43    7.16
   1  -4   7  148.70    8.68
   1  -4   7  133.93    7.13
   1  -4   7  129.52    6.74
   1  -4   7  117.23    7.27
   1  -4   7  113.28    7.60
   1  -4   7  130.61    7.48
   1  -4   8   17.00    2.67
  -1   4  -8   13.07    2.24
  -1   4  -8   18.53    2.98
   1  -4   8   18.72    3.01
   1  -4   8   18.92    2.71
  -1   4  -8   16.56    2.74
  -1   4  -8   13.89    2.84
  -1   4  -8   19.64    2.90
  -1   4  -9   55.62    4.24
  -1   4  -9   50.21    3.91
  -1   4  -9   44.95    3.43
   1  -4   9   53.15    4.05
   1  -4   9   55.22    4.19
  -1   4  -9   59.83    5.03
   1  -4   9   63.30    4.61
   1  -3 -11   45.91    2.26
  -1   3  10   27.51    3.14
   1  -3 -10   33.67    4.05
   1  -3 -10   32.52    3.91
  -1   3  10   35.78    3.24
   1  -3 -10   31.70    3.91
  -1   3  10   27.58    2.79
   1  -3  -9  233.98   12.75
  -1   3   9  235.27   10.40
   1  -3  -9  256.51   13.27
   1  -3  -9  235.33   13.18
   1  -3  -9  244.80   12.98
  -1   3   9  205.42    9.89
  -1   3   9  237.81    9.39
   1  -3  -9  236.65    9.94
  -1   3   9  198.03    9.03
  -1   3   9  222.39    9.54
  -1   3   9  239.99    9.80
   1  -3  -8  185.35    9.68
   1  -3  -8  213.08   12.99
   1  -3  -8  216.39   13.12
  -1   3   8  185.20   10.22
   1  -3  -8  183.43   12.45
  -1   3   8  176.53    9.15
   1  -3  -8  198.03   10.71
  -1   3   8  190.07    7.24
   1  -3  -8  219.67   10.16
  -1   3   8  209.30   10.22
  -1   3   8  205.07    9.47
   1  -3  -8  207.86   13.21
   1  -3  -8  166.37    8.68
  -1   3   8  213.45    9.25
  -1   3   7   47.60    4.74
   1  -3  -7   35.28    4.30
  -1   3   7   42.59    3.47
   1  -3  -7   44.77    6.05
   1  -3  -7   38.06    4.77
  -1   3   7   37.38    4.16
  -1   3   7   38.78    4.59
  -1   3   7   45.89    4.17
   1  -3  -7   39.12    4.76
   1  -3  -7   38.38    4.83
   1  -3  -7   45.46    4.69
   1  -3  -7   47.74    6.04
  -1   3   7   47.88    4.52
   1  -3  -7   39.97    4.28
   1  -3  -7   44.92    6.13
  -1   3   6   26.28    2.97
  -1   3   6   21.25    3.09
   1  -3  -6   23.08    3.70
   1  -3  -6   24.27    3.19
  -1   3   6   25.28    2.50
   1  -3  -6   24.33    4.04
   1  -3  -6   22.01    3.36
  -1   3   6   20.49    2.80
   1  -3  -6   27.09    4.21
   1  -3  -6   21.73    3.49
   1  -3  -6   20.50    3.32
   1  -3  -6   23.32    4.05
  -1   3   6   28.41    3.44
   1  -3  -6   40.28    5.53
  -1   3   5  159.10    6.08
   1  -3  -5  153.22    6.52
   1  -3  -5  134.44    8.44
  -1   3   5  175.83    7.20
   1  -3  -5  150.00    8.88
  -1   3   5  158.38    7.01
  -1   3   5  154.64    5.71
  -1   3   5  164.03    7.38
   1  -3  -5  136.61    7.44
   1  -3  -5  127.34    7.99
   1  -3  -5  151.07    6.76
   1  -3  -5  154.40    6.62
  -1   3   5  163.97    6.92
  -1   3   5  131.75    6.83
   1  -3  -5  152.38    6.63
  -1   3   5  157.86    6.61
   1  -3  -5  149.56    6.67
   1  -3  -5  137.55    8.96
   1  -3  -5  115.77    7.12
   1  -3  -5  146.51    9.38
  -1   3   4 2132.59   25.28
   1  -3  -4 1725.75   28.96
   1  -3  -4 1637.11   27.02
   1  -3  -4 2249.40   26.33
  -1   3   4 2144.68   26.27
  -1   3   4 2127.26   25.01
   1  -3  -4 1835.21   30.41
   1  -3  -4 2298.02   25.90
   1  -3  -4 1945.96   31.84
  -1   3   4 2298.45   26.22
  -1   3   4 2160.35   25.23
   1  -3  -4 2199.11   25.94
  -1   3   4 2165.98   25.22
   1  -3  -4 2222.70   25.46
  -1   3   4 2031.06   24.96
   1  -3  -4 2190.05   25.48
   1  -3  -4 2010.81   26.08
   1  -3  -4 2368.78   18.29
   1  -3  -4 1789.98   30.74
   1  -3  -4 1663.79   24.80
  -1   3   4 2100.25   24.91
  -1   3   3 2357.32   24.84
   1  -3  -3 2306.63   19.89
   1  -3  -3 2639.43   26.85
  -1   3   3 2380.55   24.67
  -1   3   3 2388.19   24.71
   1  -3  -3 2666.29   26.18
  -1   3   3 2334.20   24.68
  -1   3   3 2399.79   25.59
  -1   3   3 2250.21   23.99
   1  -3  -3 2609.03   25.75
   1  -3  -3 2637.96   26.50
   1  -3  -3 2251.34   22.03
  -1   3   3 2444.79   22.39
   1  -3  -3 2729.81   26.49
   1  -3  -3 2611.75   27.64
  -1   3   3 2646.75   25.57
  -1   3   2   41.98    2.80
   1  -3  -2   52.84    3.32
  -1   3   2   44.99    2.77
   1  -3  -2   53.90    3.23
  -1   3   2   40.65    2.69
   1  -3  -2   51.48    3.11
   1  -3  -2   58.92    2.81
   1  -3  -2   52.78    3.08
  -1   3   2   58.61    3.12
  -1   3   2   44.21    2.76
  -1   3   2   42.91    2.71
  -1   3   2   51.38    2.80
  -1   3   2   52.07    1.93
  -1   3   2   54.02    2.14
   1  -3  -2   52.13    3.16
  -1   3   2   52.14    2.66
   1  -3  -1   31.71    1.04
   1  -3  -1   42.54    2.66
  -1   3   1   51.22    2.01
  -1   3   1   42.65    2.52
  -1   3   1   42.47    2.53
  -1   3   1   58.38    2.84
  -1   3   1   39.14    2.45
   1  -3  -1   41.44    2.58
  -1   3   1   44.51    2.57
   1  -3  -1   39.21    2.64
   1  -3  -1   60.29    3.10
  -1   3   1   41.33    2.49
   1  -3  -1   43.27    2.73
   1  -3  -1   45.19    2.67
  -1   3   1   43.43    2.57
   1  -3  -1   47.85    3.53
  -1   3   0    1.86    0.55
   1  -3   0    2.53    0.71
  -1   3   0    2.18    0.60
   1  -3   0    1.22    0.39
  -1   3   0    5.14    0.88
  -1   3   0    2.26    0.39
  -1   3   0    2.18    0.59
  -1   3   0    2.20    0.60
   1  -3   0    2.77    0.75
   1  -3   0    2.56    0.67
  -1   3   0    3.70    0.79
  -1   3   0    1.46    0.52
   1  -3   0    2.76    0.73
  -1   3   0    2.44    0.62
   1  -3   0    2.97    0.76
   1  -3   0    1.18    0.63
  -1   3  -1 1581.74   18.42
   1  -3   1 1618.69   18.85
  -1   3  -1 1569.01   18.34
  -1   3  -1 1504.49   17.96
   1  -3   1 1639.81   19.05
  -1   3  -1 1466.38   17.97
  -1   3  -1 1541.58   18.20
   1  -3   1 1632.94   19.16
   1  -3   1 1633.73   19.62
   1  -3   1 1586.64   18.34
  -1   3  -1 1601.31   18.96
   1  -3   1 1635.44   18.83
  -1   3  -1 1451.83   17.17
   1  -3   1 1586.23   18.41
  -1   3  -1 1506.40   17.46
   1  -3   1 1610.81   15.24
  -1   3  -1 1588.88   18.45
  -1   3  -2   39.56    2.87
   1  -3   2   35.93    2.67
   1  -3   2   38.47    2.70
  -1   3  -2   38.21    2.79
   1  -3   2   40.01    1.56
  -1   3  -2   36.52    2.88
   1  -3   2   36.95    2.65
   1  -3   2   35.16    2.63
  -1   3  -2   36.86    2.75
  -1   3  -2   37.05    2.77
   1  -3   2   34.39    2.60
  -1   3  -2   36.49    2.72
  -1   3  -2   37.99    2.53
  -1   3  -2   38.33    2.61
   1  -3   3   20.55    2.23
   1  -3   3   21.47    2.22
   1  -3   3   19.93    1.79
  -1   3  -3   20.44    2.21
  -1   3  -3   28.44    2.74
   1  -3   3   20.74    2.19
   1  -3   3   22.88    2.29
  -1   3  -3   26.49    2.30
   1  -3   3   21.71    2.23
  -1   3  -3   20.80    2.04
   1  -3   3   20.54    2.19
   1  -3   3   19.41    2.12
   1  -3   4 1079.65   18.46
  -1   3  -4 1109.90   16.76
  -1   3  -4 1120.39   19.41
  -1   3  -4  991.61   17.65
   1  -3   4 1075.84   16.90
   1  -3   4 1142.75   17.85
  -1   3  -4 1053.69   18.31
   1  -3   4 1024.78   18.06
  -1   3  -4 1043.18   17.74
   1  -3   4 1093.33   14.94
  -1   3  -4 1085.76   17.19
   1  -3   5   57.64    4.44
  -1   3  -5   46.41    4.04
   1  -3   5   60.61    4.26
  -1   3  -5   55.49    3.92
  -1   3  -5   47.25    4.10
   1  -3   5   57.62    4.13
  -1   3  -5   46.20    4.12
   1  -3   5   54.75    4.29
  -1   3  -5   54.20    4.38
  -1   3  -5   53.90    4.46
  -1   3  -5   50.78    4.06
   1  -3   5   55.88    4.50
  -1   3  -5   46.35    3.98
  -1   3  -5   50.56    4.18
  -1   3  -5   48.02    4.03
  -1   3  -5   49.50    4.12
  -1   3  -6  289.36   11.50
   1  -3   6  342.54   10.50
  -1   3  -6  295.67   12.06
   1  -3   6  352.76   12.13
   1  -3   6  319.67   11.57
   1  -3   6  341.22   12.21
   1  -3   6  351.10   11.57
  -1   3  -6  307.68   11.91
   1  -3   6  342.40   11.09
   1  -3   6  380.87   11.84
  -1   3  -6  286.14   11.36
  -1   3  -6  305.09   12.04
   1  -3   6  358.21   12.52
   1  -3   7    1.26    1.04
  -1   3  -7    0.73    0.99
   1  -3   7    1.20    1.00
  -1   3  -7    0.56    0.88
  -1   3  -7    4.79    1.58
  -1   3  -7    1.91    1.33
   1  -3   7    1.03    0.77
  -1   3  -7    1.70    1.15
   1  -3   7    2.62    1.01
   1  -3   7    1.04    1.00
   1  -3   7    3.35    1.30
   1  -3   7    0.88    0.95
   1  -3   8  194.70    9.80
  -1   3  -8  154.73    8.31
   1  -3   8  221.03    9.84
  -1   3  -8  198.05   10.60
   1  -3   8  225.37    9.17
   1  -3   8  214.90   10.27
  -1   3  -8  187.66    9.86
   1  -3   8  227.53    9.17
  -1   3  -8  187.32    9.65
  -1   3  -8  178.64   10.01
  -1   3  -9   69.02    5.84
  -1   3  -9   64.72    5.34
  -1   3  -9   59.92    5.42
   1  -3   9   70.46    5.00
  -1   3  -9   69.44    5.32
  -1   3  -9   63.83    4.83
   1  -3   9   57.83    4.81
   1  -3   9   78.20    5.62
   1  -3   9   64.17    5.13
  -1   3 -10  156.47    7.04
   1  -3  10  158.29    6.52
  -1   3 -10  165.96    7.45
  -1   3 -10  145.01    6.57
   1  -3  10  135.69    6.03
   1  -3  10  175.05    6.84
  -1   3 -10  160.93    7.45
   1  -2 -11   19.41    1.38
  -1   2  10  256.32    9.09
   1  -2 -10  299.62   12.74
   1  -2 -10  294.45    9.75
   1  -2 -10  269.85   10.47
   1  -2 -10  269.65   10.59
  -1   2  10  270.16   10.16
  -1   2  10  260.03    7.52
   1  -2  -9  129.78    9.90
  -1   2   9  115.18    6.90
   1  -2  -9  127.67    8.83
   1  -2  -9  127.56    7.29
   1  -2  -9  118.42    8.75
  -1   2   9  105.19    7.57
   1  -2  -9  118.82    8.62
   1  -2  -9  128.09   10.04
  -1   2   9  112.79    6.86
  -1   2   9  114.13    7.46
  -1   2   9  106.08    7.04
   1  -2  -8  585.05   16.54
  -1   2   8  496.55   11.98
  -1   2   8  452.33   11.39
   1  -2  -8  494.54   20.73
  -1   2   8  473.74   15.06
  -1   2   8  504.43   14.91
   1  -2  -8  517.09   21.16
  -1   2   8  418.58   14.94
   1  -2  -8  497.49   14.81
  -1   2   8  481.72   15.94
  -1   2   8  437.09   16.60
   1  -2  -8  500.24   19.10
   1  -2  -8  524.08   15.17
  -1   2   7    3.31    1.48
   1  -2  -7    0.43    1.07
  -1   2   7    0.63    0.96
   1  -2  -7    0.50    0.88
   1  -2  -7    0.19    0.88
  -1   2   7    0.21    0.74
   1  -2  -7   -0.20    1.00
   1  -2  -7    1.57    0.92
   1  -2  -7    0.12    0.60
  -1   2   7   -0.30    0.80
   1  -2  -7    2.41    1.39
   1  -2  -7    0.86    0.80
  -1   2   7    1.05    0.73
  -1   2   7    0.95    0.92
   1  -2  -7    0.41    1.03
   1  -2  -6  194.59    7.95
  -1   2   6  206.03    8.27
   1  -2  -6  155.59    8.62
   1  -2  -6  160.63    8.58
   1  -2  -6  200.26    7.98
  -1   2   6  210.17    8.35
  -1   2   6  186.26    6.69
  -1   2   6  201.70    8.13
   1  -2  -6  167.79   10.20
  -1   2   6  162.38    8.79
   1  -2  -6  184.82    7.66
  -1   2   6  199.99    8.15
   1  -2  -6  173.87   10.59
   1  -2  -6  192.01    8.08
   1  -2  -6  153.41    7.90
   1  -2  -6  176.78   10.27
  -1   2   6  191.67    8.81
   1  -2  -6  184.92    7.38
  -1   2   6  199.71    8.19
  -1   2   6  172.95    8.28
  -1   2   6  186.61    7.94
  -1   2   6  193.69    7.02
   1  -2  -6  187.26   11.05
   1  -2  -6  192.05    8.16
   1  -2  -6  185.68    8.66
  -1   2   5  601.68   12.95
   1  -2  -5  550.26   12.63
  -1   2   5  579.24   12.65
   1  -2  -5  447.60   13.67
  -1   2   5  605.73   13.72
   1  -2  -5  520.59   16.45
   1  -2  -5  456.04   13.84
   1  -2  -5  485.48   15.80
  -1   2   5  462.93   13.35
   1  -2  -5  571.85   12.10
  -1   2   5  586.23   14.01
  -1   2   5  573.05   12.67
   1  -2  -5  664.32    9.81
  -1   2   5  576.45   12.75
   1  -2  -5  506.12   15.39
  -1   2   5  556.77   10.84
   1  -2  -5  471.72   15.81
   1  -2  -5  591.82   12.72
  -1   2   5  580.77   12.95
  -1   2   5  511.89   12.89
   1  -2  -5  447.84   13.10
   1  -2  -5  560.09   12.40
   1  -2  -5  564.34   12.25
  -1   2   5  581.82   12.74
   1  -2  -5  552.88   12.71
  -1   2   5  619.34   12.59
   1  -2  -4  392.71    9.57
   1  -2  -4  350.16   11.82
  -1   2   4  426.76    9.75
   1  -2  -4  416.63    9.55
   1  -2  -4  401.39    8.43
   1  -2  -4  333.25    6.12
  -1   2   4  432.72    9.75
  -1   2   4  414.11    9.69
  -1   2   4  418.80    9.65
   1  -2  -4  433.41    9.61
   1  -2  -4  493.64    7.85
  -1   2   4  442.57    9.83
   1  -2  -4  445.08    9.70
  -1   2   4  442.76    9.51
   1  -2  -4  422.31    9.90
   1  -2  -4  359.07   11.97
   1  -2  -4  444.69    9.73
  -1   2   4  440.25    9.77
  -1   2   4  450.88   10.85
   1  -2  -3   66.59    3.54
   1  -2  -3   64.68    3.46
  -1   2   3   67.55    3.43
  -1   2   3   72.29    3.52
   1  -2  -3   71.63    3.42
  -1   2   3   73.43    3.02
  -1   2   3   80.67    3.81
  -1   2   3   67.47    1.69
   1  -2  -3   69.56    3.50
   1  -2  -3   82.19    2.95
   1  -2  -3   58.34    2.61
  -1   2   3   72.22    3.51
   1  -2  -3   69.60    3.44
  -1   2   3   68.75    3.45
   1  -2  -3   69.85    3.42
   1  -2  -3   74.25    3.55
  -1   2   3   70.63    3.51
   1  -2  -2  804.52   11.61
  -1   2   2  783.94   11.12
  -1   2   2  803.06   11.17
   1  -2  -2  843.43   11.46
  -1   2   2  691.00    7.90
   1  -2  -2  799.01   11.70
  -1   2   2  781.53   11.06
  -1   2   2  845.42   11.36
  -1   2   2  841.68    9.85
   1  -2  -2  839.46   11.55
   1  -2  -2  670.45    9.95
  -1   2   2  797.39   11.16
   1  -2  -2  707.02    9.45
  -1   2   2  794.36   11.23
   1  -2  -2  842.36   11.55
   1  -2  -1 5633.01   40.66
   1  -2  -1 5755.19   40.78
  -1   2   1 5205.81   39.82
  -1   2   1 5314.18   39.76
  -1   2   1 5823.83   37.65
  -1   2   1 5200.46   39.78
   1  -2  -1 5346.28   41.50
   1  -2  -1 5430.60   41.06
  -1   2   1 5668.69   36.94
   1  -2  -1 6522.46   41.17
  -1   2   1 5159.85   40.04
   1  -2  -1 5473.89   40.86
  -1   2   1 5241.36   39.70
  -1   2   1 5767.14   39.98
  -1   2   1 5129.93   38.54
  -1   2   0  920.54   10.70
  -1   2   0  963.15   11.60
  -1   2   0  906.40   10.36
  -1   2   0  951.20   10.87
   1  -2   0  784.78   10.42
   1  -2   0  887.02   11.35
   1  -2   0  996.80   11.37
   1  -2   0  856.70   11.26
   1  -2   0  868.78   11.04
   1  -2   0  907.49    9.75
   1  -2   0 1050.49   11.83
   1  -2   0  960.53   12.35
  -1   2   0  949.41   11.07
  -1   2   0  872.43   10.82
  -1   2   0  973.24   10.69
  -1   2   0  868.44   11.08
   1  -2   0  925.63   10.80
  -1   2   0  860.78   10.72
  -1   2   0  915.08   10.03
   1  -2   0  968.11   11.16
  -1   2   0  862.70   10.73
  -1   2   0  964.96   11.19
   1  -2   0  949.57   11.12
   1  -2   0  851.39   11.75
  -1   2   0  800.42   10.46
   1  -2   0  856.93   11.11
   1  -2   0 1014.99   12.12
   1  -2   0 1005.86   12.67
   1  -2   0  967.31   11.19
  -1   2   0  871.95   10.48
  -1   2   0  872.33   10.92
   1  -2   1  126.40    3.90
  -1   2  -1  117.44    3.75
  -1   2  -1  116.86    3.83
  -1   2  -1  115.13    3.77
  -1   2  -1  112.94    3.77
   1  -2   1  125.82    4.12
   1  -2   1  116.58    3.88
   1  -2   1  125.76    4.04
   1  -2   1  129.49    4.26
  -1   2  -1  111.47    3.78
   1  -2   1  126.09    4.15
  -1   2  -1  111.37    3.73
  -1   2  -1  115.85    3.53
   1  -2   1  117.46    3.93
  -1   2  -2 2994.58   25.89
  -1   2  -2 3082.72   28.08
  -1   2  -2 3087.17   28.16
  -1   2  -2 3147.52   28.46
   1  -2   2 3129.53   27.94
   1  -2   2 3201.00   23.09
  -1   2  -2 3146.44   28.25
  -1   2  -2 3051.56   28.18
   1  -2   2 3036.50   27.55
   1  -2   2 3137.71   28.09
   1  -2   2 3137.37   28.20
   1  -2   2 3150.19   28.10
  -1   2  -2 3098.78   26.38
   1  -2   2 3128.92   28.31
  -1   2  -2 2935.02   27.26
  -1   2  -3 2976.25   29.50
  -1   2  -3 2970.10   29.26
   1  -2   3 2912.96   28.66
  -1   2  -3 2873.82   29.08
   1  -2   3 2973.44   29.19
   1  -2   3 2827.01   28.39
  -1   2  -3 3018.90   29.62
  -1   2  -3 2983.66   26.77
  -1   2  -3 2849.90   28.76
   1  -2   3 2882.96   28.87
  -1   2  -3 2716.98   27.42
   1  -2   3 2924.72   24.03
   1  -2   3 2806.16   28.26
  -1   2  -3 2977.46   29.26
   1  -2   3 2876.46   28.62
  -1   2  -3 2914.23   26.78
  -1   2  -3 3037.50   23.99
   1  -2   3 2734.33   21.86
  -1   2  -3 2841.60   28.12
   1  -2   4 2676.45   29.91
   1  -2   4 2726.13   23.08
   1  -2   4 2731.03   29.75
  -1   2  -4 2675.27   28.27
  -1   2  -4 2693.57   29.05
   1  -2   4 2683.21   29.63
  -1   2  -4 2746.14   30.18
  -1   2  -4 2666.65   29.86
  -1   2  -4 2865.11   27.49
  -1   2  -4 2807.97   27.30
  -1   2  -4 2786.18   30.50
   1  -2   4 2726.54   29.82
   1  -2   4 2707.94   29.74
  -1   2  -4 2768.69   30.30
  -1   2  -4 2713.76   30.22
   1  -2   5 1571.94   21.55
  -1   2  -5 1609.13   21.14
   1  -2   5 1547.63   23.22
   1  -2   5 1502.28   21.91
  -1   2  -5 1588.77   23.78
  -1   2  -5 1405.65   23.49
   1  -2   5 1532.29   15.24
   1  -2   5 1520.26   22.64
  -1   2  -5 1249.24   20.95
  -1   2  -5 1537.68   21.92
   1  -2   5 1462.40   22.16
   1  -2   5 1479.46   22.06
   1  -2   5 1433.48   22.04
  -1   2  -5 1520.91   22.96
  -1   2  -5 1461.70   22.49
  -1   2  -5 1559.26   23.61
  -1   2  -5 1514.25   20.50
   1  -2   5 1565.17   23.22
  -1   2  -5 1499.89   23.17
   1  -2   5 1497.05   20.95
  -1   2  -5 1446.39   20.47
   1  -2   5 1502.88   22.44
   1  -2   6  553.46   14.08
   1  -2   6  590.76   15.02
  -1   2  -6  585.01   14.76
  -1   2  -6  617.07   13.90
  -1   2  -6  634.11   16.00
   1  -2   6  636.57   15.94
  -1   2  -6  550.83   14.85
   1  -2   6  604.94   14.91
  -1   2  -6  580.22   14.69
  -1   2  -6  606.10   16.76
  -1   2  -6  717.15   15.07
  -1   2  -6  570.63   16.34
  -1   2  -6  659.07   15.06
   1  -2   6  604.88   15.10
   1  -2   6  562.16   14.19
   1  -2   6  676.22   14.36
   1  -2   6  543.05   13.81
   1  -2   6  574.68   13.45
   1  -2   6  576.21   14.53
  -1   2  -6  596.20   14.97
   1  -2   6  583.64   14.59
   1  -2   6  594.58   14.09
  -1   2  -6  568.58   14.56
  -1   2  -6  552.10   14.36
  -1   2  -6  590.28   15.08
   1  -2   7  151.16    6.74
   1  -2   7  139.63    7.92
   1  -2   7  144.35    7.52
   1  -2   7  172.33    9.12
   1  -2   7  150.70    8.50
  -1   2  -7  140.06    8.86
  -1   2  -7  131.42    8.48
   1  -2   7  144.37    7.83
   1  -2   7  143.94    7.56
  -1   2  -7  139.58    8.74
  -1   2  -7  125.95    7.40
   1  -2   7  162.20    7.72
  -1   2  -8  311.02   13.97
   1  -2   8  345.06    9.68
   1  -2   8  379.67   12.50
   1  -2   8  374.85   13.61
  -1   2  -8  339.37   14.31
   1  -2   8  299.04   12.36
  -1   2  -8  295.53   13.09
   1  -2   8  372.16   13.66
  -1   2  -8  325.37   14.39
  -1   2  -8  323.62   12.55
  -1   2  -8  325.71   12.49
   1  -2   8  351.64   12.04
   1  -2   9   49.95    4.84
   1  -2   9   40.03    4.22
  -1   2  -9   42.66    4.95
  -1   2  -9   36.10    4.50
  -1   2  -9   48.16    4.54
  -1   2  -9   35.07    3.89
   1  -2   9   47.36    4.62
  -1   2  -9   46.09    5.16
   1  -2   9   53.75    4.22
  -1   2  -9   42.87    4.95
   1  -2   9   41.22    3.88
   1  -2  10  249.43    9.43
   1  -2  10  243.97    9.47
  -1   2 -10  240.93   10.46
   1  -2  10  244.39    8.72
  -1   2 -10  206.98    7.81
  -1   2 -10  246.00   10.49
   1  -2  10  205.11    8.44
   1  -2  10  267.89    9.34
  -1   2 -11  111.86    5.40
  -1   2 -11  122.16    5.65
  -1   1  10  152.09    5.94
   1  -1 -10  162.46    9.51
  -1   1  10  159.55    7.28
   1  -1 -10  171.66    7.38
   1  -1 -10  174.05    9.87
  -1   1  10  146.19    7.52
  -1   1   9    9.26    2.14
  -1   1   9   11.98    2.47
   1  -1  -9   15.85    2.58
   1  -1  -9   14.72    2.84
  -1   1   9    9.88    2.30
   1  -1  -9   13.92    3.54
   1  -1  -9   15.00    2.84
   1  -1  -9   10.42    2.95
  -1   1   9    9.28    2.33
   1  -1  -9   12.18    2.44
  -1   1   9   16.51    2.54
   1  -1  -8   75.64    6.75
  -1   1   8   75.80    4.67
  -1   1   8   66.33    5.48
   1  -1  -8   66.66    7.33
   1  -1  -8   64.49    6.54
   1  -1  -8   72.38    7.90
  -1   1   8   73.73    4.31
  -1   1   8   60.86    5.60
  -1   1   8   61.28    5.88
   1  -1  -8   70.72    7.73
   1  -1  -8   77.92    5.75
  -1   1   8   76.98    6.07
  -1   1   8   61.29    6.35
  -1   1   8   66.66    6.12
   1  -1  -8   69.08    6.60
   1  -1  -7  211.18   11.75
   1  -1  -7  246.97    9.91
  -1   1   7  222.03    8.10
  -1   1   7  221.16   10.23
  -1   1   7  187.82    9.11
  -1   1   7  194.37   10.24
   1  -1  -7  204.96   11.33
   1  -1  -7  215.59   13.23
  -1   1   7  212.21   10.46
   1  -1  -7  225.32   13.52
  -1   1   7  213.55    9.81
  -1   1   7  209.61    7.62
   1  -1  -7  214.20   11.35
   1  -1  -7  215.33   12.77
   1  -1  -6 2167.20   28.91
  -1   1   6 2136.94   28.45
   1  -1  -6 2002.09   37.66
  -1   1   6 2149.88   28.67
   1  -1  -6 1821.95   35.48
   1  -1  -6 2110.27   26.95
   1  -1  -6 2154.18   29.84
  -1   1   6 2247.30   28.91
  -1   1   6 2005.77   31.53
   1  -1  -6 2184.00   29.13
  -1   1   6 2261.44   26.39
  -1   1   6 2188.33   28.92
   1  -1  -6 2226.13   29.24
  -1   1   6 2198.96   26.64
  -1   1   6 2158.45   30.37
   1  -1  -6 2312.04   23.65
  -1   1   6 1757.33   30.09
  -1   1   6 2172.50   25.90
  -1   1   6 2253.21   28.95
   1  -1  -6 2190.88   29.05
   1  -1  -6 2047.11   33.98
   1  -1  -6 2202.74   29.77
   1  -1  -6 1975.75   38.19
  -1   1   6 2156.67   28.58
   1  -1  -5  597.52   13.15
  -1   1   5  640.37   12.99
  -1   1   5  635.70   12.70
   1  -1  -5  503.55   15.40
   1  -1  -5  565.57   17.01
   1  -1  -5  619.00   12.86
   1  -1  -5  452.83   12.47
   1  -1  -5  561.94   17.30
  -1   1   5  639.96   12.92
  -1   1   5  641.06   12.96
  -1   1   5  636.16   12.15
   1  -1  -5  597.79   12.78
   1  -1  -5  619.48   12.72
  -1   1   5  510.60   14.46
  -1   1   5  647.13   13.96
   1  -1  -5  639.35   10.36
  -1   1   5  591.23   14.43
   1  -1  -5  550.92   10.09
  -1   1   5  660.57   11.98
   1  -1  -5  586.96   15.39
   1  -1  -5  612.24   13.04
   1  -1  -5  610.79   13.09
  -1   1   5  659.27   13.25
  -1   1   5  654.95   13.10
   1  -1  -5  616.40   12.24
  -1   1   4 3447.22   30.96
   1  -1  -4 3646.33   25.54
   1  -1  -4 3099.43   30.91
   1  -1  -4 3223.36   30.66
  -1   1   4 3379.19   30.73
   1  -1  -4 3498.79   30.15
  -1   1   4 3412.96   29.38
   1  -1  -4 3134.14   30.82
   1  -1  -4 3182.99   30.47
  -1   1   4 3496.62   31.15
   1  -1  -4 3117.65   28.05
   1  -1  -4 3443.12   26.64
  -1   1   4 3389.70   30.89
  -1   1   4 3412.53   30.85
   1  -1  -4 3291.32   30.60
   1  -1  -4 3299.34   30.62
  -1   1   4 3349.65   30.33
  -1   1   3  776.43   11.37
   1  -1  -3  706.86   10.89
   1  -1  -3  733.14   11.13
  -1   1   3  833.61   11.81
   1  -1  -3  709.84   11.30
   1  -1  -3  715.20   10.98
  -1   1   3  738.69   10.99
   1  -1  -3  756.32    9.20
  -1   1   3  785.48   10.18
  -1   1   3  762.91   11.25
   1  -1  -3  728.71   11.01
   1  -1  -3  696.59   11.25
  -1   1   3  754.10   11.32
  -1   1   3  764.52   11.31
  -1   1   3  780.10   11.35
   1  -1  -3  773.52   11.16
   1  -1  -2   13.61    1.10
  -1   1   2   10.43    0.94
   1  -1  -2   11.01    1.14
  -1   1   2   11.85    1.15
   1  -1  -1 8145.72   53.12
  -1   1   1 8161.50   53.57
  -1   1   1 8097.04   52.90
  -1   1   1 8256.14   53.05
  -1   1   1 8534.54   53.74
  -1   1   1 8194.21   53.09
  -1   1   1 8174.36   53.19
   1  -1  -1 7993.86   53.06
   1  -1  -1 7905.54   52.05
   1  -1  -1 7802.24   53.17
   1  -1  -1 8111.38   53.17
  -1   1   0  391.60    5.87
   1  -1   0  344.99    5.22
   1  -1   0  336.60    4.88
  -1   1   0  352.19    5.29
  -1   1   0  366.35    5.56
   1  -1   0  348.53    5.39
  -1   1   0  353.76    5.38
   1  -1   0  361.98    5.85
   1  -1   0  352.58    5.54
   1  -1   0  338.21    5.40
  -1   1   0  381.40    5.70
  -1   1   0  296.59    4.42
  -1   1   0  332.77    4.34
  -1   1   0  339.02    4.74
  -1   1   0  341.85    5.14
  -1   1   0  336.62    5.18
  -1   1   0  371.38    4.98
   1  -1   0  344.00    4.79
  -1   1   0  340.40    4.89
   1  -1   0  342.91    5.28
   1  -1   0  340.71    5.32
   1  -1   0  350.63    5.39
  -1   1  -1 8925.86   52.93
  -1   1  -1 9999.00   54.75
   1  -1   1 9216.81   53.16
  -1   1  -2  440.40    7.54
   1  -1   2  474.57    6.69
  -1   1  -2  491.30    6.99
  -1   1  -2  510.65    7.52
  -1   1  -2  464.48    7.14
   1  -1   2  479.80    5.88
   1  -1   2  476.84    7.87
   1  -1   3  335.77    7.80
   1  -1   3  344.96    7.74
  -1   1  -3  328.50    7.59
   1  -1   3  346.73    7.77
  -1   1  -3  319.64    7.53
  -1   1  -3  312.77    3.84
  -1   1  -3  320.01    6.76
  -1   1  -3  338.95    6.46
  -1   1  -3  340.59    7.79
  -1   1  -3  326.60    7.65
   1  -1   3  336.72    7.70
  -1   1  -3  332.59    7.69
  -1   1  -3  350.69    6.74
   1  -1   3  330.39    7.66
   1  -1   3  330.43    7.60
   1  -1   3  339.33    7.78
  -1   1  -3  337.97    7.82
  -1   1  -3  332.48    6.82
   1  -1   4 2418.44   26.27
  -1   1  -4 2388.97   26.07
  -1   1  -4 2386.48   26.18
  -1   1  -4 2439.55   26.21
   1  -1   4 2683.52   26.43
  -1   1  -4 2550.99   24.02
   1  -1   4 2388.61   26.10
  -1   1  -4 2497.47   24.01
  -1   1  -4 2528.04   26.77
  -1   1  -4 2331.81   23.68
   1  -1   4 2481.39   26.57
   1  -1   4 2405.04   26.32
   1  -1   4 2419.17   26.35
   1  -1   4 2306.77   21.83
  -1   1  -4 2334.61   26.14
  -1   1  -5 1472.51   23.57
  -1   1  -5 1522.88   22.03
  -1   1  -5 1470.04   23.07
  -1   1  -5 1521.78   21.81
  -1   1  -5 1499.61   19.06
  -1   1  -5 1688.14   20.51
   1  -1   5 1793.18   23.59
  -1   1  -5 1651.76   22.89
   1  -1   5 1523.73   21.82
   1  -1   5 1490.55   21.78
   1  -1   5 1395.91   19.54
   1  -1   5 1447.20   17.02
   1  -1   5 1582.27   22.09
  -1   1  -5 1593.44   19.75
   1  -1   5 1485.07   21.47
   1  -1   5 1524.05   20.67
  -1   1  -5 1605.79   22.02
  -1   1  -5 1556.95   21.90
   1  -1   5 1426.21   20.34
   1  -1   5 1544.86   22.04
  -1   1  -5 1517.91   24.12
   1  -1   5 1582.06   21.98
   1  -1   6   18.81    2.58
  -1   1  -6   17.72    2.78
   1  -1   6   21.21    1.96
  -1   1  -6   22.18    2.49
   1  -1   6   16.35    2.32
   1  -1   6   20.05    2.57
  -1   1  -6   18.95    2.54
  -1   1  -6   19.08    2.54
   1  -1   6   17.05    2.40
  -1   1  -6   23.40    3.15
  -1   1  -6   16.33    2.36
  -1   1  -6   17.49    2.40
  -1   1  -6   16.88    2.37
   1  -1   6   18.50    2.22
  -1   1  -6   18.13    2.61
   1  -1   6   18.11    2.48
  -1   1  -6   22.86    2.31
  -1   1  -6   21.46    2.14
  -1   1  -6   16.63    2.37
   1  -1   6   17.81    2.45
   1  -1   6   25.65    2.99
  -1   1  -6   17.64    2.63
  -1   1  -6   18.36    2.91
   1  -1   6   19.13    2.51
  -1   1  -7   -0.15    0.62
  -1   1  -7    2.38    1.08
   1  -1   7    0.33    0.69
  -1   1  -7    0.74    0.79
  -1   1  -7    0.69    0.90
   1  -1   7    0.17    0.59
  -1   1  -7    1.58    0.79
   1  -1   7    0.43    0.52
   1  -1   7    0.24    0.47
   1  -1   7    0.11    0.59
  -1   1  -8  341.91   14.82
   1  -1   8  363.82   13.15
  -1   1  -8  359.24   14.33
   1  -1   8  406.03   13.03
   1  -1   8  397.62   13.92
   1  -1   8  374.47   10.42
  -1   1  -8  350.34   15.12
  -1   1  -8  370.46   14.89
  -1   1  -8  369.80   12.93
   1  -1   8  366.40   12.69
   1  -1   9   31.52    3.89
  -1   1  -9   41.35    4.16
  -1   1  -9   27.75    3.95
  -1   1  -9   35.24    4.84
   1  -1   9   35.15    4.05
  -1   1  -9   40.04    4.04
   1  -1   9   39.82    3.89
  -1   1  -9   36.26    4.54
  -1   1  -9   34.46    4.63
   1  -1   9   34.94    3.87
  -1   1  -9   31.37    4.54
  -1   1 -10  209.02   10.48
   1  -1  10  208.35    8.72
   1  -1  10  167.23    8.21
  -1   1 -10  193.33   10.42
  -1   1 -10  208.57   10.72
   1  -1  10  199.53    8.93
  -1   1 -10  193.57    9.12
   1  -1  10  175.76    8.53
  -1   1 -10  181.51    8.96
  -1   1 -11    6.93    1.59
   1  -1  11    5.38    1.21
   1  -1  11    6.52    1.39
  -1   1 -11    6.57    1.52
   1  -1  11    5.50    1.23
  -1   1 -11    5.83    1.53
   1   0 -10  521.40   17.05
  -1   0  10  547.14   11.65
   1   0 -10  513.27   16.13
   1   0 -10  567.78   16.97
  -1   0  10  521.41   13.20
  -1   0  10  479.01   13.76
  -1   0   9    4.18    1.58
  -1   0   9    5.83    1.58
   1   0  -9    8.11    2.15
  -1   0   9    5.70    1.82
  -1   0   9    3.70    1.42
   1   0  -9    5.63    2.15
   1   0  -9    5.75    2.28
   1   0  -9    3.59    1.88
  -1   0   9    3.63    1.70
   1   0  -9    6.47    1.72
   1   0  -8  206.76   12.87
  -1   0   8  210.51   10.29
  -1   0   8  193.16    9.00
   1   0  -8  169.69    9.17
  -1   0   8  202.18    7.75
   1   0  -8  159.03    9.28
  -1   0   8  190.32   10.58
   1   0  -8  191.07   12.72
   1   0  -8  207.74   13.06
  -1   0   8  171.58   10.84
  -1   0   8  195.75    8.19
   1   0  -8  233.30    9.94
  -1   0   8  165.44   10.03
  -1   0   8  167.09    9.44
  -1   0   7   21.23    3.20
  -1   0   7   20.40    2.53
   1   0  -7   18.26    3.11
   1   0  -7   24.53    4.57
   1   0  -7   17.71    3.19
  -1   0   7   22.02    3.39
  -1   0   7   21.43    2.35
  -1   0   7   18.48    3.33
   1   0  -7   29.82    3.46
  -1   0   7   18.52    3.53
   1   0  -7   19.18    3.98
   1   0  -7   21.24    4.19
  -1   0   7   20.86    2.96
  -1   0   6   82.17    5.00
  -1   0   6   92.25    4.54
  -1   0   6   77.16    6.50
   1   0  -6   80.37    7.25
   1   0  -6   92.22    5.51
   1   0  -6   98.21    5.89
  -1   0   6   92.24    5.03
  -1   0   6   91.35    6.45
  -1   0   6   77.90    4.43
   1   0  -6   95.65    5.64
  -1   0   6   67.79    4.87
  -1   0   6   72.91    5.13
   1   0  -6   96.37    5.66
  -1   0   6   92.05    5.31
  -1   0   6   93.38    6.18
   1   0  -6   84.30    5.50
  -1   0   6   87.26    5.20
   1   0  -6  106.31    7.08
   1   0  -6   91.37    5.08
  -1   0   6   88.94    5.24
  -1   0   6   90.80    5.26
   1   0  -6   70.03    6.98
   1   0  -6   91.58    4.63
  -1   0   6   95.59    5.42
   1   0  -6   72.14    5.97
   1   0  -6   92.73    5.57
  -1   0   6  105.87    5.49
   1   0  -6   75.30    6.91
   1   0  -5  455.27   11.16
  -1   0   5  557.14   12.17
  -1   0   5  492.35   13.73
  -1   0   5  545.49   11.58
  -1   0   5  611.28   11.95
   1   0  -5  581.67   12.62
  -1   0   5  573.29   12.35
   1   0  -5  449.32   13.60
  -1   0   5  447.60   14.07
  -1   0   5  581.48   12.38
   1   0  -5  577.48   12.68
   1   0  -5  428.48   13.01
   1   0  -5  481.00   15.69
  -1   0   5  466.17   13.52
   1   0  -5  462.84   15.86
  -1   0   5  538.65   13.50
  -1   0   5  584.21   12.35
   1   0  -5  553.71   12.76
   1   0  -5  565.12   12.48
   1   0  -5  524.00   11.21
  -1   0   5  577.93   12.31
  -1   0   5  459.95    9.41
   1   0  -5  493.81   15.65
  -1   0   5  574.19   10.53
   1   0  -5  589.24   12.66
  -1   0   4  951.24   14.49
   1   0  -4  959.34   14.60
   1   0  -4  900.45   14.64
   1   0  -4  953.45   14.65
   1   0  -4  990.97   14.68
  -1   0   4  879.27   13.21
   1   0  -4  964.79   14.54
   1   0  -4  864.18   14.59
  -1   0   4  982.82   14.45
  -1   0   4  985.80   14.66
  -1   0   4  939.12   14.36
   1   0  -4  916.59   13.57
  -1   0   4  973.52   14.52
  -1   0   3    1.93    0.61
  -1   0   3    3.75    0.41
  -1   0   3    1.45    0.58
   1   0  -3    2.02    0.61
   1   0  -3    2.22    0.64
   1   0  -3    2.89    0.70
   1   0  -3    2.01    0.62
  -1   0   3    1.70    0.55
   1   0  -3    0.76    0.40
   1   0  -3    2.48    0.66
  -1   0   3    0.55    0.35
  -1   0   3    1.71    0.59
  -1   0   3    0.09    0.26
  -1   0   3    1.92    0.60
   1   0  -3    0.92    0.21
  -1   0   2  325.87    5.98
   1   0  -2  302.53    5.02
   1   0  -2  300.23    5.83
   1   0  -2  315.59    5.81
  -1   0   2  269.46    5.31
  -1   0   2  334.12    6.03
   1   0  -2  291.72    6.27
  -1   0   2  329.55    5.31
  -1   0   2  317.53    5.92
   1   0  -2  304.94    5.94
  -1   0   2  312.03    5.99
  -1   0   2  334.52    6.05
  -1   0   2  356.24    6.07
   1   0  -2  311.57    5.82
   1   0  -2  305.64    5.87
  -1   0   1   40.97    1.67
  -1   0   1   41.71    1.70
  -1   0   1   34.09    1.63
   1   0  -1   35.21    1.67
  -1   0   1   44.42    1.82
  -1   0   1   40.96    1.67
  -1   0   1   40.13    1.66
   1   0  -1   36.91    1.63
  -1   0   1   39.24    1.64
  -1   0   1   35.39    1.70
   1   0  -1   37.55    1.60
   1   0  -1   38.89    1.61
  -1   0   1   37.06    1.70
   1   0  -1   35.97    1.62
  -1   0   1   32.39    1.60
   1   0  -1   31.81    1.59
   1   0  -1   36.26    1.58
   1   0  -1   35.18    1.68
  -1   0   1   33.83    1.63
   1   0  -1   39.70    1.61
   1   0  -1   36.02    1.09
  -1   0   1   34.64    1.36
   1   0  -1   35.16    1.67
  -1   0   1   32.45    1.58
  -1   0   1   39.74    1.66
  -1   0   1   39.36    1.22
   1   0  -1   40.67    1.90
   1   0  -1   33.37    1.63
  -1   0   0  666.28    6.96
  -1   0   0  635.01    5.65
  -1   0   0  653.14    6.57
  -1   0   0  654.29    6.82
  -1   0   0  701.65    6.89
   1   0   0  650.15    7.05
   1   0   0  639.66    6.64
   1   0   0  619.84    6.65
   1   0   0  642.42    6.62
  -1   0   0  647.96    6.36
   1   0   0  614.87    6.73
   1   0   0  714.41    7.41
   1   0   0  647.59    6.63
  -1   0   0  659.91    6.84
  -1   0   0  668.81    6.65
  -1   0   0  665.71    6.64
   1   0   0  635.77    6.55
   1   0   0  612.79    6.62
   1   0   0  640.42    6.87
  -1   0   0  663.22    5.02
   1   0   0  651.51    6.62
  -1   0   0  680.61    7.05
  -1   0   0  613.08    6.50
  -1   0   0  674.81    6.90
   1   0   0  593.32    5.95
   1   0   0  618.04    6.29
  -1   0   0  693.40    6.93
  -1   0   0  670.20    6.83
   1   0   0  583.00    6.40
   1   0   1  298.03    4.28
   1   0   1  318.91    4.84
   1   0   1  322.03    4.47
  -1   0  -1  319.98    4.46
  -1   0  -1  294.49    4.46
   1   0   1  317.83    4.77
  -1   0  -1  277.29    3.13
   1   0   1  298.57    4.31
  -1   0  -1  280.01    3.87
   1   0   1  316.53    4.75
  -1   0  -1  317.99    4.46
   1   0   1  299.62    4.61
  -1   0  -1  297.84    4.44
   1   0   1  288.32    3.59
   1   0   1  323.76    4.96
   1   0   1  320.75    4.82
   1   0   1  285.44    3.12
  -1   0  -1  296.80    4.49
  -1   0  -1  292.30    4.45
  -1   0  -1  304.96    4.29
  -1   0  -1  299.75    4.49
   1   0   1  304.88    4.39
  -1   0  -1  287.26    4.30
  -1   0  -1  310.82    4.36
  -1   0  -1  331.05    4.68
  -1   0  -1  344.38    4.61
  -1   0  -1  288.97    3.73
   1   0   1  302.47    4.44
   1   0   1  294.51    4.26
   1   0   1  290.69    3.41
  -1   0  -1  277.98    3.54
  -1   0  -1  361.61    4.48
  -1   0  -2  640.91    8.61
  -1   0  -2  634.59    8.38
   1   0   2  635.49    8.55
  -1   0  -2  626.12    6.75
  -1   0  -2  631.00    8.37
  -1   0  -2  645.79    8.58
  -1   0  -2  659.36    8.79
   1   0   2  569.82    6.49
  -1   0  -2  581.76    6.69
   1   0   2  639.81    8.58
   1   0   2  565.73    6.85
   1   0   2  566.46    6.87
   1   0   2  649.42    8.58
   1   0   2  636.88    8.73
  -1   0  -2  621.60    8.60
  -1   0  -2  641.46    7.97
   1   0   2  636.45    8.43
  -1   0  -2  559.46    7.27
  -1   0  -2  567.53    7.79
   1   0   2  651.67    8.61
  -1   0  -2  600.89    4.82
   1   0   2  602.64    7.16
  -1   0  -2  558.76    6.61
   1   0   2  678.37    8.97
  -1   0  -3  460.62    7.07
  -1   0  -3  412.51    7.80
  -1   0  -3  439.83    6.24
  -1   0  -3  409.16    7.80
  -1   0  -3  460.03    7.97
   1   0   3  439.38    7.28
  -1   0  -3  419.03    7.88
   1   0   3  456.89    8.35
  -1   0  -3  404.71    6.38
  -1   0  -3  414.06    7.86
   1   0   3  426.24    7.78
   1   0   3  445.54    8.29
   1   0   3  462.07    8.49
   1   0   3  427.08    6.55
   1   0   3  459.80    8.37
   1   0   3  420.32    8.26
   1   0   3  458.52    8.37
  -1   0  -3  415.57    7.84
  -1   0  -4 4290.56   32.33
   1   0   4 4390.55   36.62
   1   0   4 3838.00   33.20
  -1   0  -4 4235.00   36.24
  -1   0  -4 4102.81   35.45
  -1   0  -4 4117.61   35.61
   1   0   4 4522.31   37.07
   1   0   4 4530.34   36.93
  -1   0  -4 4126.76   35.61
   1   0   4 4452.60   36.81
   1   0   4 4546.76   37.17
  -1   0  -4 3918.41   29.97
  -1   0  -4 4216.13   35.84
  -1   0  -4 4325.59   33.18
   1   0   4 4145.96   33.73
   1   0   4 4289.77   36.63
  -1   0  -4 4115.70   31.25
  -1   0  -5  138.63    5.85
  -1   0  -5  142.67    5.89
   1   0   5  157.03    6.40
  -1   0  -5  144.89    5.94
  -1   0  -5  149.95    6.04
   1   0   5  150.56    6.29
   1   0   5  153.06    6.27
  -1   0  -5  152.34    4.52
   1   0   5  133.72    5.11
   1   0   5  151.31    6.24
   1   0   5  149.63    6.19
  -1   0  -5  155.82    5.49
   1   0   5  154.98    5.94
  -1   0  -5  168.28    5.04
  -1   0  -5  149.06    5.97
   1   0   6   83.89    4.34
  -1   0  -6   89.85    4.79
  -1   0  -6  106.02    4.16
  -1   0  -6   77.95    5.48
  -1   0  -6   79.47    5.60
  -1   0  -6   80.29    4.73
   1   0   6   98.07    5.80
   1   0   6   78.17    4.96
  -1   0  -6   84.95    5.90
   1   0   6   84.33    5.35
  -1   0  -6   85.49    6.20
  -1   0  -6   85.60    5.11
  -1   0  -6   87.10    5.35
  -1   0  -6   91.00    4.39
  -1   0  -6   85.10    5.09
   1   0   6   84.77    5.14
   1   0   6   84.50    5.43
   1   0   6   93.93    4.87
  -1   0  -6   82.67    4.96
   1   0   6   77.71    4.68
   1   0   6   80.62    5.13
  -1   0  -6   96.08    3.66
  -1   0  -6   87.73    5.16
   1   0   6   85.13    5.29
  -1   0  -6   97.06    5.61
  -1   0  -6   79.80    5.00
   1   0   6   92.96    5.45
   1   0   6   87.15    5.35
   1   0   6   96.69    5.36
  -1   0  -6   84.68    5.05
  -1   0  -6   72.33    4.22
   1   0   6   84.43    5.03
   1   0   7  134.15    7.01
   1   0   7  174.89    8.24
   1   0   7  171.86    7.06
  -1   0  -7  127.45    6.05
   1   0   7  164.49    7.93
  -1   0  -7  161.89    7.83
  -1   0  -7  162.95    8.05
  -1   0  -7  158.32    7.66
  -1   0  -7  153.80    7.23
  -1   0  -7  153.26    9.13
  -1   0  -7  147.73    7.24
  -1   0  -7  156.68    7.63
  -1   0  -7  144.61    8.50
   1   0   7  172.20    6.69
   1   0   7  151.46    7.74
  -1   0  -7  154.34    7.52
  -1   0  -7  159.18    8.98
   1   0   7  142.65    6.93
  -1   0  -7  147.45    9.11
   1   0   7  172.56    8.23
   1   0   7  168.36    8.06
  -1   0  -7  166.11    7.78
  -1   0  -7  176.80    6.82
   1   0   7  180.26    8.51
   1   0   7  170.30    8.12
   1   0   7  141.53    7.48
   1   0   8  907.35   16.92
  -1   0  -8  894.14   23.53
   1   0   8  758.00   19.54
   1   0   8  842.27   20.37
  -1   0  -8  818.96   18.32
  -1   0  -8  877.69   24.78
  -1   0  -8  857.41   23.66
  -1   0  -8  848.63   22.79
   1   0   8  889.41   20.52
   1   0   8  797.54   19.04
  -1   0  -8  978.28   19.42
   1   0   9   58.07    5.50
  -1   0  -9   54.81    6.20
  -1   0  -9   55.47    6.00
   1   0   9   57.66    5.17
  -1   0  -9   70.14    5.42
   1   0   9   63.31    5.13
  -1   0  -9   51.66    5.09
  -1   0  -9   53.25    6.30
  -1   0  -9   53.39    5.79
   1   0   9   53.80    5.26
   1   0  10   17.03    2.60
  -1   0 -10   15.04    2.87
  -1   0 -10   14.23    3.25
   1   0  10   19.50    2.48
  -1   0 -10   17.04    3.31
   1   0  10   15.51    2.69
   1   0  10   15.44    2.44
   1   0  10   18.86    2.90
   1   0  11    4.44    1.20
  -1   0 -11    6.66    1.78
   1   0  11    5.09    1.30
   1   0  11    4.16    1.15
  -1   0 -11    4.61    1.60
  -1   0 -11    5.13    1.49
   1   0  11    5.26    1.22
   1   1 -10  138.79    7.77
   1   1 -10  133.12    7.76
  -1  -1  10  145.10    5.80
  -1  -1  10  133.58    6.35
  -1  -1  10  128.73    6.67
  -1  -1   9   10.37    2.24
  -1  -1   9   12.22    2.39
   1   1  -9   14.46    2.94
   1   1  -9   15.04    3.14
   1   1  -9   12.95    3.10
   1   1  -9   17.59    2.61
   1   1  -9   13.52    3.22
  -1  -1   9   13.49    2.24
  -1  -1   9   18.94    3.22
  -1  -1   8  262.22    8.91
   1   1  -8  305.06   11.39
   1   1  -8  238.37   13.31
  -1  -1   8  246.86    9.63
  -1  -1   8  227.44   11.81
   1   1  -8  254.53   14.40
  -1  -1   8  224.18   11.03
   1   1  -8  278.85   14.06
   1   1  -8  242.43   14.10
  -1  -1   8  256.15   11.89
  -1  -1   8  292.45   10.85
  -1  -1   8  245.76   12.21
   1   1  -7   22.37    4.00
   1   1  -7   10.78    3.07
  -1  -1   7   12.23    2.28
   1   1  -7   13.05    3.38
  -1  -1   7   12.79    2.06
  -1  -1   7   14.09    2.77
  -1  -1   7   14.80    3.26
   1   1  -7    8.57    2.01
  -1  -1   7   25.88    2.92
  -1  -1   7   12.42    2.18
   1   1  -7   11.00    2.95
  -1  -1   7    8.94    2.32
  -1  -1   7   10.61    2.71
   1   1  -6 1539.94   22.85
   1   1  -6 1350.83   30.77
  -1  -1   6 1550.26   22.89
  -1  -1   6 1470.42   27.13
  -1  -1   6 1419.41   23.89
   1   1  -6 1190.43   23.34
  -1  -1   6 1358.04   29.25
   1   1  -6 1367.01   30.79
  -1  -1   6 1255.04   26.74
  -1  -1   6 1321.18   21.07
  -1  -1   6 1340.30   26.96
   1   1  -6 1346.75   29.19
   1   1  -6 1253.19   28.98
  -1  -1   5  472.58    9.56
  -1  -1   5  549.83   14.89
  -1  -1   5  611.75   12.77
  -1  -1   5  662.22   10.75
   1   1  -5  553.12   16.53
   1   1  -5  627.04   12.63
   1   1  -5  523.37   13.72
   1   1  -5  563.04   17.41
   1   1  -5  552.75   17.22
   1   1  -5  664.95   13.83
  -1  -1   5  533.20   15.28
   1   1  -5  681.52   14.04
   1   1  -5  604.19   11.77
  -1  -1   5  572.50   16.47
  -1  -1   5  628.70   12.82
  -1  -1   5  627.49   12.79
  -1  -1   5  503.71   13.42
   1   1  -5  568.53   16.89
   1   1  -5  676.20   13.83
   1   1  -5  674.39   13.95
  -1  -1   5  616.94   12.68
  -1  -1   5  638.29   15.51
  -1  -1   5  559.26   15.10
  -1  -1   5  550.15   12.86
  -1  -1   5  629.08   12.78
   1   1  -5  681.03   14.33
   1   1  -5  550.96   13.88
   1   1  -4  110.48    4.88
  -1  -1   4   98.61    4.48
   1   1  -4  108.53    4.80
  -1  -1   4   90.60    3.96
   1   1  -4  100.42    4.86
  -1  -1   4  112.45    5.64
   1   1  -4   87.54    5.90
   1   1  -4   91.41    5.07
  -1  -1   4   94.00    5.80
  -1  -1   4  120.84    4.08
   1   1  -4   85.02    5.57
   1   1  -4  105.18    4.77
   1   1  -4  100.66    4.42
   1   1  -4   98.26    4.03
  -1  -1   4  100.40    4.47
  -1  -1   4  108.25    4.64
  -1  -1   4   92.13    5.44
  -1  -1   4  102.09    4.53
  -1  -1   4  100.05    4.50
  -1  -1   4   92.58    5.34
   1   1  -4  101.64    4.71
   1   1  -3 2105.82   21.75
   1   1  -3 2164.09   21.42
   1   1  -3 2135.03   21.41
  -1  -1   3 2063.50   20.81
   1   1  -3 2122.66   19.56
  -1  -1   3 2072.47   20.89
   1   1  -3 2077.13   21.30
   1   1  -3 2108.02   21.55
  -1  -1   3 2072.09   20.86
  -1  -1   3 2110.51   20.99
  -1  -1   3 2070.85   20.86
   1   1  -3 2086.07   24.46
   1   1  -3 2106.13   20.99
   1   1  -2  145.64    3.66
  -1  -1   2  151.65    3.97
   1   1  -2  155.71    4.03
  -1  -1   2  166.23    3.69
  -1  -1   2  158.17    4.01
   1   1  -2  153.53    4.00
   1   1  -2  155.58    4.07
   1   1  -2  156.71    4.06
  -1  -1   2  161.58    4.06
   1   1  -2  151.82    4.13
  -1  -1   2  161.48    4.05
  -1  -1   2  158.15    4.55
   1   1  -2  135.37    3.60
   1   1  -2  153.03    3.57
  -1  -1   2  161.04    4.07
   1   1  -2  156.96    4.10
   1   1  -1 5594.78   37.97
  -1  -1   1 5458.35   37.65
   1   1  -1 5421.25   39.04
  -1  -1   1 5497.17   37.68
  -1  -1   1 5622.28   35.07
   1   1  -1 5585.31   37.72
   1   1  -1 5983.92   35.59
  -1  -1   1 5679.13   36.93
  -1  -1   1 5669.35   37.83
   1   1  -1 5684.12   38.05
   1   1  -1 5845.73   38.24
  -1  -1   1 5648.15   37.80
   1   1  -1 5760.51   38.09
  -1  -1   1 5766.92   37.90
   1   1  -1 5624.78   37.98
  -1  -1   1 5501.24   38.16
   1   1  -1 4943.99   36.23
   1   1  -1 6217.88   36.27
  -1  -1   0  384.60    4.00
  -1  -1   0  379.89    3.98
  -1  -1   0  359.17    4.46
  -1  -1   0  367.57    3.99
   1   1   0  364.75    3.98
  -1  -1   0  363.79    4.92
  -1  -1   0  430.48    4.20
   1   1   0  377.80    5.83
   1   1   0  403.17    4.01
   1   1   0  378.60    5.54
  -1  -1   0  447.59    4.25
   1   1   0  506.82    6.57
  -1  -1   0  386.23    4.05
   1   1   0  385.41    4.02
   1   1   0  401.50    3.94
   1   1   0  427.42    3.56
  -1  -1   0  421.49    4.35
   1   1   0  393.07    4.06
   1   1   0  372.28    4.02
   1   1   0  371.08    4.00
   1   1   0  356.43    3.94
  -1  -1   0  470.95    6.45
   1   1   0  436.42    4.96
   1   1   0  367.25    3.98
  -1  -1   0  381.55    3.99
   1   1   0  397.41    3.99
   1   1   0  402.04    4.04
  -1  -1   0  445.36    4.24
  -1  -1   0  443.07    4.23
  -1  -1   0  421.12    4.18
   1   1   0  400.91    4.41
  -1  -1  -1  847.45    8.87
   1   1   1  914.56    7.24
   1   1   1  964.32    9.10
   1   1   1  826.94    7.87
   1   1   1  911.85    7.27
  -1  -1  -1  839.13    6.98
   1   1   1  746.07    7.50
   1   1   1  837.63    8.98
  -1  -1  -1  795.52    8.52
  -1  -1  -1  860.74    6.69
  -1  -1  -1  895.17    6.83
  -1  -1  -1  831.38    6.94
  -1  -1  -1  879.17    6.82
   1   1   1  919.63    7.30
  -1  -1  -1  877.09    6.74
   1   1   1  919.82    7.29
   1   1   1  873.88    6.82
  -1  -1  -1  812.62    7.74
  -1  -1  -1  836.23    6.97
   1   1   1  899.00    6.86
   1   1   1  919.47    6.97
  -1  -1  -1  812.69    6.91
   1   1   1 1000.51    9.32
  -1  -1  -1  825.26    6.93
   1   1   1  882.63    6.82
   1   1   1  899.86    7.29
  -1  -1  -1  942.18    7.03
  -1  -1  -1  940.36    8.29
   1   1   1  895.23    6.90
   1   1   1  887.88    8.52
  -1  -1  -1  977.93    8.69
   1   1   1  722.80    7.91
  -1  -1  -2  643.80    7.65
   1   1   2  627.23    7.60
  -1  -1  -2  642.52    7.59
   1   1   2  707.87    8.25
  -1  -1  -2  658.57    7.72
  -1  -1  -2  599.14    7.11
  -1  -1  -2  584.09    7.13
  -1  -1  -2  640.86    7.70
  -1  -1  -2  631.48    7.63
   1   1   2  709.72    7.15
   1   1   2  683.50    6.61
  -1  -1  -2  601.61    5.33
  -1  -1  -2  597.55    7.12
   1   1   2  658.42    6.90
   1   1   2  679.37    8.09
   1   1   2  662.58    7.79
   1   1   2  639.66    7.65
  -1  -1  -2  717.33    7.84
   1   1   2  581.99    6.75
   1   1   2  684.74    8.08
   1   1   2  641.90    5.73
   1   1   2  657.55    7.72
   1   1   2  624.64    7.55
   1   1   2  637.36    7.60
   1   1   2  637.54    7.80
   1   1   2  604.82    6.78
   1   1   2  714.50    8.21
  -1  -1  -2  592.19    7.10
  -1  -1  -2  524.82    7.50
   1   1   2  570.37    7.30
   1   1   2  627.06    7.71
  -1  -1  -2  560.74    7.01
  -1  -1  -2  679.91    8.11
  -1  -1  -2  751.55    6.74
   1   1   2  548.90    5.28
  -1  -1  -2  595.79    7.40
  -1  -1  -2  635.66    6.11
  -1  -1  -3 3253.97   25.45
  -1  -1  -3 2884.83   24.25
   1   1   3 3339.15   26.38
   1   1   3 2950.94   25.25
   1   1   3 2948.75   22.04
  -1  -1  -3 2799.60   22.97
  -1  -1  -3 2715.39   23.99
  -1  -1  -3 2824.67   21.29
   1   1   3 3282.33   27.71
  -1  -1  -3 2785.42   24.42
   1   1   3 3049.91   25.64
  -1  -1  -3 2826.47   24.25
  -1  -1  -3 2785.59   24.25
   1   1   3 2824.46   19.40
   1   1   3 3450.18   20.75
   1   1   3 3012.89   25.31
   1   1   3 2954.00   25.28
   1   1   3 2529.21   23.64
  -1  -1  -3 3347.92   22.84
   1   1   3 3093.19   25.39
   1   1   4 1019.54   13.66
  -1  -1  -4 1092.90   12.25
   1   1   4 1130.17   14.75
   1   1   4 1067.12   14.38
  -1  -1  -4  986.77   13.50
   1   1   4 1095.07   15.19
  -1  -1  -4 1032.55   13.53
  -1  -1  -4 1069.48   14.29
  -1  -1  -4  961.23   13.21
   1   1   4 1088.13   14.50
   1   1   4 1062.26   14.68
  -1  -1  -4  974.75   13.27
   1   1   4 1128.18   15.14
   1   1   4 1044.22   14.07
   1   1   4 1063.77   14.34
  -1  -1  -4  876.04    8.07
  -1  -1  -4  998.66   13.48
  -1  -1  -4 1185.05   13.18
  -1  -1  -5  775.59   10.74
   1   1   5  858.30   15.13
  -1  -1  -5  713.29   12.48
  -1  -1  -5  793.03   14.10
   1   1   5  764.24   13.45
  -1  -1  -5  688.73   12.34
  -1  -1  -5  678.91   12.23
  -1  -1  -5  706.34   12.48
  -1  -1  -5  715.65   12.86
   1   1   5  743.64   13.31
   1   1   5  800.19   13.79
   1   1   5  701.38   13.09
   1   1   5  767.83   13.48
  -1  -1  -5  804.22   11.34
   1   1   5  753.82   13.37
   1   1   5  754.26   13.60
  -1  -1  -6    1.99    0.81
   1   1   6    1.39    0.70
   1   1   6    1.26    0.74
   1   1   6    2.31    0.94
  -1  -1  -6    1.07    0.62
  -1  -1  -6    1.42    0.73
  -1  -1  -6    1.64    0.70
   1   1   6    1.64    0.75
   1   1   6    0.56    0.60
  -1  -1  -6    0.56    0.70
  -1  -1  -6    0.96    0.61
  -1  -1  -6    1.92    0.91
  -1  -1  -6    0.42    0.62
   1   1   6    1.39    0.74
   1   1   6    0.71    0.63
  -1  -1  -6    1.04    0.44
  -1  -1  -6    1.37    0.74
   1   1   6    0.54    0.60
  -1  -1  -6    2.34    0.72
   1   1   6    0.47    0.53
  -1  -1  -6    1.15    0.81
  -1  -1  -7   22.40    2.74
   1   1   7   24.28    2.98
  -1  -1  -7   19.63    2.58
   1   1   7   22.40    2.87
   1   1   7   25.80    3.06
   1   1   7   20.57    2.88
  -1  -1  -7   22.45    3.24
   1   1   7   21.88    2.89
   1   1   7   23.51    2.92
  -1  -1  -7   21.29    3.03
   1   1   7   18.92    2.69
  -1  -1  -7   19.16    2.50
  -1  -1  -7   18.84    3.20
   1   1   7   24.80    3.06
   1   1   7   25.47    3.05
  -1  -1  -7   20.60    2.64
   1   1   7   21.01    2.78
  -1  -1  -7   21.69    3.38
  -1  -1  -7   21.45    2.69
  -1  -1  -7   22.27    3.44
  -1  -1  -7   22.87    2.41
  -1  -1  -7   21.99    2.79
  -1  -1  -8 1054.83   23.09
   1   1   8 1074.54   18.74
  -1  -1  -8  830.20   17.79
  -1  -1  -8 1069.18   26.39
  -1  -1  -8 1130.99   24.80
  -1  -1  -8 1030.91   25.70
   1   1   8 1061.87   22.39
   1   1   8  937.86   20.34
   1   1   8 1041.96   21.74
   1   1   8 1008.01   22.26
  -1  -1  -8  901.10   20.00
  -1  -1  -8 1047.91   26.85
  -1  -1  -8 1288.07   23.11
  -1  -1  -9   39.85    4.11
  -1  -1  -9   31.04    4.79
  -1  -1  -9   33.96    4.84
   1   1   9   34.54    3.01
  -1  -1  -9   30.53    3.65
  -1  -1  -9   30.19    4.56
  -1  -1  -9   31.72    3.97
   1   1   9   34.72    4.15
   1   1   9   36.04    4.00
   1   1   9   34.13    4.25
   1   1   9   31.82    3.89
  -1  -1 -10   39.63    4.52
  -1  -1 -10   32.47    4.56
   1   1  10   32.44    3.92
  -1  -1 -10   35.64    4.86
  -1  -1 -10   36.85    4.84
   1   1  10   35.48    3.67
   1   1  10   34.89    3.99
   1   1  10   38.16    3.64
   1   1  11   78.89    5.01
  -1  -1 -11   84.38    6.32
   1   1  11   71.60    4.75
  -1  -1 -11   80.54    5.84
   1   1  11   80.63    4.66
  -1  -1 -11   78.26    5.94
   1   1  11   86.38    4.79
   1   1  11   73.08    4.70
  -1  -2  10  462.27   11.74
   1   2 -10  493.72   13.24
  -1  -2  10  477.79   11.24
   1   2 -10  502.84   12.51
  -1  -2  10  508.69   10.66
  -1  -2   9   27.45    3.72
   1   2  -9   28.75    4.06
  -1  -2   9   30.55    3.22
  -1  -2   9   27.12    3.48
   1   2  -9   21.79    3.53
   1   2  -9   32.30    4.09
   1   2  -9   26.31    3.58
  -1  -2   8    1.26    1.22
   1   2  -8    0.91    1.14
   1   2  -8    0.68    0.96
   1   2  -8    1.66    1.35
  -1  -2   8    0.77    0.86
   1   2  -8    0.12    0.69
  -1  -2   8    0.14    0.87
  -1  -2   8    1.26    0.74
   1   2  -8    0.59    0.91
  -1  -2   8    0.71    0.84
  -1  -2   7  283.52   11.31
   1   2  -7  225.71   12.27
  -1  -2   7  260.26    9.43
  -1  -2   7  251.98    9.47
   1   2  -7  198.55   12.04
  -1  -2   7  255.72   11.96
  -1  -2   7  208.57   11.62
   1   2  -7  233.59   13.14
  -1  -2   7  218.09   11.27
   1   2  -7  221.67   13.07
  -1  -2   7  224.30   11.80
  -1  -2   7  280.14   10.30
   1   2  -7  185.58    9.58
  -1  -2   6 2033.38   28.06
   1   2  -6 1582.82   32.04
  -1  -2   6 1743.69   31.95
  -1  -2   6 1776.23   26.71
  -1  -2   6 1719.27   34.47
  -1  -2   6 1611.14   31.98
  -1  -2   6 1900.07   27.00
  -1  -2   6 1773.85   31.53
   1   2  -6 1597.78   28.99
   1   2  -6 1651.35   34.34
  -1  -2   6 2035.17   30.79
   1   2  -6 1653.89   33.54
   1   2  -5  714.27   19.73
  -1  -2   5  805.01   14.66
  -1  -2   5  774.87   15.54
   1   2  -5  710.34   19.02
  -1  -2   5  752.69   14.28
   1   2  -5  894.14   16.56
  -1  -2   5  781.47   14.48
   1   2  -5  883.39   16.75
   1   2  -5  898.56   16.38
  -1  -2   5  792.22   20.75
   1   2  -5  894.82   16.54
  -1  -2   5  785.61   14.50
  -1  -2   5  748.59   19.45
   1   2  -5  702.50   19.92
  -1  -2   5  780.46   14.45
   1   2  -5  918.53   16.52
  -1  -2   5  758.04   18.67
   1   2  -5  890.36   16.46
  -1  -2   5  805.88   18.82
   1   2  -5  742.34   18.35
  -1  -2   5  752.63   18.75
  -1  -2   5  910.60   16.83
  -1  -2   4   41.79    3.77
   1   2  -4   41.69    3.94
  -1  -2   4   44.43    2.99
  -1  -2   4   45.95    3.88
   1   2  -4   47.20    3.26
   1   2  -4   49.18    3.32
  -1  -2   4   40.61    2.88
  -1  -2   4   38.53    3.84
  -1  -2   4   43.67    4.19
   1   2  -4   41.52    2.78
  -1  -2   4   37.10    3.62
   1   2  -4   39.45    4.04
   1   2  -4   39.13    4.04
   1   2  -4   46.51    3.37
   1   2  -4   49.66    3.34
  -1  -2   4   43.40    2.93
   1   2  -4   52.25    3.45
  -1  -2   4   43.97    2.96
  -1  -2   4   43.89    2.94
   1   2  -4   45.83    3.25
   1   2  -3   67.91    4.43
   1   2  -3   65.97    2.62
  -1  -2   3   64.36    3.43
   1   2  -3   69.41    3.58
   1   2  -3   64.43    3.01
  -1  -2   2  711.80   11.36
   1   2  -2  780.62    9.83
   1   2  -2  803.83   11.15
   1   2  -2  734.88    8.47
   1   2  -2  779.55   14.11
  -1  -2   1 2793.18   22.20
   1   2  -1 2606.19   26.71
  -1  -2   1 2497.44   23.65
   1   2  -1 2696.78   20.99
  -1  -2   1 2631.32   20.51
  -1  -2   1 2569.16   20.52
   1   2  -1 2575.90   20.41
  -1  -2   1 2585.81   20.51
  -1  -2   1 2576.73   20.49
   1   2  -1 2682.90   21.10
  -1  -2   1 2639.77   20.68
   1   2  -1 2717.12   21.23
   1   2  -1 2729.76   21.29
  -1  -2   1 2611.91   20.58
   1   2  -1 2698.30   21.36
   1   2  -1 2356.29   17.18
   1   2  -1 2644.00   21.98
  -1  -2   1 2602.78   24.02
   1   2   0 2030.41   18.06
   1   2   0 1733.29   14.13
  -1  -2   0 1862.20   17.90
   1   2   0 1773.39   13.67
  -1  -2   0 1810.65   15.82
   1   2   0 1712.53   12.99
   1   2   0 1465.76   10.84
   1   2   0 1523.33   10.87
   1   2   0 1831.83   18.06
   1   2   0 1503.88   11.03
   1   2   0 1703.91   14.68
   1   2   0 1455.74   10.74
   1   2   1   35.63    2.15
   1   2   1   38.80    1.94
   1   2   1   36.23    2.11
  -1  -2  -1   36.97    1.88
  -1  -2  -1   36.02    1.85
   1   2   1   36.38    1.37
   1   2   1   35.27    2.09
   1   2   1   37.22    2.25
   1   2   1   36.23    1.51
   1   2   2  265.94    6.25
  -1  -2  -2  267.60    5.15
   1   2   2  282.18    5.87
   1   2   2  246.96    5.05
  -1  -2  -2  276.50    5.43
   1   2   2  278.50    4.37
   1   2   2  281.23    4.41
   1   2   2  292.00    4.48
   1   2   2  288.94    4.50
  -1  -2  -2  280.66    5.47
   1   2   2  233.55    4.29
   1   2   2  254.14    3.22
  -1  -2  -2  293.80    6.49
   1   2   2  278.79    4.36
   1   2   3 1666.38   16.54
  -1  -2  -3 1712.23   16.52
  -1  -2  -3 1508.94   14.54
  -1  -2  -3 1498.51   14.59
  -1  -2  -3 1675.16   16.36
  -1  -2  -3 1639.15   16.22
  -1  -2  -3 1635.68   15.61
   1   2   3 1627.57   15.90
  -1  -2  -3 1674.93   16.34
  -1  -2  -3 1577.67   13.11
  -1  -2  -3 1500.01   14.50
  -1  -2  -3 1678.68   16.39
  -1  -2  -3 1455.40   14.48
   1   2   3 1335.97   15.66
   1   2   3 1620.51   16.22
   1   2   3 1543.93   16.08
  -1  -2  -3 1670.32   16.32
  -1  -2  -3 1480.91   14.80
   1   2   3 1568.28   12.89
   1   2   3 1622.76   16.27
  -1  -2  -3 1766.99   15.17
   1   2   3 1721.71   19.08
   1   2   3 1598.28   16.16
   1   2   3 1562.99   16.01
  -1  -2  -3 1699.01   16.41
   1   2   4 1018.59   11.42
  -1  -2  -4  923.42   12.09
  -1  -2  -4  882.54   12.07
  -1  -2  -4  972.18   11.89
  -1  -2  -4  892.83   12.12
  -1  -2  -4  910.41    7.83
  -1  -2  -4  890.86   12.11
  -1  -2  -4  888.81   12.25
  -1  -2  -4  975.05   11.45
   1   2   4 1025.99   15.82
  -1  -2  -4 1030.46   11.60
   1   2   4  933.01   13.48
  -1  -2  -5   20.03    2.49
  -1  -2  -5   23.85    1.38
   1   2   5   19.84    2.11
  -1  -2  -5   19.37    1.43
  -1  -2  -5   21.75    2.62
   1   2   5   21.85    1.31
  -1  -2  -5   22.62    1.85
  -1  -2  -5   19.32    2.52
  -1  -2  -5   22.01    1.74
   1   2   5   26.28    2.61
  -1  -2  -6  727.44   16.68
   1   2   6  818.98   16.35
  -1  -2  -6  790.89   18.51
  -1  -2  -6  744.49   17.62
  -1  -2  -6  833.91   12.07
  -1  -2  -6  742.45   17.91
   1   2   6  744.96   15.09
   1   2   6  778.05   15.04
  -1  -2  -6  884.96   13.90
  -1  -2  -6  756.52   16.11
  -1  -2  -7   31.45    3.10
  -1  -2  -7   28.09    4.02
  -1  -2  -7   47.59    4.93
   1   2   7   34.85    3.44
   1   2   7   32.73    3.36
  -1  -2  -7   27.54    3.43
   1   2   7   29.12    3.23
  -1  -2  -7   25.31    3.54
  -1  -2  -7   30.54    3.15
  -1  -2  -7   32.68    3.18
  -1  -2  -7   30.24    3.06
   1   2   7   32.07    3.34
   1   2   7   32.52    3.35
  -1  -2  -7   42.79    3.26
  -1  -2  -7   25.73    3.21
  -1  -2  -7   28.83    3.02
   1   2   7   29.93    3.25
   1   2   7   31.50    3.26
   1   2   7   25.67    3.06
   1   2   8  316.59   11.37
   1   2   8  251.44   10.42
  -1  -2  -8  280.10   13.54
  -1  -2  -8  266.72   12.63
  -1  -2  -8  266.88   11.52
  -1  -2  -8  289.99   12.93
   1   2   8  249.05   10.89
  -1  -2  -8  235.27   10.17
  -1  -2  -8  260.42   13.21
  -1  -2  -8  284.79   13.19
  -1  -2  -8  302.48   10.97
   1   2   8  291.26   11.25
   1   2   9  148.46    6.46
   1   2   9  135.83    7.61
  -1  -2  -9  157.39    9.06
  -1  -2  -9  136.18    7.36
  -1  -2  -9  139.52   10.33
   1   2   9  143.83    8.60
  -1  -2  -9  153.35   10.35
  -1  -2  -9  169.25    8.41
   1   2   9  158.66    8.18
  -1  -2  -9  157.66    9.60
   1   2   9  156.00    8.64
  -1  -2  -9  154.02    9.85
  -1  -2 -10   63.98    6.06
  -1  -2 -10   75.53    5.72
  -1  -2 -10   67.06    6.69
   1   2  10   59.37    5.23
  -1  -2 -10   63.66    6.37
   1   2  10   64.84    4.84
   1   2  10   66.41    4.93
  -1  -2 -10   62.24    5.61
   1   2  10   61.52    5.18
   1   2  10   58.17    5.05
  -1  -2 -11  707.40   11.11
   1   2  11  656.39   14.76
   1   2  11  662.10   15.30
   1   2  11  623.99   14.07
   1   2  11  731.52   14.20
  -1  -2 -11  747.61   19.50
   1   3 -10  219.55    5.92
  -1  -3   9    4.37    1.44
   1   3  -9    8.77    2.00
  -1  -3   9    6.14    1.44
   1   3  -9    4.94    1.44
  -1  -3   9    6.07    1.53
   1   3  -9    4.81    1.55
   1   3  -9    3.98    1.19
   1   3  -9    7.82    1.60
   1   3  -9    6.45    1.78
   1   3  -8   30.87    4.30
   1   3  -8   28.74    3.97
  -1  -3   8   31.23    4.00
  -1  -3   8   36.01    3.49
  -1  -3   8   25.06    3.80
   1   3  -8   24.74    3.97
  -1  -3   8   41.05    4.82
   1   3  -8   28.04    3.70
   1   3  -8   29.63    3.63
  -1  -3   8   36.08    3.88
  -1  -3   7  197.49   11.14
   1   3  -7  194.96   11.74
  -1  -3   7  247.12    9.21
   1   3  -7  185.65   10.81
   1   3  -7  189.78   10.52
   1   3  -7  208.46   12.01
  -1  -3   7  251.60    9.77
  -1  -3   7  175.71   10.22
  -1  -3   7  209.62   10.93
  -1  -3   7  249.29   11.29
   1   3  -6  347.65   15.17
   1   3  -6  364.74   14.25
  -1  -3   6  446.20   11.95
   1   3  -6  343.23   14.61
  -1  -3   6  468.58   15.03
   1   3  -6  330.05   14.90
  -1  -3   6  447.44   12.95
  -1  -3   6  386.66   14.68
  -1  -3   6  481.06   13.40
  -1  -3   6  376.69   14.91
   1   3  -5  507.36   11.97
   1   3  -5  534.89   12.69
   1   3  -5  426.58   14.42
  -1  -3   5  457.45   10.94
  -1  -3   5  545.39   13.81
   1   3  -5  523.05   12.56
   1   3  -5  535.42   12.61
   1   3  -5  433.05   15.29
  -1  -3   5  563.10   13.66
  -1  -3   5  512.27   12.37
  -1  -3   5  423.56   14.84
   1   3  -5  425.23   15.67
  -1  -3   5  469.73   14.77
  -1  -3   5  440.01   10.73
   1   3  -5  509.01   12.44
   1   3  -5  428.33   14.77
  -1  -3   5  440.12   10.71
   1   3  -5  523.68   12.94
  -1  -3   5  465.52   10.94
  -1  -3   5  417.69   15.22
  -1  -3   5  591.04   16.06
  -1  -3   5  461.70   10.87
  -1  -3   5  439.56   14.86
  -1  -3   4  121.71    5.98
  -1  -3   4  132.72    7.02
   1   3  -4  119.33    5.48
   1   3  -4   99.57    6.09
  -1  -3   4  103.55    4.63
   1   3  -4  122.23    5.41
  -1  -3   4  101.20    6.67
  -1  -3   4  105.14    6.38
   1   3  -4   95.42    6.34
   1   3  -4  118.65    5.29
  -1  -3   4  101.97    4.59
   1   3  -4  122.08    5.39
   1   3  -4  128.53    6.08
  -1  -3   4  105.19    4.65
   1   3  -4   94.44    6.52
  -1  -3   4  107.51    4.69
   1   3  -4   99.60    6.67
  -1  -3   4  105.27    4.65
   1   3  -4  123.22    5.37
  -1  -3   4   93.96    6.23
  -1  -3   4  107.71    6.48
   1   3  -3 1391.06   17.57
  -1  -3   3 1251.73   21.76
   1   3  -3 1284.33   22.92
  -1  -3   3 1307.76   16.24
   1   3  -3 1426.72   17.47
  -1  -3   3 1215.86   21.15
   1   3  -3 1426.31   17.57
  -1  -3   3 1349.72   19.60
  -1  -3   3 1283.31   16.10
  -1  -3   3 1279.47   15.97
  -1  -3   3 1315.47   21.33
   1   3  -3 1414.87   17.58
  -1  -3   3 1242.24   16.03
   1   3  -3 1416.80   17.54
  -1  -3   3 1267.33   20.72
   1   3  -3 1322.11   18.64
  -1  -3   3 1343.82   16.45
   1   3  -3 1323.35   15.20
  -1  -3   3 1243.89   20.65
   1   3  -2 1089.71   13.80
  -1  -3   2 1019.21   12.17
   1   3  -2 1102.64   12.88
  -1  -3   2 1035.33   12.21
  -1  -3   2 1036.90   12.34
   1   3  -2 1073.72   13.00
   1   3  -2 1072.62   12.88
  -1  -3   2 1022.65   12.13
   1   3  -2 1097.62   12.91
  -1  -3   2 1052.28   12.32
   1   3  -2 1056.90   18.88
  -1  -3   2 1117.36   13.54
   1   3  -2 1082.32   12.33
   1   3  -2 1075.76   12.83
   1   3  -2 1086.35   15.01
  -1  -3   1 1501.46   13.42
  -1  -3   1 1505.65   16.79
   1   3  -1 1614.88   15.57
  -1  -3   1 1568.87   14.51
   1   3  -1 1533.61   13.77
  -1  -3   1 1496.62   13.45
   1   3  -1 1636.90   15.19
  -1  -3   1 1502.84   13.47
  -1  -3   1 1390.33   12.99
   1   3  -1 1495.53   15.81
  -1  -3   1 1563.93   14.42
   1   3  -1 1535.79   13.68
   1   3  -1 1460.25   13.47
   1   3  -1 1534.98   15.05
  -1  -3   1 1560.27   13.91
   1   3  -1 1644.30   15.21
   1   3  -1 1509.43   13.66
   1   3  -1 1598.44   17.78
   1   3  -1 1525.50   13.70
   1   3  -1 1517.86   15.00
   1   3  -1 1568.04   21.33
  -1  -3   1 1519.14   14.30
  -1  -3   1 1583.02   18.14
  -1  -3   1 1543.74   14.39
  -1  -3   1 1513.78   13.46
   1   3  -1 1653.12   14.39
  -1  -3   1 1548.99   14.46
   1   3  -1 1533.78   14.78
   1   3   0  318.54    3.33
   1   3   0  325.87    3.30
  -1  -3   0  347.01    3.40
   1   3   0  327.63    3.31
   1   3   0  451.39    9.61
  -1  -3   0  382.32    3.84
   1   3   0  299.81    3.25
  -1  -3   0  329.11    3.34
   1   3   0  310.24    3.27
   1   3   0  290.69    3.32
   1   3   0  264.62    3.21
   1   3   0  438.22    6.94
   1   3   0  266.10    3.18
   1   3   0  425.17    5.16
   1   3   0  268.63    3.31
  -1  -3   0  410.41    7.96
  -1  -3   0  385.74    3.87
  -1  -3   0  326.44    3.30
  -1  -3   0  302.51    3.26
  -1  -3   0  367.16    3.79
  -1  -3   0  432.28    8.24
  -1  -3   0  364.24    3.71
  -1  -3   0  341.49    3.84
   1   3   0  274.02    3.42
  -1  -3   0  369.90    3.83
  -1  -3   0  329.87    3.38
   1   3   0  297.04    3.40
  -1  -3  -1   44.08    2.62
  -1  -3  -1   41.13    2.47
   1   3   1   54.32    2.91
   1   3   1   50.07    1.88
   1   3   1   39.49    2.01
  -1  -3  -2 1831.64   13.61
   1   3   2 1835.62   13.49
   1   3   2 1586.46   17.99
   1   3   2 1648.83   14.52
   1   3   2 1857.60   14.08
  -1  -3  -2 1671.24   13.58
  -1  -3  -2 1809.75   19.10
   1   3   2 1799.50   13.95
  -1  -3  -2 1866.55   13.88
  -1  -3  -2 1914.82   13.98
  -1  -3  -2 1736.11   13.31
   1   3   2 1873.80   14.05
   1   3   2 1870.83   14.07
   1   3   2 1587.54   12.35
   1   3   2 1853.13   13.98
  -1  -3  -2 1822.82   13.83
  -1  -3  -2 1822.77   13.69
  -1  -3  -2 1835.06   13.84
  -1  -3  -2 1787.65   13.42
  -1  -3  -2 1949.18   20.31
   1   3   2 1815.71   13.39
   1   3   2 2033.69   18.26
   1   3   2 1980.01   13.84
   1   3   2 1761.24   13.30
   1   3   2 1771.19   13.37
   1   3   2 1954.08   19.95
   1   3   2 1902.60   13.68
  -1  -3  -2 1829.29   13.87
  -1  -3  -2 1839.77   13.85
   1   3   2 1850.73   14.00
   1   3   2 1870.06   14.13
   1   3   3  288.30    5.52
  -1  -3  -3  354.50    6.15
   1   3   3  354.63    6.40
  -1  -3  -3  356.90    6.47
   1   3   3  359.70    6.46
   1   3   3  361.93    5.02
  -1  -3  -3  343.17    7.50
  -1  -3  -3  339.93    6.36
  -1  -3  -3  364.41    6.51
   1   3   3  320.69    4.17
   1   3   3  298.01    5.56
   1   3   3  352.69    6.35
  -1  -3  -3  355.38    6.32
  -1  -3  -3  362.28    6.49
   1   3   3  291.64    5.54
   1   3   3  340.73    6.30
  -1  -3  -3  362.79    6.50
   1   3   3  295.94    5.56
  -1  -3  -3  371.50    6.32
   1   3   3  296.19    5.56
  -1  -3  -3  369.49    6.53
  -1  -3  -3  373.37    6.34
   1   3   3  354.82    6.48
  -1  -3  -3  361.60    6.49
   1   3   3  318.58    7.19
   1   3   3  387.75    8.80
   1   3   3  344.91    6.36
   1   3   3  337.46    5.21
  -1  -3  -3  382.16    7.66
   1   3   3  336.45    5.50
   1   3   4  740.85   10.96
  -1  -3  -4  763.68   11.39
  -1  -3  -4  707.08   11.30
   1   3   4  830.18   14.77
   1   3   4  657.96   10.38
  -1  -3  -4  762.44   11.98
   1   3   4  703.46   10.81
   1   3   4  735.27   10.88
  -1  -3  -4  799.89   11.24
  -1  -3  -4  817.25   11.37
  -1  -3  -4  812.15   11.45
  -1  -3  -4  804.24   11.43
   1   3   4  748.51   11.04
   1   3   4  730.34   10.89
  -1  -3  -4  790.60    9.39
   1   3   4  711.06   12.38
  -1  -3  -4  768.98   11.56
  -1  -3  -5   64.06    3.47
  -1  -3  -5   64.98    4.77
   1   3   5   64.11    3.51
  -1  -3  -5   62.60    3.51
  -1  -3  -5   64.88    4.60
  -1  -3  -5   58.06    4.59
  -1  -3  -5   60.20    3.28
   1   3   5   64.32    3.54
  -1  -3  -5   69.77    3.57
   1   3   5   66.69    4.40
  -1  -3  -5   63.71    3.45
  -1  -3  -5   63.34    3.61
   1   3   5   62.88    3.52
   1   3   5   68.74    3.63
   1   3   5   66.98    3.55
   1   3   5   67.11    4.00
  -1  -3  -5   64.41    3.25
  -1  -3  -5   65.74    3.49
   1   3   5   63.11    3.47
  -1  -3  -5   63.23    4.84
   1   3   6 1565.46   22.51
  -1  -3  -6 1437.92   26.75
  -1  -3  -6 1471.52   20.99
  -1  -3  -6 1427.87   25.97
   1   3   6 1599.81   24.46
  -1  -3  -6 1440.53   26.97
  -1  -3  -6 1314.10   21.28
  -1  -3  -6 1502.71   20.71
  -1  -3  -6 1472.26   24.92
   1   3   6 1597.65   21.08
  -1  -3  -6 1368.10   22.89
  -1  -3  -6 1407.48   24.95
  -1  -3  -6 1482.40   21.47
  -1  -3  -6 1533.75   20.72
  -1  -3  -6 1512.07   20.71
   1   3   6 1607.35   21.84
   1   3   6 1490.62   23.11
   1   3   6 1482.23   22.55
  -1  -3  -6 1585.61   18.44
  -1  -3  -6 1552.35   20.97
   1   3   6 1374.55   20.23
   1   3   6 1503.80   21.25
   1   3   6 1546.72   21.53
   1   3   6 1592.19   21.72
   1   3   6 1563.69   21.54
   1   3   7   19.20    2.55
  -1  -3  -7   17.91    2.32
   1   3   7   17.96    2.44
  -1  -3  -7   17.47    2.51
  -1  -3  -7   14.53    2.60
  -1  -3  -7   17.67    3.17
  -1  -3  -7   17.18    3.22
   1   3   7   18.98    2.53
  -1  -3  -7   19.76    2.46
   1   3   7   19.09    2.50
  -1  -3  -7   14.49    2.81
   1   3   7   17.18    2.37
  -1  -3  -7   16.94    3.17
  -1  -3  -7   19.52    2.45
   1   3   7   19.10    2.68
  -1  -3  -7   16.53    2.75
   1   3   7   19.88    2.57
  -1  -3  -7   17.67    2.42
  -1  -3  -7   19.79    2.53
  -1  -3  -7   17.25    2.32
   1   3   7   21.84    2.84
   1   3   8  359.17   12.30
  -1  -3  -8  358.38   15.19
  -1  -3  -8  347.42   12.13
   1   3   8  327.76   12.86
  -1  -3  -8  353.74   14.46
   1   3   8  349.25   12.08
  -1  -3  -8  342.26   15.02
  -1  -3  -8  385.74   16.06
  -1  -3  -8  320.21   11.79
   1   3   8  342.50   12.26
  -1  -3  -8  336.45   13.42
   1   3   9  444.11   11.61
  -1  -3  -9  440.95   17.76
  -1  -3  -9  490.79   18.58
  -1  -3  -9  417.42   14.02
   1   3   9  465.59   13.94
  -1  -3  -9  469.46   15.98
   1   3   9  417.28   13.79
  -1  -3  -9  480.27   14.20
  -1  -3  -9  477.07   17.12
  -1  -3  -9  413.48   13.26
   1   3   9  435.51   14.20
   1   3   9  409.29   14.70
  -1  -3 -10  305.83    8.81
  -1  -3 -10  288.75   10.31
   1   3  10  258.63   10.53
   1   3  10  308.79   10.51
   1   3  10  260.16   11.18
  -1  -3 -10  332.21   13.91
  -1  -3 -10  321.63   14.34
  -1  -3 -10  332.86   13.78
   1   3  10  277.93   10.64
   1   3  11   15.98    2.25
  -1  -3 -11   16.95    2.85
   1   3  11   14.88    2.14
   1   3  11   14.98    2.32
   1   3  11   15.99    2.04
  -1  -3 -11   16.27    1.50
   1   3  11   14.37    2.00
  -1  -3 -12   23.75    1.96
  -1  -4   9    4.27    1.09
  -1  -4   9    3.32    1.03
   1   4  -9    4.23    1.23
   1   4  -9    6.37    1.29
   1   4  -9    2.91    1.12
   1   4  -8  223.34   10.58
   1   4  -8  175.82    7.88
  -1  -4   8  218.33    9.56
  -1  -4   8  211.85   10.03
   1   4  -8  190.81    9.31
  -1  -4   8  240.17    9.58
   1   4  -8  193.63    9.87
  -1  -4   8  265.01    8.57
  -1  -4   7  130.03    7.94
  -1  -4   7  103.71    7.73
   1   4  -7   93.97    7.36
   1   4  -7  113.34    8.39
  -1  -4   7  126.09    6.38
   1   4  -7   92.60    6.66
  -1  -4   7  129.43    8.29
   1   4  -7  107.87    7.41
  -1  -4   7  114.41    8.03
  -1  -4   7  123.14    6.82
   1   4  -6  173.03    8.90
  -1  -4   6  223.88   10.91
   1   4  -6  157.93    9.03
  -1  -4   6  217.97    9.14
  -1  -4   6  234.81    9.31
   1   4  -6  172.69   10.24
  -1  -4   6  189.52   10.25
  -1  -4   6  192.18   10.76
  -1  -4   6  244.09   12.20
   1   4  -6  196.31   11.29
   1   4  -5  437.04   15.68
   1   4  -5  416.89   15.83
  -1  -4   5  496.14   15.81
   1   4  -5  404.20   13.35
  -1  -4   5  532.86   17.76
  -1  -4   5  549.63   13.96
  -1  -4   5  493.76   14.04
   1   4  -5  377.07   13.32
  -1  -4   5  609.67   13.91
  -1  -4   5  453.32   15.41
  -1  -4   5  595.29   16.44
  -1  -4   5  438.60   15.47
  -1  -4   4   66.71    5.53
   1   4  -4   82.71    4.40
   1   4  -4   68.35    5.66
   1   4  -4   80.33    4.50
  -1  -4   4   75.07    3.99
   1   4  -4   86.18    4.53
  -1  -4   4   73.76    3.94
   1   4  -4   73.18    5.11
  -1  -4   4   75.31    3.97
   1   4  -4   62.65    4.91
  -1  -4   4   70.15    3.84
   1   4  -4   77.02    4.33
  -1  -4   4   81.13    5.34
   1   4  -4   62.63    5.77
  -1  -4   4   67.41    5.73
  -1  -4   4   76.59    4.03
  -1  -4   4   74.31    5.77
  -1  -4   4   70.29    5.47
   1   4  -4   83.32    4.44
   1   4  -4   74.13    4.39
   1   4  -4   73.47    3.77
   1   4  -4   84.85    5.31
  -1  -4   3  705.51   11.18
   1   4  -3  774.92   12.18
  -1  -4   3  704.31   16.57
  -1  -4   3  710.89   11.29
   1   4  -3  765.71   12.45
   1   4  -3  685.20   16.17
   1   4  -3  738.61   13.33
  -1  -4   3  700.28   11.15
   1   4  -3  741.15   11.85
   1   4  -3  768.56   12.14
  -1  -4   3  737.35   15.55
   1   4  -3  753.54   12.03
  -1  -4   3  696.54   11.10
  -1  -4   3  714.47   11.29
  -1  -4   3  760.59   17.12
   1   4  -3  732.15   18.84
   1   4  -3  746.07   12.10
  -1  -4   3  732.83   16.56
   1   4  -2   34.66    2.13
  -1  -4   2   29.94    3.02
   1   4  -2   35.32    2.10
  -1  -4   2   34.52    2.53
   1   4  -2   34.55    2.10
  -1  -4   2   31.17    3.11
  -1  -4   2   32.48    3.09
   1   4  -2   33.68    2.05
  -1  -4   2   33.63    2.00
  -1  -4   2   33.71    1.99
   1   4  -2   35.51    2.30
  -1  -4   2   33.93    2.00
  -1  -4   2   35.84    2.08
   1   4  -2   33.90    3.64
   1   4  -2   34.67    2.09
  -1  -4   2   32.61    1.96
   1   4  -1   51.46    4.07
  -1  -4   1   41.74    3.20
  -1  -4   1   42.41    1.98
   1   4  -1   38.54    1.71
  -1  -4   1   42.62    1.98
   1   4  -1   38.46    1.69
   1   4  -1   37.91    1.66
  -1  -4   1   44.21    2.05
  -1  -4   1   44.69    2.05
  -1  -4   1   40.78    2.99
   1   4  -1   39.80    1.70
  -1  -4   1   42.44    2.04
  -1  -4   1   38.56    1.65
   1   4  -1   39.44    1.70
  -1  -4   1   39.36    1.68
  -1  -4   1   39.27    1.68
  -1  -4   1   39.00    1.69
  -1  -4   1   39.60    1.68
   1   4  -1   42.72    2.44
  -1  -4   1   37.30    3.06
   1   4  -1   36.59    2.79
  -1  -4   0  629.35   11.72
   1   4   0  645.63   13.40
  -1  -4   0  582.27   11.03
   1   4   0  600.48    9.21
   1   4   0  673.62   11.03
  -1  -4  -1  687.21   12.42
   1   4   1  661.13   10.75
   1   4   1  770.14    8.66
  -1  -4  -1  735.71   13.07
   1   4   1  725.15    9.31
   1   4   1  712.01    9.77
   1   4   2  745.43    6.18
   1   4   2  684.00    5.95
  -1  -4  -2  644.43    5.67
   1   4   2  681.34    5.96
   1   4   2  777.10   11.90
   1   4   2  835.56    7.47
  -1  -4  -2  636.87    5.81
  -1  -4  -2  633.39    5.79
   1   4   2  667.93    5.92
   1   4   2  658.93    5.92
  -1  -4  -2  634.79    5.75
  -1  -4  -2  966.51   14.84
   1   4   2  663.67    5.90
  -1  -4  -2  633.11    5.79
   1   4   2  732.84    6.06
   1   4   2  699.78    6.03
  -1  -4  -2  608.81    5.69
   1   4   2  877.28   13.27
   1   4   2  692.39    5.93
  -1  -4  -2  576.49    5.64
  -1  -4  -2  640.38    5.79
  -1  -4  -2  633.87    5.72
  -1  -4  -2  645.60    5.81
   1   4   2  659.81    5.93
   1   4   2  670.35    5.96
  -1  -4  -2  671.83    5.77
   1   4   3  904.58   10.17
   1   4   3  873.21   10.47
   1   4   3  889.70   10.56
   1   4   3  900.36   10.67
  -1  -4  -3  956.09   15.86
  -1  -4  -3  954.21   10.77
  -1  -4  -3  925.75   10.72
  -1  -4  -3  953.27   10.85
   1   4   3  936.65   10.44
   1   4   3  885.66   14.38
   1   4   3  885.14   10.46
  -1  -4  -3  918.54   10.71
  -1  -4  -3  918.17   10.74
   1   4   3  909.09   10.18
   1   4   3  913.32   10.18
   1   4   3  879.57   10.24
  -1  -4  -3  924.91   10.46
  -1  -4  -3  909.84   10.72
   1   4   3  885.92   10.55
  -1  -4  -3  968.92   11.13
  -1  -4  -3  903.86   10.65
   1   4   3  922.18   10.28
  -1  -4  -3  851.50   10.55
  -1  -4  -3  947.54   10.50
   1   4   3  878.06   10.51
   1   4   3  900.78   10.99
  -1  -4  -4    1.38    0.65
  -1  -4  -4    1.66    0.56
  -1  -4  -4    2.40    0.63
  -1  -4  -4    1.86    0.84
  -1  -4  -4    5.17    1.34
  -1  -4  -4    2.31    0.67
   1   4   4    1.51    0.50
   1   4   4    1.39    0.46
  -1  -4  -4    1.39    0.65
  -1  -4  -4    1.55    0.81
  -1  -4  -4    2.25    0.90
   1   4   4    1.01    0.59
   1   4   4    1.67    0.68
  -1  -4  -4    1.70    0.57
   1   4   4    1.29    0.46
   1   4   4    1.44    0.48
   1   4   4    1.44    0.50
  -1  -4  -4    2.61    1.07
  -1  -4  -4    2.09    0.60
  -1  -4  -5   62.74    3.69
  -1  -4  -5   56.32    4.70
  -1  -4  -5   49.57    4.16
  -1  -4  -5   62.85    3.59
  -1  -4  -5   56.45    4.84
   1   4   5   53.43    3.23
  -1  -4  -5   57.20    3.88
  -1  -4  -5   62.81    3.58
  -1  -4  -5   55.31    3.59
   1   4   5   66.45    4.60
  -1  -4  -5   57.17    4.83
   1   4   5   62.91    3.87
  -1  -4  -5   57.62    3.61
   1   4   5   51.99    3.20
  -1  -4  -5   63.36    3.61
   1   4   5   52.44    3.20
   1   4   5   50.68    3.18
   1   4   5   50.28    3.14
  -1  -4  -5   63.34    5.22
   1   4   5   61.05    4.15
  -1  -4  -6 1197.49   25.36
   1   4   6 1070.97   17.52
  -1  -4  -6 1140.40   23.97
   1   4   6 1062.40   17.51
  -1  -4  -6 1094.60   22.87
  -1  -4  -6 1113.03   24.89
   1   4   6 1363.24   20.07
  -1  -4  -6 1206.13   18.53
   1   4   6 1093.79   17.68
  -1  -4  -6 1171.98   18.93
  -1  -4  -6 1111.96   24.81
   1   4   6 1306.97   23.37
   1   4   6 1278.56   20.93
  -1  -4  -6 1160.74   18.65
  -1  -4  -6 1158.60   18.28
   1   4   6 1077.50   17.64
   1   4   6 1046.11   17.51
   1   4   6 1238.01   20.91
  -1  -4  -6 1131.26   18.05
  -1  -4  -7    9.29    2.57
  -1  -4  -7    4.91    1.74
  -1  -4  -7    5.96    1.66
  -1  -4  -7    6.93    2.20
   1   4   7    7.12    1.80
  -1  -4  -7    8.58    1.90
   1   4   7    6.04    1.39
   1   4   7    8.25    1.85
  -1  -4  -8  932.95   18.17
  -1  -4  -8  999.42   22.68
  -1  -4  -8 1058.45   27.90
  -1  -4  -8 1001.94   25.88
   1   4   8 1070.93   21.87
  -1  -4  -8 1050.90   28.14
  -1  -4  -8  861.62   19.93
  -1  -4  -8  933.96   23.79
   1   4   8 1089.42   21.61
   1   4   8  994.20   21.24
   1   4   9 1141.47   22.00
  -1  -4  -9 1095.86   27.19
   1   4   9  950.66   22.92
  -1  -4  -9 1188.90   30.06
  -1  -4  -9 1181.97   29.62
  -1  -4  -9 1089.84   18.78
   1   4   9 1113.42   22.46
   1   4   9 1029.62   21.68
  -1  -4 -10  162.78    6.07
   1   4  10  130.35    7.68
   1   4  10  156.04    7.15
  -1  -4 -10  145.27    7.76
   1   4  10  136.12    6.89
  -1  -4 -10  164.88    9.76
   1   4  10  131.22    6.89
  -1  -4 -10  164.15   10.13
   1   4  11 1243.45   17.70
   1   4  11 1340.06   18.42
   1   4  11 1118.81   19.68
  -1  -4 -11 1438.58   24.91
   1   4  11 1163.50   18.62
   1   4  11 1117.09   19.08
  -1  -4 -12    1.72    0.57
   1   5  -9    6.05    0.92
   1   5  -8  102.30    6.08
  -1  -5   8  106.47    5.48
   1   5  -8  109.56    5.65
  -1  -5   7  254.96   10.33
  -1  -5   7  247.34   10.53
   1   5  -7  200.20    8.82
   1   5  -7  233.67   10.32
   1   5  -7  196.11    9.97
   1   5  -6   42.00    4.74
  -1  -5   6   65.35    4.90
  -1  -5   6   63.65    4.83
   1   5  -6   37.11    4.61
   1   5  -6   44.75    4.60
  -1  -5   6   51.73    5.41
  -1  -5   6   52.27    5.13
  -1  -5   5   31.81    3.18
  -1  -5   5   29.54    3.53
   1   5  -5   20.20    3.14
  -1  -5   5   23.33    2.94
   1   5  -5   19.63    3.40
  -1  -5   5   25.77    3.71
  -1  -5   5   23.73    3.46
  -1  -5   5   21.40    3.62
  -1  -5   5   22.44    3.55
  -1  -5   4    9.38    2.27
  -1  -5   4    9.01    1.77
  -1  -5   4   12.87    2.51
   1   5  -4    7.97    1.89
  -1  -5   4   12.08    2.44
  -1  -5   4   12.68    2.42
  -1  -5   4   10.05    1.90
  -1  -5   4    9.47    2.26
   1   5  -4   10.71    2.40
  -1  -5   3 1036.46   18.84
  -1  -5   3  974.93   20.98
  -1  -5   3 1084.97   21.37
   1   5  -3 1027.82   15.49
   1   5  -3  995.71   17.14
  -1  -5   3  883.46   14.23
  -1  -5   3  956.92   20.73
  -1  -5   3 1001.64   19.26
  -1  -5   2   16.72    2.54
   1   5  -2   13.96    1.87
  -1  -5   2   17.69    2.56
  -1  -5   2   15.79    1.97
  -1  -5   2   11.89    1.59
   1   5  -2   13.89    1.65
   1   5  -2   14.46    2.62
  -1  -5   2   12.06    1.59
   1   5  -2   16.18    2.20
  -1  -5   1  104.85    5.43
  -1  -5   1  104.68    5.76
  -1  -5   1  113.77    6.04
   1   5  -1  102.89    4.80
  -1  -5   1  105.24    5.26
   1   5  -1  104.84    6.57
  -1  -5   1  101.88    4.58
   1   5  -1  101.23    4.43
   1   5  -1  116.22    5.51
  -1  -5   1  106.53    4.79
  -1  -5   0  400.33   10.78
   1   5   0  335.38    8.58
  -1  -5   0  370.90    9.25
   1   5   0  407.21    9.85
  -1  -5   0  355.05    9.96
  -1  -5   0  376.42    8.96
  -1  -5   0  357.84   10.05
  -1  -5   0  339.65    8.82
   1   5   0  357.96    8.30
  -1  -5  -1  886.70   16.40
  -1  -5  -1  905.90   15.84
  -1  -5  -1  945.49   17.46
   1   5   1  790.57   13.50
  -1  -5  -1  863.47   15.37
   1   5   1  991.23   17.64
   1   5   1  869.10   10.57
   1   5   1  930.62   14.34
  -1  -5  -2 2250.15   26.92
  -1  -5  -2 2159.10   27.85
  -1  -5  -2 2248.78   28.71
  -1  -5  -2 2137.66   26.16
  -1  -5  -2 2337.41   29.72
   1   5   2 2100.94   25.93
   1   5   2 2496.39   26.98
   1   5   2 2695.71   25.77
  -1  -5  -2 2354.22   29.14
  -1  -5  -3    2.63    1.04
  -1  -5  -3    0.68    0.62
  -1  -5  -3    1.27    0.70
   1   5   3    1.08    0.43
  -1  -5  -3    1.14    0.72
   1   5   3    1.67    0.51
  -1  -5  -3    0.85    0.64
   1   5   3    0.83    0.60
   1   5   3    0.27    0.33
  -1  -5  -4    7.31    1.46
  -1  -5  -4    7.63    1.62
  -1  -5  -4    6.27    1.72
   1   5   4    7.07    1.45
  -1  -5  -4    6.24    1.51
  -1  -5  -4    6.64    1.62
  -1  -5  -4    7.59    1.62
   1   5   4    5.90    1.33
   1   5   4    9.27    1.69
  -1  -5  -5 1175.81   23.94
  -1  -5  -5 1214.23   24.58
  -1  -5  -5 1126.25   21.18
  -1  -5  -5 1181.83   24.50
  -1  -5  -5 1139.51   20.68
  -1  -5  -5 1198.30   20.60
  -1  -5  -5 1260.62   26.17
   1   5   5 1350.79   21.66
   1   5   5 1444.90   23.91
  -1  -5  -6 1285.24   22.27
  -1  -5  -6 1447.91   29.40
   1   5   6 1632.56   25.51
  -1  -5  -6 1523.32   31.24
  -1  -5  -6 1436.01   29.38
  -1  -5  -6 1481.48   30.39
   1   5   6 1629.40   23.67
  -1  -5  -6 1464.07   22.21
  -1  -5  -6 1334.45   25.59
  -1  -5  -7 2649.53   45.38
  -1  -5  -7 2604.23   43.09
  -1  -5  -7 2356.52   35.67
  -1  -5  -7 2585.35   30.79
  -1  -5  -7 2777.70   45.31
  -1  -5  -7 2420.88   32.22
   1   5   7 3210.23   35.37
   1   5   7 3073.71   38.21
  -1  -5  -7 2633.17   40.32
   1   5   7 2844.80   36.69
   1   5   8 1004.57   21.05
  -1  -5  -8  895.56   23.80
  -1  -5  -8  920.78   23.95
  -1  -5  -8  935.09   26.35
  -1  -5  -8  945.62   26.73
  -1  -5  -8  830.55   17.03
   1   5   8  860.67   19.32
  -1  -5  -8  826.24   19.87
  -1  -5  -9  180.94    7.05
   1   5   9  189.83    8.49
   1   5   9  162.65    8.89
  -1  -5  -9  207.69   12.33
  -1  -5  -9  206.11   12.21
  -1  -5  -9  191.82   10.34
  -1  -5  -9  190.27   10.28
   1   5   9  197.07    8.87
   1   5   9  173.31    8.28
   1   5  10    7.93    1.61
   1   5  10    9.70    1.99
   1   5  10    5.79    1.40
  -1  -5 -10    9.08    2.45
  -1  -5 -10    6.31    1.12
  -1  -5 -10    9.20    1.84
  -1  -5 -10    8.26    2.11
   1   5  11  721.83   14.19
   1   5  11  701.64   13.80
   1   6  -8  180.13    5.26
   1   6  -7  314.40   10.27
   1   6  -7  328.42    9.87
  -1  -6   6    1.19    0.76
   1   6  -6    1.52    0.89
   1   6  -6    1.65    1.06
   1   6  -6    1.55    1.03
  -1  -6   6    2.28    1.10
  -1  -6   6    2.62    1.07
   1   6  -5   75.20    6.22
   1   6  -5   69.61    5.81
  -1  -6   5  114.22    6.24
  -1  -6   5   92.33    6.53
  -1  -6   5  113.02    6.62
   1   6  -5   83.25    6.25
  -1  -6   5  118.91    5.93
  -1  -6   4    2.30    1.09
   1   6  -4    0.25    0.72
  -1  -6   4    1.01    0.92
  -1  -6   4    1.75    1.17
   1   6  -4    1.03    1.00
  -1  -6   4    0.19    0.58
  -1  -6   3  729.59   18.61
  -1  -6   3  641.55   15.00
  -1  -6   3  593.60   15.86
   1   6  -3  492.49   14.73
  -1  -6   3  621.51   14.96
  -1  -6   3  559.55   16.35
  -1  -6   3  563.66   11.60
   1   6  -3  548.04   15.50
  -1  -6   3  660.69   16.25
  -1  -6   2  242.41    7.90
  -1  -6   2  262.39   10.19
   1   6  -2  206.98    8.54
  -1  -6   2  244.36    9.27
  -1  -6   2  239.21    7.50
   1   6  -2  226.71    9.02
  -1  -6   2  281.16   11.12
  -1  -6   2  258.41   10.66
  -1  -6   2  241.92    9.22
  -1  -6   1  116.51    5.68
   1   6  -1  112.47    5.20
  -1  -6   1  105.66    5.90
  -1  -6   1  133.80    7.43
  -1  -6   1  102.29    5.84
  -1  -6   1  125.20    7.19
   1   6  -1  118.53    6.00
  -1  -6   1  124.05    7.24
   1   6   0   26.30    3.36
  -1  -6   0   27.45    2.85
  -1  -6   0   25.12    3.00
  -1  -6   0   23.77    2.90
   1   6   0   24.00    2.57
   1   6   0   23.37    2.37
   1   6   0   24.78    2.59
  -1  -6  -1  853.64   17.95
  -1  -6  -1  904.07   18.70
   1   6   1  936.19   18.65
   1   6   1  804.78   16.32
   1   6   1  758.00   14.55
   1   6   1  846.30   16.00
   1   6   1  868.78   15.37
  -1  -6  -2  950.63   19.71
  -1  -6  -2  944.20   17.16
  -1  -6  -2  914.99   19.22
   1   6   2  941.95   18.15
   1   6   2  978.90   16.98
  -1  -6  -3  297.94   10.53
   1   6   3  273.51    9.37
  -1  -6  -3  310.91   11.63
  -1  -6  -3  299.19   11.15
  -1  -6  -3  325.14   10.72
   1   6   3  317.63   10.40
   1   6   3  256.77    9.01
   1   6   3  361.07    9.65
  -1  -6  -4   69.12    5.37
  -1  -6  -4  113.00    7.39
  -1  -6  -4   82.83    5.63
  -1  -6  -4   84.10    5.46
  -1  -6  -4   75.59    6.28
  -1  -6  -4   80.93    5.86
  -1  -6  -4   86.37    5.65
  -1  -6  -4  130.62    8.97
   1   6   4   88.29    4.80
   1   6   4   95.05    5.44
  -1  -6  -5  164.37    8.33
  -1  -6  -5  161.58    9.23
  -1  -6  -5  172.12    9.58
  -1  -6  -5  170.09    8.99
  -1  -6  -5  168.40    7.64
  -1  -6  -5  135.26    7.31
  -1  -6  -5  176.73   10.31
  -1  -6  -5  143.35    7.88
  -1  -6  -6    6.38    2.15
  -1  -6  -6    6.70    1.70
  -1  -6  -6    7.55    1.89
  -1  -6  -6    8.06    2.35
  -1  -6  -6    5.59    1.47
   1   6   6    6.52    1.68
  -1  -6  -6    7.36    1.93
  -1  -6  -6    6.60    1.85
  -1  -6  -7   12.38    1.96
   1   6   7   14.84    2.52
  -1  -6  -7   20.23    3.70
  -1  -6  -7   12.81    2.49
   1   6   7   14.08    2.59
  -1  -6  -7   12.60    2.15
   1   6   7   13.37    2.18
  -1  -6  -7    9.67    2.19
  -1  -6  -7   11.71    3.05
  -1  -6  -8   76.70    5.79
   1   6   8   86.55    5.98
  -1  -6  -8   85.17    7.78
  -1  -6  -8   71.67    4.69
  -1  -6  -8   72.21    6.85
   1   6   8   70.20    5.19
  -1  -6  -8   89.02    8.06
   1   6   9    6.63    1.62
  -1  -6  -9    6.23    1.64
  -1  -6  -9    7.06    2.37
  -1  -6  -9   28.73    2.57
   1   6   9   20.88    2.76
   1   6   9    5.13    1.36
   1   6   9   16.23    2.59
  -1  -6  -9    9.36    2.34
  -1  -6 -10   19.90    2.45
   1   6  10   17.66    2.42
   1   6  10   19.51    2.26
  -1  -6 -10   19.97    2.79
  -1  -6 -11  332.84    7.66
  -1  -7   7  119.16    3.90
   1   7  -6   53.52    4.11
  -1  -7   6   49.68    3.61
   1   7  -6   49.15    3.90
   1   7  -6   47.36    3.43
  -1  -7   5  175.76    6.25
   1   7  -5  115.17    5.95
   1   7  -5  113.76    6.84
  -1  -7   5  131.95    6.84
  -1  -7   5  157.56    6.80
  -1  -7   4    7.11    1.60
   1   7  -4    5.56    1.44
   1   7  -4    3.53    1.38
  -1  -7   4    5.05    1.55
  -1  -7   3  320.50   10.42
  -1  -7   3  305.16   10.64
  -1  -7   2   90.21    6.13
  -1  -7   2   97.04    6.06
  -1  -7   2  103.26    6.19
  -1  -7   1   91.81    6.73
  -1  -7   1   75.26    5.33
  -1  -7   1   70.03    5.37
  -1  -7   1   84.77    5.63
  -1  -7   1   67.37    5.17
  -1  -7   1   72.24    5.97
  -1  -7   1   63.26    4.67
  -1  -7   0  466.62   13.76
  -1  -7   0  570.92   16.87
  -1  -7   0  482.56   13.65
  -1  -7   0  564.62   15.00
  -1  -7   0  577.11   16.63
  -1  -7   0  473.58   13.72
  -1  -7  -1  793.58   19.08
  -1  -7  -1  702.75   18.66
  -1  -7  -1  768.93   17.93
  -1  -7  -1  607.93   16.33
  -1  -7  -1  643.56   15.84
  -1  -7  -2  174.31    8.77
  -1  -7  -2  205.61    9.91
  -1  -7  -2  219.20   10.01
  -1  -7  -2  163.25    8.58
  -1  -7  -2  237.15   10.11
  -1  -7  -3  419.96   14.03
  -1  -7  -3  648.37   17.70
  -1  -7  -3  541.71   15.93
  -1  -7  -3  492.74   14.29
  -1  -7  -3  432.70   12.43
  -1  -7  -3  555.21   15.56
  -1  -7  -3  437.46   14.45
  -1  -7  -4 2174.33   34.42
  -1  -7  -4 2598.03   38.11
   1   7   4 2826.10   31.97
  -1  -7  -4 2459.44   34.43
  -1  -7  -4 2299.82   36.68
  -1  -7  -4 2728.98   35.86
  -1  -7  -4 2466.36   36.45
  -1  -7  -4 2733.25   37.32
  -1  -7  -5  700.16   19.72
  -1  -7  -5  660.94   17.37
  -1  -7  -6 1552.78   31.90
  -1  -7  -6 1484.56   25.22
   1   7   6 1736.66   26.67
  -1  -7  -6 1496.78   27.41
   1   7   6 1670.86   27.13
  -1  -7  -6 1413.45   27.03
  -1  -7  -6 1524.79   24.29
  -1  -7  -6 1448.75   30.96
   1   7   7  225.13    8.51
  -1  -7  -7  193.67    9.27
   1   7   7  218.55    9.55
  -1  -7  -7  202.47    8.18
  -1  -7  -7  216.02    7.97
   1   7   7  195.51    8.57
  -1  -7  -8   34.78    4.54
  -1  -7  -8   31.91    2.89
   1   7   8   36.29    3.65
  -1  -7  -8   33.18    4.63
   1   7   8   24.60    2.81
  -1  -7  -9  343.82    7.62
   1   7   9  314.47    9.62
  -1  -7 -10    3.29    1.06
  -1  -7 -10    2.02    0.79
  -1  -8   6    8.36    0.97
  -1  -8   5  623.42   11.57
   1   8  -5  424.50   10.32
  -1  -8   4  122.82    5.77
  -1  -8   4  173.68    6.25
   1   8  -4   99.89    5.35
   1   8  -4  112.20    5.81
  -1  -8   4  159.06    6.45
  -1  -8   3  668.68   15.07
  -1  -8   3  906.52   16.94
   1   8  -3  577.71   14.22
  -1  -8   3  782.07   16.01
   1   8  -2    0.34    0.50
   1   8  -2    0.18    0.41
  -1  -8   2    1.68    0.95
  -1  -8   2    2.38    1.13
  -1  -8   1    4.82    1.53
  -1  -8   1    2.41    1.09
  -1  -8   1    2.23    1.20
  -1  -8   0 1529.68   29.13
  -1  -8   0 1487.67   27.15
  -1  -8   0 1501.83   26.49
  -1  -8   0 1478.00   24.46
  -1  -8  -1    4.43    1.64
  -1  -8  -1    0.24    0.84
  -1  -8  -1    0.27    0.96
  -1  -8  -1    2.61    1.37
  -1  -8  -1    1.08    1.16
  -1  -8  -2 3033.60   42.22
  -1  -8  -2 3244.33   43.28
  -1  -8  -2 2770.35   39.72
  -1  -8  -2 2561.40   38.28
  -1  -8  -3   37.60    4.22
  -1  -8  -3   26.22    3.63
  -1  -8  -3   32.73    4.03
  -1  -8  -3   27.99    3.77
  -1  -8  -4   21.55    3.05
  -1  -8  -4   18.35    2.88
  -1  -8  -4   19.65    3.05
  -1  -8  -4   17.28    3.12
  -1  -8  -5  212.20    9.72
  -1  -8  -5  236.90   11.42
  -1  -8  -5  249.90   11.03
   1   8   6  396.29   11.61
   1   8   6  374.25   11.40
  -1  -8  -6  365.41   11.18
  -1  -8  -6  379.56   11.14
   1   8   7  120.88    5.82
  -1  -8  -7  143.23    8.58
  -1  -8  -7  135.16    5.76
  -1  -8  -7  134.56    5.97
   1   8   7  147.85    7.23
  -1  -8  -7  125.43    7.60
   1   8   8    1.02    0.64
   1   8   8    0.90    0.78
  -1  -8  -8    0.61    0.51
  -1  -8  -8    0.57    0.78
  -1  -8  -8    0.97    0.85
  -1  -8  -9  354.04   10.66
   1   8   9  362.91    8.16
  -1  -9   4   26.80    2.07
  -1  -9   3   67.93    3.69
  -1  -9   3   61.47    3.69
   1   9  -2  130.51    5.82
  -1  -9   2  177.73    6.92
  -1  -9   1   10.04    2.00
   1   9  -1    6.97    1.45
  -1  -9   1    8.89    1.81
   1   9   0   32.29    2.92
  -1  -9   0   24.29    3.15
  -1  -9   0   24.69    3.12
  -1  -9  -1   53.42    4.68
  -1  -9  -1   51.47    4.52
  -1  -9  -2  141.05    7.90
  -1  -9  -2  121.37    7.39
  -1  -9  -2  121.46    7.23
   1   9   3    6.07    1.36
  -1  -9  -3    5.80    1.71
  -1  -9  -3    4.88    1.63
  -1  -9  -3    5.81    1.69
  -1  -9  -4  133.37    6.97
  -1  -9  -4  142.06    7.32
  -1  -9  -4  122.49    7.51
   1   9   5  416.07   11.46
   1   9   5  390.39   10.47
  -1  -9  -5  381.09   12.97
   1   9   6   66.87    3.92
   1   9   6   49.89    3.26
  -1  -9  -6   61.93    3.82
  -1  -9  -6   56.07    4.64
  -1  -9  -7    0.97    0.54
  -1  -9  -7    1.37    0.85
   1   9   7    0.32    0.56
  -1  -9  -8   27.17    2.36
  -1 -10   2  266.01    6.31
  -1 -10   1  493.01   10.29
  -1 -10   1  440.49    9.55
  -1 -10   0 1470.73   21.16
  -1 -10   0 1398.77   19.84
  -1 -10  -1   15.76    2.25
  -1 -10  -1   15.41    2.13
   1  10   1   12.04    1.58
  -1 -10  -2    0.48    0.69
  -1 -10  -2    0.16    0.67
  -1 -10  -3    3.65    1.24
   1  10   3    1.80    0.88
  -1 -10  -3    1.08    0.73
  -1 -10  -4  215.33    7.96
  -1 -10  -5  118.34    4.39
  -1 -10  -5  107.65    5.19
  -1 -10  -6   29.41    2.37
  -2  10   4   49.18    2.32
   2 -10  -3  417.29    9.07
  -2  10   3  531.31    8.95
  -2  10   2   55.41    2.78
   2 -10  -2   53.81    3.38
   2 -10  -2   53.22    2.28
   2 -10  -1  336.92    8.60
   2 -10  -1  364.19    6.37
   2  -9  -6  108.87    3.40
  -2   9   6  121.90    3.86
  -2   9   5   67.70    3.38
  -2   9   5   72.65    3.98
  -2   9   4   21.34    2.37
   2  -9  -4   11.85    2.13
  -2   9   4   16.77    1.75
  -2   9   4   17.24    1.85
  -2   9   4   18.30    2.08
  -2   9   4   20.15    2.41
  -2   9   3  221.20    6.92
  -2   9   3  231.16    7.67
  -2   9   3  217.36    7.93
  -2   9   2  121.92    5.58
  -2   9   2  111.56    5.82
  -2   9   2  105.87    4.88
   2  -9  -2  109.15    5.53
  -2   9   1  267.39    8.94
  -2   9   1  246.34    7.94
  -2   9   1  264.57    8.58
  -2   9   1  278.10    9.47
   2  -9  -1  235.10    8.48
  -2   9   1  247.61    8.76
   2  -9   0   32.55    3.06
  -2   9   0   33.03    3.07
  -2   9   0   37.08    3.24
  -2   9   0   32.43    2.88
   2  -9   0   28.33    3.44
  -2   9   0   35.43    3.28
  -2   9  -1    9.54    1.41
  -2   9  -1    9.46    1.66
  -2   9  -1    8.83    1.52
   2  -9   1    7.12    1.57
  -2   9  -1    5.71    1.11
   2  -9   1    7.09    1.42
   2  -9   2  509.17   10.64
  -2   9  -2  503.96   11.11
  -2   9  -2  496.46   10.30
   2  -9   2  479.28   14.02
  -2   9  -3    3.02    0.85
   2  -9   3    4.91    1.42
   2  -9   3    3.51    0.81
  -2   8   7  238.68    7.23
   2  -8  -6  199.07    9.98
   2  -8  -6  192.51    9.08
  -2   8   6  221.56    7.89
  -2   8   6  236.24    8.09
  -2   8   6  215.11    7.47
  -2   8   6  206.04    7.62
   2  -8  -6  187.84    8.56
   2  -8  -6  169.92    6.60
   2  -8  -5   80.51    6.59
   2  -8  -5   71.11    5.78
   2  -8  -5   76.96    6.83
   2  -8  -5   82.53    6.41
  -2   8   5   89.54    5.61
  -2   8   5   90.35    5.48
  -2   8   5   87.58    5.04
  -2   8   5   97.06    5.48
  -2   8   4   19.94    2.34
   2  -8  -4   17.00    3.28
  -2   8   4   16.66    2.53
  -2   8   4   20.23    2.70
  -2   8   4   18.43    2.36
  -2   8   4   19.28    2.58
   2  -8  -4   16.48    3.33
  -2   8   4   16.37    2.47
   2  -8  -4   17.32    3.33
  -2   8   3  569.18   13.60
   2  -8  -3  505.18   18.28
   2  -8  -3  466.97   17.99
   2  -8  -3  479.49   17.26
  -2   8   3  586.75   14.34
   2  -8  -3  481.35   17.27
  -2   8   3  568.91   14.17
  -2   8   3  457.11   13.29
  -2   8   3  562.83   14.65
   2  -8  -2  422.81   16.17
   2  -8  -2  417.16   13.52
  -2   8   2  501.19   13.43
   2  -8  -2  402.37   16.31
  -2   8   2  499.81   12.47
  -2   8   2  538.53   14.42
  -2   8   2  460.16   14.03
   2  -8  -2  329.19   14.76
   2  -8  -1    7.49    2.30
   2  -8  -1    7.26    2.02
   2  -8  -1   12.32    3.14
   2  -8  -1   12.34    2.93
  -2   8   1   10.48    2.08
  -2   8   1   11.77    2.16
  -2   8   1   12.30    2.20
   2  -8  -1   10.04    2.19
   2  -8   0    5.85    1.98
  -2   8   0    7.52    1.79
   2  -8   0    6.62    1.72
   2  -8   0    7.10    2.13
  -2   8   0    7.98    1.58
  -2   8   0    9.92    2.03
   2  -8   0    8.74    2.72
   2  -8   0    6.78    1.86
   2  -8   1   73.89    5.74
  -2   8  -1   84.57    5.46
   2  -8   1   62.81    5.49
   2  -8   1   70.14    5.20
  -2   8  -1   84.51    5.13
   2  -8   1   69.00    6.06
   2  -8   1   60.07    5.06
  -2   8  -1   65.94    5.01
   2  -8   2  171.75   10.35
   2  -8   2  185.07    8.83
  -2   8  -2  188.92    7.08
  -2   8  -2  171.65    7.54
   2  -8   2  138.82    7.32
   2  -8   2  164.78    7.56
   2  -8   2  160.24    9.14
  -2   8  -2  138.93    6.39
  -2   8  -3    0.81    0.68
   2  -8   3    0.41    0.57
  -2   8  -3    0.14    0.59
   2  -8   3    0.23    0.45
  -2   8  -3    1.47    0.86
   2  -8   3    1.16    0.87
   2  -8   3    0.16    0.59
   2  -8   3   -0.15    1.14
  -2   8  -4   50.09    3.80
  -2   8  -4   46.20    3.45
   2  -8   4   47.01    3.91
   2  -8   4   49.02    4.98
   2  -8   4   44.71    4.45
   2  -8   4   53.39    3.67
  -2   8  -5  122.43    5.40
   2  -8   5  145.70    7.50
  -2   8  -5  120.68    5.15
   2  -8   5  129.67    4.66
   2  -8   5  153.32    7.35
   2  -7  -8  278.57    7.36
  -2   7   8  288.73    8.05
   2  -7  -8  286.30    8.75
   2  -7  -8  270.45    7.29
  -2   7   7  486.10   12.51
   2  -7  -7  474.97   14.83
  -2   7   7  595.90   13.95
   2  -7  -7  453.10   11.48
  -2   7   7  479.86   10.84
  -2   7   7  478.47   11.43
  -2   7   7  624.03   14.73
   2  -7  -7  442.01   13.62
   2  -7  -7  487.76   16.26
   2  -7  -6  117.89    9.20
   2  -7  -6  113.31    8.45
   2  -7  -6  118.47    8.84
  -2   7   6  151.89    7.61
  -2   7   6  144.44    6.99
  -2   7   6  158.71    8.11
  -2   7   6  129.87    6.06
   2  -7  -6  114.47    7.75
  -2   7   6  136.08    7.10
   2  -7  -6  119.85    6.48
  -2   7   6  134.32    6.68
  -2   7   5    9.31    1.70
   2  -7  -5    7.92    2.64
   2  -7  -5   10.77    2.96
   2  -7  -5    8.12    2.56
   2  -7  -5    5.72    2.06
   2  -7  -5    6.51    2.23
  -2   7   5   10.01    2.04
  -2   7   5   11.73    2.32
  -2   7   5    7.50    1.67
  -2   7   5    9.37    1.91
  -2   7   5    9.14    1.97
   2  -7  -5    8.64    2.00
   2  -7  -4    4.52    1.58
   2  -7  -4    4.01    2.14
  -2   7   4    8.36    2.07
  -2   7   4    5.49    1.59
  -2   7   4    3.80    1.32
  -2   7   4    2.98    1.33
   2  -7  -4    2.85    1.58
   2  -7  -4    6.80    2.22
   2  -7  -4    3.11    1.83
   2  -7  -4    2.98    1.75
   2  -7  -4    4.47    1.96
  -2   7   3 1103.19   21.64
   2  -7  -3  950.63   26.01
   2  -7  -3  876.76   27.29
  -2   7   3 1227.91   22.89
   2  -7  -3  878.70   25.51
  -2   7   3 1212.48   22.41
  -2   7   3 1194.00   23.01
  -2   7   3 1100.92   20.13
  -2   7   3 1142.77   23.83
   2  -7  -3 1002.98   22.41
   2  -7  -2    7.08    2.05
   2  -7  -2    5.72    2.17
   2  -7  -2    9.95    2.75
  -2   7   2    7.42    1.92
   2  -7  -2    5.24    2.29
  -2   7   2    7.46    1.86
   2  -7  -2    8.57    2.57
   2  -7  -2    6.38    2.05
  -2   7   2    9.40    1.99
  -2   7   2    8.73    1.87
  -2   7   2    9.07    2.00
   2  -7  -2    8.52    2.32
   2  -7  -2    8.27    2.09
   2  -7  -2    5.83    2.18
  -2   7   1   28.15    2.78
   2  -7  -1   24.37    4.54
   2  -7  -1   25.60    3.98
   2  -7  -1   23.52    3.93
  -2   7   1   28.70    3.45
   2  -7  -1   25.72    3.64
  -2   7   1   29.31    3.22
   2  -7  -1   26.10    4.19
  -2   7   1   25.61    3.10
  -2   7   1   21.18    3.02
   2  -7  -1   20.62    3.71
   2  -7  -1   24.18    3.69
   2  -7  -1   23.71    3.35
   2  -7   0  177.81    9.00
   2  -7   0  151.63    8.70
   2  -7   0  151.24    9.83
   2  -7   0  150.79    8.69
   2  -7   0  167.89   11.48
   2  -7   0  162.45    8.79
  -2   7   0  175.62    7.97
   2  -7   0  150.53    8.25
  -2   7   0  181.44    7.52
   2  -7   0  151.18   10.32
   2  -7   1   58.37    5.63
   2  -7   1   64.85    5.53
   2  -7   1   74.58    7.53
  -2   7  -1   76.30    4.86
  -2   7  -1   67.86    4.85
   2  -7   1   66.82    6.99
   2  -7   1   65.18    5.21
   2  -7   1   64.26    5.60
   2  -7   1   62.45    5.14
   2  -7   1   76.46    5.83
   2  -7   1   59.18    4.82
   2  -7   2  451.72   14.68
  -2   7  -2  428.54   12.78
  -2   7  -2  460.97   11.78
   2  -7   2  454.10   14.28
   2  -7   2  457.62   18.20
   2  -7   2  382.53   13.25
  -2   7  -2  415.58   13.15
  -2   7  -2  461.87   12.67
   2  -7   2  405.28   13.03
   2  -7   2  406.73   14.74
   2  -7   2  407.86   12.96
   2  -7   2  449.76   13.57
   2  -7   2  397.07   16.92
   2  -7   2  368.99   13.20
  -2   7  -3  210.08    8.23
   2  -7   3  202.08    9.67
   2  -7   3  159.81    9.62
   2  -7   3  205.81    8.87
   2  -7   3  189.03   11.37
  -2   7  -3  201.80    7.59
   2  -7   3  167.12    7.85
  -2   7  -3  203.22    8.56
   2  -7   3  205.57    9.43
   2  -7   3  191.47    8.57
  -2   7  -3  198.56    8.60
   2  -7   4   53.24    4.83
   2  -7   4   52.77    4.52
  -2   7  -4   59.09    4.49
  -2   7  -4   58.86    4.68
  -2   7  -4   58.99    4.30
   2  -7   4   55.07    5.79
   2  -7   4   60.31    5.00
   2  -7   4   53.73    4.30
   2  -7   4   52.92    5.42
  -2   7  -5   28.62    3.25
  -2   7  -5   30.59    3.14
   2  -7   5   43.14    3.82
  -2   7  -5   27.70    2.90
   2  -7   5   29.47    3.31
  -2   7  -5   31.01    3.27
   2  -7   5   29.29    3.91
   2  -7   5   30.78    3.04
   2  -7   5   30.64    3.88
   2  -7   5   31.27    3.37
  -2   7  -6  128.77    5.98
   2  -7   6  171.06    8.43
  -2   7  -6  144.40    6.20
   2  -7   6  170.60    8.18
  -2   7  -6  129.77    6.24
   2  -7   6  155.21    5.88
  -2   7  -6  146.42    6.41
  -2   7  -7   60.68    3.76
   2  -7   7   56.87    2.48
   2  -6  -9  179.94    6.37
   2  -6  -9  177.94    5.37
  -2   6   8   66.52    4.33
   2  -6  -8   53.26    4.38
  -2   6   8   56.89    3.61
   2  -6  -8   61.90    5.72
   2  -6  -8   56.72    5.42
  -2   6   8   57.96    4.05
   2  -6  -8   55.83    4.56
  -2   6   8   47.91    3.52
   2  -6  -8   56.07    3.84
  -2   6   8   54.92    4.10
   2  -6  -7  318.44   14.75
   2  -6  -7  290.57   12.13
   2  -6  -7  304.05   13.15
  -2   6   7  324.74   11.08
   2  -6  -7  313.87   14.85
   2  -6  -7  312.42   14.49
  -2   6   7  309.10   10.47
  -2   6   7  328.27   10.69
  -2   6   7  316.87    9.57
   2  -6  -7  322.48   10.53
  -2   6   6   63.93    4.98
   2  -6  -6   56.89    6.89
   2  -6  -6   56.93    6.66
  -2   6   6   60.33    4.92
   2  -6  -6   52.39    5.72
  -2   6   6   57.96    5.07
   2  -6  -6   53.92    5.67
  -2   6   6   57.77    4.34
   2  -6  -6   61.02    6.60
  -2   6   6   65.48    5.10
   2  -6  -6   53.70    4.65
   2  -6  -5   85.22    8.75
   2  -6  -5   82.50    8.09
   2  -6  -5   86.08    8.53
   2  -6  -5   85.77    8.12
   2  -6  -5   82.38    8.18
  -2   6   5  100.02    6.52
  -2   6   5  106.13    6.83
  -2   6   5  100.33    5.51
  -2   6   5   96.25    6.23
  -2   6   5   88.40    5.43
   2  -6  -5   78.58    7.54
   2  -6  -5   88.78    6.22
   2  -6  -5   76.94    7.12
   2  -6  -4  697.76   24.63
   2  -6  -4  675.63   23.46
   2  -6  -4  645.07   21.98
  -2   6   4  702.38   16.80
   2  -6  -4  536.89   20.60
   2  -6  -4  637.85   21.18
  -2   6   4  825.79   18.78
  -2   6   4  767.82   15.73
  -2   6   4  775.98   17.60
   2  -6  -4  638.34   20.33
   2  -6  -4  701.78   18.06
   2  -6  -4  614.69   20.24
   2  -6  -4  629.56   20.99
   2  -6  -3 1067.04   26.61
   2  -6  -3 1063.42   28.56
  -2   6   3 1190.70   20.10
   2  -6  -3 1081.66   26.72
   2  -6  -3 1044.25   26.31
  -2   6   3 1340.02   23.34
   2  -6  -3  972.70   24.39
   2  -6  -3  997.39   24.08
  -2   6   3 1266.53   22.46
  -2   6   3 1443.06   27.20
   2  -6  -3 1059.72   29.74
   2  -6  -3  923.52   25.58
  -2   6   3 1186.31   21.70
   2  -6  -3 1181.30   23.68
  -2   6   2  145.52    8.15
  -2   6   2  126.68    6.32
   2  -6  -2   91.80    7.69
   2  -6  -2  119.73    8.64
   2  -6  -2  111.91    7.72
   2  -6  -2  105.79    7.86
   2  -6  -2  109.05    9.09
   2  -6  -2  122.48    7.48
   2  -6  -1   18.75    3.48
   2  -6  -1   18.03    3.39
   2  -6  -1   23.40    3.05
  -2   6   1   23.04    2.75
   2  -6  -1   20.81    3.44
  -2   6   1   24.97    3.00
   2  -6  -1   21.61    3.35
   2  -6  -1   25.48    4.36
  -2   6   1   21.56    3.03
   2  -6  -1   16.96    3.31
   2  -6  -1   19.42    3.53
   2  -6  -1   22.15    3.46
   2  -6  -1   18.03    2.80
   2  -6  -1   22.67    3.02
  -2   6   1   22.84    2.43
   2  -6   0  206.49    9.19
   2  -6   0  173.63    9.27
   2  -6   0  170.67   10.97
   2  -6   0  178.70    8.79
   2  -6   0  159.57    9.74
   2  -6   0  211.37    9.16
   2  -6   0  173.18    9.60
  -2   6   0  203.56    7.67
  -2   6   0  217.09    7.55
   2  -6   0  177.22   10.06
   2  -6   0  213.76    9.10
   2  -6   0  170.47   10.69
   2  -6   0  178.25    9.19
   2  -6   0  169.06    8.39
   2  -6   1  746.93   17.98
   2  -6   1  621.28   16.29
  -2   6  -1  720.76   15.10
  -2   6  -1  799.18   15.68
   2  -6   1  761.51   17.30
   2  -6   1  570.39   17.64
   2  -6   1  580.52   15.63
   2  -6   1  638.60   21.20
   2  -6   1  666.34   21.49
   2  -6   1  755.65   17.62
   2  -6   1  699.14   17.31
   2  -6   1  727.22   17.05
   2  -6   2  245.22   10.44
   2  -6   2  214.79    9.57
   2  -6   2  245.57   12.64
  -2   6  -2  251.59    9.37
  -2   6  -2  251.30   10.42
  -2   6  -2  245.47    8.21
   2  -6   2  263.45   10.14
   2  -6   2  212.69    8.80
  -2   6  -2  273.99    9.59
   2  -6   2  182.67    8.97
   2  -6   2  209.35   10.25
   2  -6   2  232.30    9.23
   2  -6   2  261.64   10.37
   2  -6   2  197.76    8.94
  -2   6  -2  220.44    8.76
   2  -6   3  109.56    6.35
  -2   6  -3  137.75    7.26
   2  -6   3  104.21    6.77
  -2   6  -3  113.66    6.01
   2  -6   3  124.30    6.83
   2  -6   3  132.10    7.50
  -2   6  -3  113.06    6.43
   2  -6   3  115.77    8.85
   2  -6   3  123.12    7.52
   2  -6   3  108.87    6.41
   2  -6   3  135.73    7.39
   2  -6   3  112.64    6.76
   2  -6   3  127.38    7.06
   2  -6   4  861.89   20.59
   2  -6   4  850.85   19.18
  -2   6  -4  856.41   19.55
   2  -6   4  969.48   20.89
   2  -6   4  871.74   23.67
   2  -6   4  794.81   17.52
   2  -6   4  830.38   17.78
  -2   6  -4  917.93   19.01
  -2   6  -4  919.98   19.86
   2  -6   4  860.17   18.48
   2  -6   4  943.08   19.70
   2  -6   4  751.42   20.91
  -2   6  -4  845.27   18.56
   2  -6   5  148.40    7.90
   2  -6   5  161.95    8.48
  -2   6  -5  145.91    7.82
  -2   6  -5  147.23    8.01
   2  -6   5  169.95    7.98
   2  -6   5  158.11    8.25
   2  -6   5  150.43    9.20
   2  -6   5  169.48    7.84
   2  -6   5  143.35    8.84
  -2   6  -5  141.18    7.49
   2  -6   6  257.67    9.94
  -2   6  -6  254.54    9.91
   2  -6   6  252.76    9.82
  -2   6  -6  231.19    9.64
   2  -6   6  241.55    9.89
   2  -6   6  259.37   11.36
   2  -6   6  269.50   10.23
   2  -6   6  282.67    9.47
  -2   6  -6  245.02    9.47
  -2   6  -7    9.51    1.85
   2  -6   7   14.75    2.37
  -2   6  -7   11.87    1.90
   2  -6   7   11.91    1.77
  -2   6  -7    8.59    1.80
   2  -6   7   14.79    2.36
  -2   6  -7   14.17    2.29
   2  -6   7   13.85    2.55
  -2   6  -8   25.73    2.57
  -2   6  -8   23.41    2.46
  -2   6  -8   23.06    2.47
   2  -6   8   23.11    2.48
   2  -5  -9  135.33    7.96
  -2   5   9  124.70    5.86
   2  -5  -9  130.19    7.79
   2  -5  -9  120.98    6.03
  -2   5   9  120.92    5.01
  -2   5   9  115.93    5.20
   2  -5  -8    4.81    1.34
  -2   5   8    4.17    1.32
   2  -5  -8    6.32    1.91
   2  -5  -8    5.05    1.55
   2  -5  -8    2.01    1.42
   2  -5  -8    4.72    1.93
  -2   5   8    4.46    1.43
  -2   5   8    4.68    1.22
  -2   5   8    2.59    1.10
   2  -5  -8    4.80    1.62
   2  -5  -7  525.47   19.16
   2  -5  -7  526.96   14.15
  -2   5   7  452.02   14.85
   2  -5  -7  521.69   21.17
  -2   5   7  511.72   12.92
  -2   5   7  596.90   15.45
  -2   5   7  505.46   14.50
  -2   5   7  534.24   15.08
  -2   5   7  551.09   14.59
   2  -5  -7  466.57   15.59
   2  -5  -6  220.02    9.42
   2  -5  -6  199.53   13.07
   2  -5  -6  209.24   12.23
   2  -5  -6  211.67   12.95
   2  -5  -6  216.21   13.93
   2  -5  -6  220.36   14.01
  -2   5   6  215.40   10.39
   2  -5  -6  198.82   11.20
  -2   5   6  237.91   10.30
  -2   5   6  215.35    8.55
  -2   5   6  239.11   10.07
  -2   5   6  244.74    9.81
   2  -5  -6  201.03   10.69
  -2   5   5  122.89    6.08
   2  -5  -5   94.45    8.74
   2  -5  -5   96.20    8.03
  -2   5   5  114.57    7.09
   2  -5  -5   81.37    7.42
  -2   5   5  121.49    7.08
   2  -5  -5  114.67    6.81
  -2   5   5  123.69    6.79
  -2   5   5  107.41    5.80
   2  -5  -5  106.12    9.55
   2  -5  -5  110.87    7.46
   2  -5  -5   91.67    7.13
   2  -5  -5  109.98    9.67
  -2   5   4   58.10    4.05
   2  -5  -4   50.08    6.32
   2  -5  -4   49.81    6.02
   2  -5  -4   41.20    4.42
   2  -5  -4   47.86    5.93
  -2   5   4   61.09    4.99
   2  -5  -4   44.11    5.39
  -2   5   4   53.73    4.38
   2  -5  -4   40.73    4.88
   2  -5  -4   52.10    4.56
  -2   5   4   55.14    4.36
   2  -5  -4   45.58    5.35
  -2   5   3   34.02    3.57
  -2   5   3   45.17    3.73
   2  -5  -3   40.62    4.68
  -2   5   3   35.02    3.62
   2  -5  -3   43.02    5.28
   2  -5  -3   39.02    5.28
   2  -5  -3   39.09    4.96
  -2   5   3   36.62    3.63
  -2   5   3   38.86    3.80
   2  -5  -3   47.85    4.59
   2  -5  -3   49.59    4.71
  -2   5   3   33.57    3.60
   2  -5  -3   44.66    4.15
   2  -5  -3   46.13    5.29
  -2   5   3   49.53    3.65
  -2   5   3   46.35    3.15
   2  -5  -3   48.64    4.57
   2  -5  -3   49.07    4.44
   2  -5  -3   47.65    4.70
   2  -5  -3   37.55    4.54
  -2   5   3   41.51    3.63
   2  -5  -3   37.45    4.80
  -2   5   3   44.17    3.79
   2  -5  -3   43.90    4.54
   2  -5  -3   31.29    4.14
   2  -5  -2   75.47    5.59
  -2   5   2   72.98    5.05
   2  -5  -2   36.62    3.33
   2  -5  -2   99.20    6.33
  -2   5   2   79.92    5.30
   2  -5  -2   31.94    3.77
   2  -5  -2   81.91    6.22
  -2   5   2   76.11    5.06
   2  -5  -2   36.09    4.54
  -2   5   2   36.04    3.06
   2  -5  -2   32.75    3.98
   2  -5  -2   32.52    4.12
   2  -5  -2   29.74    3.78
   2  -5  -2   86.58    6.02
   2  -5  -2   84.62    5.58
   2  -5  -2   34.49    4.97
   2  -5  -2   27.43    3.75
  -2   5   2   61.57    4.49
  -2   5   2   37.00    2.61
   2  -5  -2  104.59    6.63
  -2   5   2   71.91    5.01
  -2   5   2   69.06    4.79
   2  -5  -2   31.27    4.44
  -2   5   2   35.16    3.18
  -2   5   2   36.80    2.84
  -2   5   1   47.73    4.05
  -2   5   1   49.44    4.15
  -2   5   1   48.06    4.10
   2  -5  -1   80.03    4.97
  -2   5   1   52.74    4.06
   2  -5  -1   55.43    4.69
  -2   5   1   70.97    3.77
   2  -5  -1   62.61    5.14
  -2   5   1   71.28    4.56
   2  -5  -1   59.69    6.19
  -2   5   1   67.40    3.76
   2  -5  -1   56.61    4.88
  -2   5   1   44.99    3.97
   2  -5  -1   53.06    5.07
  -2   5   1   64.63    3.97
  -2   5   1   68.74    3.94
  -2   5   1   48.93    4.12
   2  -5  -1   58.57    5.08
   2  -5  -1   72.15    4.75
   2  -5  -1   54.50    4.90
   2  -5  -1   55.77    5.03
   2  -5  -1   55.38    4.74
   2  -5  -1   70.04    4.86
  -2   5   1   61.63    3.58
   2  -5   0 1732.51   28.58
   2  -5   0 1966.65   27.12
   2  -5   0 1681.70   29.18
  -2   5   0 1959.76   23.83
  -2   5   0 1997.02   23.48
   2  -5   0 2020.09   26.92
   2  -5   0 1629.88   27.26
  -2   5   0 1557.92   24.93
   2  -5   0 1923.63   33.84
  -2   5   0 1542.54   24.81
  -2   5   0 2128.10   24.26
   2  -5   0 1693.88   29.17
  -2   5   0 1691.36   24.09
  -2   5   0 1482.69   24.54
  -2   5   0 1567.34   25.10
   2  -5   0 1861.12   27.67
   2  -5   0 1680.23   28.43
   2  -5   0 2004.55   26.72
   2  -5   0 1768.30   28.31
  -2   5   0 1552.04   24.97
   2  -5   0 1747.44   27.32
   2  -5   0 1752.76   28.14
  -2   5   0 1551.24   23.73
   2  -5   0 2062.67   27.31
   2  -5   0 1684.13   28.75
  -2   5   0 1678.18   21.99
   2  -5   1   41.59    4.23
   2  -5   1   40.85    3.92
   2  -5   1   42.76    3.97
   2  -5   1   38.52    3.90
   2  -5   1   48.88    4.04
  -2   5  -1   38.83    3.77
   2  -5   1   49.98    4.06
  -2   5  -1   41.71    3.89
  -2   5  -1   46.43    3.51
   2  -5   1   52.20    4.02
  -2   5  -1   40.28    3.89
  -2   5  -1   49.71    3.65
  -2   5  -1   45.15    3.73
   2  -5   1   41.78    4.40
  -2   5  -1   40.18    3.51
  -2   5  -1   40.27    3.76
   2  -5   1   42.99    4.15
   2  -5   1   43.63    4.27
   2  -5   1   48.44    4.35
  -2   5  -1   42.23    3.93
   2  -5   1   42.72    4.18
  -2   5  -1   40.36    3.78
   2  -5   1   43.71    4.24
   2  -5   1   43.87    4.12
   2  -5   1   57.58    4.48
  -2   5  -1   41.62    3.29
  -2   5  -1   47.04    3.04
   2  -5   1   52.08    4.08
   2  -5   2  919.52   20.00
  -2   5  -2  906.15   18.09
  -2   5  -2  953.52   19.95
   2  -5   2  948.77   19.92
   2  -5   2 1056.65   18.85
   2  -5   2  947.51   20.33
   2  -5   2 1102.96   19.96
   2  -5   2 1067.97   19.21
  -2   5  -2  971.90   19.86
   2  -5   2  951.03   20.22
  -2   5  -2  913.97   19.41
  -2   5  -2 1117.71   19.38
  -2   5  -2  921.71   19.40
   2  -5   2  871.63   19.61
   2  -5   2 1090.58   19.56
   2  -5   2 1024.02   20.29
   2  -5   2  971.22   20.60
  -2   5  -2 1064.44   19.20
  -2   5  -2  923.28   19.42
  -2   5  -2  894.79   17.74
   2  -5   2  968.59   19.97
  -2   5  -2 1020.29   16.82
   2  -5   2  966.56   17.67
  -2   5  -2  876.99   16.72
  -2   5  -3   11.46    2.18
   2  -5   3   13.07    2.37
   2  -5   3   10.52    2.01
   2  -5   3   13.67    2.09
  -2   5  -3    7.80    1.73
  -2   5  -3    9.17    1.72
  -2   5  -3   10.38    2.11
  -2   5  -3    8.63    1.92
   2  -5   3    7.88    1.90
   2  -5   3    8.63    1.93
   2  -5   3    7.87    1.80
   2  -5   3   10.36    2.31
   2  -5   3    8.35    1.94
   2  -5   3    7.57    1.67
   2  -5   3    8.49    2.30
  -2   5  -3    8.54    1.90
  -2   5  -3    9.00    1.91
   2  -5   3    7.84    2.11
   2  -5   3    8.06    1.89
   2  -5   3    7.80    1.77
  -2   5  -3    9.00    1.98
   2  -5   3    9.10    2.02
   2  -5   3    8.03    1.69
   2  -5   3    8.03    1.64
  -2   5  -3    6.02    1.45
   2  -5   4  678.79   16.16
  -2   5  -4  621.90   15.81
   2  -5   4  710.36   15.23
   2  -5   4  702.84   17.79
   2  -5   4  712.50   16.65
   2  -5   4  701.76   16.31
   2  -5   4  731.07   17.41
   2  -5   4  696.12   16.43
   2  -5   4  565.25   16.98
   2  -5   4  630.52   15.06
   2  -5   4  623.48   15.12
   2  -5   4  629.39   19.12
  -2   5  -4  590.58   14.70
  -2   5  -5  748.80   18.71
  -2   5  -5  726.14   15.04
  -2   5  -5  652.14   17.05
  -2   5  -5  714.04   17.47
  -2   5  -5  678.94   16.19
   2  -5   5  647.47   18.95
   2  -5   5  786.05   18.72
   2  -5   5  762.87   17.86
   2  -5   5  661.92   18.76
   2  -5   5  747.75   16.17
   2  -5   5  781.70   19.12
   2  -5   5  737.35   16.69
   2  -5   5  769.69   17.67
   2  -5   5  725.36   17.60
  -2   5  -6  374.33   11.02
  -2   5  -6  357.46   12.77
   2  -5   6  382.24   14.36
   2  -5   6  428.73   13.05
   2  -5   6  388.97   13.35
  -2   5  -6  398.88   13.52
  -2   5  -6  388.43   13.63
   2  -5   6  456.62   12.88
   2  -5   6  404.79   14.20
  -2   5  -6  362.45   11.99
  -2   5  -7   43.82    3.95
   2  -5   7   46.09    4.14
  -2   5  -7   38.76    3.53
  -2   5  -7   47.46    4.54
  -2   5  -7   41.80    4.43
  -2   5  -7   41.73    4.30
   2  -5   7   43.74    4.21
   2  -5   7   48.96    4.42
   2  -5   7   47.14    4.53
   2  -5   7   49.01    4.39
   2  -5   7   46.42    3.87
   2  -5   7   52.80    5.19
  -2   5  -8    0.77    0.63
   2  -5   8    1.37    0.81
  -2   5  -8    1.39    0.89
  -2   5  -8    1.45    0.98
   2  -5   8    2.64    1.17
  -2   5  -8    1.21    0.98
   2  -5   8    0.69    0.61
  -2   5  -9  214.15    7.89
  -2   5  -9  220.26    7.45
   2  -5   9  203.55    7.31
   2  -4 -10  123.12    5.01
   2  -4 -10  128.00    3.75
  -2   4   9   63.89    4.11
   2  -4  -9   72.33    6.29
  -2   4   9   66.09    4.47
   2  -4  -9   79.43    6.76
  -2   4   9   63.59    4.56
  -2   4   9   72.41    4.24
   2  -4  -9   75.83    5.13
   2  -4  -9   81.79    4.50
  -2   4   9   73.72    4.93
  -2   4   9   71.81    4.68
   2  -4  -8  247.31   11.03
   2  -4  -8  260.71   14.23
  -2   4   8  222.87   10.56
  -2   4   8  228.40    9.85
   2  -4  -8  242.27   13.96
  -2   4   8  233.64    8.65
   2  -4  -8  237.80   10.16
  -2   4   8  245.23   10.01
  -2   4   7   22.03    2.76
   2  -4  -7   20.90    3.83
   2  -4  -7   23.01    3.62
   2  -4  -7   20.05    4.39
   2  -4  -7   25.50    3.95
   2  -4  -7   24.85    4.22
  -2   4   7   22.66    3.56
   2  -4  -7   23.25    3.61
   2  -4  -7   22.28    4.57
  -2   4   7   24.49    3.26
   2  -4  -7   20.29    3.26
  -2   4   7   22.31    3.31
  -2   4   7   32.85    3.75
   2  -4  -6   35.09    3.74
  -2   4   6   38.04    3.94
   2  -4  -6   30.50    4.33
   2  -4  -6   32.10    4.03
   2  -4  -6   34.52    5.04
   2  -4  -6   32.73    4.47
  -2   4   6   37.44    3.44
  -2   4   6   30.96    2.63
   2  -4  -6   30.77    5.37
   2  -4  -6   36.05    5.05
   2  -4  -6   34.48    5.58
  -2   4   6   34.08    4.24
  -2   4   6   37.58    3.49
  -2   4   6   38.09    4.09
   2  -4  -5 1279.78   31.41
   2  -4  -5 1279.94   28.31
   2  -4  -5 1285.45   30.77
   2  -4  -5 1299.33   27.48
   2  -4  -5 1225.60   23.53
  -2   4   5 1567.43   24.55
   2  -4  -5 1238.23   27.56
   2  -4  -5 1325.21   33.35
   2  -4  -5 1395.73   30.34
   2  -4  -5 1388.74   34.01
   2  -4  -5 1250.55   25.73
  -2   4   5 1415.77   21.57
  -2   4   5 1531.52   25.15
  -2   4   5 1511.44   25.17
   2  -4  -5 1394.83   23.53
  -2   4   5 1478.59   21.80
  -2   4   4  100.39    5.13
   2  -4  -4   75.91    5.72
   2  -4  -4   91.36    5.74
  -2   4   4   91.44    5.52
   2  -4  -4   85.68    7.48
  -2   4   4  104.54    5.75
   2  -4  -4   78.77    6.38
   2  -4  -4   91.77    6.82
   2  -4  -4   90.97    5.62
   2  -4  -4   85.54    7.60
   2  -4  -4   83.85    7.51
  -2   4   4   99.34    5.61
   2  -4  -4   89.49    5.83
  -2   4   4   85.07    5.47
   2  -4  -4   91.58    5.66
   2  -4  -4   93.74    6.09
   2  -4  -4   87.02    7.32
  -2   4   4   86.23    5.38
  -2   4   4   93.45    5.35
  -2   4   4   85.86    5.36
  -2   4   4   96.56    4.92
  -2   4   4   87.72    4.05
  -2   4   4   83.98    5.38
   2  -4  -4   96.85    6.92
   2  -4  -3   18.51    3.36
   2  -4  -3   12.42    2.90
   2  -4  -3   14.70    2.85
   2  -4  -3    8.90    2.05
   2  -4  -3   15.25    2.93
  -2   4   3   12.41    1.97
  -2   4   3   11.19    1.76
   2  -4  -3   10.08    1.96
  -2   4   3   11.37    1.40
  -2   4   3    9.81    1.57
  -2   4   3   10.16    1.72
   2  -4  -2  160.05    8.20
   2  -4  -2  160.08    8.89
   2  -4  -2  160.28    7.83
   2  -4  -2  164.85    8.58
   2  -4  -2  195.59    6.58
   2  -4  -2  175.21    6.96
   2  -4  -2  178.68    8.09
   2  -4  -2  184.00   10.36
  -2   4   2  181.43    6.19
   2  -4  -2  165.46    8.53
  -2   4   2  197.07    7.11
  -2   4   2  197.22    5.73
   2  -4  -2  200.02    7.84
   2  -4  -2  167.63    7.62
  -2   4   2  200.39    6.70
  -2   4   2  192.40    6.71
   2  -4  -1  321.56    8.80
   2  -4  -1  282.12   10.79
   2  -4  -1  277.99    9.97
  -2   4   1  341.43    7.60
   2  -4  -1  312.82   10.94
  -2   4   1  338.98    8.98
   2  -4  -1  324.48   13.05
   2  -4  -1  313.26    9.87
  -2   4   1  310.15    7.80
   2  -4  -1  325.38    8.84
  -2   4   1  300.97    7.34
  -2   4   1  342.04    7.54
  -2   4   1  343.77    8.82
   2  -4  -1  332.70   10.36
   2  -4  -1  333.59    9.47
   2  -4   0  273.19    9.86
   2  -4   0  285.92    9.62
  -2   4   0  305.42    8.35
   2  -4   0  302.59   11.76
   2  -4   0  319.39    8.98
   2  -4   0  263.68    9.30
   2  -4   0  316.39    8.71
   2  -4   0  297.66    9.31
  -2   4   0  274.26    8.08
   2  -4   0  334.85    9.17
   2  -4   0  284.20    7.03
   2  -4   0  320.37    9.09
  -2   4   0  279.65    7.24
  -2   4  -1  121.86    5.43
   2  -4   1  142.09    6.16
   2  -4   1  133.29    5.29
   2  -4   1  124.42    5.86
   2  -4   1  148.21    6.30
  -2   4  -1  121.53    5.03
   2  -4   1  141.45    5.90
  -2   4  -1  115.11    4.81
  -2   4  -1  139.39    5.53
   2  -4   1  139.24    5.89
  -2   4  -1  134.22    5.70
  -2   4  -1  148.93    5.79
   2  -4   1  140.58    5.99
   2  -4   2  251.99    8.96
  -2   4  -2  251.97    8.08
   2  -4   2  302.43    8.95
  -2   4  -2  244.69    7.76
   2  -4   2  278.06    8.56
  -2   4  -2  252.05    7.35
   2  -4   2  283.89    8.68
  -2   4  -2  280.60    8.73
  -2   4  -2  270.11    8.34
   2  -4   2  282.06    8.77
   2  -4   2  308.63    9.53
  -2   4  -2  268.94    8.61
  -2   4  -2  220.68    7.09
   2  -4   3   45.29    3.42
   2  -4   3   53.37    4.35
   2  -4   3   61.38    4.45
   2  -4   3   53.75    3.79
  -2   4  -3   51.49    4.02
   2  -4   3   54.18    4.43
   2  -4   3   53.50    4.43
   2  -4   3   68.69    4.26
  -2   4  -3   47.37    3.69
   2  -4   3   57.12    4.01
   2  -4   3   59.23    4.08
   2  -4   3   64.04    4.40
   2  -4   3   56.88    4.61
  -2   4  -3   54.40    3.95
   2  -4   3   59.18    4.57
  -2   4  -3   61.42    4.69
  -2   4  -3   59.99    4.59
  -2   4  -3   55.92    4.44
  -2   4  -3   55.21    4.02
  -2   4  -3   60.81    4.36
   2  -4   3   56.94    4.08
  -2   4  -3   56.79    4.47
  -2   4  -3   58.13    4.56
   2  -4   3   58.47    4.11
  -2   4  -3   46.58    4.01
   2  -4   4  492.51   12.56
   2  -4   4  495.88   13.30
  -2   4  -4  433.75   13.22
   2  -4   4  430.67   13.20
  -2   4  -4  406.78   11.80
   2  -4   4  512.41   12.23
  -2   4  -4  466.35   13.27
  -2   4  -4  433.36   10.65
   2  -4   4  481.30   12.59
  -2   4  -4  530.82   11.99
   2  -4   4  449.87   13.45
  -2   4  -4  445.99   12.27
   2  -4   4  432.82   13.23
  -2   4  -4  444.77   13.62
  -2   4  -4  435.25   13.24
  -2   4  -4  428.69   13.06
   2  -4   4  446.62   13.62
   2  -4   4  442.31   13.45
   2  -4   4  464.51   11.18
   2  -4   4  466.95   12.29
  -2   4  -4  437.53   13.34
   2  -4   4  419.09   11.38
  -2   4  -4  531.82   14.00
  -2   4  -4  435.63   13.30
  -2   4  -4  457.62   12.11
   2  -4   4  480.44   12.81
   2  -4   4  493.20   13.43
   2  -4   4  445.58   13.46
  -2   4  -4  435.54   12.17
  -2   4  -4  398.54   12.54
   2  -4   5 1007.24   20.73
  -2   4  -5  968.23   18.47
  -2   4  -5  850.70   18.47
  -2   4  -5 1040.39   18.51
   2  -4   5  989.87   18.56
   2  -4   5 1008.65   18.03
   2  -4   5  877.70   20.43
   2  -4   5  938.77   15.81
  -2   4  -5  839.79   17.13
  -2   4  -5  941.87   20.71
   2  -4   5 1002.20   19.60
  -2   4  -5  991.98   17.97
   2  -4   5  995.58   19.78
   2  -4   5  908.30   17.37
   2  -4   5  992.99   20.20
   2  -4   5  930.96   21.40
   2  -4   5 1024.39   18.90
  -2   4  -5  932.62   19.74
  -2   4  -6  197.53    9.82
  -2   4  -6  198.39    8.66
  -2   4  -6  182.91    8.85
   2  -4   6  189.62    7.93
   2  -4   6  196.99    7.60
   2  -4   6  221.15    9.46
  -2   4  -6  205.10    8.73
   2  -4   6  197.89    9.98
  -2   4  -6  200.46    8.49
   2  -4   6  230.54    9.89
   2  -4   6  212.25    9.53
   2  -4   6  215.22    8.77
  -2   4  -6  200.65    9.27
   2  -4   6  185.70    9.03
   2  -4   6  215.99    8.15
   2  -4   6  235.35    9.55
   2  -4   7   14.13    2.46
  -2   4  -7   13.91    2.48
  -2   4  -7   13.19    2.46
   2  -4   7   10.67    1.90
  -2   4  -7   12.95    2.68
   2  -4   7   13.45    2.40
  -2   4  -7   14.45    2.40
  -2   4  -7   10.71    2.04
   2  -4   7   11.16    2.28
  -2   4  -7   12.25    2.48
   2  -4   7   12.98    2.59
   2  -4   7   14.76    2.89
   2  -4   7   16.51    2.45
   2  -4   7   10.50    2.01
   2  -4   7   15.52    2.55
  -2   4  -7   13.07    2.25
   2  -4   8    1.27    0.89
  -2   4  -8    0.31    0.65
  -2   4  -8    2.76    1.26
   2  -4   8    0.12    0.74
   2  -4   8    0.16    0.49
  -2   4  -8    0.55    0.77
  -2   4  -8    0.28    0.69
   2  -4   8    0.93    0.93
  -2   4  -8    0.38    0.74
  -2   4  -8    0.29    0.62
   2  -4   8   -0.08    0.50
   2  -4   8    0.85    0.80
   2  -4   8   -0.09    0.58
   2  -4   8    0.13    0.94
   2  -4   8    0.29    0.57
  -2   4  -9  396.77   12.74
  -2   4  -9  396.73   11.40
   2  -4   9  408.35   11.52
  -2   4  -9  344.51    9.73
  -2   4  -9  346.93    9.84
  -2   4  -9  432.87   12.36
   2  -4   9  390.13   11.93
  -2   4  -9  390.33   11.46
  -2   4 -10  177.93    6.71
   2  -4  10  167.33    6.24
  -2   3  10    9.07    1.52
   2  -3 -10    7.66    0.98
  -2   3  10    7.31    1.19
   2  -3 -10    8.59    1.49
   2  -3  -9 1167.20   18.02
  -2   3   9  904.30   18.94
   2  -3  -9 1044.56   25.11
  -2   3   9  917.44   20.45
   2  -3  -9 1071.49   20.18
  -2   3   9  951.66   17.09
  -2   3   9  979.41   19.00
  -2   3   9  998.27   19.52
   2  -3  -8  139.05    6.86
   2  -3  -8  103.33    5.89
   2  -3  -8  125.38    7.55
  -2   3   8  110.09    6.45
   2  -3  -8  121.35    9.67
   2  -3  -8  126.73    9.76
   2  -3  -8  120.32    9.85
  -2   3   8  114.24    8.05
  -2   3   8  113.66    6.22
  -2   3   8  114.42    7.33
   2  -3  -8  115.99    7.13
  -2   3   8  112.34    7.25
   2  -3  -7   15.71    2.46
   2  -3  -7   11.61    2.40
   2  -3  -7   11.78    2.74
   2  -3  -7   15.46    3.51
  -2   3   7   14.56    2.63
   2  -3  -7   19.89    4.20
   2  -3  -7   10.08    2.48
   2  -3  -7   16.47    3.75
   2  -3  -7   15.04    3.84
  -2   3   7   13.14    2.90
  -2   3   7   27.13    3.03
  -2   3   7   11.60    1.56
   2  -3  -7   17.36    3.24
   2  -3  -7   14.14    2.82
  -2   3   7   11.79    2.11
  -2   3   7   13.60    2.50
   2  -3  -7   11.53    2.40
   2  -3  -6    8.65    2.74
  -2   3   6    8.09    1.78
   2  -3  -6    9.04    2.47
   2  -3  -6    8.99    2.26
   2  -3  -6    8.12    2.36
   2  -3  -6    9.79    2.73
   2  -3  -6   10.94    3.06
   2  -3  -6    9.59    2.86
  -2   3   6    9.10    1.41
   2  -3  -6   12.95    2.80
  -2   3   6    8.29    1.97
  -2   3   6    9.13    1.78
   2  -3  -6    7.89    2.15
  -2   3   6   11.07    2.20
   2  -3  -6    9.21    2.12
   2  -3  -5 1406.96   27.76
   2  -3  -5 1310.22   31.30
   2  -3  -5 1161.09   25.44
   2  -3  -5 1481.46   32.36
   2  -3  -5 1383.59   32.70
  -2   3   5 1375.34   25.74
  -2   3   5 1463.60   24.40
  -2   3   5 1502.07   21.99
  -2   3   5 1397.64   17.65
  -2   3   5 1658.54   25.09
  -2   3   5 1509.85   20.26
   2  -3  -5 1432.05   25.41
  -2   3   5 1626.05   25.12
  -2   3   5 1504.76   22.37
   2  -3  -5 1420.29   30.40
  -2   3   4    2.10    0.95
   2  -3  -4    2.57    0.94
  -2   3   4    2.20    1.00
   2  -3  -4    1.69    1.07
   2  -3  -4    1.74    1.19
  -2   3   4    2.74    0.96
   2  -3  -4    3.06    1.47
   2  -3  -4    1.57    0.79
   2  -3  -4    5.33    1.74
   2  -3  -4    2.87    1.03
  -2   3   4    3.59    1.19
   2  -3  -4    1.05    0.98
   2  -3  -4    1.92    0.82
  -2   3   4    3.92    1.05
   2  -3  -4    2.48    1.03
   2  -3  -4    1.73    1.22
   2  -3  -4    2.34    0.97
   2  -3  -4    1.74    1.09
  -2   3   4    1.96    0.90
  -2   3   4    2.87    1.00
  -2   3   4    2.35    0.92
  -2   3   4    4.72    1.27
  -2   3   4    2.36    0.91
   2  -3  -4    2.03    0.92
  -2   3   4    2.38    0.73
  -2   3   4    6.82    1.10
  -2   3   4    2.64    0.97
  -2   3   4    3.81    1.19
  -2   3   4    2.20    0.86
  -2   3   3   75.87    4.54
   2  -3  -3   82.74    4.79
   2  -3  -3   61.24    5.34
   2  -3  -3   56.01    4.83
  -2   3   3   65.61    4.01
   2  -3  -3   58.81    4.54
  -2   3   3   77.45    4.58
   2  -3  -3   78.83    4.79
   2  -3  -3   62.34    5.45
  -2   3   3   82.26    4.68
  -2   3   3   77.48    4.55
  -2   3   3   86.34    4.53
   2  -3  -3   58.72    4.25
   2  -3  -3   72.56    4.01
  -2   3   3   75.91    4.53
  -2   3   3   72.71    4.58
  -2   3   3   77.56    4.34
   2  -3  -3   77.57    4.81
   2  -3  -3   77.44    4.93
   2  -3  -3   84.65    4.81
   2  -3  -3   55.88    3.96
  -2   3   3   78.27    3.76
  -2   3   3   75.51    3.18
   2  -3  -3   88.22    3.51
   2  -3  -3   69.60    5.60
  -2   3   3   80.91    4.08
   2  -3  -2 2552.23   28.13
  -2   3   2 2143.61   22.67
   2  -3  -2 1780.42   28.64
   2  -3  -2 1819.38   27.69
  -2   3   2 2178.16   25.79
   2  -3  -2 2010.18   27.02
  -2   3   2 2302.13   20.26
   2  -3  -2 1802.02   24.41
  -2   3   2 2386.46   25.47
   2  -3  -2 2526.22   28.36
  -2   3   2 2168.61   25.71
   2  -3  -2 2521.25   27.94
   2  -3  -2 2099.55   20.90
   2  -3  -2 2510.39   28.70
  -2   3   2 2103.98   25.68
  -2   3   2 2095.96   25.70
  -2   3   2 2280.31   24.22
   2  -3  -2 2197.86   26.37
   2  -3  -2 2481.88   29.15
  -2   3   2 2179.63   25.70
  -2   3   2 2370.54   25.37
   2  -3  -2 1944.99   23.53
  -2   3   1  972.96   15.59
   2  -3  -1 1059.29   16.72
   2  -3  -1 1114.22   17.32
  -2   3   1  975.83   15.67
  -2   3   1 1231.10   16.30
   2  -3  -1 1050.24   17.64
   2  -3  -1 1017.62   13.54
   2  -3  -1 1101.61   17.73
  -2   3   1  971.02   15.86
   2  -3  -1 1093.85   17.40
  -2   3   1 1097.89   12.45
  -2   3   1 1186.69   15.14
   2  -3  -1 1057.23   17.84
  -2   3   1  920.74   15.41
  -2   3   1  983.83   15.82
   2  -3   0 1415.95   22.69
  -2   3   0 1076.67   16.23
  -2   3   0 1138.38   17.30
  -2   3   0 1184.52   17.45
   2  -3   0 1248.18   18.88
  -2   3   0 1184.97   15.77
  -2   3   0 1348.79   16.50
  -2   3   0 1162.39   17.39
   2  -3   0 1065.72   16.84
   2  -3   0 1236.64   19.07
  -2   3   0 1293.15   14.72
  -2   3   0 1199.83   17.46
   2  -3   0 1180.74   18.81
   2  -3   0 1302.37   16.42
   2  -3   0 1234.23   19.77
  -2   3   0 1192.66   17.43
   2  -3   0 1261.96   18.86
   2  -3   1  205.55    7.22
   2  -3   1  212.06    7.78
  -2   3  -1  182.94    6.41
   2  -3   1  205.03    7.38
  -2   3  -1  185.31    6.46
   2  -3   1  205.03    7.34
   2  -3   1  196.23    7.04
  -2   3  -1  187.27    6.48
  -2   3  -1  178.17    6.37
  -2   3  -1  222.33    6.19
   2  -3   1  200.91    7.43
  -2   3  -1  184.50    6.43
  -2   3  -1  198.87    6.01
  -2   3  -1  203.98    6.21
   2  -3   1  214.59    7.03
   2  -3   1  234.14    8.74
  -2   3  -2   39.34    3.29
   2  -3   2   35.74    2.88
  -2   3  -2   36.22    3.08
   2  -3   2   37.91    3.30
   2  -3   2   36.94    3.23
  -2   3  -2   34.36    2.99
   2  -3   2   40.85    3.47
   2  -3   2   38.02    3.23
  -2   3  -2   36.96    2.69
  -2   3  -2   35.43    3.02
  -2   3  -2   33.20    2.89
   2  -3   2   37.56    3.29
  -2   3  -2   37.31    3.09
  -2   3  -2   36.58    2.67
  -2   3  -2   40.29    2.94
   2  -3   2   37.01    3.13
   2  -3   2   37.65    3.18
   2  -3   3  115.14    5.83
   2  -3   3  115.39    4.66
  -2   3  -3   98.57    4.72
   2  -3   3  122.72    5.22
  -2   3  -3  108.09    5.76
  -2   3  -3  110.96    5.76
  -2   3  -3  123.77    5.56
   2  -3   3  117.36    5.97
  -2   3  -3  111.70    5.81
  -2   3  -3  113.80    5.03
  -2   3  -3  125.26    5.50
   2  -3   3  122.92    5.52
   2  -3   3  123.51    6.19
   2  -3   3  113.77    5.85
  -2   3  -3  112.22    5.82
   2  -3   3  125.80    5.38
  -2   3  -3  115.20    5.47
  -2   3  -3  111.39    5.80
   2  -3   3  117.49    6.05
  -2   3  -3  119.58    5.20
   2  -3   3  118.73    5.10
   2  -3   4  961.98   15.05
  -2   3  -4  916.06   17.41
   2  -3   4  923.11   12.96
  -2   3  -4  945.81   15.97
  -2   3  -4  808.84   15.49
   2  -3   4 1022.20   16.87
   2  -3   4 1053.93   17.20
   2  -3   4  998.78   19.38
  -2   3  -4 1018.03   17.03
   2  -3   4  993.00   19.09
   2  -3   4  926.00   12.08
   2  -3   4  976.14   16.23
   2  -3   4 1041.72   17.08
  -2   3  -4  940.20   18.42
  -2   3  -4  910.33   18.35
   2  -3   4 1045.11   16.31
  -2   3  -4  934.38   15.81
   2  -3   4 1036.36   16.97
   2  -3   4 1011.02   17.87
  -2   3  -4  904.29   16.47
  -2   3  -4  946.42   18.64
   2  -3   4  964.26   18.82
   2  -3   4  952.10   18.98
  -2   3  -4  940.85   18.57
  -2   3  -4  972.33   19.12
   2  -3   4  951.48   18.75
  -2   3  -4 1060.38   18.14
   2  -3   4 1043.07   17.63
   2  -3   4  948.53   18.75
  -2   3  -4  951.95   18.90
  -2   3  -4 1037.04   17.08
  -2   3  -4  893.66   17.20
  -2   3  -4 1014.15   17.48
   2  -3   5  812.71   16.11
   2  -3   5  833.56   16.49
   2  -3   5  839.22   17.46
   2  -3   5  855.67   15.01
  -2   3  -5  770.44   16.09
  -2   3  -5  852.88   16.62
   2  -3   5  817.46   15.18
  -2   3  -5  647.69   14.87
   2  -3   5  769.06   14.46
  -2   3  -5  756.39   17.65
  -2   3  -5  741.10   17.46
   2  -3   5  797.24   16.24
  -2   3  -5  777.41   17.65
  -2   3  -5  815.60   17.16
   2  -3   5  829.60   15.07
  -2   3  -5  753.91   17.62
  -2   3  -5  793.94   16.48
   2  -3   5  804.56   16.69
  -2   3  -5  761.53   16.57
  -2   3  -5  719.55   17.47
   2  -3   5  794.23   18.15
   2  -3   5  767.11   17.82
   2  -3   5  769.30   17.93
  -2   3  -5  783.93   15.89
   2  -3   5  759.49   17.86
  -2   3  -5  735.90   17.48
   2  -3   5  844.17   17.09
   2  -3   5  785.92   18.35
  -2   3  -5  856.67   17.05
  -2   3  -5  742.70   16.38
   2  -3   5  888.40   16.49
  -2   3  -6    4.41    1.28
   2  -3   6    2.48    1.12
  -2   3  -6    3.11    1.26
  -2   3  -6    3.46    1.30
   2  -3   6    3.57    1.32
  -2   3  -6    2.53    1.24
   2  -3   6    4.02    1.24
   2  -3   6    2.89    1.15
  -2   3  -6    3.93    1.34
  -2   3  -6    2.66    1.08
   2  -3   6    4.14    1.24
   2  -3   6    3.02    1.07
  -2   3  -6    2.75    1.16
   2  -3   6    2.69    1.20
   2  -3   6    4.45    1.23
   2  -3   6    2.89    1.06
  -2   3  -7    2.20    0.95
   2  -3   7    5.76    1.50
   2  -3   7    3.54    1.34
   2  -3   7    4.25    1.28
  -2   3  -7    3.29    1.36
   2  -3   7    3.58    1.42
  -2   3  -7    1.77    1.02
  -2   3  -7    3.13    1.42
   2  -3   7    2.40    1.08
   2  -3   7    2.06    0.86
  -2   3  -7    0.58    0.82
   2  -3   7    2.06    0.97
   2  -3   7    3.65    1.31
   2  -3   7    4.02    1.39
   2  -3   7    2.65    1.26
   2  -3   7    2.94    1.13
   2  -3   7    3.70    1.53
   2  -3   8    9.06    2.01
   2  -3   8    7.93    1.81
  -2   3  -8   10.15    2.38
  -2   3  -8    7.68    1.99
   2  -3   8    6.16    1.78
  -2   3  -8    6.85    1.93
  -2   3  -8    5.95    1.73
  -2   3  -8    6.05    1.73
   2  -3   8    5.93    1.63
   2  -3   8    7.23    2.03
  -2   3  -8    4.84    1.64
   2  -3   8    9.06    2.03
   2  -3   8    5.16    1.46
   2  -3   8    5.60    1.46
   2  -3   8    7.71    2.14
   2  -3   9  798.85   18.85
  -2   3  -9  751.65   17.91
   2  -3   9  736.95   16.33
  -2   3  -9  765.07   16.93
   2  -3   9  696.65   15.23
   2  -3   9  800.58   18.13
  -2   3  -9  781.27   18.74
  -2   3  -9  792.93   18.53
  -2   3  -9  760.88   18.85
   2  -3   9  841.11   17.69
   2  -3   9  844.50   17.53
  -2   3 -10   80.21    5.16
   2  -3  10   80.33    4.77
   2  -3  10   71.07    3.81
   2  -3  10   68.76    3.94
  -2   3 -10   76.81    4.81
  -2   3 -10   86.90    5.53
  -2   3 -10   81.90    5.07
   2  -3  10   79.18    4.99
   2  -2 -10   16.13    2.49
  -2   2  10   12.80    1.64
   2  -2 -10   18.44    2.57
   2  -2 -10   15.59    1.99
  -2   2  10   15.79    2.05
   2  -2  -9  121.78    5.52
   2  -2  -9  111.80    8.19
  -2   2   9   96.90    5.45
   2  -2  -9   99.32    7.09
  -2   2   9   96.32    6.89
  -2   2   9   86.97    6.08
   2  -2  -9  103.79    7.53
  -2   2   9  108.57    6.48
   2  -2  -9  112.54    6.37
  -2   2   9   93.14    6.26
  -2   2   8    7.04    1.91
   2  -2  -8    5.80    2.34
   2  -2  -8    9.36    2.53
  -2   2   8    4.83    1.39
   2  -2  -8    6.59    2.53
  -2   2   8    6.70    2.06
   2  -2  -8    8.77    2.13
   2  -2  -8    4.79    1.53
  -2   2   8    5.20    1.47
   2  -2  -7   35.55    5.55
   2  -2  -7   31.13    5.01
   2  -2  -7   34.52    5.66
   2  -2  -7   41.76    4.66
   2  -2  -7   32.36    5.22
  -2   2   7   29.31    2.46
  -2   2   7   33.65    4.67
   2  -2  -7   34.93    3.95
   2  -2  -7   37.91    5.33
  -2   2   7   44.35    3.63
  -2   2   7   38.79    4.39
  -2   2   7   34.60    3.63
  -2   2   7   34.06    4.12
  -2   2   6  174.61    7.74
   2  -2  -6  138.47    8.40
  -2   2   6  165.73    8.99
   2  -2  -6  143.48   10.45
   2  -2  -6  170.75   11.88
  -2   2   6  178.00    8.67
   2  -2  -6  162.56   11.24
   2  -2  -6  207.68   10.18
  -2   2   6  158.42    9.52
  -2   2   6  142.40    7.45
  -2   2   6  161.24    5.78
   2  -2  -6  184.22   11.34
   2  -2  -6  149.50    8.83
  -2   2   6  188.48    8.91
   2  -2  -6  132.84    7.60
   2  -2  -6  164.51    8.07
   2  -2  -6  168.53   11.33
   2  -2  -5 1900.79   26.39
  -2   2   5 1720.05   27.12
   2  -2  -5 1861.00   26.94
  -2   2   5 1750.07   23.93
  -2   2   5 1915.63   26.48
  -2   2   5 1661.76   24.68
   2  -2  -5 1501.36   29.09
   2  -2  -5 1463.94   28.06
  -2   2   5 1361.01   27.01
   2  -2  -5 1542.44   32.28
   2  -2  -5 1270.89   25.04
   2  -2  -5 1844.79   26.15
  -2   2   5 1672.69   29.37
   2  -2  -5 1806.31   25.81
  -2   2   5 1959.87   28.05
  -2   2   5 1863.19   26.13
   2  -2  -5 1710.99   32.71
   2  -2  -5 1895.46   26.82
  -2   2   5 1896.34   26.38
   2  -2  -5 1489.56   32.81
  -2   2   5 1858.07   24.87
  -2   2   5 1691.46   20.03
  -2   2   5 1854.71   26.33
  -2   2   5 1775.40   19.73
  -2   2   5 1897.77   27.70
   2  -2  -5 1794.76   25.02
  -2   2   5 1788.60   25.51
   2  -2  -4  511.77   15.12
   2  -2  -4  490.55   14.33
   2  -2  -4  608.71   17.46
   2  -2  -4  642.57   13.23
  -2   2   4  661.60   13.67
   2  -2  -4  527.84   16.62
   2  -2  -4  532.75   16.64
  -2   2   4  587.77   14.38
  -2   2   4  692.30   13.99
  -2   2   4  667.83   13.76
  -2   2   4  659.69   13.64
   2  -2  -4  634.04   14.03
   2  -2  -4  659.21   13.98
   2  -2  -4  626.02   13.27
  -2   2   4  669.21   14.50
   2  -2  -4  671.77   13.78
  -2   2   4  670.01   14.57
  -2   2   4  509.92   14.44
   2  -2  -4  754.99   12.45
  -2   2   4  638.25   13.29
  -2   2   4  733.23   14.93
  -2   2   4  653.34   13.56
  -2   2   4  620.53   12.63
  -2   2   4  620.79    9.88
   2  -2  -4  642.23   13.59
   2  -2  -3  226.80    9.13
  -2   2   3  315.46    8.59
   2  -2  -3  226.71    8.82
   2  -2  -3  251.91   10.14
   2  -2  -3  223.16    7.98
   2  -2  -3  255.22   10.30
  -2   2   3  310.13    8.49
   2  -2  -3  325.08    8.67
  -2   2   3  319.82    9.19
   2  -2  -3  307.44    8.83
   2  -2  -3  300.06    8.26
  -2   2   3  337.20    8.90
   2  -2  -3  303.47    8.65
  -2   2   3  309.95    8.52
   2  -2  -3  317.19    8.49
   2  -2  -3  319.61    8.65
  -2   2   3  330.68    8.98
   2  -2  -3  346.36    7.44
  -2   2   3  304.19    8.38
  -2   2   3  311.77    8.39
   2  -2  -3  371.62    8.28
  -2   2   3  314.48    8.12
  -2   2   3  310.35    6.13
  -2   2   3  334.37    8.85
  -2   2   2 1517.11   19.24
  -2   2   2 1552.25   14.32
  -2   2   2 1604.17   19.93
   2  -2  -2 1785.94   17.68
   2  -2  -2 1671.50   21.32
  -2   2   2 1574.86   19.24
  -2   2   2 1482.76   18.71
  -2   2   2 1551.63   19.36
   2  -2  -2 1698.81   20.38
   2  -2  -2 1638.69   19.79
   2  -2  -2 1729.50   20.08
  -2   2   2 1557.45   19.24
   2  -2  -2 1721.06   20.24
  -2   2   2 1629.71   19.15
   2  -2  -2 1790.10   20.24
   2  -2  -2 1668.26   20.55
   2  -2  -1 1542.91   18.73
  -2   2   1 1344.83   17.70
  -2   2   1 1384.46   17.70
   2  -2  -1 1359.02   15.96
   2  -2  -1 1512.97   18.95
  -2   2   1 1507.72   15.55
   2  -2  -1 1513.62   18.65
   2  -2  -1 1515.45   19.17
   2  -2  -1 1481.40   19.37
  -2   2   1 1395.29   17.75
  -2   2   1 1406.39   17.85
  -2   2   1 1340.82   17.78
  -2   2   1 1480.54   13.21
  -2   2   1 1568.28   17.91
   2  -2  -1 1286.95   17.49
  -2   2   0 2827.23   27.22
   2  -2   0 2676.66   27.57
  -2   2   0 2879.94   27.11
   2  -2   0 2720.63   27.54
   2  -2   0 3356.43   31.41
   2  -2   0 2680.11   26.76
  -2   2   0 2839.30   26.98
   2  -2   0 2653.03   27.73
  -2   2   0 3412.24   25.38
  -2   2   0 2862.69   27.13
  -2   2   0 3229.85   25.49
   2  -2   0 2718.82   27.22
  -2   2   0 2941.45   27.21
   2  -2   1  514.07   10.57
  -2   2  -1  467.28    8.16
  -2   2  -1  463.80    9.55
   2  -2   1  495.39   10.36
  -2   2  -1  476.19    9.63
   2  -2   1  511.49   10.94
  -2   2  -1  482.61    9.61
   2  -2   1  507.70   10.64
  -2   2  -1  512.25    8.32
   2  -2   1  506.17   10.62
  -2   2  -1  558.63    9.20
  -2   2  -1  478.61    9.63
   2  -2   1  475.41    9.49
   2  -2   1  514.67   11.21
  -2   2  -1  464.81    9.51
   2  -2   2  458.33   10.64
  -2   2  -2  407.50    9.44
  -2   2  -2  390.29    9.26
   2  -2   2  426.27   10.02
   2  -2   2  445.21   10.21
   2  -2   2  448.88   10.45
   2  -2   2  410.94    8.48
  -2   2  -2  410.94    9.53
  -2   2  -2  407.06    9.48
   2  -2   2  482.71   11.67
   2  -2   2  457.41   10.47
   2  -2   2  453.33   10.55
  -2   2  -2  410.51    9.50
  -2   2  -2  421.04    8.26
  -2   2  -2  434.33    8.20
  -2   2  -2  432.39   10.01
  -2   2  -2  447.19    8.88
   2  -2   2  458.32   10.39
  -2   2  -3 1155.36   15.35
  -2   2  -3 1107.82   17.51
   2  -2   3 1103.83   18.12
  -2   2  -3 1074.07   17.49
   2  -2   3 1105.54   18.16
   2  -2   3 1094.67   17.79
   2  -2   3 1123.98   17.75
  -2   2  -3 1071.32   17.25
   2  -2   3 1105.79   17.72
  -2   2  -3 1089.78   17.61
  -2   2  -3 1047.18   14.57
   2  -2   3 1103.33   17.97
  -2   2  -3 1075.20   17.45
  -2   2  -3 1186.60   16.14
   2  -2   3 1083.32   13.16
   2  -2   4  908.45   15.31
  -2   2  -4  788.09   15.19
  -2   2  -4  975.76   15.62
   2  -2   4  901.89   13.35
  -2   2  -4  898.00   16.98
   2  -2   4  847.85   14.15
  -2   2  -4  895.58   17.13
   2  -2   4  928.86   17.17
   2  -2   4  935.13   10.29
   2  -2   4  897.46   14.47
  -2   2  -4  967.40   14.87
   2  -2   4  910.73   14.72
  -2   2  -4  861.18   16.69
  -2   2  -4  796.52   14.42
  -2   2  -4  883.21   14.16
  -2   2  -4  921.61   17.10
   2  -2   4  903.89   17.02
   2  -2   4  962.04   18.17
   2  -2   4  916.45   17.24
   2  -2   4  956.68   15.08
   2  -2   4  877.88   17.03
   2  -2   4  908.61   17.37
  -2   2  -4  830.76   14.79
  -2   2  -4  892.65   16.79
   2  -2   5  382.82    9.94
  -2   2  -5  318.12    9.96
   2  -2   5  398.87   10.80
  -2   2  -5  341.82   10.11
  -2   2  -5  299.87    8.37
   2  -2   5  375.47   10.17
  -2   2  -5  325.67   10.43
  -2   2  -5  362.09   11.35
   2  -2   5  367.82   11.55
  -2   2  -5  376.72   10.50
  -2   2  -5  346.01   11.03
   2  -2   5  386.08   10.39
  -2   2  -5  340.50   10.94
   2  -2   5  354.70    8.24
   2  -2   5  391.62    9.63
  -2   2  -5  341.96   10.99
   2  -2   5  375.68   11.75
   2  -2   5  368.67    9.02
  -2   2  -5  400.83    9.90
  -2   2  -5  345.88   11.01
   2  -2   5  379.12   10.30
   2  -2   5  384.54   11.84
   2  -2   5  365.76   11.52
   2  -2   5  404.15   10.08
   2  -2   5  373.27   11.66
  -2   2  -5  422.06   10.50
   2  -2   5  375.19   10.03
   2  -2   6   31.62    3.16
   2  -2   6   34.78    3.49
  -2   2  -6   28.39    3.42
   2  -2   6   30.31    2.86
  -2   2  -6   41.41    3.97
   2  -2   6   32.71    3.27
  -2   2  -6   30.04    2.90
   2  -2   6   29.89    3.56
   2  -2   6   29.81    3.22
  -2   2  -6   28.48    3.37
   2  -2   6   33.69    3.74
   2  -2   6   35.01    3.54
  -2   2  -6   32.93    3.64
  -2   2  -6   34.58    3.75
  -2   2  -6   31.68    3.60
   2  -2   6   32.34    3.67
   2  -2   6   33.92    3.72
  -2   2  -6   37.31    3.27
   2  -2   6   33.85    3.72
  -2   2  -6   31.45    3.63
  -2   2  -6   31.54    3.33
  -2   2  -6   44.83    3.82
   2  -2   6   37.11    3.30
  -2   2  -6   33.34    3.18
   2  -2   6   34.96    3.39
  -2   2  -6   29.73    2.78
  -2   2  -7   40.54    4.41
  -2   2  -7   38.24    3.60
  -2   2  -7   41.71    4.58
  -2   2  -7   38.60    4.27
  -2   2  -7   40.46    3.88
   2  -2   7   41.86    4.34
  -2   2  -7   55.40    4.85
   2  -2   7   37.82    3.53
   2  -2   7   44.69    4.06
   2  -2   7   42.41    4.18
   2  -2   7   42.56    4.21
   2  -2   7   45.58    3.85
   2  -2   7   39.28    3.48
   2  -2   7   44.12    4.14
   2  -2   7   51.64    4.87
  -2   2  -7   40.42    4.35
  -2   2  -7   39.94    3.35
   2  -2   8   15.94    2.58
   2  -2   8   20.21    2.82
  -2   2  -8   19.57    3.21
  -2   2  -8   15.41    2.38
   2  -2   8   19.86    2.63
  -2   2  -8   16.12    2.58
   2  -2   8   16.91    2.81
  -2   2  -8   16.07    2.93
  -2   2  -8   17.26    3.03
   2  -2   8   20.85    3.13
   2  -2   8   24.53    3.63
   2  -2   8   17.99    2.62
   2  -2   8   18.95    2.43
   2  -2   8   15.67    2.29
  -2   2  -8   18.71    3.19
   2  -2   9  790.21   18.24
   2  -2   9  778.82   17.23
   2  -2   9  883.32   16.85
   2  -2   9  824.73   19.30
  -2   2  -9  784.74   20.18
  -2   2  -9  867.62   21.86
  -2   2  -9  797.60   17.15
   2  -2   9  887.03   20.44
  -2   2  -9  855.29   21.60
  -2   2  -9  913.33   20.21
  -2   2  -9  840.24   21.14
   2  -2   9  874.40   19.25
   2  -2   9  829.59   20.39
   2  -2  10   54.82    4.31
  -2   2 -10   52.95    4.57
   2  -2  10   58.87    4.63
  -2   2 -10   53.82    4.82
  -2   2 -10   52.57    4.73
   2  -2  10   59.32    4.72
  -2   2 -10   58.36    5.00
   2  -2  10   52.12    3.80
   2  -2  10   63.16    4.34
   2  -2  10   54.81    4.15
  -2   2 -11   18.12    2.24
   2  -2  11   17.79    1.97
   2  -2  11   16.44    1.99
  -2   2 -11   20.58    2.45
   2  -1 -10  267.52   10.03
   2  -1 -10  258.50   10.07
   2  -1 -10  267.72    8.04
  -2   1  10  248.09    7.26
  -2   1  10  247.16    8.12
  -2   1   9   56.44    3.51
   2  -1  -9   66.38    6.46
   2  -1  -9   71.59    3.93
   2  -1  -9   52.02    4.58
   2  -1  -9   66.58    6.10
   2  -1  -9   70.42    6.93
   2  -1  -9   57.13    5.12
  -2   1   9   51.31    4.80
   2  -1  -9   61.66    4.73
  -2   1   9   61.33    4.49
  -2   1   9   59.43    4.96
  -2   1   9   61.50    5.05
   2  -1  -8   84.13    8.30
  -2   1   8   71.14    4.80
   2  -1  -8   77.30    8.25
   2  -1  -8   77.55    6.82
   2  -1  -8   71.85    7.02
  -2   1   8   76.43    7.16
  -2   1   8   76.52    5.57
   2  -1  -8  101.82    7.00
   2  -1  -8   80.55    5.69
  -2   1   8   73.35    6.02
  -2   1   7  128.52    5.19
   2  -1  -7  146.80    9.08
   2  -1  -7  153.62    8.00
   2  -1  -7  144.33   11.13
  -2   1   7  121.11    6.79
   2  -1  -7  126.78    9.31
  -2   1   7  149.51    7.90
   2  -1  -7  149.62   11.61
   2  -1  -7  121.13    9.59
  -2   1   7  125.13    9.23
  -2   1   7  132.08    8.35
  -2   1   7  123.58    8.59
  -2   1   7  135.64    8.46
   2  -1  -6   89.80    6.99
   2  -1  -6   95.09    5.92
   2  -1  -6   66.46    5.15
   2  -1  -6   85.30    8.13
   2  -1  -6   72.29    7.17
   2  -1  -6   96.76    8.80
  -2   1   6   74.69    6.75
  -2   1   6   89.52    4.28
  -2   1   6   85.61    6.84
  -2   1   6   89.10    5.73
  -2   1   6   89.79    6.52
  -2   1   6   63.37    5.20
  -2   1   6   97.43    6.64
   2  -1  -5  622.49   17.24
  -2   1   5  616.28   16.29
   2  -1  -5  682.18   15.50
   2  -1  -5  504.30   14.45
   2  -1  -5  474.69   12.72
   2  -1  -5  697.25   15.11
   2  -1  -5  474.15   13.77
   2  -1  -5  631.36   20.16
  -2   1   5  675.57   14.62
   2  -1  -5  612.78   20.23
   2  -1  -5  564.01   18.32
  -2   1   5  689.71   11.43
  -2   1   5  578.48   17.30
  -2   1   5  739.96   15.47
   2  -1  -5  701.99   15.08
  -2   1   5  663.26   14.37
  -2   1   5  684.86   14.87
  -2   1   5  515.04   13.82
  -2   1   5  626.15   11.14
   2  -1  -5  680.80   15.23
  -2   1   5  664.77   14.49
  -2   1   5  700.40   16.72
  -2   1   5  694.08   16.38
   2  -1  -5  747.63   13.27
   2  -1  -5  686.64   14.96
  -2   1   5  661.85   14.62
  -2   1   5  658.56   13.18
  -2   1   5  659.80   14.44
   2  -1  -5  667.41   14.12
   2  -1  -4   76.18    4.53
  -2   1   4   88.50    5.33
   2  -1  -4   61.69    4.49
   2  -1  -4   74.51    6.00
  -2   1   4   82.39    4.47
   2  -1  -4   52.17    3.97
  -2   1   4   82.92    5.13
   2  -1  -4   69.64    5.66
  -2   1   4   65.40    4.85
  -2   1   4   85.88    4.54
   2  -1  -4   79.11    4.54
   2  -1  -4   88.21    4.66
   2  -1  -4   58.47    4.99
   2  -1  -4   80.82    4.31
   2  -1  -4   86.54    4.63
   2  -1  -4   81.93    4.53
  -2   1   4   79.06    4.88
  -2   1   4   80.07    4.41
  -2   1   4   77.79    4.36
  -2   1   4   76.86    4.76
  -2   1   4   81.52    4.16
  -2   1   4   89.14    3.50
  -2   1   4   81.79    4.50
   2  -1  -4   91.20    4.15
  -2   1   3  266.33    7.40
   2  -1  -3  251.34    7.43
  -2   1   3  255.48    7.27
   2  -1  -3  266.94    7.36
   2  -1  -3  261.33    7.52
   2  -1  -3  260.27    7.36
   2  -1  -3  255.32    7.27
   2  -1  -3  265.94    6.83
  -2   1   3  257.30    7.35
  -2   1   3  251.24    7.18
  -2   1   3  249.55    7.23
   2  -1  -3  256.51    7.14
  -2   1   3  270.15    7.17
  -2   1   3  273.99    5.47
  -2   1   2 1970.03   21.50
   2  -1  -2 2053.18   21.37
  -2   1   2 1957.99   21.28
  -2   1   2 1938.88   21.35
   2  -1  -2 2014.44   21.48
  -2   1   2 2034.97   16.46
   2  -1  -2 2006.53   21.92
   2  -1  -2 2064.07   21.55
  -2   1   2 2034.39   21.67
  -2   1   2 2027.85   21.60
  -2   1   2 2079.18   21.55
   2  -1  -2 2015.18   21.19
   2  -1  -2 1981.91   21.75
   2  -1  -1  737.27   11.51
  -2   1   1  750.34   11.18
  -2   1   1  726.49   10.87
   2  -1  -1  794.05   11.49
  -2   1   1  750.65   11.15
   2  -1  -1  746.19   11.64
   2  -1  -1  757.00   11.14
  -2   1   1  769.81   11.60
   2  -1  -1  743.26   11.32
  -2   1   1  728.94   11.09
   2  -1  -1  738.91   11.89
  -2   1   1  759.13    6.78
  -2   1   1  739.67   11.09
   2  -1  -1  874.37   12.20
  -2   1   1  861.06   12.08
  -2   1   1  800.21    7.33
   2  -1  -1  843.86   11.08
   2  -1  -1  694.63   10.54
   2  -1   0 7689.29   56.45
   2  -1   0 7513.39   56.79
  -2   1  -1    3.75    0.67
   2  -1   1    3.08    0.77
  -2   1  -1    2.88    0.69
   2  -1   1    3.36    0.82
  -2   1  -1    2.70    0.67
   2  -1   1    2.43    0.67
   2  -1   1    2.86    0.72
  -2   1  -1    3.43    0.63
  -2   1  -1    2.08    0.59
  -2   1  -1    2.34    0.63
  -2   1  -1    2.29    0.61
   2  -1   1    2.80    0.75
  -2   1  -1    4.29    0.61
  -2   1  -1    3.77    0.54
   2  -1   1    2.41    0.68
   2  -1   1    2.22    0.64
   2  -1   2 1161.79   15.77
  -2   1  -2 1083.90   15.00
   2  -1   2 1192.98   15.94
   2  -1   2 1209.99   16.25
   2  -1   2 1196.11   16.08
  -2   1  -2 1182.82   12.61
  -2   1  -2 1169.45   15.79
   2  -1   2 1229.44   16.48
  -2   1  -2 1183.34   13.15
  -2   1  -2 1101.53   15.02
  -2   1  -2 1126.86   14.99
   2  -1   2 1214.34   16.52
  -2   1  -2 1120.80   15.12
  -2   1  -2 1159.33   12.34
   2  -1   2 1136.17   11.64
  -2   1  -2 1174.37   13.45
   2  -1   2 1064.22   14.90
   2  -1   2 1156.12   16.22
  -2   1  -2 1141.62   15.19
  -2   1  -3 1611.55   17.07
   2  -1   3 1720.96   21.52
  -2   1  -3 1744.96   17.51
  -2   1  -3 1662.05   20.63
   2  -1   3 1719.81   21.27
   2  -1   3 1645.13   13.89
  -2   1  -3 1649.88   20.64
   2  -1   3 1780.62   21.50
   2  -1   3 1759.54   22.00
  -2   1  -3 1666.51   20.85
  -2   1  -3 1669.65   20.74
   2  -1   3 1745.04   21.46
  -2   1  -3 1596.19   20.41
   2  -1   3 1743.97   21.59
  -2   1  -3 1734.90   18.62
   2  -1   3 1816.19   22.90
  -2   1  -4    2.89    0.92
   2  -1   4    3.06    0.94
  -2   1  -4    3.29    0.96
   2  -1   4    2.64    0.93
  -2   1  -4    4.12    1.07
   2  -1   4    3.13    0.99
   2  -1   4    3.19    0.97
  -2   1  -4    2.72    0.91
  -2   1  -4    4.42    0.89
   2  -1   4    2.77    0.91
  -2   1  -4    3.36    1.01
  -2   1  -4    3.25    0.99
   2  -1   4    3.58    1.07
  -2   1  -4    4.99    1.00
   2  -1   4    3.31    1.01
  -2   1  -5  638.71   14.00
  -2   1  -5  631.06   13.47
  -2   1  -5  544.04   11.17
  -2   1  -5  654.08   14.37
   2  -1   5  673.21   12.95
   2  -1   5  678.16   15.28
  -2   1  -5  644.49   14.32
   2  -1   5  691.05   13.39
  -2   1  -5  600.73   13.07
   2  -1   5  676.95   15.06
  -2   1  -5  625.33   14.34
  -2   1  -5  740.94   13.30
  -2   1  -5  657.41   14.46
  -2   1  -5  665.64   14.34
  -2   1  -5  644.63   12.86
   2  -1   5  703.06   13.42
   2  -1   5  675.15   15.18
  -2   1  -5  771.97   12.64
   2  -1   5  693.00   13.11
   2  -1   5  709.19   15.67
   2  -1   5  693.10   15.44
  -2   1  -5  689.82   14.74
   2  -1   5  683.48   12.65
   2  -1   5  667.82   15.41
  -2   1  -5  623.89   11.95
   2  -1   5  639.31   12.50
   2  -1   6    1.06    0.70
  -2   1  -6    0.49    0.52
  -2   1  -6    0.58    0.63
  -2   1  -6    0.33    0.46
  -2   1  -6    0.30    0.40
   2  -1   6    1.67    0.81
   2  -1   6    0.32    0.54
  -2   1  -6    0.30    0.54
  -2   1  -6    0.69    0.52
  -2   1  -6    0.89    0.68
   2  -1   6   -0.08    0.47
   2  -1   6    3.04    0.94
  -2   1  -6    0.30    0.46
  -2   1  -6    5.86    1.21
   2  -1   6    0.81    0.50
  -2   1  -6    1.17    0.80
   2  -1   6    0.93    0.70
   2  -1   6    0.41    0.58
   2  -1   6    3.13    0.93
   2  -1   6    0.83    0.73
   2  -1   6    1.22    0.77
  -2   1  -6    0.97    0.71
  -2   1  -6    0.50    0.65
   2  -1   6    1.32    0.83
  -2   1  -6    0.15    0.40
   2  -1   6    0.26    0.32
  -2   1  -6    3.26    1.18
  -2   1  -6    0.58    0.51
  -2   1  -6    0.44    0.55
   2  -1   6    0.23    0.41
  -2   1  -6    4.20    1.04
   2  -1   7  432.47   11.81
  -2   1  -7  418.98   13.86
  -2   1  -7  400.32   12.64
  -2   1  -7  405.51   11.45
  -2   1  -7  358.72   10.81
   2  -1   7  420.58   12.87
  -2   1  -7  392.02   13.59
   2  -1   7  443.31   13.54
  -2   1  -7  412.46   12.70
   2  -1   7  417.24   11.55
  -2   1  -7  455.88   11.63
   2  -1   7  443.82   13.17
  -2   1  -7  425.03   14.46
   2  -1   7  430.53   12.61
   2  -1   7  421.16   12.01
  -2   1  -8   18.61    3.09
  -2   1  -8   26.86    3.47
  -2   1  -8   26.35    3.77
  -2   1  -8   25.89    3.42
  -2   1  -8   23.19    3.56
  -2   1  -8   24.77    2.94
   2  -1   8   29.80    3.73
  -2   1  -8   24.46    3.76
   2  -1   8   23.82    3.46
   2  -1   8   25.79    3.11
   2  -1   8   26.21    3.43
   2  -1   8   26.66    3.05
   2  -1   8   28.24    3.46
   2  -1   8   25.41    3.16
   2  -1   8   27.31    3.32
   2  -1   9  116.33    6.27
   2  -1   9  103.10    6.47
  -2   1  -9  111.76    8.02
  -2   1  -9   97.45    6.61
   2  -1   9  141.13    8.18
  -2   1  -9  107.50    7.85
  -2   1  -9  119.92    7.09
  -2   1  -9   97.40    6.89
   2  -1   9  108.15    6.94
  -2   1  -9   97.45    7.41
   2  -1   9  105.54    7.31
   2  -1   9   97.42    6.10
   2  -1   9  105.22    6.89
  -2   1  -9  144.48    7.35
   2  -1  10  227.13    8.69
  -2   1 -10  267.67   11.56
  -2   1 -10  263.94   11.87
  -2   1 -10  241.87    9.78
   2  -1  10  252.42   10.33
   2  -1  10  258.35   10.38
  -2   1 -10  244.19    9.98
  -2   1 -10  250.45   11.39
   2  -1  10  235.29    9.86
   2  -1  10  247.74    9.42
  -2   1 -11  232.25    9.14
   2  -1  11  210.81    7.48
   2  -1  11  203.86    7.65
  -2   1 -11  224.84    9.20
   2  -1  11  207.06    7.77
  -2   1 -11  220.96    9.12
   2   0 -10  145.97    7.02
   2   0 -10  145.67    7.29
  -2   0  10  135.04    5.21
   2   0 -10  133.76    6.46
   2   0  -9   66.81    6.36
   2   0  -9   60.95    6.25
   2   0  -9   68.13    4.80
  -2   0   9   50.13    4.74
   2   0  -9   67.14    6.29
  -2   0   9   61.82    4.58
  -2   0   9   53.95    4.65
  -2   0   9   61.25    5.02
  -2   0   8    1.80    1.10
   2   0  -8    3.73    1.54
   2   0  -8    1.89    1.63
   2   0  -8    1.34    1.02
   2   0  -8    1.85    1.09
   2   0  -8    2.24    1.89
   2   0  -8    1.59    1.13
  -2   0   8    1.28    1.54
   2   0  -8    1.44    1.34
  -2   0   8    1.92    1.19
   2   0  -7 1336.79   30.13
   2   0  -7 1242.71   32.59
  -2   0   7 1146.61   20.70
   2   0  -7  972.86   24.28
   2   0  -7 1172.58   33.27
   2   0  -7 1089.99   26.96
  -2   0   7 1031.55   27.89
   2   0  -7 1256.11   32.77
  -2   0   7 1072.21   27.10
  -2   0   7 1125.65   16.69
  -2   0   7 1249.71   24.43
  -2   0   7 1235.26   26.73
  -2   0   7 1143.33   26.16
   2   0  -7 1390.78   24.63
   2   0  -6  183.65   10.68
   2   0  -6  193.61   12.00
   2   0  -6  159.01    9.82
   2   0  -6  157.45    9.33
  -2   0   6  165.20    7.60
   2   0  -6  174.86   12.17
  -2   0   6  169.81   10.57
  -2   0   6  140.61    8.18
   2   0  -6  190.86   11.89
  -2   0   6  186.10    6.35
  -2   0   6  194.51    8.96
  -2   0   6  159.46    9.81
  -2   0   6  184.32    9.84
  -2   0   6  185.35    9.74
   2   0  -6  198.04    8.53
   2   0  -5  206.26    8.04
  -2   0   5  185.40    7.34
   2   0  -5  201.43   11.18
  -2   0   5  181.37    7.28
  -2   0   5  189.73    6.04
   2   0  -5  144.85    8.34
  -2   0   5  199.73    9.19
  -2   0   5  169.87    7.18
   2   0  -5  188.76    7.96
   2   0  -5  165.86   10.61
   2   0  -5  155.85    9.05
   2   0  -5  201.85    7.98
  -2   0   5  155.01    9.16
  -2   0   5  160.96    7.13
  -2   0   5  185.19    8.05
   2   0  -5  200.58    7.96
   2   0  -5  196.74    8.14
  -2   0   5  140.57    7.78
   2   0  -5  161.81    7.69
  -2   0   5  186.75    7.42
  -2   0   5  174.13    8.78
  -2   0   5  180.59    7.24
  -2   0   5  196.42    6.64
  -2   0   5  156.75    8.81
  -2   0   5  187.11    7.34
   2   0  -5  194.94    6.99
   2   0  -5  192.27    7.42
   2   0  -4  318.08    8.87
   2   0  -4  305.17    8.99
  -2   0   4  282.42   10.41
  -2   0   4  296.77    8.37
  -2   0   4  302.03    9.42
   2   0  -4  294.66    8.61
  -2   0   4  406.64    8.04
   2   0  -4  287.21   11.76
   2   0  -4  309.02    8.79
   2   0  -4  306.45    9.01
   2   0  -4  230.55    9.50
  -2   0   4  239.72   10.49
  -2   0   4  243.02    9.30
   2   0  -4  279.11   12.25
  -2   0   4  305.21    8.42
  -2   0   4  238.54   10.32
  -2   0   4  286.53    8.28
  -2   0   4  298.71    8.40
   2   0  -4  300.90    8.02
  -2   0   4  292.48    8.37
   2   0  -4  309.51    8.45
  -2   0   4  308.52   10.79
  -2   0   4  299.65   10.04
  -2   0   4  310.88    7.84
  -2   0   3   77.69    3.81
  -2   0   3   76.33    3.27
   2   0  -3   75.84    3.90
   2   0  -3   74.50    3.71
  -2   0   3   91.17    3.23
   2   0  -3   73.49    3.74
   2   0  -3   79.35    3.90
   2   0  -3   77.31    3.94
  -2   0   3   77.57    3.81
  -2   0   3   80.70    3.87
  -2   0   3   77.00    3.80
  -2   0   3   78.87    3.81
   2   0  -3   78.15    3.65
   2   0  -3   73.68    3.67
  -2   0   2  140.82    3.25
   2   0  -2  107.86    2.58
   2   0  -2  118.72    4.10
  -2   0   2  120.85    4.26
   2   0  -2  112.23    4.21
  -2   0   2  125.99    3.03
   2   0  -2  120.64    4.20
   2   0  -2  114.84    4.15
   2   0  -2  113.55    4.24
  -2   0   2  119.77    4.23
  -2   0   2  122.03    4.21
  -2   0   2  117.81    4.19
  -2   0   2  123.68    4.26
  -2   0   2  135.87    4.59
   2   0  -2  121.47    4.21
   2   0  -2  124.00    4.21
   2   0  -1    6.26    0.87
  -2   0   1    5.38    0.43
  -2   0   1    7.26    0.95
   2   0  -1    5.81    0.89
   2   0  -1    6.45    0.89
   2   0  -1    6.83    0.92
   2   0  -1    6.28    0.89
   2   0  -1    6.83    0.96
  -2   0   1    6.68    0.93
  -2   0   1    7.78    0.98
  -2   0   1    7.33    0.52
  -2   0   1    6.92    0.96
  -2   0   1    6.99    0.95
  -2   0   1    6.82    0.71
   2   0  -1    7.71    1.04
   2   0  -1    6.71    0.71
  -2   0   0 2156.64   19.26
   2   0   0 2177.06   18.72
  -2   0   0 2207.70   16.30
  -2   0   0 2060.93   19.29
   2   0   0 1951.88   18.92
   2   0   0 1930.60   18.79
  -2   0   0 2038.03   18.14
  -2   0   0 2186.28   18.53
  -2   0   0 2233.94   18.93
  -2   0   0 2128.81   19.20
   2   0   0 2171.58   18.76
   2   0   0 1972.51   19.36
   2   0   0 2138.83   19.76
   2   0   0 2005.48   18.93
  -2   0   0 2211.39   19.13
  -2   0   0 2094.48   18.35
   2   0   0 2091.17   18.40
  -2   0   0 2072.50   19.18
   2   0   0 2017.32   19.21
   2   0   0 2003.12   17.74
   2   0   0 2177.13   18.85
   2   0   0 2105.10   18.45
  -2   0   0 2136.84   14.59
   2   0   0 2064.20   17.38
  -2   0   0 2300.42   18.43
  -2   0   0 2132.64   19.28
  -2   0  -1  636.97    7.91
  -2   0  -1  677.47    8.38
   2   0   1  691.87    8.54
   2   0   1  595.56    9.08
  -2   0  -1  614.94    6.84
  -2   0  -1  593.63    8.83
  -2   0  -1  617.34    8.91
   2   0   1  596.86    9.20
   2   0   1  616.61    9.64
  -2   0  -1  650.90    8.10
  -2   0  -1  616.56    8.88
   2   0   1  689.34    8.58
   2   0   1  610.20    9.25
  -2   0  -1  631.93    8.92
   2   0   1  620.99    9.23
  -2   0  -1  618.21    8.86
  -2   0  -1  646.55    7.97
  -2   0  -1  644.93    8.26
  -2   0  -1  681.70    8.52
   2   0   1  689.67    8.50
   2   0   1  557.18    7.94
   2   0   1  685.51    8.50
  -2   0  -1  605.40    6.95
   2   0   1  687.42    8.75
   2   0   2 1337.38   16.01
   2   0   2 1141.36   14.18
  -2   0  -2 1301.43   15.37
   2   0   2 1306.36   15.62
   2   0   2 1346.17   15.95
  -2   0  -2 1230.96   14.77
  -2   0  -2 1262.29   14.83
   2   0   2 1367.43   15.81
   2   0   2 1364.06   16.00
  -2   0  -2 1237.57   14.83
  -2   0  -2 1207.97   14.57
  -2   0  -2 1384.20   14.31
   2   0   2 1355.89   16.13
  -2   0  -2 1258.68   14.84
   2   0   2 1300.73   10.78
  -2   0  -2 1263.39   12.71
   2   0   2 1394.79   11.66
   2   0   2 1390.06   16.19
  -2   0  -3 2753.30   19.48
   2   0   3 2654.23   26.27
   2   0   3 2606.22   25.73
   2   0   3 2684.40   26.27
  -2   0  -3 2501.78   25.04
   2   0   3 2731.66   26.23
  -2   0  -3 2491.40   24.79
  -2   0  -3 2541.63   25.08
  -2   0  -3 2426.90   24.71
   2   0   3 2682.88   26.14
  -2   0  -3 2407.34   23.45
  -2   0  -3 2484.80   24.83
  -2   0  -3 2320.13   20.60
  -2   0  -3 2405.20   22.38
  -2   0  -3 2738.96   22.23
   2   0   3 2422.15   25.46
   2   0   3 2790.82   26.81
  -2   0  -4  217.71    5.67
   2   0   4  209.42    7.16
   2   0   4  219.39    7.34
  -2   0  -4  207.65    6.72
   2   0   4  223.00    7.26
  -2   0  -4  216.10    6.79
  -2   0  -4  196.44    6.56
  -2   0  -4  203.08    6.66
   2   0   4  232.02    7.46
   2   0   4  214.19    7.13
   2   0   4  223.89    7.04
   2   0   4  208.48    7.06
  -2   0  -4  232.36    5.33
  -2   0  -4  208.25    6.74
  -2   0  -4  234.24    6.49
   2   0   4  216.71    7.28
  -2   0  -4  212.30    6.88
   2   0   4  230.91    5.95
  -2   0  -4  187.45    4.79
   2   0   5   82.56    4.21
   2   0   5   80.86    2.92
  -2   0  -5   75.25    4.39
  -2   0  -5   82.56    4.58
   2   0   5   74.86    3.95
  -2   0  -5   93.60    3.27
   2   0   5   84.38    4.29
   2   0   5   78.61    4.01
  -2   0  -5   72.58    4.34
  -2   0  -5   95.75    3.62
   2   0   5   83.71    4.86
   2   0   5   79.73    4.16
   2   0   5   90.84    4.39
   2   0   5   86.26    4.94
  -2   0  -5   78.26    4.48
   2   0   5   85.35    5.00
  -2   0  -5   76.56    4.77
  -2   0  -5   81.25    4.57
   2   0   5   82.04    4.77
  -2   0  -5   82.06    4.59
  -2   0  -5   85.09    4.11
  -2   0  -5   93.82    4.46
   2   0   5   81.61    4.87
   2   0   5   83.49    4.88
  -2   0  -5   80.92    4.59
  -2   0  -5   80.77    3.46
   2   0   6  178.60    7.10
  -2   0  -6  210.11    7.09
  -2   0  -6  172.32    7.67
  -2   0  -6  177.60    6.86
   2   0   6  168.94    7.01
  -2   0  -6  168.87    8.09
  -2   0  -6  178.02    6.92
  -2   0  -6  153.43    6.57
  -2   0  -6  162.58    7.45
   2   0   6  172.21    7.06
  -2   0  -6  164.34    7.18
  -2   0  -6  165.13    7.22
  -2   0  -6  185.23    7.03
  -2   0  -6  159.90    7.15
  -2   0  -6  166.91    7.32
   2   0   6  166.89    6.27
   2   0   6  192.69    7.39
   2   0   6  179.91    7.90
  -2   0  -6  200.02    5.51
   2   0   6  170.29    6.83
   2   0   6  186.50    8.13
   2   0   6  173.99    7.73
   2   0   6  178.65    7.81
   2   0   6  177.98    7.87
   2   0   6  167.04    6.85
  -2   0  -6  186.01    6.04
   2   0   6  169.41    6.84
  -2   0  -6  167.95    7.84
   2   0   6  172.59    6.49
  -2   0  -7 1305.78   23.66
  -2   0  -7 1353.06   24.94
  -2   0  -7 1344.92   25.44
  -2   0  -7 1351.96   22.05
  -2   0  -7 1763.51   22.49
  -2   0  -7 1214.59   19.13
  -2   0  -7 1491.97   25.77
  -2   0  -7 1329.71   23.64
   2   0   7 1370.15   23.58
  -2   0  -7 1324.18   26.77
  -2   0  -7 1454.10   23.27
  -2   0  -7 1532.48   23.16
  -2   0  -7 1225.70   22.13
   2   0   7 1399.37   21.85
   2   0   7 1366.71   23.78
   2   0   7 1500.97   26.89
  -2   0  -7 1370.45   23.80
   2   0   7 1334.73   21.13
  -2   0  -7 1270.41   23.27
  -2   0  -7 1391.22   24.09
   2   0   7 1350.08   24.52
   2   0   7 1489.04   25.89
   2   0   7 1383.90   25.27
   2   0   7 1465.09   25.67
   2   0   7 1389.91   23.31
   2   0   7 1462.86   25.57
   2   0   7 1572.54   25.74
  -2   0  -7 1632.86   21.37
   2   0   7 1343.60   22.86
   2   0   7 1407.01   22.16
   2   0   8   63.52    4.92
   2   0   8   57.67    4.93
   2   0   8   59.52    5.21
  -2   0  -8   56.67    5.41
  -2   0  -8   64.17    4.96
  -2   0  -8   53.50    4.36
   2   0   8   56.06    4.96
  -2   0  -8   58.70    5.77
  -2   0  -8   53.23    4.75
   2   0   8   57.07    4.92
   2   0   8   52.97    4.40
  -2   0  -8   60.83    5.79
   2   0   8   57.19    4.59
   2   0   9  271.80    9.98
  -2   0  -9  245.63   10.46
  -2   0  -9  260.78   11.97
   2   0   9  254.82   11.13
  -2   0  -9  299.51   10.56
  -2   0  -9  269.14   12.90
   2   0   9  252.94   11.08
  -2   0  -9  269.90   12.93
   2   0   9  240.80    9.85
   2   0   9  275.25   11.24
   2   0   9  253.55    9.38
   2   0   9  247.73    9.94
  -2   0  -9  324.09   10.86
   2   0   9  253.96   10.78
   2   0  10   82.53    5.48
  -2   0 -10   94.34    7.16
  -2   0 -10   89.06    6.62
   2   0  10   89.45    6.33
  -2   0 -10   92.25    7.15
  -2   0 -10   92.86    7.42
   2   0  10   94.37    6.40
   2   0  10   84.61    5.49
   2   0  10   99.55    6.44
  -2   0 -11  155.68    7.91
  -2   0 -11  146.87    7.21
   2   0  11  127.16    6.55
  -2   0 -11  149.06    8.02
   2   0  11  150.31    6.93
  -2   0 -11  148.33    8.05
   2   0  11  116.68    5.39
   2   0  11  143.28    6.12
  -2  -1  10   60.81    3.63
   2   1 -10   55.41    3.20
   2   1  -9  165.99    8.13
   2   1  -9  153.66    9.19
   2   1  -9  149.82    8.82
  -2  -1   9  155.39    6.03
   2   1  -9  162.34    9.49
  -2  -1   9  155.42    7.10
  -2  -1   9  127.18    6.98
   2   1  -9  184.49    7.57
  -2  -1   9  145.56    7.56
  -2  -1   8   74.44    4.84
   2   1  -8   74.09    7.34
   2   1  -8   72.80    7.50
   2   1  -8   70.75    7.28
  -2  -1   8   61.77    6.13
  -2  -1   8   75.77    5.80
   2   1  -8   85.80    5.88
  -2  -1   8   70.63    6.22
   2   1  -7 1415.55   32.28
  -2  -1   7 1389.44   22.99
   2   1  -7 1263.76   32.56
   2   1  -7 1289.17   33.26
   2   1  -7 1065.10   24.12
  -2  -1   7 1127.45   30.00
  -2  -1   7 1101.58   28.43
  -2  -1   7 1123.97   27.05
   2   1  -7 1526.75   25.85
  -2  -1   7 1375.83   26.49
   2   1  -7 1213.99   32.66
  -2  -1   7 1340.25   28.59
  -2  -1   6  171.33    7.60
   2   1  -6  138.05    9.55
   2   1  -6  144.53   10.24
  -2  -1   6  125.44    9.14
   2   1  -6  139.21   10.40
   2   1  -6  107.12    6.96
  -2  -1   6  149.75    9.54
   2   1  -6  134.11   10.40
   2   1  -6  118.91    7.87
  -2  -1   6  126.71    9.57
  -2  -1   6  148.45    5.78
  -2  -1   6  152.77    8.42
  -2  -1   6  164.07    7.24
  -2  -1   6  149.77    9.06
   2   1  -5  239.50    8.67
   2   1  -5  188.92   10.78
  -2  -1   5  184.34   10.10
   2   1  -5  149.07    7.89
   2   1  -5  181.52   10.99
   2   1  -5  164.70    8.68
  -2  -1   5  178.36   10.29
  -2  -1   5  150.49    8.50
  -2  -1   5  210.89    7.58
   2   1  -5  237.10    8.82
   2   1  -5  224.84    8.41
  -2  -1   5  199.69    6.50
  -2  -1   5  158.79    7.08
  -2  -1   5  215.52    7.72
   2   1  -5  226.21    8.48
   2   1  -5  220.49    8.71
  -2  -1   5  219.21    9.42
   2   1  -5  185.75    9.11
   2   1  -5  220.18    8.04
  -2  -1   5  203.74    7.47
  -2  -1   5  183.39    9.75
  -2  -1   5  197.30    7.40
   2   1  -5  235.75    8.31
  -2  -1   5  203.49    9.75
  -2  -1   5  203.16    7.50
  -2  -1   4  590.70   14.10
  -2  -1   4  404.73   12.96
  -2  -1   4  454.39   15.22
   2   1  -4  557.91   16.57
   2   1  -4  421.59   12.01
   2   1  -4  507.02   16.26
  -2  -1   4  472.95   12.05
   2   1  -4  479.49   13.24
  -2  -1   4  531.23   14.82
  -2  -1   4  488.17   15.17
  -2  -1   4  478.25   14.56
   2   1  -4  519.29   14.37
   2   1  -4  681.96   13.01
   2   1  -4  598.47   11.99
  -2  -1   4  564.66   14.69
  -2  -1   3   26.49    3.21
   2   1  -3   36.58    2.60
  -2  -1   3   26.17    1.98
  -2  -1   3   27.89    3.12
  -2  -1   3   29.81    2.81
  -2  -1   3   32.43    3.24
  -2  -1   3   31.94    3.30
   2   1  -3   32.31    2.43
   2   1  -2 3133.33   21.36
   2   1  -2 3382.89   25.11
  -2  -1   2 3184.49   32.87
  -2  -1   2 2945.78   28.37
  -2  -1   2 3365.28   27.83
  -2  -1   2 3349.17   27.81
  -2  -1   2 3191.90   27.42
  -2  -1   2 3360.80   27.81
  -2  -1   2 3295.49   27.68
  -2  -1   2 3465.02   22.64
   2   1  -2 3198.88   23.47
   2   1  -2 3447.11   29.68
   2   1  -2 3450.69   28.20
  -2  -1   1   26.22    2.07
  -2  -1   1   24.31    2.23
   2   1  -1   22.51    1.06
  -2  -1   1   25.57    1.65
   2   1  -1   21.13    1.06
   2   1  -1   23.28    1.53
   2   1  -1   18.66    1.39
   2   1  -1   18.90    1.39
  -2  -1   1   23.45    1.58
   2   1  -1   18.45    1.38
   2   1  -1   18.74    1.36
   2   1  -1   19.74    1.44
  -2  -1   1   23.00    1.58
  -2  -1   1   24.50    1.61
  -2  -1   1   24.06    1.62
  -2  -1   1   31.55    1.57
   2   1  -1   22.73    0.93
   2   1  -1   24.24    1.80
   2   1   0   77.08    2.51
   2   1   0   86.46    2.82
  -2  -1   0  105.90    3.02
   2   1   0   89.08    2.71
   2   1   0  115.85    2.93
   2   1   0   89.34    2.75
  -2  -1   0  106.39    3.08
   2   1   0   88.41    2.71
  -2  -1   0   89.31    2.72
   2   1   0   88.95    2.79
   2   1   0   81.66    2.60
   2   1   0   77.94    2.54
  -2  -1   0  110.56    3.07
   2   1   0   81.21    2.59
  -2  -1   0  108.04    3.07
  -2  -1   0  102.96    2.98
   2   1   0   77.01    2.51
   2   1   0   82.19    1.43
   2   1   0   96.58    1.55
   2   1   0  118.48    3.79
  -2  -1   0   90.47    1.68
   2   1   1  521.08    7.11
   2   1   1  522.15    7.13
   2   1   1  483.16    7.70
  -2  -1  -1  535.37    7.02
  -2  -1  -1  505.60    7.44
   2   1   1  554.25    7.59
  -2  -1  -1  528.12    6.87
  -2  -1  -1  521.44    6.84
  -2  -1  -1  544.06    7.01
   2   1   1  537.31    7.25
   2   1   1  524.27    7.20
  -2  -1  -1  535.79    6.93
  -2  -1  -1  560.87    9.29
   2   1   1  572.52    7.29
   2   1   1  508.19    4.75
   2   1   1  521.86    8.66
   2   1   1  562.35    8.56
   2   1   2  218.17    4.96
   2   1   2  176.15    4.35
  -2  -1  -2  197.86    4.80
  -2  -1  -2  211.09    4.65
  -2  -1  -2  219.63    4.95
   2   1   2  217.81    4.86
   2   1   2  204.49    4.25
   2   1   2  220.76    5.06
  -2  -1  -2  206.19    4.52
  -2  -1  -2  197.08    4.46
  -2  -1  -2  196.55    4.45
   2   1   2  223.30    5.01
   2   1   2  206.29    5.26
   2   1   2  218.47    4.95
  -2  -1  -2  196.43    4.46
   2   1   2  186.78    2.59
   2   1   2  206.63    3.74
   2   1   2  222.88    5.17
  -2  -1  -2  250.05    5.06
  -2  -1  -3 2681.39   21.44
  -2  -1  -3 3276.36   26.70
   2   1   3 2670.92   19.25
  -2  -1  -3 2657.20   24.03
  -2  -1  -3 2506.08   23.84
   2   1   3 2966.25   25.85
  -2  -1  -3 2746.87   24.18
   2   1   3 2766.94   22.34
  -2  -1  -3 2766.65   24.34
  -2  -1  -3 2700.70   24.01
   2   1   3 2988.69   25.74
  -2  -1  -3 2815.87   24.65
   2   1   3 3059.05   25.84
   2   1   3 3078.24   25.90
   2   1   3 3090.42   26.14
  -2  -1  -3 2717.20   24.42
   2   1   3 2968.10   25.83
   2   1   3 2704.46   20.30
   2   1   3 2694.11   22.22
   2   1   3 2772.35   26.09
  -2  -1  -3 2419.64   17.98
  -2  -1  -4  693.90   11.56
   2   1   4  744.39   11.08
  -2  -1  -4  768.66   11.78
  -2  -1  -4  833.55   11.51
  -2  -1  -4  711.36   11.61
  -2  -1  -4  702.77   11.56
  -2  -1  -4  669.94   11.41
   2   1   4  777.78   12.84
   2   1   4  768.46   12.73
   2   1   4  698.74    9.19
   2   1   4  774.65   12.81
   2   1   4  769.64   12.71
  -2  -1  -4  744.58   11.94
   2   1   4  769.50   12.73
   2   1   4  810.43   14.60
   2   1   4  798.19   13.68
  -2  -1  -4  759.60    8.46
  -2  -1  -5   63.95    3.73
   2   1   5   67.26    4.08
  -2  -1  -5   77.34    3.81
  -2  -1  -5   60.07    3.64
   2   1   5   67.72    3.65
  -2  -1  -5   64.13    3.73
  -2  -1  -5   62.73    3.70
   2   1   5   67.39    4.12
   2   1   5   65.57    2.56
   2   1   5   63.43    4.02
   2   1   5   69.63    4.11
   2   1   5   60.70    3.98
  -2  -1  -5   64.46    3.82
   2   1   5   69.00    4.10
   2   1   5   71.41    4.45
  -2  -1  -5   74.19    3.21
  -2  -1  -5   71.25    2.84
  -2  -1  -6  141.24    6.90
  -2  -1  -6  162.28    6.26
  -2  -1  -6  148.65    6.89
  -2  -1  -6  137.21    6.78
   2   1   6  152.00    6.58
  -2  -1  -6  151.44    7.32
  -2  -1  -6  159.95    7.02
   2   1   6  150.22    6.53
   2   1   6  141.75    6.79
  -2  -1  -6  174.33    6.15
  -2  -1  -6  142.34    6.30
  -2  -1  -6  142.91    6.19
  -2  -1  -6  133.74    6.02
  -2  -1  -6  137.86    6.16
  -2  -1  -6  137.31    6.17
   2   1   6  145.07    5.79
  -2  -1  -6  143.30    6.50
   2   1   6  159.18    6.49
  -2  -1  -6  168.13    5.23
  -2  -1  -7 1223.87   23.92
  -2  -1  -7 1285.27   23.79
  -2  -1  -7 1186.16   21.04
  -2  -1  -7 1236.93   24.07
   2   1   7 1248.78   22.06
   2   1   7 1238.60   20.33
  -2  -1  -7 1309.62   23.28
  -2  -1  -7 1144.36   19.59
   2   1   7 1226.41   21.92
  -2  -1  -7 1585.51   20.51
   2   1   7 1167.52   20.88
  -2  -1  -7 1267.53   24.92
  -2  -1  -7 1389.06   21.45
   2   1   7 1253.53   22.29
   2   1   7 1313.46   22.50
  -2  -1  -7 1502.08   19.13
   2   1   7 1318.28   20.53
  -2  -1  -8  916.74   18.47
  -2  -1  -8 1011.35   22.77
  -2  -1  -8  954.80   20.03
   2   1   8  952.25   20.41
  -2  -1  -8  987.08   23.18
   2   1   8 1025.09   21.88
   2   1   8  964.32   19.52
  -2  -1  -8 1102.14   22.21
  -2  -1  -8  978.98   23.64
  -2  -1  -8 1023.08   23.98
   2   1   8 1006.57   21.35
   2   1   8  954.01   20.45
   2   1   8 1007.62   19.35
   2   1   9  158.60    7.65
  -2  -1  -9  158.74    9.46
  -2  -1  -9  137.63    7.40
  -2  -1  -9  151.27    9.45
   2   1   9  138.77    7.30
   2   1   9  148.01    8.51
  -2  -1  -9  151.90    9.82
  -2  -1  -9  165.22    8.57
  -2  -1  -9  144.67    9.33
   2   1   9  156.47    8.57
   2   1   9  147.53    7.76
   2   1   9  144.34    8.09
   2   1   9  143.92    8.26
   2   1  10  167.63    6.92
  -2  -1 -10  175.68    9.95
   2   1  10  164.34    8.89
  -2  -1 -10  172.87   10.08
  -2  -1 -10  171.79   10.00
   2   1  10  159.03    8.48
   2   1  10  158.05    8.12
   2   1  10  159.50    7.75
   2   1  10  170.60    8.65
  -2  -1 -10  170.66    9.47
   2   1  10  153.54    7.34
  -2  -1 -11    1.61    1.02
   2   1  11    0.48    0.70
  -2  -1 -11    1.47    1.01
  -2  -1 -11    0.96    0.90
   2   1  11    1.81    0.82
  -2  -1 -12  560.28    8.45
   2   2 -10    6.68    0.98
  -2  -2   9    6.69    1.61
   2   2  -9    9.89    1.95
   2   2  -9    8.62    1.94
  -2  -2   9    8.18    1.39
   2   2  -9    8.53    2.05
  -2  -2   9   11.93    2.16
  -2  -2   9    7.19    1.48
   2   2  -9   10.01    1.69
   2   2  -8   60.27    5.98
   2   2  -8   55.20    6.05
  -2  -2   8   62.74    5.15
  -2  -2   8   64.09    4.54
   2   2  -8   54.69    6.10
   2   2  -8   74.90    5.22
  -2  -2   8   57.01    5.36
   2   2  -7  615.12   21.12
  -2  -2   7  641.10   15.95
   2   2  -7  614.98   22.00
   2   2  -7  597.14   21.56
  -2  -2   7  652.09   18.27
  -2  -2   7  568.93   19.34
  -2  -2   7  546.52   19.71
  -2  -2   7  611.58   19.25
   2   2  -6 1462.42   32.69
  -2  -2   6 1735.66   27.29
   2   2  -6 1440.77   32.66
   2   2  -6 1316.70   32.55
  -2  -2   6 1383.33   32.73
  -2  -2   6 1453.74   20.32
  -2  -2   6 1387.96   31.86
  -2  -2   6 1661.89   30.04
   2   2  -6 1464.77   34.41
  -2  -2   6 1385.44   30.71
  -2  -2   6 1742.26   25.26
  -2  -2   6 1473.61   30.31
   2   2  -5  469.59   12.27
  -2  -2   5  462.48   13.08
   2   2  -5  479.96   12.71
   2   2  -5  483.67   12.38
  -2  -2   5  371.86   15.68
  -2  -2   5  366.98   14.54
   2   2  -5  379.70   15.89
   2   2  -5  473.12   12.48
  -2  -2   5  410.14   10.09
   2   2  -5  412.32   15.79
  -2  -2   5  371.94   15.38
  -2  -2   5  417.85   10.62
  -2  -2   5  440.90   14.26
   2   2  -5  362.17   13.97
  -2  -2   5  418.97   10.63
  -2  -2   5  395.88   10.36
  -2  -2   5  399.40   10.40
  -2  -2   5  411.92   10.54
  -2  -2   5  468.04   11.90
  -2  -2   5  424.33   14.93
   2   2  -5  451.36   12.02
  -2  -2   4   78.89    5.04
  -2  -2   4   58.59    4.37
   2   2  -4   70.46    5.84
   2   2  -4   75.59    4.27
   2   2  -4   59.73    4.33
  -2  -2   4   73.60    3.95
  -2  -2   4   68.52    6.07
   2   2  -4   78.39    4.45
   2   2  -4   64.61    5.46
   2   2  -4   75.81    4.23
   2   2  -4   77.76    4.33
   2   2  -4   75.91    4.45
  -2  -2   4   71.61    3.91
  -2  -2   4   77.09    5.41
  -2  -2   4   72.36    3.96
  -2  -2   4   75.57    4.01
  -2  -2   4   66.10    3.72
  -2  -2   4   77.20    3.97
  -2  -2   4   72.20    3.93
   2   2  -4   73.38    3.77
  -2  -2   4   63.25    5.49
   2   2  -4   73.42    4.36
  -2  -2   4   97.60    6.40
   2   2  -4   76.50    4.30
   2   2  -3   26.53    2.17
  -2  -2   3   30.27    2.88
  -2  -2   3   22.63    3.10
  -2  -2   3   24.64    3.09
   2   2  -3   27.12    2.21
   2   2  -3   22.16    3.03
  -2  -2   3   24.01    1.98
  -2  -2   3   22.12    2.98
  -2  -2   3   22.08    2.91
  -2  -2   3   22.99    2.61
   2   2  -3   26.63    2.23
   2   2  -3   21.93    2.97
   2   2  -3   27.05    2.18
   2   2  -3   25.24    2.11
   2   2  -3   27.29    2.27
  -2  -2   3   21.53    2.96
  -2  -2   3   25.44    2.06
  -2  -2   3   25.02    2.05
   2   2  -3   28.04    2.02
  -2  -2   3   27.58    2.14
  -2  -2   3   24.39    2.00
  -2  -2   3   27.46    2.14
   2   2  -3   30.59    2.52
  -2  -2   2 1965.64   18.90
  -2  -2   2 2029.76   19.09
  -2  -2   2 1889.02   22.33
   2   2  -2 1932.66   19.23
  -2  -2   2 1767.01   23.99
   2   2  -2 1978.56   19.01
   2   2  -2 2091.03   20.90
   2   2  -2 1989.47   19.01
   2   2  -2 1971.61   19.09
  -2  -2   2 2012.81   19.02
   2   2  -2 1955.57   19.43
  -2  -2   2 2003.09   19.08
  -2  -2   2 2027.76   19.08
   2   2  -2 1997.63   18.14
  -2  -2   2 1909.47   15.33
  -2  -2   1  162.22    5.84
   2   2  -1  162.06    3.61
   2   2  -1  109.26    3.73
   2   2  -1  145.36    3.52
  -2  -2   1  125.00    3.86
   2   2  -1  147.45    3.55
  -2  -2   1  137.37    5.60
   2   2  -1  141.05    3.58
  -2  -2   1  126.72    3.88
  -2  -2   1  125.40    3.86
   2   2  -1  145.31    3.54
  -2  -2   1  124.52    3.84
   2   2  -1  104.13    3.62
   2   2  -1  145.17    3.65
  -2  -2   1  158.45    3.81
   2   2  -1  102.77    3.60
  -2  -2   1  161.24    3.84
   2   2  -1  106.90    3.73
  -2  -2   1  161.09    3.83
   2   2  -1   98.77    3.53
  -2  -2   1  126.13    3.92
  -2  -2   1  158.17    3.84
  -2  -2   1  163.99    3.86
   2   2  -1  137.05    3.23
   2   2  -1  161.56    4.14
  -2  -2   0  201.60    6.27
   2   2   0  200.84    3.46
   2   2   0  201.56    3.41
   2   2   0  195.20    3.48
   2   2   0  163.15    3.37
  -2  -2   0  230.29    6.62
   2   2   0  162.74    3.33
  -2  -2   0  192.31    3.53
   2   2   0  164.49    3.37
  -2  -2   0  190.62    3.50
  -2  -2   0  231.45    3.90
  -2  -2   0  230.15    3.79
   2   2   0  198.31    3.38
  -2  -2   0  184.54    3.45
  -2  -2   0  232.63    3.81
  -2  -2   0  186.73    3.47
   2   2   0  162.34    3.33
   2   2   0  192.27    3.53
   2   2   0  164.01    3.34
  -2  -2   0  194.32    3.57
  -2  -2   0  228.88    3.82
  -2  -2   0  239.21    3.88
   2   2   0  214.56    3.37
   2   2   0  179.91    2.24
   2   2   0  229.37    5.36
  -2  -2   0  184.75    4.45
  -2  -2  -1  465.93    9.36
  -2  -2  -1  292.51    3.04
  -2  -2  -1  332.96    3.30
  -2  -2  -1  270.98    2.98
   2   2   1  333.19    3.46
   2   2   1  333.51    3.45
  -2  -2  -1  390.94    8.23
   2   2   1  330.60    3.41
  -2  -2  -1  292.86    3.06
  -2  -2  -1  325.61    3.29
  -2  -2  -1  326.09    3.28
  -2  -2  -1  287.46    3.05
  -2  -2  -1  329.18    3.28
  -2  -2  -1  326.80    3.26
   2   2   1  307.55    3.36
   2   2   1  336.88    3.49
   2   2   1  421.82    7.56
   2   2   1  478.70    7.55
  -2  -2  -1  388.75    7.17
  -2  -2  -2  759.14    7.59
   2   2   2  890.10    8.26
   2   2   2  811.61   10.69
  -2  -2  -2  814.53   11.78
  -2  -2  -2  962.09   13.84
  -2  -2  -2  737.36    7.52
   2   2   2  951.02    7.83
  -2  -2  -2  760.03    7.64
   2   2   2  789.36    7.97
  -2  -2  -2  783.90    7.68
  -2  -2  -2  861.19   12.11
  -2  -2  -2  890.81    7.46
  -2  -2  -2  763.45    7.61
   2   2   2  821.26    8.12
   2   2   2  807.20    8.03
   2   2   2  973.64    7.96
  -2  -2  -2  847.71    7.26
  -2  -2  -2  848.67    7.25
  -2  -2  -2  881.60    7.50
   2   2   2  937.06    7.75
  -2  -2  -2  907.88    7.67
   2   2   2  923.65    7.72
   2   2   2  776.17    7.95
   2   2   2  930.79    7.78
   2   2   2  785.67    7.94
   2   2   2  854.23    9.78
   2   2   2  882.62   11.81
   2   2   3 1104.17   11.63
  -2  -2  -3 1015.91   10.90
  -2  -2  -3 1010.63   10.74
  -2  -2  -3  871.88   10.30
   2   2   3 1001.22   12.27
   2   2   3 1068.94   11.62
   2   2   3 1088.10   11.60
  -2  -2  -3  891.48   10.33
   2   2   3 1117.78   11.77
  -2  -2  -3  992.44   10.64
  -2  -2  -3  866.24   10.30
   2   2   3  969.38   11.26
   2   2   3  898.55   10.01
   2   2   3  908.48   10.83
   2   2   3  915.11   10.90
  -2  -2  -3 1003.03   10.84
   2   2   3  889.34   10.80
  -2  -2  -3  870.07   10.28
   2   2   3  915.84   10.93
  -2  -2  -3 1009.05   11.05
   2   2   3  884.23   11.45
   2   2   3 1106.57   11.68
  -2  -2  -3  913.29   10.63
  -2  -2  -3 1108.41   15.46
   2   2   3  956.04   11.86
   2   2   3 1055.10   16.23
   2   2   3 1066.59   11.66
  -2  -2  -3  966.60   10.61
  -2  -2  -3  937.87   13.34
  -2  -2  -4  745.53   10.77
  -2  -2  -4  735.07   10.69
  -2  -2  -4  930.35   10.42
  -2  -2  -4  757.90   10.89
   2   2   4  789.83   11.66
  -2  -2  -4  960.90   14.02
   2   2   4  879.32   12.45
   2   2   4  810.53   11.71
  -2  -2  -4  724.05   10.64
  -2  -2  -4  707.48   10.54
  -2  -2  -4  839.43   12.59
  -2  -2  -4  752.73   11.14
   2   2   4  721.65    7.64
   2   2   4  784.77   11.55
   2   2   4  800.66   11.62
   2   2   4  802.20   12.06
   2   2   4  773.87   11.32
   2   2   4  919.90   16.09
   2   2   4  891.68   13.91
  -2  -2  -5   30.79    2.32
  -2  -2  -5   27.50    2.64
  -2  -2  -5   22.10    2.44
  -2  -2  -5   26.26    2.25
  -2  -2  -5   28.23    2.82
  -2  -2  -5   26.29    2.22
  -2  -2  -5   24.36    2.13
  -2  -2  -5   28.01    2.29
  -2  -2  -5   32.37    3.12
  -2  -2  -5   28.18    2.31
  -2  -2  -5   27.59    2.31
   2   2   5   30.96    2.66
   2   2   5   26.35    2.34
   2   2   5   28.69    2.49
   2   2   5   31.11    2.59
   2   2   5   26.91    2.40
  -2  -2  -5   30.26    2.47
   2   2   5   27.94    2.44
   2   2   5   31.12    2.50
   2   2   5   28.41    3.00
   2   2   5   33.37    2.81
  -2  -2  -5   36.85    1.73
  -2  -2  -6  551.22   13.50
  -2  -2  -6  503.64   13.54
   2   2   6  545.25   12.79
  -2  -2  -6  572.82   14.94
  -2  -2  -6  472.79   12.72
  -2  -2  -6  563.38   14.29
  -2  -2  -6  519.36   11.58
  -2  -2  -6  534.14   11.93
  -2  -2  -6  558.24   11.98
  -2  -2  -6  524.17   11.69
  -2  -2  -6  554.97   11.96
   2   2   6  547.32   11.83
   2   2   6  581.23   12.85
   2   2   6  599.85   13.27
   2   2   6  595.84   13.17
   2   2   6  587.25   13.04
   2   2   6  591.01   13.14
   2   2   6  578.42   14.77
   2   2   6  532.39   12.24
  -2  -2  -6  573.48    9.23
  -2  -2  -6  633.22   12.16
  -2  -2  -7 1085.32   19.03
  -2  -2  -7 1240.63   17.98
  -2  -2  -7  968.70   19.80
  -2  -2  -7 1027.73   21.83
   2   2   7 1028.59   19.90
   2   2   7  967.19   19.43
  -2  -2  -7 1178.79   24.05
  -2  -2  -7 1089.69   18.94
  -2  -2  -7 1013.60   19.02
   2   2   7 1098.94   18.22
   2   2   7 1049.31   18.87
  -2  -2  -7 1089.07   18.86
  -2  -2  -7 1060.39   18.75
   2   2   7 1131.27   20.38
   2   2   7 1116.31   20.21
   2   2   7 1177.01   20.80
   2   2   7 1190.97   20.74
   2   2   7 1164.85   20.53
   2   2   7 1077.51   21.16
   2   2   7 1039.60   19.54
  -2  -2  -8  143.80    8.38
  -2  -2  -8  140.35    7.84
  -2  -2  -8  138.23    8.74
   2   2   8  145.89    7.81
   2   2   8  144.96    7.98
  -2  -2  -8  164.05    9.10
   2   2   8  145.42    7.32
   2   2   8  140.82    6.86
   2   2   9  131.32    7.05
  -2  -2  -9  149.27    8.82
  -2  -2  -9  121.47    7.31
   2   2   9  127.38    8.02
  -2  -2  -9  134.64    9.02
  -2  -2  -9  140.25    8.56
   2   2   9  130.41    6.92
   2   2   9  132.97    7.78
   2   2   9  128.27    7.21
   2   2   9  121.78    7.42
   2   2   9  120.26    7.47
   2   2  10   29.04    3.57
  -2  -2 -10   34.82    3.68
  -2  -2 -10   30.90    4.38
   2   2  10   32.97    3.98
  -2  -2 -10   29.56    4.22
   2   2  10   33.07    3.18
   2   2  10   29.76    3.40
   2   2  10   33.71    3.82
   2   2  10   30.20    3.74
   2   2  10   27.35    3.09
  -2  -2 -11  357.87   13.26
   2   2  11  325.76   11.08
   2   2  11  337.05   10.69
  -2  -2 -11  356.59   12.26
   2   2  11  298.48    9.27
   2   2  11  328.12   10.21
   2   2  11  316.09   10.71
   2   2  12   51.20    3.17
  -2  -2 -12   50.00    3.84
   2   2  12   47.08    3.27
  -2  -2 -12   45.88    2.28
  -2  -3   9    7.42    1.47
   2   3  -9   11.73    1.90
   2   3  -9    7.70    1.62
   2   3  -9    8.44    1.71
  -2  -3   9    9.71    1.40
  -2  -3   9    7.52    1.35
   2   3  -9   11.60    1.58
  -2  -3   8    1.70    0.89
  -2  -3   8    2.61    1.17
   2   3  -8    2.62    1.27
   2   3  -8    3.62    1.44
   2   3  -8    2.76    1.35
   2   3  -8    1.87    1.15
  -2  -3   8    3.27    1.24
   2   3  -8    4.09    1.26
   2   3  -7   62.71    6.54
   2   3  -7   60.87    6.52
   2   3  -7   62.13    6.11
  -2  -3   7   71.94    5.39
   2   3  -7   60.66    6.23
  -2  -3   7   63.52    6.02
  -2  -3   7   67.71    5.81
  -2  -3   7   60.18    6.05
  -2  -3   7   72.17    4.78
   2   3  -6  388.46   17.19
   2   3  -6  393.95   16.73
   2   3  -6  380.79   15.71
   2   3  -6  333.47   15.29
  -2  -3   6  482.45   12.86
  -2  -3   6  407.90   10.21
  -2  -3   6  423.12   15.31
  -2  -3   6  457.38   14.29
  -2  -3   6  368.12   15.64
  -2  -3   6  408.23   15.76
  -2  -3   5   10.79    2.29
   2   3  -5    9.70    2.48
   2   3  -5    7.93    2.40
   2   3  -5    7.50    2.29
  -2  -3   5    9.05    2.66
  -2  -3   5    8.60    2.43
  -2  -3   5   12.99    1.87
  -2  -3   5   11.05    2.42
  -2  -3   5   15.33    2.25
  -2  -3   5   12.28    2.65
   2   3  -4  324.86    8.70
  -2  -3   4  296.93    7.87
  -2  -3   4  318.50    8.89
   2   3  -4  264.00   11.57
  -2  -3   4  338.73   11.56
   2   3  -4  238.09   11.31
  -2  -3   4  320.11   11.82
  -2  -3   4  281.52   12.76
   2   3  -4  332.94    8.76
   2   3  -4  331.21    8.81
   2   3  -4  316.03    8.86
   2   3  -4  336.34    8.83
   2   3  -4  319.09    8.62
   2   3  -4  323.20    9.04
  -2  -3   4  285.14   12.58
  -2  -3   4  288.19    7.77
  -2  -3   4  305.91    8.07
  -2  -3   4  301.63    7.91
  -2  -3   4  269.86    7.58
  -2  -3   4  304.15    7.96
  -2  -3   4  277.14   12.21
  -2  -3   4  273.30   11.36
   2   3  -3    5.48    1.00
   2   3  -3    6.36    1.68
  -2  -3   3    4.06    1.28
   2   3  -3    5.63    1.04
   2   3  -3    4.45    0.90
   2   3  -3    4.86    0.95
  -2  -3   3    5.46    1.59
   2   3  -3    4.80    0.93
   2   3  -3    4.36    0.94
  -2  -3   3    4.14    0.84
  -2  -3   3    4.26    1.46
  -2  -3   3    5.57    0.97
  -2  -3   3    9.86    1.89
   2   3  -3    4.54    1.56
  -2  -3   3    6.00    1.00
  -2  -3   3    5.44    0.95
  -2  -3   3    3.58    0.93
  -2  -3   3    5.29    0.95
   2   3  -3    7.10    1.17
  -2  -3   3    4.53    0.86
   2   3  -2 1957.59   18.43
   2   3  -2 1921.85   18.35
   2   3  -2 1883.58   18.60
  -2  -3   2 1998.70   26.62
  -2  -3   2 1946.48   27.76
  -2  -3   2 1818.32   26.93
   2   3  -2 1933.95   18.33
   2   3  -2 1880.84   18.60
  -2  -3   2 1899.50   27.68
  -2  -3   2 2027.47   18.80
   2   3  -2 1687.25   28.20
  -2  -3   2 2063.66   18.88
  -2  -3   2 1995.87   18.65
  -2  -3   2 1995.17   18.70
  -2  -3   2 1993.48   18.61
   2   3  -2 2077.78   19.96
  -2  -3   2 1824.49   27.50
  -2  -3   1  462.35   11.30
  -2  -3   1  545.53    7.00
  -2  -3   1  591.14    7.16
   2   3  -1  461.77    7.36
   2   3  -1  509.38    6.39
   2   3  -1  441.70    7.41
   2   3  -1  445.43    7.40
   2   3  -1  480.15    6.39
   2   3  -1  509.17    6.40
  -2  -3   1  460.52    7.26
  -2  -3   1  480.53    7.40
  -2  -3   1  485.10    7.41
  -2  -3   1  490.44    7.63
   2   3  -1  483.15    6.31
  -2  -3   1  477.28    7.37
   2   3  -1  482.27    6.44
  -2  -3   1  563.64    7.05
   2   3  -1  484.43   12.91
   2   3  -1  444.91    7.41
  -2  -3   1  469.00    7.13
  -2  -3   1  580.08    7.13
  -2  -3   1  579.34    7.08
   2   3  -1  441.68    7.48
   2   3  -1  534.28    8.05
   2   3  -1  517.45    6.23
   2   3  -1  474.62    6.63
   2   3  -1  453.83    7.32
   2   3  -1  519.31    8.89
   2   3   0  488.80    7.11
   2   3   0  495.32    8.70
  -2  -3   0  470.51   11.17
   2   3   0  483.13    6.05
   2   3   0  502.19    7.56
   2   3   1 1102.03   11.24
  -2  -3  -1 1119.66   17.87
  -2  -3  -1 1218.80   15.65
   2   3   1 1153.80   11.73
   2   3   1 1178.57   15.15
   2   3   1 1188.40   10.54
   2   3   2 3013.49   27.78
  -2  -3  -2 3183.61   30.53
  -2  -3  -2 3831.46   31.72
  -2  -3  -2 3747.07   35.31
  -2  -3  -2 3809.74   29.89
   2   3   2 3439.61   28.36
   2   3   2 2964.20   27.12
   2   3   2 3388.81   26.32
   2   3   3  410.44    4.93
  -2  -3  -3  356.90    4.48
   2   3   3  407.03    4.96
  -2  -3  -3  416.65    9.03
  -2  -3  -3  371.83    7.18
  -2  -3  -3  343.34    4.35
  -2  -3  -3  399.02   10.08
  -2  -3  -3  369.45    4.50
   2   3   3  394.10    4.88
  -2  -3  -3  340.68    4.58
  -2  -3  -3  347.89    4.64
   2   3   3  413.98    4.96
  -2  -3  -3  352.36    4.68
  -2  -3  -3  350.57    4.64
  -2  -3  -3  368.41    4.89
  -2  -3  -3  368.83    4.95
   2   3   3  403.43    4.87
   2   3   3  422.70    7.80
  -2  -3  -3  357.13    4.49
  -2  -3  -3  388.22    4.79
   2   3   3  368.16    7.54
   2   3   3  406.07   10.24
   2   3   3  418.20    7.89
   2   3   3  397.30    5.59
  -2  -3  -4  782.71   10.15
  -2  -3  -4  812.45   14.35
  -2  -3  -4  787.97   10.54
   2   3   4  893.78   12.97
  -2  -3  -4  773.78    9.86
  -2  -3  -4  818.84   10.04
  -2  -3  -4  771.05    9.85
  -2  -3  -4  792.86   10.00
   2   3   4  674.41    9.39
   2   3   4  686.56    9.43
  -2  -3  -4  816.13   13.33
   2   3   4  666.71    9.32
   2   3   4  666.45    9.33
   2   3   4  641.32    9.23
   2   3   4  715.93   12.06
   2   3   4  853.82   16.20
  -2  -3  -5 1765.55   24.78
  -2  -3  -5 1770.79   24.57
   2   3   5 1628.70   19.19
  -2  -3  -5 1836.91   26.43
  -2  -3  -5 1805.28   19.61
  -2  -3  -5 1761.90   25.73
  -2  -3  -5 1864.55   16.78
  -2  -3  -5 1772.20   19.44
  -2  -3  -5 1811.98   19.68
  -2  -3  -5 1745.87   19.59
   2   3   5 1607.91   19.21
   2   3   5 1683.30   19.56
  -2  -3  -5 1838.86   22.27
   2   3   5 1699.21   19.50
   2   3   5 1671.56   19.34
  -2  -3  -5 1752.18   19.78
   2   3   5 1758.93   22.35
   2   3   5 1974.74   27.47
   2   3   5 2074.69   22.70
   2   3   6  114.06    5.14
  -2  -3  -6  112.60    5.86
  -2  -3  -6  113.60    6.43
  -2  -3  -6   99.99    6.02
  -2  -3  -6  107.51    6.62
  -2  -3  -6  105.37    5.73
  -2  -3  -6  112.87    6.69
  -2  -3  -6  104.89    4.93
  -2  -3  -6  105.42    5.61
  -2  -3  -6  117.18    5.05
  -2  -3  -6  103.50    4.74
  -2  -3  -6  111.62    4.91
   2   3   6  105.23    5.36
  -2  -3  -6  116.08    5.04
   2   3   6  103.55    4.94
   2   3   6  114.84    5.22
   2   3   6  109.27    5.09
   2   3   6  114.55    5.16
  -2  -3  -6  119.93    5.33
   2   3   6  105.35    5.47
   2   3   6  117.58    6.81
   2   3   6  112.43    5.02
  -2  -3  -7 2620.81   28.74
  -2  -3  -7 2275.32   31.94
  -2  -3  -7 2373.62   34.24
  -2  -3  -7 2450.21   36.38
   2   3   7 2218.78   31.78
  -2  -3  -7 2618.26   38.58
  -2  -3  -7 2358.88   33.81
  -2  -3  -7 2503.72   30.41
  -2  -3  -7 2495.82   37.26
   2   3   7 2257.42   30.28
  -2  -3  -7 2418.32   33.73
  -2  -3  -7 2558.18   30.02
  -2  -3  -7 2572.53   30.17
  -2  -3  -7 2575.51   30.12
  -2  -3  -7 2588.10   30.32
   2   3   7 2549.98   31.12
   2   3   7 2635.35   31.65
   2   3   7 2624.75   31.32
   2   3   7 2615.03   31.29
   2   3   7 2332.86   28.89
   2   3   7 2542.40   30.91
  -2  -3  -8   83.86    4.99
  -2  -3  -8   81.87    6.22
  -2  -3  -8   81.47    6.73
   2   3   8   79.29    5.92
  -2  -3  -8   99.17    7.69
  -2  -3  -8   83.22    6.46
  -2  -3  -8   93.39    7.31
  -2  -3  -8   81.21    6.08
   2   3   8   84.66    5.67
   2   3   8   86.33    6.02
  -2  -3  -8   82.87    6.07
   2   3   8   81.76    5.19
  -2  -3  -9    1.47    0.95
   2   3   9    3.49    1.48
  -2  -3  -9    2.00    1.17
  -2  -3  -9    3.13    1.40
   2   3   9    1.88    1.11
   2   3   9    2.04    1.07
  -2  -3  -9    1.47    1.23
   2   3  10 1626.30   24.14
  -2  -3 -10 1633.58   27.53
  -2  -3 -10 1852.72   34.85
   2   3  10 1592.16   28.94
  -2  -3 -10 1850.33   32.32
   2   3  10 1739.10   27.84
  -2  -3 -10 1790.88   30.03
   2   3  10 1544.94   25.54
   2   3  10 1562.77   26.72
   2   3  10 1626.79   28.09
   2   3  11   31.75    3.20
  -2  -3 -11   34.27    3.09
  -2  -3 -11   40.47    4.51
   2   3  11   29.12    3.35
  -2  -3 -11   34.66    2.91
   2   3  11   29.72    2.88
   2   3  11   31.02    3.14
   2   3  11   28.59    3.23
  -2  -3 -12  695.83    8.65
   2   4  -9  168.27    4.86
   2   4  -8  177.26    8.47
   2   4  -8  149.80    7.44
  -2  -4   8  183.32    7.06
   2   4  -8  144.72    7.76
  -2  -4   8  175.64    7.27
  -2  -4   7  199.10    9.89
   2   4  -7  185.82   10.29
   2   4  -7  166.12    8.37
   2   4  -7  174.05    9.96
   2   4  -7  160.26    8.30
  -2  -4   7  218.93    9.17
  -2  -4   7  202.28    9.45
  -2  -4   7  223.27    7.78
  -2  -4   7  222.01   10.67
  -2  -4   6   68.57    6.37
   2   4  -6   67.03    6.64
   2   4  -6   60.86    5.70
   2   4  -6   53.55    5.34
  -2  -4   6   73.53    5.90
  -2  -4   6   81.18    5.07
  -2  -4   6   83.43    7.39
   2   4  -6   58.99    6.25
  -2  -4   6   75.37    6.33
  -2  -4   5  136.34    8.73
   2   4  -5  121.69    9.01
  -2  -4   5  121.11    8.84
   2   4  -5  102.29    7.45
  -2  -4   5  147.03    8.60
   2   4  -5  112.24    7.74
   2   4  -5  118.53    8.83
  -2  -4   5  137.12    6.14
  -2  -4   5  135.80    8.43
  -2  -4   5  151.53    7.00
   2   4  -4   28.73    4.09
  -2  -4   4   50.21    4.07
  -2  -4   4   43.17    3.44
  -2  -4   4   37.78    4.31
  -2  -4   4   53.55    4.99
   2   4  -4   30.79    3.89
  -2  -4   4   33.73    4.49
  -2  -4   4   39.52    3.43
   2   4  -4   30.90    3.85
  -2  -4   3    1.64    1.05
  -2  -4   3    0.77    0.59
   2   4  -3    0.61    0.76
   2   4  -3    0.87    0.77
  -2  -4   3    0.11    0.55
   2   4  -3    0.35    0.38
  -2  -4   3    0.79    0.90
   2   4  -3    0.16    0.44
  -2  -4   2  954.13   19.09
  -2  -4   2 1016.55   16.48
  -2  -4   2  930.24   20.24
  -2  -4   2  947.38   19.48
   2   4  -2 1035.92   14.70
   2   4  -2 1027.98   11.84
   2   4  -2 1123.02   16.80
   2   4  -2  834.24   21.02
  -2  -4   2  938.12   18.67
  -2  -4   1    2.62    0.90
  -2  -4   1    1.52    0.79
  -2  -4   1    2.32    0.76
   2   4  -1    3.10    1.20
   2   4  -1    2.00    0.60
   2   4  -1    4.91    0.71
   2   4  -1    2.02    0.68
  -2  -4   0  447.06    9.89
  -2  -4   0  398.37   10.72
   2   4   0  437.82    7.96
   2   4   0  421.47   12.16
   2   4   0  440.31    6.98
   2   4   0  464.89    8.33
  -2  -4  -1 4093.04   40.90
  -2  -4  -1 5125.57   41.91
  -2  -4  -1 4930.53   41.58
   2   4   1 4331.38   34.18
   2   4   1 5018.41   36.30
   2   4   1 4655.65   36.87
   2   4   1 4039.52   36.36
   2   4   1 4700.15   36.57
   2   4   1 5026.99   33.76
  -2  -4  -2   25.80    2.39
  -2  -4  -2   21.57    2.05
  -2  -4  -2   20.04    2.18
   2   4   2   22.80    2.36
   2   4   2   20.49    1.66
   2   4   2   20.22    1.70
   2   4   2   21.28    2.09
   2   4   2   26.05    1.90
   2   4   2   24.73    1.67
   2   4   2   16.06    0.96
   2   4   2   20.02    0.98
   2   4   2   28.37    2.21
  -2  -4  -3 3024.29   28.55
  -2  -4  -3 2555.27   26.76
  -2  -4  -3 2455.20   24.38
   2   4   3 2332.29   22.50
   2   4   3 2895.60   25.26
   2   4   3 2445.66   24.58
   2   4   3 2873.23   29.09
   2   4   3 2792.99   21.37
  -2  -4  -4  317.46    7.75
  -2  -4  -4  275.92    4.55
  -2  -4  -4  312.79    9.53
  -2  -4  -4  328.22    9.24
  -2  -4  -4  327.72    9.75
  -2  -4  -4  337.73    9.20
  -2  -4  -4  267.74    4.34
  -2  -4  -4  312.02    9.84
  -2  -4  -4  271.15    4.40
  -2  -4  -4  272.23    4.42
   2   4   4  247.15    4.12
  -2  -4  -4  286.10    4.68
   2   4   4  245.59    4.12
   2   4   4  236.82    4.08
  -2  -4  -4  294.34    4.90
   2   4   4  246.97    4.12
   2   4   4  233.80    4.01
   2   4   4  306.36    6.91
   2   4   4  242.73    4.14
   2   4   4  242.32    4.22
   2   4   4  304.94    8.33
   2   4   4  329.17    6.38
  -2  -4  -5  872.22   12.59
  -2  -4  -5  908.74   18.32
  -2  -4  -5  961.69   16.34
  -2  -4  -5  929.33   18.59
  -2  -4  -5  873.38   18.54
  -2  -4  -5  889.73   12.58
  -2  -4  -5  880.76   12.23
  -2  -4  -5  858.74   12.14
  -2  -4  -5  911.99   12.42
   2   4   5  630.53   10.29
   2   4   5  629.44   10.26
   2   4   5  629.27   10.34
   2   4   5  649.32   10.35
   2   4   5  856.47   15.60
   2   4   5  925.15   18.95
   2   4   5  649.75   10.41
  -2  -4  -5  813.00   12.68
  -2  -4  -6  887.82   16.00
  -2  -4  -6  893.81   16.90
  -2  -4  -6  846.63   19.26
  -2  -4  -6  873.04   20.35
  -2  -4  -6  879.02   20.33
  -2  -4  -6  880.41   16.59
   2   4   6  863.24   17.20
   2   4   6  917.20   20.07
   2   4   6  866.55   15.28
  -2  -4  -7  735.67   15.80
  -2  -4  -7  820.07   17.38
  -2  -4  -7  775.76   19.84
  -2  -4  -7  813.89   21.58
  -2  -4  -7  760.25   16.88
  -2  -4  -7  780.09   21.23
  -2  -4  -7  765.71   16.87
   2   4   7  806.91   17.27
  -2  -4  -7  781.90   19.99
   2   4   7  719.67   14.99
  -2  -4  -8 1257.33   22.52
  -2  -4  -8 1143.32   25.47
  -2  -4  -8 1206.01   26.93
   2   4   8 1175.17   23.24
   2   4   8 1024.90   22.20
  -2  -4  -8 1190.36   23.28
  -2  -4  -8 1253.04   28.53
   2   4   8 1162.35   22.01
  -2  -4  -8 1115.11   19.47
  -2  -4  -8 1177.04   22.56
   2   4   8 1082.35   19.77
   2   4   9    1.73    1.11
  -2  -4  -9    1.96    1.29
  -2  -4  -9    2.88    1.48
   2   4   9    0.99    0.90
   2   4   9    0.70    0.68
  -2  -4  -9    2.94    1.56
   2   4   9    2.42    1.12
   2   4  10  164.40    7.59
   2   4  10  187.94    7.51
   2   4  10  166.36    8.11
   2   4  10  160.39    8.25
  -2  -4 -10  177.54    7.53
  -2  -4 -10  193.26   10.63
   2   4  10  178.71    8.33
   2   4  10  146.48    7.86
  -2  -4 -11   10.86    2.30
  -2  -4 -11    8.49    1.69
   2   4  11    8.27    1.76
   2   4  11    7.34    1.64
  -2  -4 -11    9.63    1.51
   2   4  11    9.19    1.70
   2   4  11    8.74    1.53
   2   4  11    8.60    1.70
  -2  -4 -12  266.04    7.02
   2   5  -8  187.20    5.64
   2   5  -7   73.50    5.70
   2   5  -7   62.73    5.15
   2   5  -7   61.89    4.56
   2   5  -7   71.90    5.17
  -2  -5   7   81.92    5.33
  -2  -5   7   92.17    4.39
  -2  -5   7   82.79    5.21
   2   5  -6   55.59    5.65
  -2  -5   6   56.05    5.06
  -2  -5   6   51.12    5.07
   2   5  -6   44.30    4.62
  -2  -5   6   62.32    4.18
  -2  -5   6   55.97    5.24
  -2  -5   5   57.31    5.72
  -2  -5   5   62.88    5.61
   2   5  -5   55.36    5.87
  -2  -5   5   62.46    6.19
   2   5  -5   55.77    5.45
  -2  -5   5   65.35    4.22
  -2  -5   5   81.48    5.21
  -2  -5   5   59.77    5.73
  -2  -5   5   69.80    4.71
  -2  -5   4  595.45   17.86
  -2  -5   4  585.42   19.26
  -2  -5   4  572.94   17.56
  -2  -5   4  618.54   14.21
  -2  -5   4  624.18   14.08
   2   5  -3    9.67    2.14
  -2  -5   3   11.88    2.45
  -2  -5   3   13.23    2.85
  -2  -5   3   15.28    2.22
  -2  -5   3   13.15    2.14
  -2  -5   3   16.04    2.82
  -2  -5   3   13.51    2.08
  -2  -5   2  228.09   10.01
  -2  -5   2  231.43    8.54
   2   5  -2  230.06    7.24
  -2  -5   2  224.02    9.71
  -2  -5   2  253.07    8.84
   2   5  -2  258.89    8.35
  -2  -5   1  357.26   12.00
  -2  -5   1  423.97   11.22
   2   5  -1  348.46   13.46
   2   5  -1  411.19    9.37
   2   5  -1  422.77    9.90
   2   5   0  786.54   11.39
  -2  -5   0  802.11   15.32
   2   5   0  795.42   12.85
  -2  -5   0  728.10   16.18
   2   5   0  684.26   12.66
   2   5   0  767.46   13.00
   2   5   0  821.61   12.77
  -2  -5  -1   43.39    3.44
  -2  -5  -1   39.11    3.26
   2   5   1   50.42    4.32
   2   5   1   39.36    2.67
   2   5   1   32.32    2.68
   2   5   1   40.38    2.53
  -2  -5  -1   42.07    3.67
   2   5   1   45.04    2.76
   2   5   1   40.12    2.57
   2   5   1   39.04    2.24
  -2  -5  -2   11.12    1.72
   2   5   2    9.94    1.11
  -2  -5  -2    7.91    1.62
  -2  -5  -2   13.06    1.94
   2   5   2   11.16    1.88
   2   5   2   17.87    1.84
   2   5   2   10.59    1.42
   2   5   2   14.29    1.68
  -2  -5  -3   61.11    3.98
  -2  -5  -3   61.57    4.02
   2   5   3   59.77    3.89
  -2  -5  -3   57.34    4.16
  -2  -5  -3   59.13    4.24
   2   5   3   52.63    3.43
   2   5   3   66.73    3.72
   2   5   3   50.09    3.35
   2   5   3   51.12    3.19
  -2  -5  -4   11.31    1.73
  -2  -5  -4   11.71    2.01
  -2  -5  -4   10.22    1.86
   2   5   4   10.52    1.38
   2   5   4    9.55    1.60
   2   5   4    9.53    1.66
   2   5   4   13.64    2.09
  -2  -5  -5  649.69   16.63
  -2  -5  -5  673.54   16.38
  -2  -5  -5  686.27   17.36
  -2  -5  -5  623.50   13.03
   2   5   5  657.10   14.82
   2   5   5  693.02   16.76
   2   5   6    2.33    0.94
  -2  -5  -6    7.15    1.64
  -2  -5  -6    1.59    1.03
  -2  -5  -6    5.81    1.66
  -2  -5  -6    2.04    1.01
  -2  -5  -6    0.41    0.72
  -2  -5  -6    3.13    1.52
  -2  -5  -7   56.78    5.53
  -2  -5  -7   56.40    5.40
  -2  -5  -7   62.63    6.06
  -2  -5  -7   52.13    4.70
   2   5   7   62.61    4.91
  -2  -5  -7   56.56    4.45
   2   5   7   54.48    4.09
  -2  -5  -8  214.82    8.23
  -2  -5  -8  226.29   11.36
  -2  -5  -8  214.01   11.00
  -2  -5  -8  191.14    8.96
  -2  -5  -8  230.47   12.47
   2   5   8  223.56    9.44
   2   5   8  200.54    7.92
   2   5   9    0.88    0.86
  -2  -5  -9    0.14    0.85
   2   5   9    1.40    0.90
  -2  -5 -10  693.44   17.82
   2   5  10  599.05   15.27
  -2  -5 -10  714.02   14.60
   2   5  10  708.59   16.11
   2   5  10  613.64   14.22
   2   5  10  561.31   14.59
  -2  -5 -11   43.56    3.46
  -2  -5 -11   47.10    3.74
   2   5  11   38.01    3.21
  -2  -5 -11   39.67    2.59
   2   5  11   45.08    3.32
   2   5  11   34.22    3.06
   2   5  11   31.98    2.98
  -2  -5 -12   14.84    1.39
  -2  -6   7    3.46    0.96
   2   6  -7    4.12    1.06
   2   6  -6    0.53    0.63
   2   6  -6    0.80    0.80
  -2  -6   6    1.47    0.85
   2   6  -6    1.74    1.02
  -2  -6   6    1.93    0.81
   2   6  -5    1.73    1.02
   2   6  -5    3.09    1.41
  -2  -6   5    3.10    1.40
   2   6  -4  779.93   20.97
  -2  -6   4 1122.32   19.81
   2   6  -4  643.37   18.16
  -2  -6   4  913.34   22.48
  -2  -6   4  911.21   22.09
  -2  -6   4  989.83   17.97
  -2  -6   4  975.06   17.80
  -2  -6   3  213.31   10.89
  -2  -6   3  203.41   10.31
  -2  -6   3  235.43    8.94
  -2  -6   3  209.85    8.09
  -2  -6   2   22.73    2.88
  -2  -6   2   17.40    2.97
  -2  -6   2   19.09    2.53
  -2  -6   2   23.54    2.86
  -2  -6   1  846.22   20.95
  -2  -6   1  922.07   19.21
  -2  -6   1  871.66   17.98
  -2  -6   1  853.77   20.25
  -2  -6   0  724.07   15.82
  -2  -6   0  826.44   20.19
  -2  -6   0  851.64   18.90
  -2  -6   0  769.46   18.50
   2   6   0  815.21   14.62
  -2  -6   0  863.25   18.56
   2   6   1 1361.59   21.28
  -2  -6  -1 1414.82   22.92
  -2  -6  -1 1527.98   25.77
   2   6   1 1543.31   27.18
   2   6   1 1633.09   21.19
   2   6   1 1530.42   19.38
  -2  -6  -2  407.42   12.39
  -2  -6  -2  398.51   11.77
  -2  -6  -2  402.32   12.49
   2   6   2  366.01    9.89
   2   6   2  383.92   11.00
   2   6   2  413.73   12.25
   2   6   2  413.74   10.22
   2   6   2  372.03    9.46
  -2  -6  -3  133.33    6.14
  -2  -6  -3  134.26    6.71
  -2  -6  -3  143.22    7.74
  -2  -6  -3  150.21    7.78
   2   6   3  147.44    6.23
   2   6   3  127.69    5.96
   2   6   3  138.46    5.72
  -2  -6  -4  160.31    7.53
  -2  -6  -4  167.09    8.24
  -2  -6  -4  170.40    8.64
  -2  -6  -4  211.15   10.26
  -2  -6  -4  213.16   11.45
   2   6   4  153.42    6.73
   2   6   4  180.30    7.69
  -2  -6  -4  234.28   12.27
  -2  -6  -4  156.11    7.21
  -2  -6  -5 1707.57   26.28
  -2  -6  -5 1659.87   27.34
  -2  -6  -5 1378.09   22.85
  -2  -6  -5 1580.40   28.60
  -2  -6  -5 2094.55   38.15
  -2  -6  -5 2498.57   43.60
  -2  -6  -5 2247.38   36.47
  -2  -6  -6 1744.21   28.70
  -2  -6  -6 1696.23   30.60
  -2  -6  -6 1691.22   29.32
   2   6   6 1751.75   25.18
  -2  -6  -7  149.79    8.19
  -2  -6  -7  150.31    9.30
  -2  -6  -7  171.36    9.26
  -2  -6  -7  168.25   10.29
  -2  -6  -7  135.83    7.70
  -2  -6  -7  148.12    7.24
   2   6   7  155.02    7.97
  -2  -6  -8   31.49    3.76
  -2  -6  -8   32.03    3.17
  -2  -6  -8   37.16    4.45
  -2  -6  -8   31.50    4.34
   2   6   8   25.55    3.18
  -2  -6  -8   39.97    5.21
   2   6   8   35.58    3.73
  -2  -6  -9  172.86    7.55
  -2  -6  -9  191.81   10.00
  -2  -6  -9  199.19    8.83
   2   6   9  188.00    8.60
  -2  -6  -9  199.86    6.64
   2   6   9  180.92    7.86
  -2  -6 -10  376.72    9.39
  -2  -6 -10  370.41   12.41
   2   6  10  300.71    9.45
   2   6  10  344.47   10.34
   2   6  10  324.83    9.22
   2   6  10  275.46    9.09
  -2  -6 -11    0.44    0.29
   2   7  -6   65.55    4.03
  -2  -7   6   85.80    3.46
   2   7  -5   21.00    2.40
   2   7  -5   19.95    2.72
  -2  -7   5   26.07    2.99
  -2  -7   4 1498.93   21.39
  -2  -7   4 1343.86   19.82
  -2  -7   3  256.71   11.03
  -2  -7   3  275.73    9.17
  -2  -7   2  130.44    7.92
  -2  -7   2  129.14    6.79
  -2  -7   2  124.22    6.24
  -2  -7   2  113.04    7.45
  -2  -7   1  354.49   13.28
  -2  -7   1  343.99   11.28
  -2  -7   1  385.78   12.89
  -2  -7   1  347.64   12.89
  -2  -7   1  310.02   10.15
  -2  -7   0   86.23    6.24
  -2  -7   0   63.54    4.96
  -2  -7   0   72.62    5.99
  -2  -7   0   63.47    4.57
  -2  -7   0   74.63    6.00
  -2  -7   0   68.44    5.63
  -2  -7  -1 1318.61   26.00
  -2  -7  -1 1276.63   23.49
  -2  -7  -1 1293.97   26.37
  -2  -7  -1 1310.81   25.46
  -2  -7  -2   44.61    4.69
  -2  -7  -2   41.67    4.25
  -2  -7  -2   33.62    3.62
  -2  -7  -2   40.17    4.54
  -2  -7  -2   49.01    5.40
   2   7   2   36.21    3.28
  -2  -7  -3   70.54    5.84
  -2  -7  -3   76.80    6.19
  -2  -7  -3   94.51    7.71
  -2  -7  -3   87.30    7.51
  -2  -7  -4    4.58    1.64
  -2  -7  -4    3.98    1.32
  -2  -7  -4    3.25    1.40
  -2  -7  -4    6.38    2.33
  -2  -7  -4    3.62    1.74
  -2  -7  -4    3.16    1.22
  -2  -7  -4    6.33    1.68
  -2  -7  -5  474.89   14.41
  -2  -7  -5  446.15   14.24
  -2  -7  -5  480.16   15.54
  -2  -7  -5  407.01   12.54
  -2  -7  -5  400.72   13.43
  -2  -7  -6  166.29    8.90
  -2  -7  -6  139.82    8.02
  -2  -7  -6  155.88    7.74
  -2  -7  -7   33.00    3.44
  -2  -7  -7   27.61    3.83
   2   7   7   28.95    3.44
  -2  -7  -7   28.89    3.54
  -2  -7  -7   32.42    3.66
  -2  -7  -8  371.83   14.07
  -2  -7  -8  366.94   10.17
   2   7   8  386.62   11.66
  -2  -7  -9   12.28    2.46
   2   7   9    9.58    1.87
   2   7   9    8.08    1.54
  -2  -7  -9   11.90    1.43
  -2  -7  -9   10.98    1.78
   2   7   9    8.63    1.61
  -2  -7 -10  370.51    7.63
  -2  -7 -10  404.11   11.69
  -2  -8   5   50.55    2.51
   2   8  -4   67.56    4.08
   2   8  -4   76.81    4.59
   2   8  -3   74.36    4.64
  -2  -8   3  143.81    6.16
  -2  -8   3  135.59    5.67
   2   8  -3   86.91    5.40
  -2  -8   2   19.78    2.90
   2   8  -2   11.62    1.89
  -2  -8   2   17.00    2.31
   2   8  -2   10.99    2.02
  -2  -8   2   25.30    2.95
  -2  -8   1  502.05   13.75
  -2  -8   1  462.56   12.36
  -2  -8   0   24.01    3.25
  -2  -8   0   21.21    3.09
  -2  -8   0   25.35    3.48
  -2  -8   0   20.74    2.74
  -2  -8   0   22.48    2.95
  -2  -8  -1  142.45    8.63
  -2  -8  -1  111.36    7.03
  -2  -8  -1  127.83    7.70
  -2  -8  -1  128.61    8.03
  -2  -8  -1  104.22    6.62
  -2  -8  -1  108.57    6.31
  -2  -8  -2    6.80    2.04
  -2  -8  -2    9.12    2.31
  -2  -8  -2    7.18    1.97
  -2  -8  -2    4.26    1.47
  -2  -8  -2    5.11    1.53
  -2  -8  -3  211.62   10.41
  -2  -8  -3  198.74   10.44
  -2  -8  -4  509.62   15.63
  -2  -8  -4  488.93   16.12
  -2  -8  -5  493.67   14.70
  -2  -8  -5  498.46   15.86
  -2  -8  -6  288.86   10.50
  -2  -8  -6  305.52   11.57
  -2  -8  -6  277.30   10.89
  -2  -8  -7  245.39   10.45
  -2  -8  -7  264.55    9.03
  -2  -8  -7  256.29    9.53
   2   8   7  264.15    9.42
  -2  -8  -8  164.63    8.14
  -2  -8  -8  170.11    6.09
   2   8   8  154.99    6.42
   2   8   9    9.62    1.53
  -2  -8  -9    9.51    1.81
  -2  -8  -9    9.48    1.30
  -2  -9   4  367.04    5.83
  -2  -9   3    9.11    1.25
  -2  -9   3    7.37    1.11
  -2  -9   2  135.79    5.85
  -2  -9   2  165.69    5.77
  -2  -9   1  661.81   14.34
  -2  -9   1  576.44   12.51
  -2  -9   0    3.85    1.34
  -2  -9   0    4.13    1.24
  -2  -9  -1  356.44   11.55
  -2  -9  -1  347.86   10.73
  -2  -9  -2   33.58    4.06
  -2  -9  -2   27.63    3.31
  -2  -9  -2   28.70    3.13
  -2  -9  -3  206.81    8.87
  -2  -9  -3  223.05   10.27
  -2  -9  -3  238.89   10.67
  -2  -9  -3  186.18    8.17
  -2  -9  -4   15.81    2.44
  -2  -9  -4   16.20    2.76
  -2  -9  -4   17.00    2.79
  -2  -9  -5  332.44   11.50
  -2  -9  -5  333.43   11.15
   2   9   5  305.04    8.87
  -2  -9  -6    6.87    1.58
  -2  -9  -6    8.05    1.68
  -2  -9  -7   77.39    4.10
   2   9   7   62.09    3.71
  -2  -9  -8  467.41    8.63
  -2 -10   1  234.20    6.43
  -2 -10   1  216.15    5.41
  -2 -10   0    3.29    0.99
  -2 -10   0    0.96    0.58
  -2 -10  -1   19.27    2.29
  -2 -10  -1   15.68    1.84
  -2 -10  -2   78.13    4.56
  -2 -10  -2   70.00    3.98
  -2 -10  -3  504.90   12.67
  -2 -10  -3  523.58   12.14
  -2 -10  -4  310.88    9.45
  -2 -10  -5   48.67    3.39
   3  -9  -4  135.20    5.42
  -3   9   4  194.73    5.93
  -3   9   3   25.49    2.47
  -3   9   3   18.54    2.00
   3  -9  -3   16.89    2.27
  -3   9   3   24.66    2.21
   3  -9  -3   14.54    1.12
   3  -9  -2   75.74    5.40
  -3   9   2   92.71    4.88
  -3   9   2   78.33    4.25
  -3   9   2   88.70    4.15
   3  -9  -2   60.94    4.49
  -3   9   2   84.97    4.41
  -3   9   2   73.74    4.05
   3  -9  -2   69.44    2.78
   3  -9  -1   58.21    4.38
  -3   9   1   86.89    4.68
  -3   9   1   84.17    4.30
  -3   9   1   89.47    4.61
   3  -9  -1   66.23    2.78
  -3   9   0  249.27    7.78
  -3   9   0  268.95    7.68
  -3   9   0  261.69    7.90
  -3   9   0  274.05    7.90
  -3   9  -1    8.60    1.30
  -3   9  -1   13.46    1.71
  -3   9  -1   11.02    1.58
   3  -9   1    8.73    1.47
  -3   9  -1   12.71    1.73
  -3   9  -2   11.38    1.52
  -3   9  -2    8.95    1.42
   3  -9   2   10.82    1.81
   3  -9   3   30.62    2.87
   3  -9   3   30.36    2.73
   3  -9   4    4.83    0.97
   3  -9   4    6.38    1.15
  -3   8   6    1.05    0.57
   3  -8  -5   38.24    3.98
  -3   8   5   42.58    3.15
   3  -8  -5   35.92    3.67
  -3   8   5   52.33    3.50
   3  -8  -5   35.39    2.35
   3  -8  -5   31.34    3.20
  -3   8   5   41.40    3.24
  -3   8   5   46.87    3.31
  -3   8   5   41.75    3.10
   3  -8  -4  634.69   18.11
   3  -8  -4  638.91   17.60
  -3   8   4  837.39   16.44
  -3   8   4  664.78   13.74
  -3   8   4  739.68   14.67
  -3   8   4  773.22   14.86
  -3   8   4  712.82   12.79
  -3   8   4  668.68   14.51
  -3   8   4  756.06   14.54
  -3   8   4  724.34   14.86
   3  -8  -4  624.94   12.00
   3  -8  -3   18.96    3.30
   3  -8  -3   17.70    3.14
   3  -8  -3   21.54    3.39
  -3   8   3   21.18    2.57
  -3   8   3   22.57    2.55
  -3   8   3   23.19    2.54
  -3   8   3   22.04    2.69
  -3   8   3   17.49    2.41
   3  -8  -3   18.81    3.40
  -3   8   3   21.65    2.64
  -3   8   3   25.79    2.94
   3  -8  -3   20.45    2.31
  -3   8   2  284.74    9.30
   3  -8  -2  215.66   12.05
   3  -8  -2  240.27   11.16
   3  -8  -2  228.24   10.06
  -3   8   2  318.46   11.16
  -3   8   2  289.86    9.73
  -3   8   2  260.75    8.52
  -3   8   2  200.57    8.25
  -3   8   2  291.75    9.92
  -3   8   2  281.03    9.38
   3  -8  -2  252.95    8.31
  -3   8   1   93.43    5.47
   3  -8  -1   78.79    7.47
  -3   8   1  102.39    6.48
  -3   8   1   88.66    5.48
   3  -8  -1   59.98    5.82
  -3   8   1   88.66    5.54
   3  -8  -1   76.17    6.42
  -3   8   1   58.41    4.26
  -3   8   1   89.74    5.36
   3  -8  -1   75.53    5.78
   3  -8  -1   82.27    4.71
   3  -8   0   84.01    7.77
   3  -8   0   79.92    6.63
  -3   8   0   98.21    5.64
  -3   8   0   99.66    6.02
   3  -8   0   77.01    6.46
  -3   8   0   97.63    4.80
   3  -8   0   83.83    6.01
   3  -8   0   88.21    4.77
   3  -8   1  592.97   21.08
  -3   8  -1  713.69   16.41
  -3   8  -1  744.20   16.16
  -3   8  -1  728.90   14.20
   3  -8   1  479.39   14.90
  -3   8  -1  724.65   15.47
   3  -8   1  549.26   15.15
   3  -8   1  672.91   12.95
   3  -8   2   34.96    3.47
  -3   8  -2   42.93    3.55
   3  -8   2   25.94    3.02
  -3   8  -2   30.52    3.08
   3  -8   2   34.81    3.97
  -3   8  -2   36.65    2.80
  -3   8  -2   38.84    3.60
   3  -8   2   33.30    4.41
   3  -8   2   33.55    2.64
   3  -8   2   32.11    4.15
  -3   8  -3   32.19    2.97
  -3   8  -3   28.09    2.75
   3  -8   3   26.01    2.92
  -3   8  -3   29.06    2.57
   3  -8   3   30.08    2.22
  -3   8  -3   27.28    2.89
   3  -8   3   27.87    3.95
   3  -8   3   23.60    3.36
  -3   8  -4   19.63    2.19
   3  -8   4   17.30    2.24
  -3   8  -4   16.86    1.90
  -3   8  -4   17.52    2.24
   3  -8   4   14.95    2.69
   3  -8   4   15.15    2.55
  -3   8  -5  175.55    5.85
   3  -8   5  158.18    5.91
  -3   8  -5  153.33    5.67
   3  -8   5  170.71    7.55
   3  -8   5  163.86    7.22
   3  -7  -7   16.80    2.10
  -3   7   7   19.74    2.08
  -3   7   7   20.83    2.23
   3  -7  -7   16.90    1.44
  -3   7   6   13.79    2.09
   3  -7  -6   13.54    2.69
   3  -7  -6   12.25    2.34
   3  -7  -6   11.11    2.13
  -3   7   6   12.03    1.84
  -3   7   6   12.02    1.85
  -3   7   6   16.95    2.36
  -3   7   6   14.52    2.01
   3  -7  -6   12.53    1.65
  -3   7   5  172.84    8.19
   3  -7  -5  150.16    9.90
   3  -7  -5  140.42    8.91
   3  -7  -5  152.50    9.55
  -3   7   5  150.41    6.01
   3  -7  -5  132.17    8.37
  -3   7   5  138.31    6.82
  -3   7   5  175.29    7.84
   3  -7  -5  145.36    8.30
  -3   7   5  159.78    7.06
  -3   7   5  162.81    7.08
   3  -7  -5  137.68    6.17
  -3   7   4  343.32   11.63
   3  -7  -4  300.79   14.88
  -3   7   4  341.80   10.79
   3  -7  -4  297.48   14.36
   3  -7  -4  285.44   12.69
  -3   7   4  332.04   11.29
  -3   7   4  332.97   10.06
  -3   7   4  292.50    8.54
  -3   7   4  336.10   10.95
   3  -7  -4  290.26   12.86
  -3   7   4  338.46   10.99
   3  -7  -4  298.66    9.92
   3  -7  -3  461.74   18.96
   3  -7  -3  475.94   18.53
   3  -7  -3  491.67   17.69
   3  -7  -3  476.40   16.73
   3  -7  -3  449.32   18.67
  -3   7   3  593.06   15.60
  -3   7   3  596.49   15.47
   3  -7  -3  498.54   17.14
  -3   7   3  594.91   14.90
  -3   7   3  591.67   16.61
  -3   7   3  539.97   14.17
   3  -7  -3  485.01   13.29
  -3   7   2  122.46    7.47
   3  -7  -2  108.11    8.35
   3  -7  -2   92.73    8.41
   3  -7  -2   99.01    9.16
  -3   7   2  134.16    7.27
  -3   7   2  128.74    7.06
  -3   7   2  114.35    6.55
   3  -7  -2  113.01    8.59
   3  -7  -2   94.77    7.18
   3  -7  -2  115.87    6.55
  -3   7   1   11.27    1.78
   3  -7  -1    7.23    2.27
   3  -7  -1    9.77    2.76
  -3   7   1   11.05    2.13
   3  -7  -1    7.12    2.22
   3  -7  -1    9.69    2.38
   3  -7  -1    8.79    2.49
  -3   7   1   11.77    2.25
  -3   7   1   11.38    2.25
   3  -7  -1    6.57    2.60
  -3   7   1    9.97    2.17
  -3   7   1   11.07    2.17
   3  -7  -1    7.88    2.19
   3  -7  -1    7.14    1.67
  -3   7   1   13.67    2.29
  -3   7   0  138.27    6.42
   3  -7   0  127.20    6.97
   3  -7   0  111.38    8.48
   3  -7   0  111.01    8.02
   3  -7   0  110.96    9.68
   3  -7   0  114.78    7.53
  -3   7   0  158.84    8.71
  -3   7   0  139.88    7.48
   3  -7   0  116.81    7.83
   3  -7   0   90.81    8.19
  -3   7   0   90.47    6.34
  -3   7   0  134.06    7.02
   3  -7   0  121.11    6.55
   3  -7   0  123.41    7.16
  -3   7  -1  902.87   18.36
   3  -7   1  850.90   19.10
   3  -7   1  729.06   24.52
   3  -7   1  764.71   19.19
  -3   7  -1  896.01   16.70
   3  -7   1  578.17   18.56
  -3   7  -1  901.90   19.45
  -3   7  -1  897.17   17.43
   3  -7   1  675.84   23.37
   3  -7   1  714.38   21.20
   3  -7   1  788.86   20.21
   3  -7   1  837.22   17.25
   3  -7   1  832.44   18.71
  -3   7  -2    8.58    1.82
   3  -7   2    6.40    2.46
   3  -7   2    7.59    1.94
  -3   7  -2   12.44    2.40
  -3   7  -2    9.23    1.83
  -3   7  -2   11.47    2.26
  -3   7  -2    8.10    1.79
  -3   7  -2    7.25    1.54
   3  -7   2    5.11    1.72
   3  -7   2    8.04    2.68
   3  -7   2    7.26    1.83
   3  -7   2    7.84    1.59
   3  -7   2    7.68    1.84
   3  -7   3   49.12    4.16
   3  -7   3   61.12    5.19
  -3   7  -3   55.05    4.57
  -3   7  -3   63.56    4.74
  -3   7  -3   72.87    4.97
   3  -7   3   66.31    5.00
   3  -7   3   61.71    4.94
  -3   7  -3   63.34    4.44
   3  -7   3   52.26    5.05
   3  -7   3   66.63    5.24
   3  -7   3   50.74    6.06
  -3   7  -3   66.73    4.74
   3  -7   3   74.25    4.46
   3  -7   3   50.60    5.53
   3  -7   4   67.27    5.14
  -3   7  -4   67.58    4.82
   3  -7   4   66.02    4.79
   3  -7   4   67.56    4.79
  -3   7  -4   67.04    4.51
  -3   7  -4   66.57    4.37
  -3   7  -4   65.00    4.02
   3  -7   4   60.13    6.31
   3  -7   4   63.50    4.85
   3  -7   4   45.32    5.02
   3  -7   4   67.29    3.93
   3  -7   5  488.51   13.39
  -3   7  -5  543.59   12.99
  -3   7  -5  495.74   12.51
   3  -7   5  486.62   12.40
  -3   7  -5  471.08   11.59
  -3   7  -5  506.51   11.25
   3  -7   5  462.90   15.78
   3  -7   5  485.20   12.84
   3  -7   5  441.37   14.67
  -3   7  -6   52.88    3.61
   3  -7   6   48.78    3.69
  -3   7  -6   54.78    3.78
   3  -7   6   51.87    4.49
   3  -7   6   52.58    3.61
  -3   7  -6   50.90    3.43
  -3   7  -6   50.12    3.25
   3  -7   6   47.14    3.52
   3  -7   6   52.35    4.56
   3  -7   7   13.16    1.97
  -3   6   8  280.69    7.00
  -3   6   8  306.71    8.13
   3  -6  -8  246.44    7.58
   3  -6  -8  210.45    5.17
   3  -6  -7   29.78    3.25
   3  -6  -7   30.80    3.91
  -3   6   7   27.33    2.90
  -3   6   7   33.96    3.14
  -3   6   7   27.62    2.81
  -3   6   7   37.06    3.60
  -3   6   7   31.44    2.93
   3  -6  -7   30.25    3.27
  -3   6   7   30.87    2.90
   3  -6  -7   29.65    2.68
  -3   6   6   58.18    4.61
   3  -6  -6   43.91    5.39
   3  -6  -6   45.79    5.01
   3  -6  -6   51.72    5.67
  -3   6   6   44.85    3.20
   3  -6  -6   45.11    4.84
   3  -6  -6   45.39    5.12
  -3   6   6   44.91    4.22
  -3   6   6   60.72    5.02
  -3   6   6   46.99    3.97
   3  -6  -6   43.85    4.53
  -3   6   6   50.06    4.01
   3  -6  -6   48.28    3.96
   3  -6  -5  174.18   11.85
   3  -6  -5  174.70   11.28
   3  -6  -5  155.10   10.60
  -3   6   5  204.19    9.23
   3  -6  -5  149.73    9.92
  -3   6   5  170.16    8.61
  -3   6   5  167.55    7.18
  -3   6   5  160.68    6.45
  -3   6   5  180.03    8.22
  -3   6   5  176.18    8.04
  -3   6   5  207.31    9.97
  -3   6   5  178.64    8.05
   3  -6  -5  156.19    9.25
   3  -6  -5  167.43   10.68
   3  -6  -5  156.90    7.77
   3  -6  -4   71.66    7.79
  -3   6   4  102.76    7.17
  -3   6   4   75.56    4.92
   3  -6  -4   72.74    7.64
   3  -6  -4   76.74    7.12
   3  -6  -4   68.96    7.16
   3  -6  -4   60.76    6.87
   3  -6  -4   62.83    6.49
  -3   6   4   85.51    6.15
   3  -6  -4   69.63    6.42
   3  -6  -4   76.20    6.44
  -3   6   4   71.39    4.43
  -3   6   4   79.51    5.51
  -3   6   4   72.07    5.27
  -3   6   4   81.22    5.63
   3  -6  -4   78.30    5.73
   3  -6  -3   20.41    4.29
   3  -6  -3   25.62    4.51
   3  -6  -3   23.56    3.95
   3  -6  -3   21.96    3.93
   3  -6  -3   25.96    4.63
   3  -6  -3   18.62    3.38
  -3   6   3   25.26    3.32
   3  -6  -3   24.19    3.91
  -3   6   3   31.59    3.76
  -3   6   3   27.17    3.30
  -3   6   3   33.37    4.18
  -3   6   3   24.82    3.03
   3  -6  -3   20.66    3.74
   3  -6  -3   20.51    3.28
   3  -6  -3   23.82    3.26
   3  -6  -2    6.89    2.53
  -3   6   2    7.51    2.08
   3  -6  -2    9.02    2.62
   3  -6  -2    6.25    2.13
   3  -6  -2    6.52    2.06
  -3   6   2   12.15    2.29
   3  -6  -2    8.41    2.39
   3  -6  -2   11.33    2.85
  -3   6   2    8.46    1.87
  -3   6   2   10.97    2.27
  -3   6   2    8.34    1.91
   3  -6  -2    7.10    2.57
  -3   6   2    9.72    2.02
   3  -6  -2   10.68    2.45
   3  -6  -2    8.23    1.87
   3  -6  -2    8.62    2.58
  -3   6   1   67.11    4.25
   3  -6  -1   64.48    4.71
   3  -6  -1   59.36    6.50
   3  -6  -1   65.50    6.04
   3  -6  -1   49.36    6.50
  -3   6   1   64.40    5.10
   3  -6  -1   61.41    6.22
  -3   6   1   62.94    4.66
  -3   6   1   72.37    5.38
  -3   6   1   71.95    5.29
  -3   6   1   78.16    6.26
   3  -6  -1   59.56    6.24
   3  -6  -1   48.57    6.08
   3  -6  -1   58.13    5.54
   3  -6  -1   58.03    4.70
   3  -6  -1   70.04    5.34
   3  -6   0  309.20   14.17
  -3   6   0  390.50   10.88
   3  -6   0  308.45   13.71
   3  -6   0  314.39   13.51
   3  -6   0  280.93   15.28
   3  -6   0  258.63   14.56
  -3   6   0  360.65   10.25
  -3   6   0  367.77   12.11
   3  -6   0  283.50   13.49
  -3   6   0  361.32   11.10
  -3   6   0  377.00   12.00
  -3   6   0  372.95   10.61
   3  -6   0  360.98   11.66
   3  -6   0  326.02   13.03
   3  -6   0  334.53   11.19
  -3   6   0  300.19   12.23
   3  -6   0  356.16   11.99
   3  -6   1  487.18   14.06
   3  -6   1  405.51   15.18
   3  -6   1  407.19   14.75
   3  -6   1  394.57   17.66
   3  -6   1  462.64   14.41
  -3   6  -1  505.31   12.80
   3  -6   1  495.57   13.87
  -3   6  -1  503.47   14.18
  -3   6  -1  529.99   13.21
   3  -6   1  402.25   15.64
  -3   6  -1  367.59   13.28
   3  -6   1  464.29   13.56
   3  -6   1  378.75   17.88
   3  -6   1  493.19   15.66
   3  -6   1  427.49   12.54
   3  -6   1  495.73   14.15
  -3   6  -1  488.34   12.98
   3  -6   2   13.31    2.41
   3  -6   2    9.31    2.85
   3  -6   2    8.41    1.98
  -3   6  -2   14.69    2.25
  -3   6  -2   12.62    2.58
   3  -6   2   10.82    2.19
  -3   6  -2   12.43    2.14
   3  -6   2   11.13    2.35
   3  -6   2   12.33    2.22
  -3   6  -2   12.59    2.16
   3  -6   2   15.34    3.04
   3  -6   2   12.28    3.14
  -3   6  -2   14.91    1.92
  -3   6  -2   10.88    2.25
   3  -6   2    7.85    2.05
   3  -6   2   11.75    2.24
   3  -6   2    9.12    1.74
   3  -6   2   14.41    2.47
  -3   6  -2   13.12    2.20
   3  -6   3   44.67    4.43
   3  -6   3   41.89    5.49
  -3   6  -3   39.70    3.37
  -3   6  -3   38.57    4.24
   3  -6   3   36.35    3.48
   3  -6   3   43.78    4.22
   3  -6   3   39.87    3.93
   3  -6   3   42.48    4.12
  -3   6  -3   44.11    4.08
   3  -6   3   34.88    4.38
  -3   6  -3   37.61    3.54
   3  -6   3   28.49    3.35
   3  -6   3   36.12    4.11
   3  -6   3   40.95    4.08
   3  -6   3   30.13    4.93
   3  -6   3   39.32    3.47
  -3   6  -3   41.41    3.96
   3  -6   4  327.90   12.10
  -3   6  -4  324.62   10.28
  -3   6  -4  272.10   10.23
  -3   6  -4  320.23   11.20
   3  -6   4  314.81   11.11
   3  -6   4  284.88   11.65
  -3   6  -4  331.07   11.30
  -3   6  -4  312.84    9.94
   3  -6   4  278.96   14.34
   3  -6   4  314.07   11.50
   3  -6   4  300.58   11.40
   3  -6   4  322.98    9.80
   3  -6   4  298.80   10.90
   3  -6   4  241.90   12.23
  -3   6  -4  308.91   10.95
   3  -6   5 1008.56   21.61
  -3   6  -5 1027.08   19.83
  -3   6  -5  935.94   16.90
  -3   6  -5  994.69   20.19
   3  -6   5  971.14   20.02
  -3   6  -5 1007.10   18.99
   3  -6   5  897.57   24.11
   3  -6   5  995.74   20.62
   3  -6   5 1009.97   16.71
   3  -6   6   55.71    4.71
  -3   6  -6   54.15    4.41
   3  -6   6   54.13    4.41
  -3   6  -6   47.45    4.20
   3  -6   6   46.82    3.86
   3  -6   6   55.52    4.56
   3  -6   6   45.26    4.79
   3  -6   6   58.88    4.43
  -3   6  -6   68.32    4.77
  -3   6  -7   44.95    3.79
  -3   6  -7   44.02    3.52
  -3   6  -7   45.98    3.81
   3  -6   7   39.89    3.35
   3  -6   7   43.21    3.93
   3  -6   7   46.01    3.75
   3  -6   7   50.39    4.60
  -3   6  -8  224.35    7.12
  -3   6  -8  211.28    6.95
  -3   6  -8  217.18    6.89
   3  -6   8  198.92    6.42
   3  -5  -9  248.40    6.56
   3  -5  -8   57.79    5.21
   3  -5  -8   58.16    5.13
  -3   5   8   75.63    4.56
  -3   5   8   55.86    3.90
  -3   5   8   57.45    3.91
   3  -5  -8   57.19    4.27
  -3   5   8   57.08    3.74
   3  -5  -8   61.20    3.46
  -3   5   7   14.66    1.86
   3  -5  -7   16.58    3.03
   3  -5  -7   17.19    2.71
   3  -5  -7   15.14    3.31
   3  -5  -7   12.78    2.96
  -3   5   7   15.75    2.65
  -3   5   7   18.02    2.44
  -3   5   7   23.73    3.09
  -3   5   7   14.75    2.26
   3  -5  -7   16.70    2.79
  -3   5   7   14.45    2.25
   3  -5  -6  564.29   20.29
   3  -5  -6  578.36   19.79
   3  -5  -6  540.26   21.14
   3  -5  -6  574.96   21.26
   3  -5  -6  510.37   17.20
  -3   5   6  540.63   16.17
  -3   5   6  540.35   13.37
  -3   5   6  521.18   12.00
  -3   5   6  545.62   14.56
   3  -5  -6  511.93   16.36
  -3   5   6  576.79   15.67
  -3   5   6  574.98   14.73
   3  -5  -5   74.06    7.84
   3  -5  -5   70.62    7.33
   3  -5  -5   62.61    6.22
   3  -5  -5   73.43    7.88
  -3   5   5   72.21    5.32
  -3   5   5   74.05    4.97
  -3   5   5   82.51    6.01
  -3   5   5   70.73    4.42
  -3   5   5   78.53    5.47
   3  -5  -5   68.62    6.12
  -3   5   5   82.51    5.53
   3  -5  -5   70.24    5.24
   3  -5  -4  643.82   23.43
   3  -5  -4  671.45   22.77
   3  -5  -4  637.70   20.39
   3  -5  -4  640.74   22.56
  -3   5   4  692.85   17.62
   3  -5  -4  590.60   20.70
  -3   5   4  776.20   18.57
  -3   5   4  672.92   16.09
   3  -5  -4  677.21   16.88
  -3   5   4  635.94   13.57
  -3   5   4  710.95   16.87
   3  -5  -4  628.17   18.01
  -3   5   4  687.78   15.16
   3  -5  -4  633.55   19.15
  -3   5   4  709.48   16.46
   3  -5  -3   23.78    4.41
   3  -5  -3   26.36    4.33
   3  -5  -3   25.46    3.88
   3  -5  -3   20.82    3.93
   3  -5  -3   25.20    4.26
  -3   5   3   26.59    3.35
  -3   5   3   24.65    2.86
  -3   5   3   29.26    3.17
  -3   5   3   27.92    3.18
  -3   5   3   31.90    3.69
  -3   5   3   34.55    4.20
   3  -5  -3   21.49    3.52
   3  -5  -3   24.01    3.42
   3  -5  -3   25.95    3.28
  -3   5   2  178.90    6.36
   3  -5  -2  148.95   10.38
   3  -5  -2  150.46    9.08
   3  -5  -2  157.90    9.93
   3  -5  -2  165.88    9.32
   3  -5  -2  156.37    9.77
   3  -5  -2  143.27    9.22
   3  -5  -2  117.51    9.38
  -3   5   2  171.92    7.98
  -3   5   2  169.57    7.03
  -3   5   2  160.79    7.00
  -3   5   2  169.76    7.47
  -3   5   2  216.02   10.31
  -3   5   2  159.56    7.20
   3  -5  -2  144.86    9.12
   3  -5  -2  155.39    8.52
   3  -5  -2  138.21    9.70
   3  -5  -2  159.99    8.06
  -3   5   1  608.32   12.42
   3  -5  -1  614.64   18.31
   3  -5  -1  624.26   13.87
   3  -5  -1  551.52   19.09
   3  -5  -1  597.67   18.89
   3  -5  -1  646.76   17.91
   3  -5  -1  549.30   17.06
  -3   5   1  659.34   13.15
  -3   5   1  595.06   13.48
   3  -5  -1  490.09   19.14
   3  -5  -1  505.67   19.42
  -3   5   1  640.86   15.11
  -3   5   1  712.53   14.52
  -3   5   1  731.43   17.13
  -3   5   1  611.51   14.21
   3  -5  -1  595.33   16.45
  -3   5   1  616.92   11.31
   3  -5  -1  626.63   15.41
  -3   5   0  158.30    5.77
  -3   5   0  153.08    6.34
   3  -5   0  132.85    8.83
  -3   5   0  153.47    6.70
   3  -5   0  166.54    8.51
  -3   5   0  168.24    6.67
   3  -5   0  119.49    9.09
  -3   5   0  159.96    7.28
  -3   5   0  172.70    7.12
   3  -5   0  141.76    8.45
  -3   5   0  156.39    8.53
   3  -5   0  162.12    7.25
   3  -5   0  158.46    8.12
   3  -5   0  120.30    9.58
   3  -5   0  162.00    7.67
   3  -5   1  466.47   12.81
   3  -5   1  382.65   14.29
   3  -5   1  400.93   13.45
   3  -5   1  369.70   15.77
  -3   5  -1  463.09   11.70
   3  -5   1  449.24   12.55
  -3   5  -1  497.32   12.48
   3  -5   1  414.71   14.48
  -3   5  -1  453.30   11.41
   3  -5   1  455.63   12.49
   3  -5   1  495.31   14.47
   3  -5   1  366.50   16.89
   3  -5   1  472.51   13.00
  -3   5  -1  445.55   11.40
  -3   5  -2    1.60    0.87
  -3   5  -2    1.14    0.77
   3  -5   2    0.68    0.85
   3  -5   2    2.13    1.03
   3  -5   2    4.56    1.90
   3  -5   2    1.29    0.82
   3  -5   2    5.65    1.59
   3  -5   2    0.97    0.80
   3  -5   2    2.70    1.12
   3  -5   2    0.78    0.67
   3  -5   2    3.48    1.41
  -3   5  -2    0.60    0.58
  -3   5  -2    1.02    0.66
  -3   5  -2    1.50    1.00
   3  -5   2    0.99    0.83
   3  -5   2    0.96    0.90
   3  -5   2    2.59    1.06
   3  -5   3  142.11    7.60
   3  -5   3  118.97    6.64
  -3   5  -3  109.15    6.96
  -3   5  -3  151.02    8.43
   3  -5   3  145.35    7.33
  -3   5  -3  134.38    6.86
   3  -5   3  132.41    6.95
  -3   5  -3  142.15    6.41
   3  -5   3  126.72    6.14
   3  -5   3  129.77    6.90
  -3   5  -3  132.53    6.67
   3  -5   3  148.99    7.85
   3  -5   3  140.20    7.14
   3  -5   3  128.27    9.69
   3  -5   4  567.67   15.87
   3  -5   4  496.44   17.70
  -3   5  -4  529.73   15.52
   3  -5   4  589.41   14.93
  -3   5  -4  528.37   14.56
  -3   5  -4  546.48   13.55
   3  -5   4  530.07   14.42
  -3   5  -4  546.74   14.99
   3  -5   4  446.39   14.39
   3  -5   4  479.85   12.76
   3  -5   4  539.41   14.65
   3  -5   4  469.38   18.20
   3  -5   4  565.19   15.24
   3  -5   4  553.07   14.61
  -3   5  -4  506.01   13.75
   3  -5   5  262.02   10.97
   3  -5   5  266.53    9.62
  -3   5  -5  275.64   10.71
   3  -5   5  198.61   10.69
   3  -5   5  242.36    9.80
  -3   5  -5  259.18   10.76
   3  -5   5  214.32    9.55
  -3   5  -5  261.45    9.97
   3  -5   5  245.41   10.17
   3  -5   5  223.16   11.95
   3  -5   5  258.81   10.16
   3  -5   5  256.70   10.01
  -3   5  -5  242.11    9.61
   3  -5   6  625.10   17.05
  -3   5  -6  598.61   16.12
   3  -5   6  588.99   15.48
  -3   5  -6  595.03   16.56
  -3   5  -6  611.12   15.55
   3  -5   6  552.57   14.45
   3  -5   6  554.27   17.59
   3  -5   6  579.34   15.80
   3  -5   6  577.97   14.79
   3  -5   6  536.07   17.30
  -3   5  -6  586.69   14.86
   3  -5   7    0.95    0.82
  -3   5  -7    0.96    0.91
   3  -5   7    5.57    1.60
   3  -5   7    1.72    1.07
   3  -5   7    1.29    0.90
  -3   5  -7    0.89    0.99
   3  -5   7    1.40    0.96
  -3   5  -7    1.23    0.94
  -3   5  -7    1.38    1.00
   3  -5   7    1.43    0.94
   3  -5   7    1.55    1.12
   3  -5   8  373.21   10.93
   3  -5   8  382.93   10.87
  -3   5  -8  416.65   11.66
   3  -5   8  406.83   11.51
  -3   5  -8  400.26   11.88
  -3   5  -8  407.19   11.45
   3  -5   8  413.07   10.81
   3  -5   9   36.34    2.83
  -3   5  -9   42.60    3.31
  -3   5  -9   44.52    3.22
   3  -4  -9   41.29    3.05
   3  -4  -8  281.56   12.51
   3  -4  -8  286.27   12.78
  -3   4   8  239.91    9.72
  -3   4   8  248.23    9.35
  -3   4   8  242.00    7.18
  -3   4   8  263.67    9.03
   3  -4  -8  248.06    9.36
  -3   4   8  256.82    8.68
   3  -4  -8  299.53    8.25
  -3   4   7   55.39    4.24
   3  -4  -7   48.07    4.80
   3  -4  -7   50.98    5.21
   3  -4  -7   47.19    4.97
   3  -4  -7   54.46    6.47
   3  -4  -7   54.89    6.50
  -3   4   7   42.81    3.38
  -3   4   7   48.61    4.30
   3  -4  -7   49.71    4.69
  -3   4   7   48.03    4.19
   3  -4  -7   56.22    4.21
   3  -4  -6  222.17    9.01
   3  -4  -6  211.96   12.34
   3  -4  -6  210.43   10.82
   3  -4  -6  218.75   13.76
   3  -4  -6  227.02   12.47
   3  -4  -6  226.95   14.07
  -3   4   6  189.83    9.94
  -3   4   6  201.33    8.46
  -3   4   6  249.15    9.78
  -3   4   6  203.51    7.71
  -3   4   6  218.49    9.88
  -3   4   6  211.89    9.09
   3  -4  -6  211.42   10.18
  -3   4   6  211.69    9.09
   3  -4  -5  194.72    8.55
   3  -4  -5  195.44   12.20
   3  -4  -5  199.84   12.06
   3  -4  -5  178.37   10.20
   3  -4  -5  190.73   12.71
   3  -4  -5  208.68   11.99
   3  -4  -5  198.14   13.06
  -3   4   5  195.42    9.88
   3  -4  -5  178.49   10.61
  -3   4   5  203.53    9.39
  -3   4   5  182.58    7.21
  -3   4   5  218.69    9.51
  -3   4   5  194.46    8.54
   3  -4  -5  191.51    9.84
  -3   4   5  210.23    8.87
  -3   4   5  196.62    8.18
   3  -4  -4  680.56   16.09
   3  -4  -4  631.37   22.12
   3  -4  -4  632.55   20.89
   3  -4  -4  653.79   22.75
   3  -4  -4  649.16   19.62
  -3   4   4  729.36   16.06
   3  -4  -4  718.35   21.50
   3  -4  -4  663.24   22.74
  -3   4   4  650.16   13.32
  -3   4   4  737.29   18.19
   3  -4  -4  649.02   20.43
   3  -4  -4  644.39   18.13
  -3   4   4  761.80   17.66
  -3   4   4  696.73   16.16
  -3   4   4  725.10   15.63
  -3   4   4  741.85   16.22
   3  -4  -4  639.22   16.77
   3  -4  -3    1.07    1.16
   3  -4  -3    1.72    1.22
   3  -4  -3    0.96    0.93
   3  -4  -3    1.59    1.15
  -3   4   3    1.63    0.81
  -3   4   3    1.61    0.94
   3  -4  -3    1.62    1.05
   3  -4  -3    0.52    0.87
  -3   4   3    3.09    1.19
  -3   4   3    2.08    0.94
  -3   4   3    1.19    0.66
   3  -4  -3    2.27    1.33
   3  -4  -3    1.28    0.93
  -3   4   3    1.95    0.73
  -3   4   3    3.50    1.15
  -3   4   2  378.56   12.39
  -3   4   2  438.66    9.67
  -3   4   2  396.74   12.91
  -3   4   2  449.50   11.43
   3  -4  -2  368.53   14.77
   3  -4  -2  400.71   14.39
   3  -4  -2  414.10   13.36
  -3   4   2  380.87   12.49
   3  -4  -2  452.86   13.72
  -3   4   2  478.19   10.91
   3  -4  -2  380.78   14.54
  -3   4   2  381.95   12.32
   3  -4  -2  482.94   14.69
  -3   4   2  403.67   10.43
  -3   4   2  441.14   12.01
   3  -4  -2  368.43   16.74
  -3   4   2  429.12   11.20
   3  -4  -2  490.50   15.05
  -3   4   2  363.30   11.97
   3  -4  -2  461.02   14.28
   3  -4  -2  460.28   14.65
  -3   4   2  397.12   10.64
   3  -4  -2  503.96   16.31
  -3   4   2  368.54   11.92
   3  -4  -2  404.06   12.53
  -3   4   2  404.05    9.81
  -3   4   2  396.52    7.60
   3  -4  -2  419.54   14.13
  -3   4   1 1141.85   16.42
  -3   4   1 1085.72   17.32
   3  -4  -1 1195.42   17.52
   3  -4  -1 1092.25   24.64
  -3   4   1 1444.57   20.79
   3  -4  -1 1098.48   22.69
   3  -4  -1 1041.05   22.32
   3  -4  -1 1209.16   22.19
  -3   4   1 1239.82   17.70
   3  -4  -1 1003.59   22.05
  -3   4   1  857.23   18.46
  -3   4   1 1186.91   19.27
   3  -4  -1  970.12   26.45
  -3   4   1 1279.55   19.28
   3  -4  -1 1056.53   21.68
   3  -4  -1 1124.62   22.45
   3  -4  -1 1185.07   25.59
  -3   4   1  905.93   19.38
  -3   4   1  941.67   20.02
   3  -4  -1 1094.76   21.70
   3  -4  -1 1201.52   23.96
  -3   4   1 1112.00   17.94
   3  -4  -1 1150.37   23.10
  -3   4   1  923.74   19.74
   3  -4  -1 1108.21   22.80
  -3   4   1  948.09   19.91
   3  -4  -1 1191.93   24.88
   3  -4  -1 1122.90   17.82
  -3   4   1  914.46   19.76
   3  -4  -1 1171.73   21.04
  -3   4   1 1051.36   17.68
  -3   4   1 1146.93   17.38
  -3   4   1 1163.18   14.13
   3  -4  -1 1175.30   19.43
  -3   4   0  167.83    6.26
   3  -4   0  192.89    6.98
   3  -4   0  195.75    8.97
   3  -4   0  166.38    7.90
   3  -4   0  200.00    8.27
   3  -4   0  154.21    9.77
  -3   4   0  183.93    6.48
   3  -4   0  186.92    7.12
  -3   4   0  173.99    6.85
  -3   4   0  192.43    7.12
   3  -4   0  177.34    9.10
   3  -4   0  171.28    8.16
   3  -4   0  173.46    8.94
  -3   4   0  134.37    7.23
  -3   4   0  173.83    5.20
  -3   4   0  131.96    7.17
   3  -4   0  166.64    9.12
   3  -4   0  161.14    8.79
  -3   4   0  139.68    7.32
   3  -4   0  167.07    8.97
  -3   4   0  145.35    7.45
  -3   4   0  135.03    7.22
   3  -4   0  199.04    8.10
  -3   4   0  164.08    6.57
  -3   4   0  176.54    6.63
   3  -4   0  185.41   10.16
   3  -4   0  181.77    7.27
   3  -4   1  141.03    8.25
   3  -4   1  142.24    7.68
   3  -4   1  153.32    8.46
   3  -4   1  152.26    7.47
   3  -4   1  154.87    7.01
   3  -4   1  186.83    7.69
   3  -4   1  160.81    6.67
   3  -4   1  142.01    8.72
  -3   4  -1  156.50    5.98
  -3   4  -1  169.35    6.68
   3  -4   1  142.00    8.18
  -3   4  -1  164.26    5.42
  -3   4  -1  125.98    7.05
  -3   4  -1  135.87    7.28
  -3   4  -1  121.04    6.93
   3  -4   1  151.45    8.58
  -3   4  -1  123.07    6.89
  -3   4  -1  162.08    6.19
   3  -4   1  141.85    8.41
   3  -4   1  166.69    6.59
  -3   4  -1  128.58    7.11
   3  -4   1  177.93    7.46
  -3   4  -1  146.79    6.27
   3  -4   1  153.23    7.31
   3  -4   1  171.96    6.99
  -3   4  -1  151.67    6.00
   3  -4   2   18.82    2.39
  -3   4  -2   16.36    1.97
   3  -4   2   29.20    3.27
   3  -4   2   17.76    2.46
   3  -4   2   18.25    2.40
  -3   4  -2   19.06    2.31
   3  -4   2   19.25    2.39
  -3   4  -2   19.09    2.20
   3  -4   2   16.26    2.69
   3  -4   2   16.01    2.76
   3  -4   2   19.07    2.70
   3  -4   2   18.44    2.03
  -3   4  -2   13.78    2.42
  -3   4  -2   16.05    2.59
  -3   4  -2   16.43    2.76
   3  -4   2   16.04    2.80
  -3   4  -2   23.69    2.26
  -3   4  -2   17.94    2.71
   3  -4   2   18.75    3.06
  -3   4  -2   14.28    2.47
   3  -4   2   17.67    2.25
   3  -4   2   17.85    3.02
  -3   4  -2   15.96    2.61
   3  -4   2   20.94    2.67
   3  -4   2   15.10    2.84
  -3   4  -2   21.04    2.44
  -3   4  -2   18.96    2.43
   3  -4   2   16.27    2.84
   3  -4   2   15.46    2.56
   3  -4   2   18.16    2.32
  -3   4  -2   17.48    2.16
  -3   4  -3  843.44   16.65
   3  -4   3  979.16   18.36
  -3   4  -3  917.06   17.79
   3  -4   3  935.71   18.02
  -3   4  -3  869.11   16.94
   3  -4   3  880.94   16.95
   3  -4   3  791.16   19.92
   3  -4   3  859.83   18.74
   3  -4   3  929.90   17.30
  -3   4  -3  870.43   15.68
   3  -4   3  845.17   15.20
   3  -4   3  793.41   17.14
   3  -4   3  791.10   20.15
   3  -4   3  791.51   20.23
  -3   4  -3  977.66   17.68
   3  -4   3  771.98   20.07
   3  -4   3  973.85   18.58
   3  -4   3  776.85   20.33
   3  -4   3  812.73   20.30
  -3   4  -3  861.51   17.54
   3  -4   3  931.79   17.33
  -3   4  -3  851.99   16.09
  -3   4  -4    5.46    1.39
   3  -4   4    5.37    1.55
   3  -4   4    3.99    1.73
   3  -4   4    6.16    1.42
   3  -4   4   11.16    1.95
  -3   4  -4    4.13    1.32
   3  -4   4    4.53    1.35
  -3   4  -4   11.19    1.88
  -3   4  -4    4.30    1.28
   3  -4   4    5.74    1.31
  -3   4  -4    4.96    1.33
   3  -4   4    3.49    1.19
   3  -4   4    5.21    1.40
   3  -4   5  156.65    8.03
  -3   4  -5  144.84    7.30
  -3   4  -5  146.02    6.27
  -3   4  -5  130.28    7.75
   3  -4   5  157.14    7.34
  -3   4  -5  136.99    7.14
   3  -4   5  149.48    7.37
  -3   4  -5  176.02    7.72
   3  -4   5  137.85    7.31
  -3   4  -5  137.42    7.51
  -3   4  -5  150.94    6.37
   3  -4   5  142.26    7.35
   3  -4   5  125.18    8.53
   3  -4   5  157.83    7.74
   3  -4   5  149.11    7.32
   3  -4   5  116.47    7.71
  -3   4  -5  145.17    7.06
   3  -4   6  223.80    9.08
   3  -4   6  224.46    8.96
   3  -4   6  263.93   10.94
  -3   4  -6  234.06    8.59
   3  -4   6  256.35    9.57
  -3   4  -6  229.51    9.73
   3  -4   6  234.23    9.58
  -3   4  -6  261.58    9.79
  -3   4  -6  249.16   10.83
  -3   4  -6  249.93   10.15
  -3   4  -6  235.36    8.63
   3  -4   6  207.72   10.29
   3  -4   6  232.66    9.79
   3  -4   6  269.61   10.14
   3  -4   6  244.53    9.76
  -3   4  -7    0.28    0.63
   3  -4   7    2.58    1.17
   3  -4   7    0.36    0.83
   3  -4   7    0.33    0.76
  -3   4  -7    1.20    1.13
  -3   4  -7    0.80    0.73
   3  -4   7    0.43    0.83
  -3   4  -7    0.20    0.69
  -3   4  -7    0.44    0.82
  -3   4  -7    0.09    0.52
  -3   4  -7    0.43    0.87
   3  -4   7    2.00    1.07
  -3   4  -8  497.37   12.89
  -3   4  -8  530.47   14.53
   3  -4   8  518.81   14.45
  -3   4  -8  509.76   13.42
  -3   4  -8  534.08   15.41
   3  -4   8  517.37   13.10
  -3   4  -8  484.47   12.13
   3  -4   8  489.82   13.86
  -3   4  -8  532.60   15.11
   3  -4   8  539.92   14.86
  -3   4  -9  176.72    8.00
  -3   4  -9  151.06    6.26
  -3   4  -9  147.87    5.79
  -3   4  -9  180.40    7.28
   3  -4   9  173.29    7.46
  -3   4  -9  147.36    6.13
  -3   4  -9  175.03    7.50
   3  -4   9  152.25    6.95
   3  -4  10   18.88    1.99
   3  -3  -9    2.86    1.06
  -3   3   9    3.74    0.99
  -3   3   9    3.72    1.07
   3  -3  -9    4.41    1.14
   3  -3  -8    1.83    0.80
  -3   3   8    4.53    1.31
   3  -3  -8    0.78    0.97
   3  -3  -8    1.48    1.24
  -3   3   8    1.02    0.61
  -3   3   8    1.75    0.99
   3  -3  -8    1.49    0.95
   3  -3  -7   13.89    2.73
   3  -3  -7   10.07    2.29
   3  -3  -7    9.96    1.90
   3  -3  -7   10.34    2.29
   3  -3  -7   10.61    2.66
   3  -3  -7   11.50    3.23
   3  -3  -7   12.45    2.05
   3  -3  -7   14.21    3.42
  -3   3   7   14.95    3.02
   3  -3  -7   12.26    3.31
  -3   3   7   11.75    1.97
  -3   3   7   12.04    2.49
  -3   3   7   10.13    1.75
   3  -3  -7   11.39    2.28
  -3   3   7   11.58    2.29
  -3   3   7   13.55    2.42
   3  -3  -6  612.27   14.68
   3  -3  -6  528.69   18.52
   3  -3  -6  498.27   15.76
   3  -3  -6  544.69   18.00
   3  -3  -6  573.61   19.87
   3  -3  -6  541.91   21.66
   3  -3  -6  627.24   22.70
   3  -3  -6  557.65   22.44
  -3   3   6  696.56   16.38
  -3   3   6  543.73   18.13
  -3   3   6  620.99   15.28
  -3   3   6  516.30   12.76
  -3   3   6  545.98   15.98
  -3   3   6  558.19   15.45
   3  -3  -6  521.70   15.41
  -3   3   6  536.70   14.71
   3  -3  -5    1.25    0.81
  -3   3   5    4.91    1.40
   3  -3  -5    2.39    1.62
  -3   3   5    2.55    1.25
   3  -3  -5    1.46    1.10
   3  -3  -5    1.33    0.93
   3  -3  -5    1.54    1.25
   3  -3  -5    1.91    1.55
   3  -3  -5    2.48    1.55
   3  -3  -5    3.06    1.84
  -3   3   5    4.01    1.56
  -3   3   5    1.99    1.02
  -3   3   5    1.88    1.14
   3  -3  -5    3.15    1.50
  -3   3   5    3.02    1.02
  -3   3   5    2.84    1.18
   3  -3  -4  238.43    8.63
   3  -3  -4  236.39   11.15
  -3   3   4  229.01    8.44
   3  -3  -4  209.66   11.58
  -3   3   4  206.83   10.08
   3  -3  -4  207.59   10.86
   3  -3  -4  245.78   11.61
  -3   3   4  243.84    9.41
   3  -3  -4  221.07   12.29
   3  -3  -4  214.64   10.26
   3  -3  -4  251.60   13.39
   3  -3  -4  218.01   12.49
  -3   3   4  231.77    9.82
   3  -3  -4  201.27    8.14
  -3   3   4  266.82    9.78
  -3   3   4  226.43    7.49
  -3   3   4  248.59    9.48
   3  -3  -4  213.33    9.34
  -3   3   4  245.19    8.86
  -3   3   3   51.00    3.28
  -3   3   3   53.32    3.85
   3  -3  -3   62.97    4.89
   3  -3  -3   43.57    3.88
   3  -3  -3   48.49    5.16
  -3   3   3   47.84    4.33
   3  -3  -3   53.04    5.19
   3  -3  -3   51.81    4.75
   3  -3  -3   52.01    5.53
   3  -3  -3   51.73    4.63
  -3   3   3   59.86    4.58
   3  -3  -3   58.38    4.61
   3  -3  -3   46.22    5.18
  -3   3   3   48.40    3.57
  -3   3   3   57.88    4.44
  -3   3   3   45.31    3.73
   3  -3  -3   53.83    4.50
   3  -3  -3   42.17    3.61
  -3   3   3   56.49    4.46
   3  -3  -3   52.46    4.34
  -3   3   3   56.36    3.44
  -3   3   3   56.69    4.19
  -3   3   3   56.91    4.42
   3  -3  -3   61.05    4.95
  -3   3   3   55.39    4.39
  -3   3   3   57.20    4.10
  -3   3   3   52.69    4.26
  -3   3   3   62.68    3.39
   3  -3  -3   56.14    4.30
  -3   3   2   43.03    2.92
  -3   3   2   40.31    3.11
   3  -3  -2   32.58    3.93
  -3   3   2   42.22    3.61
  -3   3   2   46.44    3.83
   3  -3  -2   57.54    4.34
   3  -3  -2   39.94    4.15
  -3   3   2   51.89    4.12
   3  -3  -2   44.16    4.57
   3  -3  -2   39.05    3.75
  -3   3   2   53.71    4.13
  -3   3   2   43.83    3.19
  -3   3   2   41.88    3.41
  -3   3   2   49.06    3.69
   3  -3  -2   36.57    3.45
   3  -3  -2   61.52    4.60
   3  -3  -2   57.74    4.53
  -3   3   2   43.28    2.78
  -3   3   2   49.08    3.91
  -3   3   2   41.90    3.31
   3  -3  -2   52.58    4.44
  -3   3   2   71.02    4.16
   3  -3  -2   49.42    3.46
  -3   3   2   46.42    3.81
   3  -3  -2   35.79    3.25
  -3   3   2   37.72    1.92
   3  -3  -2   44.86    4.15
   3  -3  -2   60.88    4.47
   3  -3  -1 3998.88   42.33
  -3   3   1 3896.78   33.96
  -3   3   1 3460.68   38.46
   3  -3  -1 3608.70   43.88
   3  -3  -1 3744.71   43.02
   3  -3  -1 3634.05   33.63
   3  -3  -1 4226.83   41.80
  -3   3   1 3539.03   38.75
  -3   3   1 3997.70   35.32
   3  -3  -1 3561.14   42.12
  -3   3   1 3946.63   37.13
  -3   3   1 4304.06   38.17
   3  -3  -1 4011.99   41.24
  -3   3   1 3702.77   34.95
  -3   3   1 3515.28   38.99
   3  -3  -1 3996.98   42.21
  -3   3   1 3719.62   35.41
   3  -3  -1 3937.37   42.71
   3  -3  -1 3866.42   42.71
  -3   3   1 3540.42   38.58
  -3   3   1 3493.21   38.34
   3  -3  -1 3634.50   37.87
  -3   3   1 3915.30   33.94
  -3   3   1 3793.71   28.58
   3  -3  -1 3608.41   37.21
   3  -3  -1 3641.58   43.52
   3  -3  -1 3791.08   36.25
  -3   3   0  149.17    6.88
   3  -3   0  184.40    8.20
   3  -3   0  197.65    8.38
   3  -3   0  206.53    7.90
   3  -3   0  240.80    8.82
  -3   3   0  190.42    6.11
   3  -3   0  210.87    7.54
  -3   3   0  188.02    6.06
   3  -3   0  185.25    6.24
  -3   3   0  216.34    6.77
   3  -3   0  164.86    7.25
   3  -3   0  200.10    7.65
  -3   3   0  186.14    6.08
  -3   3   0  162.85    7.20
  -3   3   0  159.16    7.11
  -3   3   0  157.95    7.11
   3  -3   0  164.90    6.94
   3  -3   0  182.97    8.14
   3  -3   0  185.94    8.34
  -3   3   0  165.14    7.16
   3  -3   0  174.99    8.14
   3  -3   0  184.38    8.62
   3  -3   0  192.19    6.08
  -3   3   0  158.67    6.76
   3  -3   0  198.99    7.08
  -3   3   0  183.30    4.40
  -3   3   0  205.52    6.30
   3  -3   0  169.76    8.59
   3  -3   0  199.41    6.70
  -3   3  -1   33.42    2.49
  -3   3  -1   30.47    3.12
   3  -3   1   45.84    3.66
   3  -3   1   37.14    2.88
   3  -3   1   39.18    3.17
  -3   3  -1   32.41    2.57
   3  -3   1   35.16    2.76
  -3   3  -1   37.65    2.92
   3  -3   1   33.68    3.05
   3  -3   1   32.52    3.48
   3  -3   1   32.70    3.56
   3  -3   1   33.11    3.30
  -3   3  -1   26.84    2.95
   3  -3   1   35.08    3.60
  -3   3  -1   33.15    3.23
   3  -3   1   31.42    3.51
  -3   3  -1   28.45    3.01
  -3   3  -1   37.37    2.63
   3  -3   1   33.75    3.74
  -3   3  -1   29.23    3.05
   3  -3   1   39.28    3.10
  -3   3  -1   34.34    2.65
   3  -3   1   39.01    4.38
  -3   3  -1   33.53    2.53
   3  -3   2 1274.02   18.14
   3  -3   2 1083.67   21.41
   3  -3   2 1143.13   19.10
  -3   3  -2  966.63   19.49
   3  -3   2 1269.46   18.73
  -3   3  -2 1115.75   16.69
   3  -3   2 1082.09   21.46
   3  -3   2 1142.90   17.19
  -3   3  -2 1009.92   19.75
  -3   3  -2 1179.57   17.89
   3  -3   2 1266.92   19.99
   3  -3   2 1119.22   20.56
   3  -3   2 1079.71   21.69
  -3   3  -2 1118.06   15.72
  -3   3  -2 1009.30   19.72
  -3   3  -2 1030.90   20.39
   3  -3   2 1083.10   21.88
  -3   3  -2  975.61   19.46
  -3   3  -2 1197.66   16.95
   3  -3   2 1173.13   16.98
   3  -3   2 1077.85   22.00
  -3   3  -2  991.23   19.76
   3  -3   2 1258.65   18.63
   3  -3   2 1076.28   22.27
  -3   3  -2 1164.95   17.04
  -3   3  -2 1210.58   18.45
   3  -3   2 1155.80   22.09
   3  -3   2 1154.12   25.00
   3  -3   2 1161.73   17.43
  -3   3  -2 1085.59   16.05
  -3   3  -3  919.60   19.68
   3  -3   3 1066.12   18.51
   3  -3   3 1085.96   17.63
   3  -3   3  937.31   16.85
   3  -3   3  965.81   17.10
   3  -3   3 1161.44   18.29
  -3   3  -3  904.64   19.42
   3  -3   3 1072.32   17.33
  -3   3  -3  887.42   19.11
  -3   3  -3  925.12   16.18
   3  -3   3 1020.48   16.69
  -3   3  -3 1281.20   19.03
   3  -3   3  954.94   20.51
   3  -3   3  990.86   14.90
  -3   3  -3  874.90   18.99
  -3   3  -3 1029.09   17.64
   3  -3   3  988.74   21.06
  -3   3  -3  898.68   19.25
   3  -3   3  984.72   21.12
  -3   3  -3 1140.15   17.40
   3  -3   3 1026.76   16.50
   3  -3   3  962.19   20.93
   3  -3   3 1118.39   18.01
   3  -3   3  990.71   21.45
  -3   3  -3  996.96   16.51
  -3   3  -3 1049.72   17.90
   3  -3   3  974.77   20.99
   3  -3   3 1045.41   16.90
  -3   3  -3  960.13   15.68
   3  -3   4 1062.26   18.46
  -3   3  -4  977.17   18.76
  -3   3  -4  938.34   15.12
   3  -3   4 1109.78   18.33
  -3   3  -4  937.42   16.78
  -3   3  -4  900.92   16.67
   3  -3   4  985.24   17.36
   3  -3   4  927.94   20.92
  -3   3  -4 1158.86   19.03
  -3   3  -4  964.57   18.28
  -3   3  -4 1038.98   16.65
  -3   3  -4  871.54   19.70
   3  -3   4  935.18   15.66
  -3   3  -4  870.26   19.90
  -3   3  -4  862.65   19.83
   3  -3   4  914.38   20.92
  -3   3  -4  907.27   20.25
   3  -3   4  908.36   20.96
  -3   3  -4 1035.06   17.41
   3  -3   4  996.50   17.33
   3  -3   4  903.38   21.00
  -3   3  -4  890.41   20.04
   3  -3   4 1014.18   17.99
   3  -3   4  900.64   21.10
  -3   3  -4  978.49   17.17
   3  -3   4  926.76   21.79
   3  -3   4  998.29   17.38
  -3   3  -4  891.53   15.98
   3  -3   5  105.19    6.12
  -3   3  -5   99.12    5.31
   3  -3   5  114.15    5.66
   3  -3   5  103.01    5.58
  -3   3  -5   91.68    5.58
   3  -3   5   94.55    5.45
  -3   3  -5  110.38    6.17
  -3   3  -5   84.85    6.29
   3  -3   5   93.19    6.76
   3  -3   5  103.33    5.85
  -3   3  -5   90.85    5.42
  -3   3  -5   88.00    5.80
  -3   3  -5   97.23    5.26
  -3   3  -5   82.78    6.20
   3  -3   5  100.00    5.31
  -3   3  -5   82.51    6.21
  -3   3  -5   81.56    6.09
   3  -3   5   92.17    6.75
  -3   3  -5   89.14    6.51
   3  -3   5   87.83    6.59
  -3   3  -5  100.47    5.60
   3  -3   5   88.10    6.72
   3  -3   5  106.72    5.85
   3  -3   5   93.31    6.83
  -3   3  -5   79.06    6.08
   3  -3   5   92.38    6.84
  -3   3  -5  102.30    5.70
  -3   3  -5   98.91    6.05
  -3   3  -5   87.82    5.80
   3  -3   5   95.41    5.44
  -3   3  -6    1.86    0.86
   3  -3   6    0.49    0.65
   3  -3   6    0.65    0.78
  -3   3  -6    0.54    0.56
   3  -3   6    0.09    0.55
   3  -3   6    0.19    0.54
  -3   3  -6    0.93    0.72
  -3   3  -6    5.05    1.43
  -3   3  -6    4.05    1.44
  -3   3  -6    5.31    1.42
  -3   3  -6    4.50    1.38
  -3   3  -6    2.34    1.15
   3  -3   6    0.09    0.67
   3  -3   6    2.15    1.01
   3  -3   6    0.64    0.73
   3  -3   6    0.25    0.67
   3  -3   6    0.47    0.66
   3  -3   7  335.19   12.24
  -3   3  -7  297.54   10.80
   3  -3   7  317.13   10.63
  -3   3  -7  289.26   10.78
   3  -3   7  297.05   11.10
  -3   3  -7  311.42   11.48
  -3   3  -7  298.36   11.84
  -3   3  -7  294.42   10.92
   3  -3   7  300.96   10.99
  -3   3  -7  317.79   11.69
   3  -3   7  300.46   10.96
   3  -3   7  262.96    8.28
   3  -3   7  313.00   11.47
   3  -3   7  260.35   10.48
   3  -3   7  332.63   11.24
   3  -3   7  306.53   12.46
  -3   3  -7  318.65   10.35
   3  -3   8  540.96   15.41
   3  -3   8  552.47   14.01
  -3   3  -8  514.66   14.60
   3  -3   8  542.09   15.24
  -3   3  -8  557.94   15.67
  -3   3  -8  533.14   16.18
  -3   3  -8  542.70   15.13
   3  -3   8  534.50   15.05
  -3   3  -8  558.19   15.77
   3  -3   8  577.50   15.96
   3  -3   8  555.40   13.75
   3  -3   8  540.74   15.03
   3  -3   9   73.93    5.04
  -3   3  -9   70.95    4.89
   3  -3   9   76.58    5.41
  -3   3  -9   80.93    5.61
  -3   3  -9   67.10    5.25
  -3   3  -9   72.39    5.11
   3  -3   9   69.10    5.15
  -3   3  -9   78.64    5.49
   3  -3   9   75.91    5.39
   3  -3  10   14.96    2.11
  -3   3 -10   14.40    2.07
  -3   3 -10   12.67    1.83
  -3   3 -10   15.53    2.13
   3  -3  10   11.81    1.93
  -3   2  10  175.85    4.40
   3  -2 -10  211.70    5.22
   3  -2  -9   10.17    1.95
  -3   2   9    8.01    1.69
  -3   2   9    9.55    1.73
   3  -2  -9   10.97    1.74
  -3   2   9   11.53    1.73
  -3   2   8   78.21    6.01
   3  -2  -8  103.09    4.59
   3  -2  -8   90.87    7.28
   3  -2  -8   86.37    6.91
   3  -2  -8   95.72    8.12
  -3   2   8   93.31    7.00
   3  -2  -8   98.25    6.31
  -3   2   8   78.56    4.56
  -3   2   8   84.33    5.75
   3  -2  -8   84.28    5.59
  -3   2   8   82.38    5.44
   3  -2  -7   82.72    4.90
   3  -2  -7   63.31    6.88
   3  -2  -7   79.23    8.23
   3  -2  -7   75.00    7.72
  -3   2   7   65.11    6.32
   3  -2  -7   85.40    7.44
  -3   2   7   60.82    4.89
  -3   2   7   63.81    5.80
   3  -2  -7   77.48    5.77
  -3   2   7   67.50    4.62
  -3   2   7   70.05    5.71
  -3   2   7   70.82    5.42
   3  -2  -6 1206.47   20.17
  -3   2   6 1196.38   20.56
   3  -2  -6  930.17   22.81
   3  -2  -6  948.94   22.26
   3  -2  -6  998.47   28.59
   3  -2  -6 1173.21   32.42
   3  -2  -6 1050.47   29.89
  -3   2   6  985.16   25.01
  -3   2   6  932.72   20.79
   3  -2  -6 1136.49   28.56
   3  -2  -6 1231.98   25.97
  -3   2   6 1033.44   23.81
  -3   2   6 1020.41   18.84
  -3   2   6 1083.96   23.08
   3  -2  -6 1052.25   21.41
  -3   2   6 1027.87   21.51
   3  -2  -5  148.55    6.66
   3  -2  -5  128.68    8.48
  -3   2   5  121.48    8.49
   3  -2  -5  133.00    8.36
   3  -2  -5  157.61   10.36
   3  -2  -5  129.46    9.76
   3  -2  -5  150.33   10.87
   3  -2  -5  141.28   10.29
  -3   2   5  139.06    8.59
  -3   2   5  139.17    7.59
   3  -2  -5  153.04   10.02
  -3   2   5  166.93    7.56
   3  -2  -5  177.17    9.49
  -3   2   5  151.37    7.81
  -3   2   5  133.54    6.24
  -3   2   5  145.53    8.24
   3  -2  -5  141.41    7.40
  -3   2   5  146.77    7.40
   3  -2  -4   41.93    4.76
  -3   2   4   43.78    4.86
   3  -2  -4   40.04    4.35
   3  -2  -4   51.84    5.46
   3  -2  -4   43.81    5.14
   3  -2  -4   50.83    4.58
   3  -2  -4   44.72    5.35
  -3   2   4   48.67    4.62
   3  -2  -4   62.15    4.70
  -3   2   4   53.17    4.49
   3  -2  -4   55.52    4.30
  -3   2   4   63.96    4.82
   3  -2  -4   57.05    4.45
   3  -2  -4   59.90    4.52
  -3   2   4   46.72    3.38
   3  -2  -4   59.25    4.66
  -3   2   4   54.30    4.24
   3  -2  -4   61.19    4.93
  -3   2   4   61.53    4.61
  -3   2   4   51.90    4.08
  -3   2   4   49.93    4.20
  -3   2   4   50.34    4.15
  -3   2   4   55.92    4.34
   3  -2  -4   50.54    3.55
   3  -2  -4   59.11    4.22
  -3   2   3    4.87    1.20
  -3   2   3    4.34    1.07
  -3   2   3    5.07    1.32
   3  -2  -3    6.56    1.49
  -3   2   3    4.31    1.44
   3  -2  -3    5.29    1.63
   3  -2  -3    6.24    1.85
   3  -2  -3    4.95    1.63
  -3   2   3    3.65    1.06
  -3   2   3    5.30    1.39
  -3   2   3    5.98    1.12
  -3   2   3    6.06    1.42
   3  -2  -3    5.17    1.39
  -3   2   3    5.10    1.35
   3  -2  -3    5.63    1.37
   3  -2  -3    4.99    1.32
  -3   2   3    7.04    1.57
   3  -2  -3    5.63    1.44
  -3   2   3    5.01    1.30
  -3   2   3    7.11    1.49
  -3   2   3    4.37    1.25
  -3   2   3    5.36    1.31
   3  -2  -3    3.81    0.97
  -3   2   3    6.62    0.98
  -3   2   3    4.72    1.31
   3  -2  -3    6.02    1.20
   3  -2  -3   10.18    1.75
  -3   2   2   57.14    3.35
   3  -2  -2   53.08    4.43
  -3   2   2   65.64    4.42
   3  -2  -2   54.34    4.26
   3  -2  -2   70.86    5.31
   3  -2  -2   51.61    3.87
   3  -2  -2   59.40    4.93
  -3   2   2   62.33    3.83
  -3   2   2   60.78    3.69
  -3   2   2   65.24    4.12
   3  -2  -2   62.39    4.27
  -3   2   2   66.20    4.41
   3  -2  -2   65.99    4.26
  -3   2   2   60.65    3.82
   3  -2  -2   63.94    4.37
  -3   2   2   62.50    4.19
   3  -2  -2   61.79    4.39
  -3   2   2   59.88    4.11
  -3   2   2   64.60    3.90
  -3   2   2   62.81    4.23
  -3   2   2   58.55    4.02
   3  -2  -2   53.28    3.39
  -3   2   2   61.24    2.84
  -3   2   2   56.63    1.93
  -3   2   2   68.35    3.84
   3  -2  -2   69.69    3.90
   3  -2  -2   72.11    4.48
   3  -2  -2   65.79    4.38
  -3   2   1 3727.28   35.05
   3  -2  -1 3480.20   38.33
   3  -2  -1 3720.31   38.40
   3  -2  -1 3934.75   41.27
   3  -2  -1 3688.14   35.88
   3  -2  -1 3890.64   38.21
  -3   2   1 3849.37   35.04
  -3   2   1 3786.44   34.17
  -3   2   1 3677.85   36.62
   3  -2  -1 3887.22   37.66
   3  -2  -1 4000.47   37.94
  -3   2   1 3880.97   34.06
   3  -2  -1 3901.36   38.66
  -3   2   1 3653.74   36.12
   3  -2  -1 3779.65   39.06
  -3   2   1 3586.34   36.01
  -3   2   1 3415.52   25.32
  -3   2   1 3650.05   36.32
  -3   2   1 3534.02   35.96
  -3   2   1 3635.54   29.81
  -3   2   1 3625.21   25.02
   3  -2  -1 3935.62   36.41
   3  -2   0  462.23   11.54
   3  -2   0  453.94   11.58
  -3   2   0  465.95   11.33
  -3   2   0  432.37   10.99
   3  -2   0  454.98   11.11
  -3   2   0  439.56   10.94
   3  -2   0  475.84   11.99
  -3   2   0  425.06   10.72
   3  -2   0  443.80   11.68
  -3   2   0  412.97   10.69
   3  -2   0  487.06   12.90
  -3   2   0  424.90   10.56
  -3   2   0  478.67    8.54
  -3   2   0  521.64    8.93
  -3   2   0  451.91    5.76
  -3   2   0  518.42    7.15
   3  -2   0  431.41   10.81
   3  -2   0  429.90   11.86
   3  -2   1  291.91    9.40
   3  -2   1  294.88    9.42
  -3   2  -1  292.08    8.72
  -3   2  -1  294.13    8.72
   3  -2   1  301.76    9.40
  -3   2  -1  301.67    8.77
   3  -2   1  281.75    9.35
  -3   2  -1  303.28    8.82
  -3   2  -1  346.35    7.75
   3  -2   1  297.57    9.94
  -3   2  -1  302.45    8.76
  -3   2  -1  354.43    7.33
   3  -2   1  315.08   10.56
   3  -2   2  186.66    7.77
  -3   2  -2  155.56    6.80
   3  -2   2  185.08    7.95
  -3   2  -2  165.78    6.87
   3  -2   2  179.26    7.64
   3  -2   2  184.59    7.85
  -3   2  -2  173.09    7.05
  -3   2  -2  157.67    6.86
  -3   2  -2  198.34    5.82
   3  -2   2  183.12    8.01
  -3   2  -2  163.57    6.96
  -3   2  -2  185.37    5.53
   3  -2   2  174.45    7.60
   3  -2   2  195.94    8.97
   3  -2   3  614.54   11.57
   3  -2   3  649.09   12.46
   3  -2   3  570.94   11.03
   3  -2   3  575.80   15.10
   3  -2   3  599.37   11.54
  -3   2  -3  549.64   11.52
  -3   2  -3  557.90   11.11
   3  -2   3  579.64   11.11
  -3   2  -3  549.00   10.64
  -3   2  -3  645.98   12.75
   3  -2   3  572.43   14.75
   3  -2   3  577.10   14.33
  -3   2  -3  535.58   13.37
   3  -2   3  573.72   14.53
  -3   2  -3  552.96   13.52
  -3   2  -3  538.23   13.67
  -3   2  -3  540.75   13.59
   3  -2   3  583.46   14.81
  -3   2  -3  596.45   11.12
   3  -2   3  590.10   10.98
   3  -2   3  610.48   11.71
   3  -2   3  562.23   14.72
  -3   2  -3  606.86   11.05
  -3   2  -3  648.26   12.46
  -3   2  -3  530.77   13.32
   3  -2   3  602.39   16.62
   3  -2   3  585.30   11.18
  -3   2  -3  566.90   10.71
   3  -2   4 1298.14   18.85
  -3   2  -4 1183.26   17.04
   3  -2   4 1041.22   12.38
   3  -2   4 1239.11   17.84
  -3   2  -4 1108.23   17.33
  -3   2  -4 1137.38   21.39
   3  -2   4 1219.94   17.88
   3  -2   4 1204.48   22.96
  -3   2  -4 1177.30   18.96
   3  -2   4 1201.52   22.34
  -3   2  -4 1220.05   17.85
   3  -2   4 1202.40   16.44
  -3   2  -4 1117.96   21.24
   3  -2   4 1176.26   22.27
   3  -2   4 1155.68   22.25
  -3   2  -4 1221.21   17.20
   3  -2   4 1246.45   17.78
   3  -2   4 1211.84   22.88
  -3   2  -4 1157.86   17.69
  -3   2  -4 1118.71   21.35
   3  -2   4 1244.23   18.27
  -3   2  -4 1124.01   21.13
  -3   2  -4 1246.68   17.60
  -3   2  -4 1108.57   21.34
  -3   2  -4 1302.99   19.83
   3  -2   4 1181.36   23.11
  -3   2  -4 1034.20   17.94
   3  -2   4 1222.78   17.91
   3  -2   5  679.34   18.19
   3  -2   5  728.65   15.11
   3  -2   5  686.86   13.50
  -3   2  -5  661.52   13.72
   3  -2   5  670.78   13.53
  -3   2  -5  637.76   13.82
   3  -2   5  642.70   17.46
   3  -2   5  691.35   14.38
   3  -2   5  669.63   17.58
   3  -2   5  707.21   14.89
  -3   2  -5  658.61   14.81
  -3   2  -5  700.62   14.78
  -3   2  -5  623.35   16.29
   3  -2   5  639.67   17.22
  -3   2  -5  631.49   16.32
  -3   2  -5  676.85   14.46
  -3   2  -5  628.60   16.37
  -3   2  -5  630.46   16.24
  -3   2  -5  632.31   16.62
   3  -2   5  644.90   17.47
  -3   2  -5  701.43   13.51
   3  -2   5  722.89   14.59
  -3   2  -5  618.47   16.48
   3  -2   5  717.90   14.46
   3  -2   5  654.01   17.67
  -3   2  -5  751.38   14.62
  -3   2  -5  734.72   15.80
   3  -2   5  680.55   14.42
   3  -2   5  661.79   18.18
  -3   2  -5  616.73   13.84
   3  -2   5  728.84   14.52
  -3   2  -5  700.72   13.55
   3  -2   6  468.85   13.03
   3  -2   6  434.50   12.24
  -3   2  -6  395.38   12.59
  -3   2  -6  396.15   12.26
   3  -2   6  451.13   12.17
   3  -2   6  447.28   12.40
  -3   2  -6  436.20   12.50
  -3   2  -6  458.07   11.45
  -3   2  -6  493.88   12.84
  -3   2  -6  395.52   11.52
   3  -2   6  448.55   12.24
  -3   2  -6  421.44   11.00
  -3   2  -7   12.36    2.68
   3  -2   7   12.17    2.33
  -3   2  -7    8.17    1.99
  -3   2  -7   11.27    2.16
   3  -2   7   11.73    2.04
  -3   2  -7   10.37    2.02
   3  -2   7    9.35    1.97
  -3   2  -7    9.08    2.12
   3  -2   7   11.50    1.90
   3  -2   7   10.96    2.08
  -3   2  -7   11.18    2.19
   3  -2   7   11.57    2.15
   3  -2   7   10.96    2.05
   3  -2   7   10.41    2.00
   3  -2   7   12.06    2.34
  -3   2  -7   19.97    2.48
  -3   2  -8  616.71   18.87
   3  -2   8  502.32   13.09
   3  -2   8  510.62   15.12
  -3   2  -8  468.09   14.83
   3  -2   8  496.76   13.54
  -3   2  -8  482.44   13.77
   3  -2   8  486.46   14.74
  -3   2  -8  475.53   15.56
  -3   2  -8  476.71   14.89
  -3   2  -8  472.66   14.83
   3  -2   8  479.26   14.52
  -3   2  -8  529.42   15.32
   3  -2   8  518.98   15.15
   3  -2   8  525.52   14.13
   3  -2   8  511.67   14.56
   3  -2   8  595.45   17.03
   3  -2   9  118.65    7.13
   3  -2   9  110.28    5.93
  -3   2  -9  114.60    7.11
   3  -2   9  115.22    6.30
   3  -2   9  116.38    7.04
  -3   2  -9  119.65    7.62
  -3   2  -9  110.08    7.07
   3  -2   9  118.21    7.16
   3  -2   9  110.86    6.75
  -3   2 -10  115.94    6.45
  -3   2 -10  119.38    6.79
   3  -2  10  100.66    4.87
   3  -2  10  113.30    6.46
  -3   2 -10  107.38    6.57
  -3   2 -10  115.09    6.52
   3  -2  10  107.80    6.19
  -3   2 -10  119.80    6.20
   3  -2  10  116.18    6.29
  -3   2 -11   21.55    2.40
   3  -2  11   20.64    2.25
   3  -2  11   19.02    2.16
  -3   1  10  294.20    6.16
   3  -1 -10  297.52    6.24
  -3   1   9    2.07    0.70
  -3   1   9    2.56    0.91
   3  -1  -9    4.69    1.47
   3  -1  -9    1.74    1.07
  -3   1   9    2.76    1.07
   3  -1  -9    3.74    1.07
  -3   1   8  126.10    7.81
   3  -1  -8  147.64    9.72
   3  -1  -8  123.22    7.58
   3  -1  -8  144.55   10.17
   3  -1  -8  133.77    8.61
  -3   1   8  130.49    8.50
   3  -1  -8  147.35    9.17
  -3   1   8  135.09    7.68
   3  -1  -8  144.65    7.11
  -3   1   8  130.14    6.99
  -3   1   7    4.00    1.49
   3  -1  -7    3.55    1.89
   3  -1  -7    7.61    2.74
   3  -1  -7    5.69    2.03
   3  -1  -7    5.74    2.45
  -3   1   7    4.19    1.86
  -3   1   7    3.28    1.30
  -3   1   7    4.75    1.89
   3  -1  -7    5.94    1.93
  -3   1   7    3.00    1.45
   3  -1  -7    4.35    1.50
  -3   1   6  581.35   12.13
   3  -1  -6  784.52   20.02
   3  -1  -6  774.38   24.94
   3  -1  -6  607.62   20.69
  -3   1   6  603.66   13.78
   3  -1  -6  754.42   25.76
   3  -1  -6  663.32   22.66
  -3   1   6  605.94   20.37
  -3   1   6  592.17   17.31
  -3   1   6  670.76   19.73
  -3   1   6  658.26   15.47
  -3   1   6  704.59   19.30
   3  -1  -6  726.92   17.02
  -3   1   6  709.83   18.03
  -3   1   5   21.90    2.15
   3  -1  -5   30.72    3.85
   3  -1  -5   25.06    3.34
   3  -1  -5   15.07    2.53
   3  -1  -5   22.96    4.06
   3  -1  -5   27.20    4.72
   3  -1  -5   21.03    3.91
  -3   1   5   18.73    3.38
  -3   1   5   21.61    3.21
  -3   1   5   28.53    3.10
  -3   1   5   19.97    3.33
  -3   1   5   22.73    2.72
  -3   1   5   25.98    3.48
   3  -1  -5   23.25    2.93
  -3   1   5   21.48    2.97
  -3   1   4   75.07    4.85
   3  -1  -4   90.82    6.23
  -3   1   4   80.04    6.67
   3  -1  -4   87.66    5.77
   3  -1  -4  113.39    8.11
   3  -1  -4   97.17    7.21
   3  -1  -4   93.17    5.69
   3  -1  -4  106.47    7.91
   3  -1  -4  115.83    6.30
  -3   1   4  105.51    7.06
  -3   1   4  111.01    6.77
   3  -1  -4  117.37    6.15
  -3   1   4  123.19    6.42
   3  -1  -4  124.06    6.40
   3  -1  -4  127.57    6.46
  -3   1   4  112.27    5.48
   3  -1  -4  119.92    6.47
  -3   1   4  115.78    6.00
   3  -1  -4  120.81    6.80
  -3   1   4  118.35    6.07
  -3   1   4  110.44    5.77
  -3   1   4  116.15    6.06
  -3   1   4  126.15    7.03
  -3   1   4  115.14    6.00
   3  -1  -4  132.45    5.88
   3  -1  -4  108.25    5.61
  -3   1   3  484.36   11.99
  -3   1   3  639.53   13.36
   3  -1  -3  550.95   14.36
   3  -1  -3  658.38   14.10
  -3   1   3  554.11   15.36
   3  -1  -3  498.57   12.93
   3  -1  -3  574.19   16.03
   3  -1  -3  484.34   12.23
   3  -1  -3  624.56   16.91
  -3   1   3  472.12   12.21
  -3   1   3  587.94   14.48
  -3   1   3  624.43   14.17
   3  -1  -3  659.70   13.60
  -3   1   3  637.47   14.02
  -3   1   3  677.50   15.19
   3  -1  -3  677.16   13.94
   3  -1  -3  648.99   13.78
  -3   1   3  638.39   12.13
   3  -1  -3  644.04   14.25
  -3   1   3  632.49   13.35
   3  -1  -3  663.05   14.80
  -3   1   3  607.41   12.85
  -3   1   3  686.06   14.90
  -3   1   3  624.06   13.40
  -3   1   3  630.31   13.34
  -3   1   3  623.85    8.35
   3  -1  -3  718.86   13.51
  -3   1   3  651.94   13.68
   3  -1  -3  695.26   13.24
   3  -1  -3  635.74   13.01
  -3   1   2  363.78   11.02
   3  -1  -2  373.37   11.31
   3  -1  -2  397.97   12.16
  -3   1   2  370.72   10.14
  -3   1   2  316.43    9.21
  -3   1   2  397.53   10.11
   3  -1  -2  390.40   10.02
   3  -1  -2  390.00    9.59
  -3   1   2  393.54   10.22
   3  -1  -2  397.94    9.95
   3  -1  -2  395.04    9.95
  -3   1   2  416.36   10.49
   3  -1  -2  404.08   10.32
  -3   1   2  384.25    9.83
   3  -1  -2  408.51   10.66
  -3   1   2  380.83    9.71
  -3   1   2  361.95    9.15
  -3   1   2  417.30   10.34
  -3   1   2  402.40   10.03
  -3   1   2  399.41    9.93
  -3   1   2  369.80    5.86
   3  -1  -2  339.21    8.88
   3  -1  -1  490.20   11.02
  -3   1   1  463.85   10.40
   3  -1  -1  487.49   10.64
   3  -1  -1  488.94   10.89
   3  -1  -1  481.26   10.20
  -3   1   1  485.68   10.74
  -3   1   1  419.25    4.95
   3  -1  -1  477.85   10.65
   3  -1  -1  490.65   11.31
  -3   1   1  459.60   10.37
  -3   1   1  480.65   10.57
  -3   1   1  486.89   10.64
  -3   1   1  459.82    6.67
   3  -1  -1  555.66   11.39
   3  -1   0  361.92    9.22
   3  -1   0  371.07    9.49
  -3   1   0  366.58    9.10
   3  -1   0  355.62    8.96
   3  -1   0  376.77    9.22
  -3   1   0  375.14    9.07
   3  -1   0  357.81    9.43
  -3   1   0  367.08    8.97
  -3   1   0  371.20    9.05
  -3   1   0  367.93    8.96
  -3   1   0  408.20    6.53
  -3   1   0  402.33    6.12
   3  -1   0  394.14    9.76
   3  -1   0  438.65   10.64
   3  -1   1    8.37    1.48
  -3   1  -1    8.19    1.39
  -3   1  -1    9.87    1.49
   3  -1   1    7.57    1.42
   3  -1   1    8.78    1.53
  -3   1  -1    8.21    1.37
   3  -1   1    8.04    1.49
  -3   1  -1    8.39    1.40
   3  -1   1    8.53    1.59
  -3   1  -1    8.47    1.39
  -3   1  -1    9.87    0.95
  -3   1  -1    9.60    1.08
  -3   1  -1   10.27    0.69
   3  -1   1    7.24    1.35
   3  -1   1    7.55    1.51
   3  -1   2 1470.65   21.86
   3  -1   2 1408.69   21.10
  -3   1  -2 1389.80   19.95
   3  -1   2 1467.52   22.15
  -3   1  -2 1405.30   19.92
   3  -1   2 1480.75   21.42
  -3   1  -2 1400.97   19.96
   3  -1   2 1519.01   22.03
  -3   1  -2 1386.13   19.85
  -3   1  -2 1372.50   19.92
  -3   1  -2 1479.73   14.74
   3  -1   2 1336.98   20.63
   3  -1   2 1465.58   22.30
   3  -1   3   21.70    2.66
   3  -1   3   17.49    1.60
  -3   1  -3   19.33    1.89
   3  -1   3   19.54    2.43
  -3   1  -3   22.47    2.50
  -3   1  -3   19.28    2.38
  -3   1  -3   20.38    2.45
   3  -1   3   20.87    2.60
  -3   1  -3   25.06    2.62
   3  -1   3   22.75    2.72
   3  -1   3   22.04    2.65
  -3   1  -3   24.63    2.62
  -3   1  -3   19.80    1.80
  -3   1  -3   18.68    1.57
   3  -1   3   17.22    2.36
   3  -1   3   20.72    2.74
  -3   1  -4 1745.73   22.16
   3  -1   4 1879.21   21.98
   3  -1   4 1899.49   26.95
  -3   1  -4 1779.93   25.45
   3  -1   4 1848.92   21.40
  -3   1  -4 1846.58   26.07
  -3   1  -4 1922.43   24.36
   3  -1   4 1902.79   22.45
  -3   1  -4 1756.95   22.29
  -3   1  -4 1810.31   25.67
  -3   1  -4 1781.15   21.54
  -3   1  -4 1836.94   25.95
   3  -1   4 1899.01   27.30
   3  -1   4 1880.75   27.15
   3  -1   4 1880.87   21.39
   3  -1   4 1872.77   27.27
  -3   1  -4 1824.95   25.86
   3  -1   4 1825.72   21.43
   3  -1   4 1903.18   27.66
  -3   1  -4 1845.56   20.46
  -3   1  -4 1961.29   23.37
   3  -1   4 1806.74   27.79
   3  -1   4 1943.62   29.16
  -3   1  -4 1602.01   20.98
   3  -1   4 1921.13   21.76
   3  -1   5  195.03    7.11
   3  -1   5  186.31    6.37
  -3   1  -5  168.65    6.60
  -3   1  -5  173.76    7.86
  -3   1  -5  188.94    6.60
  -3   1  -5  211.06    8.08
  -3   1  -5  169.85    6.29
   3  -1   5  184.82    6.74
  -3   1  -5  198.03    7.73
  -3   1  -5  172.57    7.91
   3  -1   5  184.44    8.54
  -3   1  -5  169.51    6.75
  -3   1  -5  180.49    7.03
  -3   1  -5  177.13    7.95
  -3   1  -5  179.60    6.72
  -3   1  -5  166.81    7.76
   3  -1   5  190.21    8.79
  -3   1  -5  186.08    8.29
   3  -1   5  185.15    8.67
  -3   1  -5  215.34    6.75
   3  -1   5  188.44    6.70
   3  -1   5  191.11    8.82
   3  -1   5  183.09    8.61
  -3   1  -5  222.30    7.94
  -3   1  -5  183.38    8.15
   3  -1   5  188.36    6.71
   3  -1   5  185.70    8.68
  -3   1  -5  205.40    6.80
   3  -1   5  184.75    7.71
   3  -1   5  181.96    8.78
  -3   1  -5  172.18    6.28
   3  -1   5  182.08    6.72
  -3   1  -5  198.93    6.50
  -3   1  -6  322.17    8.97
   3  -1   6  327.90   10.24
  -3   1  -6  279.24    9.53
  -3   1  -6  287.97    9.00
  -3   1  -6  365.44   11.24
  -3   1  -6  276.68    8.78
   3  -1   6  309.57    9.68
   3  -1   6  301.19   11.82
  -3   1  -6  293.55   10.74
   3  -1   6  311.95    9.56
  -3   1  -6  275.17   10.75
  -3   1  -6  276.98   10.82
  -3   1  -6  288.64   10.15
  -3   1  -6  277.05   10.77
  -3   1  -6  262.24   10.46
  -3   1  -6  305.02    9.73
   3  -1   6  309.73   11.97
   3  -1   6  313.53   12.05
  -3   1  -6  344.33    9.04
   3  -1   6  305.61    9.65
   3  -1   6  276.26   11.53
   3  -1   6  303.20   11.86
  -3   1  -6  263.29   10.60
   3  -1   6  292.12    9.35
  -3   1  -6  356.09   10.16
  -3   1  -6  384.03   11.41
   3  -1   6  275.45    9.72
   3  -1   6  296.57   12.05
  -3   1  -6  283.99    8.50
   3  -1   6  300.86    9.53
   3  -1   7   16.71    2.16
  -3   1  -7   22.85    3.75
   3  -1   7   19.31    2.73
  -3   1  -7   19.14    2.80
  -3   1  -7   18.74    2.47
  -3   1  -7   17.17    2.34
   3  -1   7   25.99    3.09
  -3   1  -7   17.67    2.89
   3  -1   7   19.75    2.53
  -3   1  -7   19.97    2.88
   3  -1   7   22.28    2.84
  -3   1  -7   18.92    2.68
   3  -1   7   21.74    2.88
   3  -1   7   22.42    2.84
   3  -1   8 1182.41   19.82
   3  -1   8 1288.39   24.30
  -3   1  -8 1153.60   22.87
  -3   1  -8 1242.14   24.76
  -3   1  -8 1276.86   21.92
   3  -1   8 1221.48   23.55
  -3   1  -8 1298.10   26.37
   3  -1   8 1257.16   20.18
  -3   1  -8 1238.39   25.52
   3  -1   8 1223.12   23.53
  -3   1  -8 1228.46   22.25
   3  -1   8 1262.11   24.24
   3  -1   8 1261.48   22.66
   3  -1   8 1283.25   23.98
   3  -1   9  124.24    7.25
  -3   1  -9  123.31    7.79
  -3   1  -9  128.37    6.99
   3  -1   9  131.24    6.94
   3  -1   9  132.72    7.61
  -3   1  -9  122.11    7.96
  -3   1  -9  134.20    7.65
  -3   1  -9  127.76    7.92
   3  -1   9  125.79    7.47
  -3   1  -9  140.26    7.66
   3  -1   9  131.56    7.60
   3  -1   9  134.52    6.91
   3  -1  10   -0.08    0.61
  -3   1 -10    0.83    0.80
  -3   1 -10    0.93    0.71
   3  -1  10    0.17    0.53
   3  -1  10    0.11    0.75
   3  -1  10    0.44    0.68
  -3   1 -10    1.39    1.14
  -3   1 -10    0.37    0.83
   3  -1  10    0.84    0.93
   3  -1  10    0.51    0.79
   3  -1  10    1.95    1.02
  -3   1 -11  537.80   13.67
   3  -1  11  446.59    9.99
   3  -1  11  495.25   12.43
  -3   1 -11  570.75   14.33
  -3   1 -11  556.14   13.99
   3  -1  11  459.73   11.77
   3  -1  11  476.40   11.46
   3  -1  11  464.32   11.57
  -3   0  10   74.28    2.79
   3   0 -10   74.31    2.71
  -3   0   9   16.98    2.32
   3   0  -9   14.41    2.43
   3   0  -9   14.59    2.60
  -3   0   9   13.99    1.62
   3   0  -9   14.39    1.94
   3   0  -8  370.95   15.07
   3   0  -8  369.77   15.27
   3   0  -8  357.60   15.96
   3   0  -8  304.06   11.59
  -3   0   8  309.92   13.30
   3   0  -8  433.94   13.56
  -3   0   8  305.37   12.43
  -3   0   8  326.22   12.23
   3   0  -8  405.97   11.86
  -3   0   8  322.91   11.17
  -3   0   7  325.28   14.30
   3   0  -7  374.05   14.12
  -3   0   7  328.37    9.42
   3   0  -7  395.00   17.65
   3   0  -7  309.60   12.77
   3   0  -7  363.57   17.65
   3   0  -7  335.71   14.49
  -3   0   7  336.06   15.44
   3   0  -7  387.95   17.36
  -3   0   7  366.39   14.40
   3   0  -7  417.31   12.84
  -3   0   7  352.13   12.99
   3   0  -6  525.09   17.80
  -3   0   6  460.47   11.36
   3   0  -6  506.94   19.93
  -3   0   6  355.76   14.04
   3   0  -6  408.52   15.70
   3   0  -6  464.58   19.97
  -3   0   6  452.93   14.87
   3   0  -6  412.32   16.89
  -3   0   6  425.32   17.56
   3   0  -6  466.21   19.42
  -3   0   6  455.86   17.24
  -3   0   6  456.19   13.24
  -3   0   6  470.49   16.61
   3   0  -6  520.87   14.24
  -3   0   5  195.29    7.00
   3   0  -5  225.14   12.52
   3   0  -5  162.25    9.58
   3   0  -5  210.30   12.64
  -3   0   5  173.96   10.53
  -3   0   5  163.59    9.42
  -3   0   5  187.51   10.36
  -3   0   5  192.84    8.22
  -3   0   5  204.90   10.34
   3   0  -5  210.03    8.60
  -3   0   4    1.91    0.97
  -3   0   4    2.96    1.20
  -3   0   4    1.07    0.86
   3   0  -4    5.50    1.91
   3   0  -4    1.50    0.88
  -3   0   4    1.90    0.70
   3   0  -4    1.88    1.13
  -3   0   4    0.28    0.74
  -3   0   4    2.38    1.27
  -3   0   4    2.47    1.00
  -3   0   4    1.38    1.08
   3   0  -4    1.97    0.88
  -3   0   3 1897.98   21.65
   3   0  -3 1797.16   25.50
  -3   0   3 1808.56   30.89
   3   0  -3 2121.41   31.66
  -3   0   3 2026.60   30.71
  -3   0   3 2019.56   24.26
  -3   0   3 2086.40   30.13
  -3   0   3 2112.93   29.87
  -3   0   3 2185.84   29.76
   3   0  -3 2110.78   18.14
  -3   0   3 2177.10   25.27
   3   0  -3 2173.44   25.24
  -3   0   3 2270.77   28.16
  -3   0   2   30.16    3.16
   3   0  -2   29.68    3.01
  -3   0   2   32.80    2.65
   3   0  -2   29.91    2.58
   3   0  -2   42.37    3.81
  -3   0   2   22.12    2.46
  -3   0   2   31.57    3.17
  -3   0   2   29.03    2.79
   3   0  -2   33.89    2.60
  -3   0   2   31.97    2.73
   3   0  -2   32.80    2.61
   3   0  -2   31.72    2.60
  -3   0   2   30.87    3.01
   3   0  -2   33.36    2.74
   3   0  -2   33.73    2.84
  -3   0   2   36.52    2.79
  -3   0   2   30.42    2.48
  -3   0   2   32.41    2.62
  -3   0   2   36.84    3.29
  -3   0   2   33.26    2.66
  -3   0   2   18.43    0.60
   3   0  -2   30.50    1.78
   3   0  -2   37.09    2.89
   3   0  -2   31.30    2.48
  -3   0   2   33.44    3.23
   3   0  -1  934.05   14.19
  -3   0   1  977.81   14.75
   3   0  -1  948.96   14.15
   3   0  -1  983.14   14.25
   3   0  -1  940.44   14.47
  -3   0   1  974.19   14.41
   3   0  -1  934.21   14.75
  -3   0   1  987.45   14.48
  -3   0   1  962.86   14.53
  -3   0   1 1004.07   14.64
   3   0  -1  930.54   11.25
  -3   0   1  895.21    9.89
   3   0  -1 1021.30   15.32
   3   0  -1 1072.44   15.70
   3   0  -1  922.50   13.18
   3   0   0  739.05   11.90
  -3   0   0  761.95   12.35
  -3   0   0  775.83   12.51
  -3   0   0  768.37    8.81
   3   0   0  714.00   12.30
   3   0   0  693.80   12.27
  -3   0   0  782.40   12.47
   3   0   0  712.09   12.09
  -3   0   0  781.63   12.48
   3   0   0  757.95   10.13
  -3   0   0  763.59   12.29
  -3   0   0  625.27    5.97
  -3   0   0  638.69    6.11
   3   0   0  789.86   13.09
   3   0   0  907.80   14.04
   3   0   0  755.09   12.19
   3   0   1 1354.24   18.30
  -3   0  -1 1456.18   18.37
  -3   0  -1 1518.80   18.59
   3   0   1 1159.57   16.32
   3   0   1 1361.03   18.14
   3   0   1 1311.06   18.28
  -3   0  -1 1519.56   18.44
   3   0   1 1311.65   18.22
  -3   0  -1 1506.17   18.43
   3   0   1 1340.03   19.01
  -3   0  -1 1503.38   18.43
  -3   0  -1 1315.95   17.03
  -3   0  -1 1583.59   12.99
   3   0   1 1565.92   12.20
   3   0   1 1468.95   19.51
   3   0   1 1730.91   21.22
   3   0   2   78.56    4.18
  -3   0  -2   71.08    3.81
  -3   0  -2   73.31    3.84
   3   0   2   78.74    4.18
   3   0   2   75.66    4.17
  -3   0  -2   76.35    3.90
   3   0   2   79.22    4.29
  -3   0  -2   74.72    3.83
   3   0   2   77.31    4.30
  -3   0  -2   73.45    3.84
  -3   0  -2   75.10    1.72
  -3   0  -2   77.94    2.88
  -3   0  -2   84.74    2.20
   3   0   2   68.18    4.08
   3   0   2   70.17    4.15
  -3   0  -2   91.39    3.60
  -3   0  -3  972.59   15.97
  -3   0  -3 1192.86   15.45
  -3   0  -3  996.32   16.31
   3   0   3 1029.45   16.97
  -3   0  -3 1012.04   16.25
   3   0   3 1070.89   17.47
  -3   0  -3 1022.10   16.31
   3   0   3 1080.35   17.62
   3   0   3 1049.52   17.46
  -3   0  -3 1018.93   16.26
   3   0   3 1020.72   17.56
  -3   0  -3 1128.31   11.30
   3   0   3 1063.12   10.63
   3   0   3 1141.20   11.95
   3   0   3  895.18   16.82
   3   0   3 1034.16   17.98
  -3   0  -3 1192.93   15.70
   3   0   4   98.22    5.34
  -3   0  -4   95.25    3.20
  -3   0  -4   94.87    5.05
   3   0   4  100.16    5.40
  -3   0  -4   93.57    4.97
  -3   0  -4   91.16    4.98
   3   0   4  105.53    5.54
  -3   0  -4   89.71    4.86
   3   0   4  105.18    5.60
  -3   0  -4   92.87    4.96
   3   0   4   99.21    5.45
  -3   0  -4  113.65    3.91
   3   0   4  110.43    3.98
   3   0   4   96.74    5.56
   3   0   4  102.17    5.80
  -3   0  -4  110.39    4.92
  -3   0  -4   90.58    3.58
  -3   0  -5  383.95   10.07
  -3   0  -5  306.70    8.40
   3   0   5  336.77    8.90
  -3   0  -5  324.45    9.08
  -3   0  -5  372.41   10.11
  -3   0  -5  313.96    8.71
  -3   0  -5  299.42    9.22
  -3   0  -5  310.40    9.91
   3   0   5  339.59   10.96
   3   0   5  319.64    8.07
  -3   0  -5  288.44    8.76
  -3   0  -5  309.67    9.95
  -3   0  -5  316.93   10.07
  -3   0  -5  339.32    9.08
  -3   0  -5  301.28    9.77
   3   0   5  336.91   10.96
  -3   0  -5  327.23   10.36
   3   0   5  316.65   10.68
   3   0   5  320.70    8.35
   3   0   5  346.37   11.15
   3   0   5  327.33   10.78
  -3   0  -5  323.88   10.20
   3   0   5  345.81   11.12
  -3   0  -5  369.78    8.52
   3   0   5  299.14   10.34
   3   0   5  333.84   11.35
   3   0   5  367.82    8.71
  -3   0  -5  310.89    7.20
   3   0   5  312.92    8.48
   3   0   6  434.53   11.36
  -3   0  -6  522.11   12.78
  -3   0  -6  383.60   10.33
  -3   0  -6  418.79   11.49
  -3   0  -6  415.73   11.29
  -3   0  -6  412.51    9.87
   3   0   6  441.65   11.19
  -3   0  -6  428.77   12.46
  -3   0  -6  448.39    9.64
   3   0   6  419.55   13.13
   3   0   6  436.02   13.45
  -3   0  -6  406.14   11.92
  -3   0  -6  394.03   12.01
  -3   0  -6  402.73   12.15
  -3   0  -6  384.37   11.97
  -3   0  -6  401.16   12.15
  -3   0  -6  382.22   11.98
   3   0   6  429.92   13.33
   3   0   6  433.03   11.05
   3   0   6  423.04   13.31
   3   0   6  418.71   13.10
  -3   0  -6  504.88   11.49
   3   0   6  427.91   12.81
   3   0   6  420.16   13.68
  -3   0  -6  439.90    9.33
   3   0   6  415.22   10.97
   3   0   7 1106.50   20.55
  -3   0  -7 1084.50   21.21
  -3   0  -7 1080.77   20.58
  -3   0  -7 1167.55   21.54
  -3   0  -7 1083.96   17.85
   3   0   7 1122.97   20.37
  -3   0  -7 1069.75   22.09
   3   0   7 1074.58   19.81
  -3   0  -7 1091.16   21.92
  -3   0  -7 1086.13   19.98
  -3   0  -7 1017.73   18.91
   3   0   7 1104.37   20.14
   3   0   7 1065.68   21.06
   3   0   7 1073.78   19.95
   3   0   8  310.97   11.31
  -3   0  -8  305.10   12.10
  -3   0  -8  318.71   11.68
  -3   0  -8  308.86   11.30
   3   0   8  301.14   11.21
   3   0   8  307.27   11.35
  -3   0  -8  313.54   12.61
   3   0   8  302.02    9.98
  -3   0  -8  293.05   10.51
  -3   0  -8  307.17   12.24
  -3   0  -8  329.22   11.42
   3   0   8  318.00   11.52
   3   0   8  304.51   11.17
   3   0   9  110.43    6.81
  -3   0  -9  112.75    7.51
   3   0   9  101.45    6.78
  -3   0  -9  104.49    6.87
   3   0   9  101.33    6.71
  -3   0  -9  107.93    7.55
  -3   0  -9  104.84    7.48
  -3   0  -9  113.15    6.70
  -3   0  -9  124.61    6.99
   3   0   9  104.85    6.89
   3   0   9  108.56    6.47
   3   0   9  107.99    6.89
   3   0  10   57.44    4.49
  -3   0 -10   63.03    5.56
  -3   0 -10   61.89    5.10
   3   0  10   58.00    4.96
  -3   0 -10   62.18    5.67
  -3   0 -10   65.70    5.81
   3   0  10   61.08    5.11
   3   0  10   58.89    4.95
   3   0  10   54.94    4.24
   3   0  10   59.69    5.00
   3   0  11  301.58    9.56
  -3   0 -11  348.63   11.92
  -3   0 -11  362.69   11.93
  -3   0 -11  368.27   10.81
   3   0  11  312.44   10.54
  -3   0 -11  358.95   12.17
   3   0  11  312.49   10.27
   3   0  11  331.96   10.23
   3   0  11  338.01   10.52
   3   1  -9   26.07    2.97
   3   1  -9   30.10    3.29
   3   1  -9   32.14    3.35
  -3  -1   9   33.56    2.98
   3   1  -9   30.32    2.53
   3   1  -8  235.14    9.79
   3   1  -8  235.04   11.65
  -3  -1   8  202.68    6.57
   3   1  -8  224.93   11.74
   3   1  -8  234.50   11.85
  -3  -1   8  203.45    9.99
  -3  -1   8  191.08    9.32
   3   1  -8  244.66    8.88
  -3  -1   8  219.66    8.87
   3   1  -7  165.94    9.90
   3   1  -7  160.55   10.87
  -3  -1   7  145.88    6.39
   3   1  -7  155.82   11.16
   3   1  -7  128.50    7.93
  -3  -1   7  135.89    9.86
   3   1  -7  161.56   11.00
  -3  -1   7  142.88    8.21
  -3  -1   7  136.20    9.51
  -3  -1   7  151.13    9.45
   3   1  -7  185.97    8.45
   3   1  -6  669.93   22.90
  -3  -1   6  601.32   13.82
   3   1  -6  471.23   15.19
   3   1  -6  644.58   23.30
   3   1  -6  547.43   18.00
  -3  -1   6  572.23   20.88
  -3  -1   6  432.22   16.07
   3   1  -6  630.95   22.76
  -3  -1   6  566.18   20.23
  -3  -1   6  599.36   15.80
  -3  -1   6  598.57   19.92
   3   1  -6  732.54   17.12
  -3  -1   5   58.87    4.14
   3   1  -5   66.63    6.93
   3   1  -5   50.04    4.92
   3   1  -5   57.03    6.66
   3   1  -5   50.45    5.22
  -3  -1   5   56.19    6.27
  -3  -1   5   52.89    5.85
  -3  -1   5   67.46    5.13
  -3  -1   5   73.01    6.58
  -3  -1   4   32.84    3.78
  -3  -1   4   34.21    3.02
  -3  -1   4   30.67    4.45
   3   1  -4   46.87    5.24
   3   1  -4   31.88    3.69
   3   1  -4   34.58    4.72
   3   1  -4   33.43    4.00
  -3  -1   4   34.04    4.52
   3   1  -4   42.75    3.57
   3   1  -4   35.98    3.23
   3   1  -4   38.11    3.35
   3   1  -4   39.74    3.38
   3   1  -4   41.67    3.59
  -3  -1   4   36.94    4.40
  -3  -1   4   35.95    3.09
  -3  -1   4   38.37    3.63
   3   1  -4   32.67    4.14
  -3  -1   4   35.31    3.06
  -3  -1   4   38.08    3.16
  -3  -1   4   38.40    3.21
  -3  -1   4   37.13    3.14
  -3  -1   4   35.75    4.34
   3   1  -4   41.56    3.54
  -3  -1   4   41.30    4.15
   3   1  -4   38.77    2.45
  -3  -1   4   31.66    4.16
  -3  -1   3 1144.95   17.03
  -3  -1   3  961.90   16.85
  -3  -1   3  976.34   23.17
  -3  -1   3 1106.86   16.95
   3   1  -3 1182.14   17.57
   3   1  -3  936.76   18.94
   3   1  -3 1099.82   21.23
  -3  -1   3 1039.55   22.51
  -3  -1   3  959.46   21.32
   3   1  -3 1146.04   17.73
   3   1  -3 1151.60   17.40
   3   1  -3 1161.84   17.51
   3   1  -3 1158.81   18.00
  -3  -1   3 1105.57   23.02
  -3  -1   3 1244.03   19.64
  -3  -1   3 1143.03   17.10
  -3  -1   3 1103.99   16.75
  -3  -1   3 1003.72   20.69
  -3  -1   3 1149.39   17.19
  -3  -1   3 1112.68   16.90
  -3  -1   3 1171.81   22.91
   3   1  -3 1334.28   20.09
   3   1  -3 1134.98   17.63
  -3  -1   3 1191.74   20.92
   3   1  -3 1191.36   14.59
  -3  -1   2    0.87    0.63
   3   1  -2    1.28    0.56
  -3  -1   2    0.20    0.60
  -3  -1   2    1.06    0.70
  -3  -1   2    1.03    0.87
   3   1  -2    1.68    0.61
   3   1  -2    1.70    0.66
  -3  -1   2    1.29    0.58
   3   1  -2    1.58    0.65
   3   1  -2    1.27    0.58
  -3  -1   2    1.35    0.55
  -3  -1   2    1.28    0.85
  -3  -1   2    1.15    0.54
  -3  -1   2    0.92    0.49
  -3  -1   2    0.97    0.54
  -3  -1   2    0.60    0.51
  -3  -1   2    0.37    0.65
   3   1  -2    0.68    0.52
   3   1  -2    0.29    0.32
  -3  -1   1  951.02   18.25
   3   1  -1  979.79   13.32
  -3  -1   1 1090.85   14.94
   3   1  -1 1039.93   13.92
   3   1  -1 1031.49   13.88
   3   1  -1  992.52   14.12
  -3  -1   1 1079.39   14.57
   3   1  -1  962.93   14.21
  -3  -1   1 1083.30   14.52
  -3  -1   1  986.36   13.64
   3   1  -1  974.63   13.85
  -3  -1   1 1090.57   14.71
  -3  -1   1 1069.06   14.45
  -3  -1   1  966.91   10.31
   3   1  -1 1175.31   16.28
  -3  -1   0 2787.87   31.94
   3   1   0 2637.41   25.14
   3   1   0 2611.32   24.86
   3   1   0 2647.90   24.60
  -3  -1   0 2842.07   26.05
   3   1   0 2685.07   24.78
  -3  -1   0 2857.64   25.70
   3   1   0 2616.36   25.46
  -3  -1   0 2909.41   25.88
  -3  -1   0 2898.69   25.87
  -3  -1   0 2830.57   25.71
  -3  -1   0 2753.16   23.24
   3   1   0 2919.91   24.98
   3   1   0 2995.65   29.43
   3   1   0 3364.27   30.17
   3   1   0 2992.94   24.20
   3   1   1 1347.26   16.51
   3   1   1 1353.12   16.56
  -3  -1  -1 1629.66   21.32
  -3  -1  -1 1419.29   16.83
  -3  -1  -1 1479.47   17.00
   3   1   1 1349.30   16.67
  -3  -1  -1 1497.42   16.90
   3   1   1 1287.95   16.53
  -3  -1  -1 1510.84   16.99
   3   1   1 1339.25   17.15
  -3  -1  -1 1473.36   16.94
   3   1   1 1685.25   20.31
   3   1   1 1756.43   17.43
   3   1   1 1916.58   20.95
  -3  -1  -1 1542.49   15.02
  -3  -1  -2  646.71   10.79
   3   1   2  681.69   11.44
  -3  -1  -2  727.19   12.63
  -3  -1  -2  780.50   11.50
  -3  -1  -2  616.61   10.69
  -3  -1  -2  651.83   10.84
  -3  -1  -2  654.79   11.26
   3   1   2  674.13   11.47
   3   1   2  695.12   11.74
   3   1   2  680.69   11.71
  -3  -1  -2  638.84   10.67
   3   1   2  693.85   11.96
   3   1   2  748.19   11.32
  -3  -1  -2  648.86   10.86
   3   1   2  647.26   11.53
   3   1   2  684.03    7.45
   3   1   2  718.46    6.86
   3   1   2  639.47   12.56
   3   1   2  669.47   12.31
  -3  -1  -2  734.05    7.66
  -3  -1  -3  387.89    8.77
  -3  -1  -3  441.21    8.89
  -3  -1  -3  495.71    9.76
   3   1   3  463.90    9.78
   3   1   3  415.40    7.30
  -3  -1  -3  381.95    8.67
  -3  -1  -3  390.59    8.71
   3   1   3  461.68    9.89
   3   1   3  465.99    9.95
   3   1   3  456.70    9.89
  -3  -1  -3  391.53    8.74
   3   1   3  445.09    9.86
   3   1   3  442.00    4.97
   3   1   3  461.08    6.60
   3   1   3  421.63   10.58
   3   1   3  354.19    8.88
  -3  -1  -3  427.67    4.73
  -3  -1  -3  356.32    4.61
  -3  -1  -4   28.39    2.50
   3   1   4   20.84    2.28
  -3  -1  -4   20.90    1.63
  -3  -1  -4   21.19    2.16
  -3  -1  -4   21.29    2.15
  -3  -1  -4   17.94    1.99
  -3  -1  -4   18.08    2.00
   3   1   4   25.02    2.48
  -3  -1  -4   21.29    2.19
   3   1   4   22.01    2.33
   3   1   4   21.50    2.34
   3   1   4   21.08    2.31
  -3  -1  -4   19.88    2.10
   3   1   4   21.31    2.32
   3   1   4   26.65    1.84
   3   1   4   35.32    3.21
   3   1   4   24.17    2.54
  -3  -1  -4   28.18    1.06
  -3  -1  -4   19.03    0.98
  -3  -1  -5 1081.32   17.19
  -3  -1  -5 1241.43   19.12
  -3  -1  -5 1048.15   17.16
   3   1   5 1114.56   16.29
  -3  -1  -5 1207.22   18.42
  -3  -1  -5 1051.26   17.38
  -3  -1  -5 1252.76   18.10
   3   1   5 1126.79   15.80
  -3  -1  -5 1032.72   17.21
  -3  -1  -5 1031.22   17.46
  -3  -1  -5 1044.45   17.46
  -3  -1  -5 1165.70   17.35
  -3  -1  -5 1043.06   17.55
  -3  -1  -5 1060.65   17.71
   3   1   5 1165.14   19.53
   3   1   5 1116.33   19.18
   3   1   5 1183.87   19.78
   3   1   5 1114.04   19.15
  -3  -1  -5 1041.63   17.70
   3   1   5 1150.95   19.34
   3   1   5 1199.08   21.99
   3   1   5 1171.01   15.66
   3   1   5 1178.33   21.19
  -3  -1  -5 1107.13   11.21
  -3  -1  -6 1823.65   22.36
  -3  -1  -6 1849.47   25.92
  -3  -1  -6 1997.93   26.81
  -3  -1  -6 1880.11   26.32
  -3  -1  -6 1932.52   27.26
  -3  -1  -6 2176.73   27.20
  -3  -1  -6 2208.65   24.50
   3   1   6 1790.49   23.77
  -3  -1  -6 1792.81   25.83
  -3  -1  -6 1758.23   25.22
  -3  -1  -6 1824.46   25.56
  -3  -1  -6 1884.90   24.82
  -3  -1  -6 1769.85   25.36
  -3  -1  -6 1743.83   25.45
   3   1   6 1921.92   27.98
   3   1   6 1873.14   27.38
   3   1   6 1877.14   24.09
   3   1   6 1962.54   27.97
   3   1   6 1921.73   27.67
  -3  -1  -6 1893.18   26.49
   3   1   6 1936.81   27.66
   3   1   6 1978.61   30.25
   3   1   6 1824.67   24.26
   3   1   7  203.14    8.31
   3   1   7  189.79    7.90
  -3  -1  -7  192.27    8.49
  -3  -1  -7  176.05    8.12
  -3  -1  -7  180.80    8.44
   3   1   7  193.42    8.04
  -3  -1  -7  181.62    8.74
  -3  -1  -7  194.69    7.31
  -3  -1  -7  227.36    8.50
  -3  -1  -7  180.39    8.36
  -3  -1  -7  176.72    7.95
  -3  -1  -7  182.67    8.08
  -3  -1  -7  184.99    8.14
  -3  -1  -7  220.30    8.40
  -3  -1  -7  187.49    8.26
  -3  -1  -7  181.21    8.20
   3   1   7  213.15    9.62
   3   1   7  197.52    8.85
   3   1   7  209.58    9.22
   3   1   7  183.44    7.85
   3   1   7  205.81    9.25
   3   1   7  206.14    9.17
  -3  -1  -7  199.58    8.83
   3   1   7  205.87    9.16
   3   1   7  196.16    9.27
   3   1   7  178.25    7.71
  -3  -1  -8   15.14    2.67
  -3  -1  -8   15.27    3.37
   3   1   8   15.52    2.53
  -3  -1  -8   13.64    2.56
  -3  -1  -8   13.57    2.44
  -3  -1  -8   10.74    2.33
   3   1   8   14.37    2.45
  -3  -1  -8   12.54    2.56
  -3  -1  -8   12.03    1.94
   3   1   8   10.97    2.17
  -3  -1  -8   14.95    2.68
  -3  -1  -8   18.89    2.63
   3   1   8   13.12    1.88
   3   1   8   14.12    2.43
   3   1   8   13.14    2.37
   3   1   9   16.65    2.68
  -3  -1  -9   16.76    3.02
  -3  -1  -9   17.34    2.78
  -3  -1  -9   16.50    2.94
   3   1   9   16.82    2.78
  -3  -1  -9   18.19    3.24
   3   1   9   18.99    2.96
  -3  -1  -9   18.27    3.15
   3   1   9   17.80    2.28
   3   1   9   17.96    2.83
   3   1   9   17.48    2.80
  -3  -1 -10   65.56    5.69
  -3  -1 -10   64.42    5.62
  -3  -1 -10   65.79    5.03
   3   1  10   67.96    5.45
  -3  -1 -10   66.32    5.96
   3   1  10   60.25    5.11
  -3  -1 -10   72.64    6.20
   3   1  10   69.36    5.42
   3   1  10   67.91    4.90
   3   1  10   61.71    5.20
  -3  -1 -11  537.06   14.85
   3   1  11  467.37   13.04
  -3  -1 -11  513.26   15.01
   3   1  11  457.97   12.73
  -3  -1 -11  510.72   14.83
   3   1  11  457.76   12.51
   3   1  11  461.66   12.84
   3   1  12   36.67    2.88
  -3  -1 -12   43.40    3.51
   3   1  12   33.21    2.68
   3   1  12   39.83    2.90
  -3  -2   9  109.36    4.74
   3   2  -9  116.84    4.33
   3   2  -8  187.45    9.81
   3   2  -8  172.23    8.93
  -3  -2   8  168.89    5.90
  -3  -2   8  225.09    9.31
  -3  -2   8  161.15    8.06
   3   2  -8  225.49    7.95
   3   2  -7  336.29   14.16
   3   2  -7  319.46   14.62
   3   2  -7  280.24   13.98
   3   2  -7  325.95   15.18
  -3  -2   7  420.40   15.45
  -3  -2   7  269.91   13.07
  -3  -2   7  284.01   12.96
   3   2  -7  404.00   12.21
   3   2  -6   66.86    6.69
   3   2  -6   67.68    7.00
   3   2  -6   62.77    7.03
  -3  -2   6   56.27    6.60
   3   2  -6   67.30    7.28
  -3  -2   6   54.63    6.47
  -3  -2   6   58.36    6.33
   3   2  -6   73.31    5.42
   3   2  -5   21.86    3.94
   3   2  -5   17.06    3.66
   3   2  -5   22.83    3.32
  -3  -2   5   14.85    3.43
  -3  -2   5   16.54    3.60
  -3  -2   5   20.69    3.01
  -3  -2   5   19.27    3.63
  -3  -2   5   18.85    2.35
  -3  -2   5   20.49    3.28
  -3  -2   4    3.56    1.37
  -3  -2   4    2.10    1.42
   3   2  -4    3.74    1.61
   3   2  -4    3.04    1.22
  -3  -2   4    2.77    1.50
  -3  -2   4    3.27    1.27
   3   2  -4    3.02    0.99
   3   2  -4    3.97    1.08
   3   2  -4    2.56    0.91
   3   2  -4    3.01    0.94
   3   2  -4    3.31    1.03
  -3  -2   4    8.97    2.42
  -3  -2   4    3.23    0.95
  -3  -2   4    3.85    1.31
  -3  -2   4    1.85    0.72
  -3  -2   4    2.86    0.88
  -3  -2   4    3.42    0.97
  -3  -2   4    3.22    0.93
  -3  -2   4    4.84    1.86
  -3  -2   3 1225.44   27.44
  -3  -2   3 1475.59   21.85
   3   2  -3 1039.50   19.04
   3   2  -3 1456.42   24.08
  -3  -2   3 1075.58   18.49
  -3  -2   3 1174.77   24.02
  -3  -2   3 1179.04   26.27
   3   2  -3 1476.08   19.59
   3   2  -3 1498.02   19.25
   3   2  -3 1492.82   19.38
   3   2  -3 1508.15   19.40
   3   2  -3 1488.07   19.83
  -3  -2   3 1285.98   26.35
  -3  -2   3 1489.89   19.13
  -3  -2   3 1569.42   24.00
  -3  -2   3 1484.77   19.18
  -3  -2   3 1370.96   18.41
  -3  -2   3 1453.44   19.20
  -3  -2   3 1433.51   18.84
  -3  -2   3 1414.54   27.84
   3   2  -3 1693.42   23.78
   3   2  -3 1624.46   21.49
  -3  -2   3 1568.16   25.32
  -3  -2   2 1600.31   28.88
  -3  -2   2 1680.44   29.26
  -3  -2   2 2067.88   25.37
  -3  -2   2 1814.44   29.19
  -3  -2   2 1844.33   26.60
  -3  -2   2 1711.22   28.75
   3   2  -2 2007.65   21.58
   3   2  -2 2034.68   21.16
   3   2  -2 2088.50   21.42
   3   2  -2 2071.82   21.66
   3   2  -2 2033.07   21.87
  -3  -2   2 2203.49   22.41
  -3  -2   2 2075.75   26.40
  -3  -2   2 2200.57   22.43
  -3  -2   2 2025.56   21.61
  -3  -2   2 2198.47   22.63
  -3  -2   2 2099.30   21.88
  -3  -2   2 1920.13   30.04
   3   2  -2 2266.91   26.20
   3   2  -2 2240.94   23.57
  -3  -2   1  144.31    7.04
   3   2  -1  202.34    5.35
  -3  -2   1  154.59    7.41
  -3  -2   1  158.55    6.97
  -3  -2   1  171.16    7.93
  -3  -2   1  226.08    5.95
   3   2  -1  205.57    5.25
   3   2  -1  215.13    5.37
   3   2  -1  204.65    5.43
  -3  -2   1  230.03    5.85
   3   2  -1  205.45    5.57
  -3  -2   1  231.75    5.87
  -3  -2   1  231.45    5.91
  -3  -2   1  229.20    5.87
   3   2  -1  217.59    6.89
   3   2  -1  202.39    5.52
   3   2   0   26.41    1.74
  -3  -2   0   31.57    3.12
   3   2   0   27.99    1.81
  -3  -2   0   24.90    2.77
  -3  -2   0   29.35    1.93
   3   2   0   24.25    1.61
   3   2   0   24.48    1.65
  -3  -2   0   32.31    1.98
   3   2   0   25.89    1.76
  -3  -2   0   31.24    1.94
  -3  -2   0   32.08    1.99
  -3  -2   0   31.69    1.95
   3   2   0   29.44    1.04
   3   2   0   29.50    1.05
   3   2   0   35.52    2.79
   3   2   0   39.76    2.81
   3   2   0   31.33    1.85
   3   2   0   32.06    2.24
  -3  -2  -1  795.35   15.72
  -3  -2  -1  833.65   15.55
   3   2   1  810.17   10.11
  -3  -2  -1  883.29    9.99
  -3  -2  -1  832.88    9.56
  -3  -2  -1  797.84    9.38
  -3  -2  -1  840.44   10.07
  -3  -2  -1  826.69    9.53
   3   2   1  798.29   10.03
  -3  -2  -1  861.88    9.73
  -3  -2  -1  818.17    9.95
  -3  -2  -1  825.65    9.89
   3   2   1  689.78    8.76
   3   2   1  645.14    8.57
   3   2   1  774.90   10.10
  -3  -2  -1  846.97   10.01
   3   2   1  661.29    8.71
   3   2   1  654.03    8.60
   3   2   1  793.74   10.40
  -3  -2  -1  832.09    9.94
   3   2   1  663.77    8.65
   3   2   1  892.36    7.72
   3   2   1  884.38   14.32
   3   2   1  780.85   10.13
   3   2   1 1067.12   14.78
   3   2   1  906.87   12.45
   3   2   1  885.66    8.90
  -3  -2  -1  706.72    9.07
   3   2   2 1203.66   11.32
  -3  -2  -2 1105.98   18.50
  -3  -2  -2 1094.93   15.65
   3   2   2 1070.30   12.32
  -3  -2  -2 1199.35   11.38
  -3  -2  -2 1108.34   10.84
  -3  -2  -2 1042.48   11.90
  -3  -2  -2 1040.01   11.91
  -3  -2  -2 1142.20   10.95
  -3  -2  -2 1051.70   12.01
  -3  -2  -2 1136.38   10.96
   3   2   2 1055.75   12.37
  -3  -2  -2 1241.26   11.51
  -3  -2  -2 1052.90   11.95
   3   2   2 1202.83   11.34
   3   2   2 1052.93   12.37
   3   2   2 1186.94   11.33
   3   2   2 1183.96   11.24
   3   2   2 1049.77   12.38
  -3  -2  -2 1051.11   11.96
   3   2   2 1209.87   11.41
   3   2   2 1037.17   12.37
   3   2   2 1090.42    9.97
   3   2   2 1124.65   14.75
   3   2   2 1130.44   10.80
   3   2   2  985.99   16.27
  -3  -2  -2 1022.99   16.54
  -3  -2  -3 1822.42   21.34
   3   2   3 1790.27   18.51
  -3  -2  -3 1929.03   24.74
  -3  -2  -3 1697.81   17.47
  -3  -2  -3 1698.48   17.51
  -3  -2  -3 1726.31   17.57
  -3  -2  -3 1737.47   17.55
   3   2   3 1823.22   18.60
  -3  -2  -3 1782.17   17.87
   3   2   3 1778.25   18.48
   3   2   3 1723.31   18.42
   3   2   3 1767.74   18.41
  -3  -2  -3 1706.43   17.54
   3   2   3 1810.47   20.29
   3   2   3 1731.37   18.32
   3   2   3 1657.99   12.68
   3   2   3 1921.06   16.97
   3   2   3 1805.16   22.89
   3   2   3 1909.28   20.95
  -3  -2  -3 2009.15   22.64
  -3  -2  -4  472.28   10.15
  -3  -2  -4  474.01   10.43
  -3  -2  -4  466.43   10.47
  -3  -2  -4  433.31    8.56
  -3  -2  -4  419.62    8.43
  -3  -2  -4  424.70    8.50
   3   2   4  441.82    9.10
  -3  -2  -4  430.06    8.60
   3   2   4  459.59    9.36
   3   2   4  445.31    9.18
  -3  -2  -4  486.44   10.78
   3   2   4  421.38    9.00
  -3  -2  -4  421.76    8.55
   3   2   4  447.95    9.14
   3   2   4  468.99    7.82
   3   2   4  489.93    8.50
   3   2   4  489.21   13.31
   3   2   4  503.23   10.51
  -3  -2  -5  658.49   13.26
  -3  -2  -5  649.82   13.84
  -3  -2  -5  623.53   13.25
  -3  -2  -5  616.54   12.69
  -3  -2  -5  753.31   14.82
  -3  -2  -5  608.74   12.52
  -3  -2  -5  545.72   11.06
  -3  -2  -5  592.81   11.48
  -3  -2  -5  549.63   11.16
  -3  -2  -5  579.48   11.41
   3   2   5  623.03   12.51
  -3  -2  -5  628.16   13.11
   3   2   5  608.49   12.20
   3   2   5  601.43   12.21
   3   2   5  593.61   12.03
  -3  -2  -5  606.35   11.79
   3   2   5  587.13   12.01
   3   2   5  672.72   11.64
   3   2   5  688.93   16.78
   3   2   5  666.98   15.13
   3   2   6 3248.24   34.91
  -3  -2  -6 3536.62   37.94
  -3  -2  -6 3598.25   38.83
  -3  -2  -6 3373.59   38.27
   3   2   6 3711.70   36.37
  -3  -2  -6 3527.80   38.37
  -3  -2  -6 3265.55   34.58
  -3  -2  -6 3115.35   34.09
  -3  -2  -6 3358.37   34.96
  -3  -2  -6 3759.98   36.89
  -3  -2  -6 3152.50   34.23
  -3  -2  -6 3207.02   34.86
   3   2   6 3726.03   38.84
   3   2   6 3234.12   35.78
   3   2   6 3501.22   37.06
   3   2   6 3406.92   37.02
  -3  -2  -6 3820.45   38.24
   3   2   6 3420.95   36.75
  -3  -2  -6 3544.46   36.59
   3   2   6 3407.39   36.47
   3   2   6 3754.93   45.32
   3   2   6 3294.22   34.22
   3   2   6 3882.00   42.43
  -3  -2  -6 3903.37   36.48
  -3  -2  -7  102.99    5.79
  -3  -2  -7  136.59    9.44
   3   2   7  118.85    7.58
  -3  -2  -7  108.00    6.33
  -3  -2  -7  111.09    6.56
  -3  -2  -7  112.39    6.82
  -3  -2  -7  135.32    6.27
   3   2   7  109.30    6.04
  -3  -2  -7  113.98    6.66
  -3  -2  -7  108.83    5.82
  -3  -2  -7  108.83    5.84
  -3  -2  -7  104.61    5.70
  -3  -2  -7  104.69    5.74
   3   2   7  109.79    6.15
   3   2   7  118.81    6.47
   3   2   7  113.70    6.36
   3   2   7  121.05    6.50
   3   2   7  120.02    6.48
   3   2   7  108.86    5.91
  -3  -2  -7  138.06    6.72
  -3  -2  -8   31.73    4.01
  -3  -2  -8   40.53    5.57
  -3  -2  -8   29.35    3.63
  -3  -2  -8   26.84    3.55
  -3  -2  -8   26.91    3.63
   3   2   8   28.66    3.38
   3   2   8   35.12    3.78
  -3  -2  -8   26.94    3.48
   3   2   8   25.31    2.63
   3   2   8   25.90    3.22
   3   2   8   27.41    3.27
   3   2   9  235.17    9.90
  -3  -2  -9  219.82   10.36
  -3  -2  -9  219.30   10.85
   3   2   9  218.64    9.83
  -3  -2  -9  226.77   10.72
  -3  -2  -9  228.67    8.97
   3   2   9  230.39   10.06
  -3  -2  -9  224.73   10.91
   3   2   9  221.52    8.10
   3   2   9  217.89    9.67
   3   2   9  201.55    9.39
  -3  -2 -10  172.16    8.53
  -3  -2 -10  193.65   10.06
   3   2  10  166.93    8.38
  -3  -2 -10  173.00    9.46
   3   2  10  169.63    8.48
  -3  -2 -10  178.22    9.37
   3   2  10  168.56    8.38
   3   2  10  174.23    8.61
   3   2  11  899.03   15.88
  -3  -2 -11 1043.57   20.30
  -3  -2 -11 1020.06   21.59
  -3  -2 -11  975.02   17.63
   3   2  11  909.20   18.41
   3   2  11  887.23   18.00
   3   2  11  887.42   17.81
   3   2  11  860.59   17.98
  -3  -2 -12   23.36    2.66
   3   2  12   18.33    2.06
   3   2  12   18.17    2.01
   3   2  12   23.79    2.21
   3   2  12   19.82    2.13
   3   3  -9    2.73    0.55
  -3  -3   8  233.19    7.55
   3   3  -8  262.78    9.47
   3   3  -8  232.28    8.67
   3   3  -8  219.78    8.29
   3   3  -8  230.37    9.61
  -3  -3   8  277.46    9.37
  -3  -3   8  235.93    7.01
   3   3  -8  299.95    8.19
  -3  -3   7   42.88    4.12
   3   3  -7   49.12    5.21
   3   3  -7   42.81    4.75
   3   3  -7   43.45    4.87
  -3  -3   7   47.42    3.69
   3   3  -7   42.65    5.03
  -3  -3   7   60.81    5.54
  -3  -3   7   42.69    4.73
   3   3  -7   67.82    4.65
   3   3  -6   44.92    5.45
   3   3  -6   32.25    4.72
  -3  -3   6   38.60    3.71
   3   3  -6   45.71    5.79
  -3  -3   6   57.02    6.07
  -3  -3   6   33.64    4.73
  -3  -3   6   44.11    4.70
  -3  -3   5   21.21    2.91
   3   3  -5   18.49    3.66
   3   3  -5   16.99    3.66
  -3  -3   5   27.69    4.53
  -3  -3   5   19.93    3.92
  -3  -3   5   20.39    3.12
  -3  -3   5   19.96    3.80
  -3  -3   5   23.67    2.61
  -3  -3   5   22.40    3.47
  -3  -3   4  609.21   15.45
   3   3  -4  493.93   17.92
  -3  -3   4  481.90   18.32
  -3  -3   4  606.65   16.34
  -3  -3   4  521.93   18.45
  -3  -3   4  619.58   13.10
  -3  -3   4  575.59   16.97
  -3  -3   3  375.60   13.59
   3   3  -3  422.93   15.25
   3   3  -3  449.44   12.56
  -3  -3   3  545.14   14.06
  -3  -3   3  459.35   16.27
  -3  -3   3  396.60   15.57
  -3  -3   3  424.72   15.84
   3   3  -3  381.74   15.27
  -3  -3   3  526.01   14.31
  -3  -3   3  463.82   16.11
   3   3  -3  569.21   14.15
   3   3  -3  582.11   12.84
  -3  -3   3  513.49   14.70
  -3  -3   2   21.54    3.38
  -3  -3   2   19.28    3.18
  -3  -3   2   25.45    2.87
  -3  -3   2   22.92    3.30
  -3  -3   2   19.20    2.65
  -3  -3   2   25.95    2.07
  -3  -3   2   24.77    1.94
   3   3  -2   18.56    3.19
  -3  -3   2   22.86    2.74
  -3  -3   2   25.57    1.96
  -3  -3   2   26.10    1.96
  -3  -3   2   27.17    2.06
  -3  -3   2   27.51    2.05
   3   3  -2   27.56    1.86
  -3  -3   2   25.03    3.41
   3   3  -2   29.27    2.89
   3   3  -2   27.19    2.43
  -3  -3   2   28.62    3.11
  -3  -3   1  469.47   14.20
   3   3  -1  471.16    7.27
  -3  -3   1  437.64   12.89
  -3  -3   1  411.85   12.96
  -3  -3   1  444.30   13.87
  -3  -3   1  541.70    8.42
   3   3  -1  489.50    7.27
   3   3  -1  472.55    7.18
   3   3  -1  462.15    7.33
   3   3  -1  459.94    7.46
  -3  -3   1  557.11    8.28
  -3  -3   1  544.77    8.29
  -3  -3   1  557.94    8.31
  -3  -3   1  557.63    8.30
   3   3  -1  534.68    7.40
  -3  -3   1  466.81   13.25
   3   3  -1  556.11   11.81
   3   3  -1  549.36    9.70
  -3  -3   0   92.26    5.84
  -3  -3   0   88.38    5.55
  -3  -3   0   85.95    5.52
   3   3   0   99.25    2.41
   3   3   0   95.35    2.92
   3   3   0  110.75    5.07
   3   3   0  111.48    4.93
   3   3   0  100.65    3.36
  -3  -3  -1  115.34    6.50
  -3  -3  -1  100.97    5.60
   3   3   1   98.58    1.88
   3   3   1  114.58    3.28
   3   3   1  116.37    2.74
   3   3   1  121.70    4.70
  -3  -3  -2 2774.63   30.40
  -3  -3  -2 3504.12   38.61
  -3  -3  -2 3106.45   33.48
   3   3   2 2797.91   19.79
   3   3   2 3048.87   20.33
   3   3   2 3034.63   22.84
   3   3   2 3286.89   25.17
   3   3   2 3083.53   31.86
   3   3   2 3256.09   29.83
   3   3   2 3499.93   29.75
  -3  -3  -3    1.20    0.69
   3   3   3    1.48    0.73
   3   3   3    0.75    0.39
   3   3   3    0.26    0.40
   3   3   3    0.62    0.42
   3   3   3    0.50    0.40
   3   3   4   13.81    1.13
  -3  -3  -4   21.57    2.27
  -3  -3  -4   24.53    2.49
  -3  -3  -4   15.77    1.20
  -3  -3  -4   20.35    1.43
  -3  -3  -4   16.90    1.23
  -3  -3  -4   17.85    2.25
  -3  -3  -4   18.47    1.29
  -3  -3  -4   15.98    1.21
   3   3   4   14.13    1.14
   3   3   4   13.78    1.13
   3   3   4   15.11    1.18
   3   3   4   21.83    1.95
   3   3   4   20.69    2.81
   3   3   4   28.29    2.71
   3   3   4   21.31    1.92
   3   3   4   13.29    1.10
  -3  -3  -5   41.21    3.43
  -3  -3  -5   44.04    3.56
   3   3   5   45.80    3.09
  -3  -3  -5   44.34    3.23
  -3  -3  -5   43.95    3.73
  -3  -3  -5   41.66    3.54
  -3  -3  -5   41.10    2.47
  -3  -3  -5   45.73    3.42
  -3  -3  -5   38.87    2.49
  -3  -3  -5   39.06    2.43
  -3  -3  -5   41.89    2.49
  -3  -3  -5   41.35    2.49
   3   3   5   33.17    2.27
   3   3   5   35.41    2.34
   3   3   5   35.18    2.33
   3   3   5   32.66    2.24
   3   3   5   32.46    2.23
   3   3   5   48.22    3.19
   3   3   5   47.29    4.48
   3   3   5   48.13    3.88
  -3  -3  -6 1788.99   25.61
  -3  -3  -6 1731.06   26.11
  -3  -3  -6 1740.10   26.52
   3   3   6 1701.36   23.00
  -3  -3  -6 1775.55   24.70
  -3  -3  -6 1861.49   25.97
  -3  -3  -6 1645.63   20.78
  -3  -3  -6 1592.92   20.90
  -3  -3  -6 1829.87   25.34
  -3  -3  -6 1678.27   20.82
  -3  -3  -6 1669.82   20.78
  -3  -3  -6 1608.31   20.59
   3   3   6 1538.28   20.64
   3   3   6 1477.57   20.14
   3   3   6 1548.84   20.50
   3   3   6 1502.83   20.21
   3   3   6 1731.15   23.07
   3   3   6 1760.83   30.34
   3   3   6 1929.06   26.91
   3   3   6 1420.87   19.94
  -3  -3  -7  255.09   10.05
  -3  -3  -7  278.43   10.78
  -3  -3  -7  269.70   10.73
   3   3   7  255.93    9.31
  -3  -3  -7  259.71    9.80
  -3  -3  -7  293.66   11.95
   3   3   7  256.19    9.45
  -3  -3  -7  260.60    9.99
  -3  -3  -7  274.12   10.17
   3   3   7  252.25    8.01
  -3  -3  -8  407.14   12.69
  -3  -3  -8  438.60   13.93
  -3  -3  -8  444.85   14.40
  -3  -3  -8  422.46   14.86
  -3  -3  -8  429.15   13.81
  -3  -3  -8  453.78   14.13
   3   3   8  412.07   10.97
   3   3   8  439.84   13.50
   3   3   8  388.21   12.22
  -3  -3  -9  484.79   15.26
  -3  -3  -9  481.67   15.78
  -3  -3  -9  472.61   16.85
  -3  -3  -9  499.74   15.62
  -3  -3  -9  483.64   13.21
   3   3   9  449.54   14.05
  -3  -3  -9  485.33   15.50
   3   3   9  459.27   11.95
   3   3   9  438.44   13.87
   3   3   9  448.55   13.98
   3   3  10  242.96    9.48
  -3  -3 -10  268.98   10.79
  -3  -3 -10  279.65   12.45
   3   3  10  227.06    9.76
  -3  -3 -10  245.10    7.93
  -3  -3 -10  252.67   10.79
   3   3  10  241.98   10.03
  -3  -3 -10  255.97   10.93
   3   3  10  223.84    9.65
   3   3  10  222.97    9.63
   3   3  11  528.73   11.94
  -3  -3 -11  591.98   14.41
  -3  -3 -11  591.48   16.68
   3   3  11  518.34   13.27
   3   3  11  506.27   13.14
   3   3  11  497.74   13.07
   3   3  11  515.74   13.47
  -3  -3 -12    7.19    1.56
   3   3  12    4.06    0.98
   3   3  12    5.53    1.12
   3   3  12    6.80    1.26
   3   4  -8  255.80    6.32
   3   4  -7   14.85    2.62
   3   4  -7   15.37    2.67
   3   4  -7   13.33    2.19
  -3  -4   7   15.07    2.02
  -3  -4   7   15.49    2.51
   3   4  -7   18.97    2.29
  -3  -4   6   41.43    4.23
   3   4  -6   37.70    4.77
   3   4  -6   34.37    4.20
   3   4  -6   29.40    3.83
  -3  -4   6   40.39    3.73
  -3  -4   6   42.51    4.95
  -3  -4   5  908.73   21.59
   3   4  -5  810.56   23.44
   3   4  -5  788.44   21.76
   3   4  -5  673.42   20.23
   3   4  -5  735.42   22.75
  -3  -4   5  886.60   19.63
  -3  -4   5 1035.80   26.53
  -3  -4   5  913.23   16.42
  -3  -4   5  744.65   23.09
  -3  -4   4   15.82    2.84
  -3  -4   4   10.98    2.20
   3   4  -4    8.25    2.30
   3   4  -4    9.37    2.35
  -3  -4   4   13.83    2.39
  -3  -4   4   13.90    3.53
  -3  -4   4   16.57    3.54
   3   4  -4    9.98    2.64
  -3  -4   4   14.26    2.65
  -3  -4   4   10.27    2.78
  -3  -4   4   12.20    1.89
  -3  -4   3 1034.97   22.06
  -3  -4   3 1068.11   27.22
  -3  -4   3 1040.61   21.54
  -3  -4   3 1051.64   21.76
  -3  -4   3 1071.26   17.38
  -3  -4   2    1.29    0.84
   3   4  -2    1.38    0.89
  -3  -4   2    2.83    1.22
  -3  -4   2    1.19    0.84
  -3  -4   2    1.13    0.99
   3   4  -2    1.79    0.83
   3   4  -2    1.91    0.75
  -3  -4   1  521.55   12.85
  -3  -4   1  514.59   14.73
  -3  -4   1  550.45   14.20
   3   4  -1  437.52   15.75
  -3  -4   1  513.33   13.21
  -3  -4   1  452.75   14.31
   3   4  -1  587.00   10.66
  -3  -4   0   66.34    4.66
   3   4   0   57.92    5.25
   3   4   0   74.39    2.77
   3   4   0   68.62    3.06
   3   4   0   76.76    4.46
   3   4   0   80.18    4.29
   3   4   0   75.23    3.07
  -3  -4  -1 1305.63   24.34
  -3  -4  -1 1199.54   20.18
   3   4   1 1407.81   13.39
   3   4   1 1334.97   11.65
   3   4   1 1299.57   15.47
   3   4   1 1186.22   18.05
   3   4   1 1266.08   18.80
   3   4   1 1457.81   18.94
   3   4   1 1249.58   11.72
   3   4   1 1328.88   18.57
  -3  -4  -2  115.56    5.70
  -3  -4  -2  107.79    6.74
   3   4   2  103.84    5.98
   3   4   2  120.80    3.39
   3   4   2  129.59    3.67
   3   4   2  116.98    4.29
   3   4   2  111.75    5.60
   3   4   2  120.08    5.43
   3   4   2  127.21    4.83
   3   4   2  116.17    5.00
  -3  -4  -3    0.41    0.46
  -3  -4  -3    0.62    0.62
  -3  -4  -3    0.67    0.54
   3   4   3    0.39    0.51
   3   4   3    1.44    0.43
   3   4   3    0.24    0.27
   3   4   3    0.45    0.51
   3   4   3    0.83    0.45
   3   4   3    0.58    0.47
   3   4   3    0.51    0.37
   3   4   3    0.57    0.43
  -3  -4  -4  455.48   11.32
  -3  -4  -4  457.61   12.40
   3   4   4  461.45   10.00
   3   4   4  454.96   10.02
   3   4   4  457.79   13.60
   3   4   4  474.49   11.14
  -3  -4  -5  759.52   16.21
  -3  -4  -5  817.40   16.61
  -3  -4  -5  800.44   16.82
   3   4   5  744.03   13.18
  -3  -4  -5  833.38   15.78
  -3  -4  -5  773.02   16.67
   3   4   5  736.00   14.16
  -3  -4  -6  367.27   11.57
  -3  -4  -6  331.14   11.49
  -3  -4  -6  352.78   11.82
   3   4   6  321.55    9.46
  -3  -4  -6  345.69   10.61
   3   4   6  327.78    9.23
   3   4   6  314.54    9.71
   3   4   6  335.44   12.96
  -3  -4  -7  422.74   13.24
  -3  -4  -7  379.70   13.12
  -3  -4  -7  407.94   13.82
   3   4   7  362.51   11.07
  -3  -4  -7  406.23   11.75
  -3  -4  -7  408.47   12.58
   3   4   7  386.22   10.59
  -3  -4  -8   31.29    3.64
  -3  -4  -8   30.63    3.95
  -3  -4  -8   39.55    4.63
   3   4   8   28.13    3.26
  -3  -4  -8   29.04    3.34
  -3  -4  -8   30.62    3.46
  -3  -4  -8   42.94    5.02
  -3  -4  -8   31.90    3.67
   3   4   8   30.42    3.02
   3   4   8   27.21    3.37
  -3  -4  -9  374.39   11.49
  -3  -4  -9  426.95   13.50
  -3  -4  -9  398.24   14.31
  -3  -4  -9  421.73   15.50
   3   4   9  359.95   12.01
  -3  -4  -9  413.66   13.40
   3   4   9  378.80   12.81
   3   4   9  358.39   10.49
   3   4   9  329.22   11.49
   3   4  10    2.71    1.08
  -3  -4 -10    3.27    1.33
  -3  -4 -10    5.69    1.91
  -3  -4 -10    3.22    1.30
   3   4  10    2.85    1.17
  -3  -4 -10    5.75    1.22
   3   4  10    3.54    1.31
   3   4  10    3.36    1.26
   3   4  11  476.87   11.03
  -3  -4 -11  513.77   13.43
  -3  -4 -11  494.87   12.17
   3   4  11  468.54   12.01
   3   4  11  432.00   11.68
   3   4  11  435.03   11.63
  -3  -4 -12   76.31    3.76
  -3  -4 -12   66.00    3.08
   3   5  -7  297.26    9.51
  -3  -5   7  323.07    8.02
   3   5  -6    8.22    2.05
   3   5  -6    7.52    1.86
  -3  -5   6    9.61    1.82
   3   5  -5  385.52   15.09
   3   5  -5  322.25   11.91
   3   5  -5  333.79   13.53
  -3  -5   5  400.31   15.24
  -3  -5   5  425.21   13.09
  -3  -5   4   12.87    2.23
   3   5  -4    7.04    1.95
  -3  -5   4    7.00    1.91
  -3  -5   4   13.34    3.15
   3   5  -4    5.75    1.97
  -3  -5   4    8.54    2.14
  -3  -5   4    7.67    1.49
   3   5  -3  268.14   11.49
  -3  -5   3  377.30   11.82
  -3  -5   3  386.03   16.25
   3   5  -3  264.91   12.29
  -3  -5   3  297.27   14.29
  -3  -5   3  337.56   12.68
  -3  -5   3  316.79   12.14
  -3  -5   3  344.84    9.67
  -3  -5   2  161.37    7.45
  -3  -5   2  155.08   10.38
  -3  -5   2  125.62    9.08
  -3  -5   2  124.95    7.75
  -3  -5   2  130.90    7.54
  -3  -5   2  137.68    5.89
  -3  -5   1  108.75    8.04
  -3  -5   1  110.13    6.95
  -3  -5   1  121.60    6.27
   3   5  -1  121.87    6.16
  -3  -5   0 1870.42   29.69
   3   5   0 1805.68   21.14
   3   5   0 2043.00   26.38
   3   5   0 2066.67   25.30
   3   5   1  982.73   22.35
   3   5   1 1068.56   15.61
  -3  -5  -1 1078.51   20.91
   3   5   1  989.53   17.13
   3   5   1 1054.14   17.48
  -3  -5  -2  252.94    9.61
   3   5   2  240.10    9.97
   3   5   2  267.48    7.51
   3   5   2  262.49    8.13
   3   5   2  243.27    8.06
  -3  -5  -3  255.51    7.63
  -3  -5  -3  260.54    9.73
   3   5   3  260.34    9.34
   3   5   3  271.15    7.09
   3   5   3  265.85    7.76
   3   5   3  262.09    8.20
   3   5   3  246.71    8.97
  -3  -5  -4 1327.85   20.68
   3   5   4 1215.80   18.72
   3   5   4 1261.29   18.41
   3   5   4 1328.95   19.58
   3   5   4 1273.50   23.11
  -3  -5  -5   85.83    7.25
  -3  -5  -5   67.22    5.35
  -3  -5  -5   74.34    5.53
  -3  -5  -5   91.48    6.85
  -3  -5  -5   98.73    8.24
   3   5   5   70.72    4.54
   3   5   5   78.21    5.92
  -3  -5  -6  283.18   10.93
  -3  -5  -6  315.11   10.81
   3   5   6  243.71    8.18
  -3  -5  -6  261.21   10.87
  -3  -5  -6  300.88   13.83
  -3  -5  -6  250.20   10.41
  -3  -5  -6  363.43   16.61
  -3  -5  -7    4.51    1.57
  -3  -5  -7    5.57    1.53
   3   5   7    3.43    1.12
  -3  -5  -7    3.29    1.37
   3   5   7    3.00    1.06
  -3  -5  -8  233.20    9.57
  -3  -5  -8  250.65   11.36
  -3  -5  -8  264.28   12.17
   3   5   8  202.62    8.49
  -3  -5  -8  228.98   10.45
   3   5   8  233.26    8.60
  -3  -5  -9  219.04    8.44
  -3  -5  -9  224.13   10.74
  -3  -5  -9  241.58   11.58
   3   5   9  214.21    9.33
   3   5   9  194.47    8.23
  -3  -5  -9  217.85    9.77
   3   5   9  192.26    7.46
   3   5   9  184.16    8.03
  -3  -5 -10    4.05    1.53
  -3  -5 -10    3.59    1.50
  -3  -5 -10    2.10    0.76
   3   5  10    1.30    0.76
  -3  -5 -10    2.95    1.16
   3   5  10    2.14    1.05
   3   5  10    2.17    1.06
   3   5  11  312.87    8.39
   3   5  11  316.92    9.02
   3   5  11  301.73    8.95
   3   6  -6   76.71    4.82
   3   6  -6   77.33    4.68
  -3  -6   6   91.05    4.63
  -3  -6   5  501.90   14.79
  -3  -6   5  505.08   13.32
   3   6  -4  129.80    8.31
  -3  -6   4  147.41    7.94
  -3  -6   3  205.06   10.04
  -3  -6   3  217.65    7.54
  -3  -6   2   25.23    3.04
  -3  -6   2   22.76    3.49
  -3  -6   2   22.94    2.47
  -3  -6   1   91.66    7.53
  -3  -6   1   85.87    5.48
  -3  -6   1   88.41    5.25
  -3  -6   1   75.53    6.89
  -3  -6   1   80.54    6.38
  -3  -6   1   71.07    4.27
  -3  -6   0  902.38   18.27
  -3  -6   0 1053.42   26.11
  -3  -6   0  931.47   18.16
  -3  -6   0  947.03   19.09
  -3  -6   0  831.34   22.82
  -3  -6   0  832.50   20.42
  -3  -6   0  798.83   15.14
  -3  -6  -1  464.38   12.48
  -3  -6  -1  489.57   14.41
  -3  -6  -1  586.40   19.45
  -3  -6  -1  547.62   18.16
  -3  -6  -1  466.47   16.41
  -3  -6  -1  534.32   13.89
  -3  -6  -1  434.83   10.76
  -3  -6  -1  456.05   14.94
  -3  -6  -2  297.30   14.02
  -3  -6  -2  246.87   10.70
  -3  -6  -2  288.91   13.49
  -3  -6  -2  259.35   11.98
   3   6   2  241.68    8.47
  -3  -6  -2  224.12    7.59
  -3  -6  -3  442.19   14.33
  -3  -6  -3  465.35   14.82
  -3  -6  -3  481.24   14.15
  -3  -6  -3  478.02   17.39
  -3  -6  -3  540.91   19.21
  -3  -6  -3  418.63   11.51
  -3  -6  -3  448.69   15.85
   3   6   3  423.60   11.21
  -3  -6  -3  393.40   10.28
  -3  -6  -4 2286.55   41.30
  -3  -6  -4 1684.59   29.54
  -3  -6  -4 1642.81   23.69
  -3  -6  -4 1648.44   23.84
  -3  -6  -4 1851.17   30.21
  -3  -6  -4 1977.27   34.84
   3   6   4 1586.00   22.84
  -3  -6  -4 1606.76   22.83
  -3  -6  -4 2133.62   38.74
  -3  -6  -5  346.99   11.44
  -3  -6  -5  333.14   12.56
  -3  -6  -5  419.92   17.12
  -3  -6  -5  363.25   13.39
  -3  -6  -5  481.18   19.17
  -3  -6  -5  418.86   15.82
  -3  -6  -5  306.90    9.69
  -3  -6  -6  362.32   17.22
  -3  -6  -6  252.77   11.42
  -3  -6  -6  237.73   10.44
  -3  -6  -6  325.91   15.47
  -3  -6  -6  227.69    8.52
  -3  -6  -7   40.46    3.83
  -3  -6  -7   50.56    6.14
  -3  -6  -7   38.42    4.25
   3   6   7   35.78    3.19
  -3  -6  -7   37.78    4.05
  -3  -6  -7   40.65    4.55
   3   6   7   39.22    3.61
  -3  -6  -8   44.86    4.78
   3   6   8   35.50    3.25
  -3  -6  -8   33.44    4.04
  -3  -6  -8   39.00    3.87
   3   6   8   35.80    3.31
  -3  -6  -9  524.97   12.68
  -3  -6  -9  534.27   15.89
   3   6   9  411.44   10.86
  -3  -6  -9  520.83   14.64
   3   6   9  479.01   13.55
   3   6   9  459.93   11.03
   3   6   9  420.73   11.23
  -3  -6 -10   22.94    3.14
   3   6  10   15.58    1.88
  -3  -6 -10   19.22    2.49
  -3  -6 -10   18.97    1.79
   3   6  10   16.22    2.23
   3   6  10   14.94    2.12
   3   6  10   14.52    1.91
   3   7  -5  334.40    9.70
  -3  -7   5  384.97    9.69
   3   7  -4   32.24    3.36
  -3  -7   4   38.49    3.71
   3   7  -3    4.54    1.51
  -3  -7   3    7.23    1.59
  -3  -7   3    4.27    1.61
  -3  -7   3    3.85    1.48
  -3  -7   3    4.83    1.13
   3   7  -2  117.34    7.32
  -3  -7   2  185.74    8.01
  -3  -7   2  143.95    8.98
  -3  -7   2  152.41    8.54
  -3  -7   2  168.82    6.50
  -3  -7   1   77.18    5.40
  -3  -7   1   71.45    4.35
  -3  -7   1   72.86    6.08
  -3  -7   0  807.14   20.77
  -3  -7   0  833.62   17.97
  -3  -7   0  926.31   18.96
  -3  -7   0  919.44   19.46
  -3  -7   0  939.20   23.53
  -3  -7   0  748.75   14.97
  -3  -7  -1  157.31    9.57
  -3  -7  -1  135.44    7.04
  -3  -7  -1  138.56    8.52
  -3  -7  -1  150.12    8.38
  -3  -7  -1  173.33   10.26
  -3  -7  -1  125.44    8.69
  -3  -7  -1  123.71    5.84
  -3  -7  -2  289.35   13.57
  -3  -7  -2  268.40   12.71
  -3  -7  -2  267.50   11.75
  -3  -7  -2  284.89   11.31
  -3  -7  -2  331.69   14.78
  -3  -7  -2  230.24    8.11
  -3  -7  -2  247.82    9.39
  -3  -7  -3   71.68    6.10
  -3  -7  -3   61.76    4.73
  -3  -7  -3   78.75    6.19
  -3  -7  -3   69.74    6.57
  -3  -7  -3   60.56    4.23
  -3  -7  -4  667.90   20.44
  -3  -7  -4  522.67   12.39
  -3  -7  -4  530.18   13.81
  -3  -7  -4  754.26   23.60
  -3  -7  -4  589.62   17.80
  -3  -7  -4  671.75   22.05
  -3  -7  -4  627.46   18.29
  -3  -7  -4  516.09   12.95
  -3  -7  -5  515.94   19.24
  -3  -7  -5  383.37   11.66
  -3  -7  -5  417.05   14.55
  -3  -7  -5  401.27   11.40
  -3  -7  -5  455.77   15.75
  -3  -7  -5  577.21   21.45
  -3  -7  -5  529.02   18.51
  -3  -7  -5  377.02   11.27
  -3  -7  -6    4.38    1.39
  -3  -7  -6    2.59    1.23
  -3  -7  -6    7.50    2.06
  -3  -7  -6    7.11    2.41
  -3  -7  -6    1.70    0.89
  -3  -7  -7   71.75    5.94
  -3  -7  -7   67.23    5.31
   3   7   7   65.17    4.50
  -3  -7  -8  180.71    9.11
  -3  -7  -8  187.71    8.94
  -3  -7  -8  168.73    7.54
   3   7   8  154.03    6.34
  -3  -7  -9  745.72   17.76
  -3  -7  -9  757.13   16.16
  -3  -7  -9  746.64   13.86
  -3  -7 -10    2.07    0.84
  -3  -7 -10    1.45    0.84
   3   7  10    3.03    0.94
   3   7  10    2.21    0.79
  -3  -8   3   13.19    2.09
   3   8  -3    8.87    1.66
  -3  -8   2   33.94    3.62
  -3  -8   2   38.56    3.31
  -3  -8   2   32.64    2.54
  -3  -8   1  186.83    9.06
  -3  -8   1  182.60    9.10
  -3  -8   1  188.00    6.54
  -3  -8   0  239.08    9.41
  -3  -8   0  226.24   10.21
  -3  -8   0  228.01   10.79
  -3  -8   0  226.30    7.52
  -3  -8  -1    7.55    1.99
  -3  -8  -1    5.53    1.49
  -3  -8  -1    6.72    1.79
  -3  -8  -1    5.68    1.93
  -3  -8  -1    5.75    1.77
  -3  -8  -1    4.24    1.12
  -3  -8  -2  240.81    9.46
  -3  -8  -2  217.13    7.88
  -3  -8  -3    3.17    1.42
  -3  -8  -3    3.02    1.42
  -3  -8  -3    4.97    1.92
  -3  -8  -3    4.43    1.80
  -3  -8  -3    1.50    0.80
  -3  -8  -4  265.00    9.46
  -3  -8  -4  340.77   14.23
  -3  -8  -4  288.72   12.28
  -3  -8  -4  328.45   13.10
  -3  -8  -4  251.27    8.89
  -3  -8  -5  216.92   10.27
  -3  -8  -5  238.46   11.09
  -3  -8  -6   52.33    4.76
  -3  -8  -6   50.65    5.00
  -3  -8  -7  340.58   11.02
  -3  -8  -7  351.48   12.10
  -3  -8  -8  127.35    6.56
  -3  -8  -8  142.50    6.97
  -3  -8  -9  971.84   15.77
  -3  -8  -9  928.49   12.90
  -3  -8 -10  120.75    3.55
  -3  -9   2  464.45    9.52
  -3  -9   1  123.67    5.52
  -3  -9   0  538.55   12.52
  -3  -9  -1    1.95    0.96
  -3  -9  -2  464.56   12.34
  -3  -9  -2  523.03   14.26
  -3  -9  -3   61.86    5.16
  -3  -9  -3   64.56    5.32
  -3  -9  -3   63.99    5.37
  -3  -9  -4  117.11    7.06
  -3  -9  -4  106.36    6.81
  -3  -9  -5   35.97    3.99
  -3  -9  -5   40.82    4.04
  -3  -9  -6    0.77    0.76
  -3  -9  -6    0.61    0.68
   3   9   6    0.50    0.48
  -3  -9  -7  304.04    9.50
  -3  -9  -7  289.76    8.77
  -3  -9  -8   75.06    3.94
  -3  -9  -8   72.67    3.48
  -3 -10   0  116.87    4.48
  -3 -10  -1    8.09    1.35
  -3 -10  -2  601.16   11.81
  -3 -10  -4  217.07    7.65
  -3 -10  -5   55.62    3.71
  -3 -10  -6  388.00    8.87
  -3 -10  -7  254.21    5.45
  -4   9   2    4.12    0.84
   4  -9  -2    3.90    0.78
  -4   9   1    3.33    0.86
   4  -9   0  224.76    5.12
   4  -9   1   23.89    2.15
   4  -9   2   45.59    2.78
   4  -8  -5   67.74    2.89
   4  -8  -4   71.46    4.17
  -4   8   4   81.84    3.67
  -4   8   4   81.22    3.83
   4  -8  -3  190.37    7.84
   4  -8  -3  204.09    8.43
   4  -8  -3  226.93    8.66
   4  -8  -3  237.47    9.41
  -4   8   3  282.59    8.25
  -4   8   3  222.90    6.58
  -4   8   3  267.57    7.34
  -4   8   3  260.42    7.64
  -4   8   3  218.16    7.25
  -4   8   3  202.02    6.15
  -4   8   2   58.38    3.80
   4  -8  -2   49.73    4.83
  -4   8   2   59.06    4.10
   4  -8  -2   39.44    3.90
   4  -8  -2   42.94    3.76
  -4   8   2   49.04    3.08
  -4   8   2   57.27    3.68
   4  -8  -2   53.08    4.29
  -4   8   2   45.10    3.41
  -4   8   2   54.20    3.44
  -4   8   2   48.39    3.26
   4  -8  -1  184.82    8.51
   4  -8  -1  178.65    9.61
  -4   8   1  214.09    8.24
  -4   8   1  204.86    7.45
   4  -8  -1  149.31    7.64
  -4   8   1  216.49    7.40
  -4   8   1  215.21    7.46
  -4   8   1  138.33    6.04
   4  -8   0  139.59    7.56
   4  -8   0  150.99    9.12
  -4   8   0  173.65    7.52
  -4   8   0  182.57    7.21
   4  -8   0  113.03    6.37
  -4   8   0  172.86    6.71
  -4   8   0  165.50    6.61
   4  -8   0  132.84    6.62
   4  -8   1    3.72    1.36
  -4   8  -1    2.75    0.83
  -4   8  -1    4.86    1.22
  -4   8  -1    3.99    1.18
   4  -8   1    1.38    0.86
   4  -8   1    2.26    1.50
  -4   8  -1    2.28    0.97
   4  -8   1    2.19    0.97
  -4   8  -2   43.59    3.01
  -4   8  -2   40.16    3.24
  -4   8  -2   45.00    3.44
   4  -8   2   34.20    2.50
  -4   8  -2   44.98    3.21
  -4   8  -2   42.20    3.16
   4  -8   2   36.47    4.11
   4  -8   2   32.81    3.74
  -4   8  -3   11.97    1.47
  -4   8  -3   18.27    2.10
  -4   8  -3   15.35    1.76
   4  -8   3   16.98    2.69
   4  -8   3   16.97    2.57
  -4   8  -4  385.99    8.39
  -4   8  -4  353.54    8.54
   4  -8   4  319.11   10.39
   4  -8   4  296.71    9.85
   4  -8   5   20.90    2.21
   4  -8   5   20.49    2.13
  -4   7   6   24.30    2.10
  -4   7   6   23.73    2.06
   4  -7  -6   19.59    1.95
   4  -7  -5   87.82    5.90
  -4   7   5   93.52    4.85
   4  -7  -5   80.40    5.26
   4  -7  -5   82.50    5.62
  -4   7   5   93.68    4.75
  -4   7   5   92.07    5.08
   4  -7  -5   86.01    4.95
  -4   7   5   86.26    4.38
  -4   7   4    8.40    1.46
   4  -7  -4    6.99    1.96
  -4   7   4    9.46    1.77
   4  -7  -4    8.47    2.13
   4  -7  -4    6.66    1.86
   4  -7  -4    9.43    2.22
  -4   7   4    6.68    1.56
  -4   7   4    8.63    1.63
  -4   7   4    8.10    1.76
   4  -7  -4    8.04    1.84
  -4   7   4    9.62    1.64
   4  -7  -3  100.22    7.68
   4  -7  -3  105.40    7.58
  -4   7   3  127.00    6.56
   4  -7  -3  106.15    7.97
   4  -7  -3   99.20    6.79
  -4   7   3  114.51    6.34
  -4   7   3  117.25    5.98
  -4   7   3  112.23    6.63
   4  -7  -3  112.97    7.03
  -4   7   3  117.13    5.75
   4  -7  -2   39.04    4.83
  -4   7   2   42.10    3.84
  -4   7   2   48.84    4.37
   4  -7  -2   36.91    5.18
   4  -7  -2   40.06    4.48
  -4   7   2   43.54    4.07
  -4   7   2   42.14    3.61
   4  -7  -2   37.21    4.24
  -4   7   2   42.69    3.86
   4  -7  -2   34.33    3.76
  -4   7   1  329.15    8.64
   4  -7  -1  289.07   13.32
   4  -7  -1  285.28   12.84
   4  -7  -1  275.95   14.38
  -4   7   1  367.53   12.50
   4  -7  -1  289.31   11.71
  -4   7   1  327.35    9.82
  -4   7   1  361.44   11.73
   4  -7  -1  295.33   12.57
  -4   7   1  318.86   10.62
  -4   7   1  327.97   10.35
  -4   7   1  338.07   10.83
  -4   7   1  275.46   11.09
   4  -7  -1  273.46   10.98
  -4   7   0  230.70    7.74
   4  -7   0  199.11   10.40
   4  -7   0  180.33   11.76
  -4   7   0  258.20   10.67
  -4   7   0  248.56    9.57
   4  -7   0  205.06   10.65
  -4   7   0  231.66    8.88
  -4   7   0  235.61    8.88
  -4   7   0  175.84    8.94
  -4   7   0  206.61    7.62
   4  -7   0  182.09   10.97
   4  -7   0  198.93    9.45
  -4   7  -1  155.88    6.67
   4  -7   1  124.39    9.68
  -4   7  -1  167.30    8.56
   4  -7   1  139.60    7.74
  -4   7  -1  154.71    6.31
  -4   7  -1  153.87    7.55
   4  -7   1  101.37    7.03
   4  -7   1  134.17    8.49
  -4   7  -1  154.18    7.04
  -4   7  -1  148.48    7.04
  -4   7  -1   91.25    6.32
   4  -7   1  110.98    8.84
   4  -7   1  132.82    7.63
   4  -7   1  134.77    6.80
   4  -7   2    5.86    1.83
   4  -7   2    5.31    2.08
   4  -7   2    8.07    1.67
   4  -7   2    5.16    1.49
  -4   7  -2    7.29    1.50
  -4   7  -2    9.02    1.91
  -4   7  -2    8.73    1.55
  -4   7  -2    6.48    1.57
   4  -7   2    6.95    2.33
  -4   7  -2    5.97    1.51
  -4   7  -2    4.76    1.42
   4  -7   2    7.60    1.89
   4  -7   2    9.28    1.79
  -4   7  -3   77.35    4.85
   4  -7   3   72.03    4.78
   4  -7   3   61.27    5.34
  -4   7  -3   64.28    4.87
  -4   7  -3   73.90    4.59
  -4   7  -3   88.60    5.50
  -4   7  -3   75.70    4.49
   4  -7   3   55.57    6.23
   4  -7   3   71.58    4.75
   4  -7   3   70.89    4.75
  -4   7  -4  437.31   11.21
   4  -7   4  393.99   11.16
  -4   7  -4  296.61    9.27
  -4   7  -4  397.77   11.22
  -4   7  -4  414.10   10.40
   4  -7   4  339.73   14.19
   4  -7   4  406.94   10.89
   4  -7   4  378.01   11.34
   4  -7   4  320.89   12.67
   4  -7   4  416.21   11.01
  -4   7  -5  126.84    5.65
   4  -7   5  114.76    5.63
  -4   7  -5  129.14    5.64
  -4   7  -5  122.87    5.57
  -4   7  -5  123.41    5.26
   4  -7   5  104.73    6.95
  -4   7  -6    1.71    0.70
   4  -7   6    2.25    1.00
   4  -7   6    2.01    0.79
  -4   7  -6    2.08    0.78
  -4   7  -6    1.85    0.72
   4  -7   6    2.04    0.77
   4  -7   6    2.19    0.97
  -4   6   7   25.89    2.01
  -4   6   7   26.45    2.22
   4  -6  -7   24.25    2.13
   4  -6  -6    0.31    0.67
   4  -6  -6    0.39    0.69
   4  -6  -6    0.16    0.60
  -4   6   6    0.45    0.65
  -4   6   6   -0.14    0.69
  -4   6   6    0.35    0.56
  -4   6   6    1.06    0.86
  -4   6   6    0.06    0.59
   4  -6  -6    1.64    0.95
   4  -6  -5  433.99   15.79
   4  -6  -5  428.48   14.19
   4  -6  -5  418.61   14.80
   4  -6  -5  427.22   14.83
   4  -6  -5  424.33   14.41
  -4   6   5  397.08   10.17
  -4   6   5  433.94   11.71
  -4   6   5  426.77   11.13
   4  -6  -5  416.54   12.86
   4  -6  -5  383.88    8.44
   4  -6  -4   40.53    5.34
   4  -6  -4   40.74    5.08
  -4   6   4   49.22    3.95
   4  -6  -4   38.17    4.50
   4  -6  -4   46.15    5.26
   4  -6  -4   42.19    5.10
  -4   6   4   42.73    4.06
  -4   6   4   43.31    3.66
   4  -6  -4   39.25    3.83
  -4   6   4   50.32    4.42
  -4   6   4   43.66    3.86
  -4   6   4   51.88    4.81
  -4   6   4   46.71    3.83
   4  -6  -4   43.25    4.54
   4  -6  -3    4.10    1.88
   4  -6  -3   10.26    2.75
   4  -6  -3    5.03    1.85
  -4   6   3    5.19    1.59
   4  -6  -3    4.37    1.78
  -4   6   3    5.34    1.56
   4  -6  -3    2.78    1.30
  -4   6   3    4.14    1.32
  -4   6   3    5.16    1.65
  -4   6   3    4.66    1.52
   4  -6  -3    4.15    1.91
  -4   6   3    6.12    1.89
  -4   6   3    5.09    1.40
   4  -6  -3    3.90    1.62
   4  -6  -2  135.83   10.11
   4  -6  -2  132.94    9.38
   4  -6  -2  136.68    8.72
  -4   6   2  166.55    8.56
   4  -6  -2  122.66    9.81
  -4   6   2  147.58    7.21
  -4   6   2  146.62    7.77
   4  -6  -2  124.74    8.22
  -4   6   2  143.26    7.17
  -4   6   2  152.95    8.79
   4  -6  -2  133.79    7.75
  -4   6   1   28.32    2.79
   4  -6  -1   24.75    4.18
   4  -6  -1   23.67    3.61
  -4   6   1   28.37    3.75
   4  -6  -1   22.52    4.46
  -4   6   1   32.14    3.78
  -4   6   1   25.69    3.24
   4  -6  -1   22.73    3.58
  -4   6   1   27.24    3.15
  -4   6   1   25.13    3.08
  -4   6   1   24.56    2.88
   4  -6  -1   23.32    3.36
   4  -6  -1   19.94    3.88
  -4   6   0  967.16   17.51
   4  -6   0  881.42   17.09
   4  -6   0  801.52   23.67
  -4   6   0 1037.06   22.84
   4  -6   0  847.03   21.05
   4  -6   0  809.92   26.56
  -4   6   0  989.21   17.64
  -4   6   0  951.47   20.11
  -4   6   0 1034.68   18.77
   4  -6   0  881.06   23.06
  -4   6   0  882.85   18.40
  -4   6   0  952.90   19.05
  -4   6   0  893.48   22.50
  -4   6   0  858.50   17.05
   4  -6   0  904.87   21.38
   4  -6   0  878.55   18.76
   4  -6   1   11.86    2.09
   4  -6   1   12.66    3.48
   4  -6   1   12.14    2.80
   4  -6   1   11.45    2.62
   4  -6   1   14.21    2.96
  -4   6  -1   10.91    2.09
  -4   6  -1   14.88    2.94
   4  -6   1   13.40    2.60
  -4   6  -1   13.07    2.10
  -4   6  -1   12.32    2.40
  -4   6  -1   12.77    2.15
  -4   6  -1   13.07    2.22
   4  -6   1   10.65    3.14
  -4   6  -1   12.86    2.02
  -4   6  -1    9.54    2.39
   4  -6   1   13.80    2.22
   4  -6   1   11.66    2.45
   4  -6   1   11.94    2.22
  -4   6  -2   83.59    5.33
   4  -6   2   81.38    5.37
   4  -6   2   73.54    6.17
   4  -6   2   70.21    7.46
  -4   6  -2   87.11    6.58
   4  -6   2   83.74    5.96
  -4   6  -2   90.91    5.59
   4  -6   2   78.04    5.37
  -4   6  -2   84.28    5.76
  -4   6  -2   88.55    5.62
   4  -6   2   78.33    6.65
  -4   6  -2   81.77    5.23
  -4   6  -2   63.74    5.80
   4  -6   2   76.34    5.25
   4  -6   2   69.53    8.03
   4  -6   2   82.22    6.11
   4  -6   2   83.50    5.65
  -4   6  -3    0.92    0.90
   4  -6   3    1.46    1.17
   4  -6   3    0.67    1.46
   4  -6   3    0.68    0.84
   4  -6   3    1.42    0.87
  -4   6  -3    0.88    0.95
   4  -6   3    4.05    1.34
  -4   6  -3    1.10    1.01
  -4   6  -3    0.29    0.68
  -4   6  -3    0.58    0.56
  -4   6  -3    0.64    0.87
   4  -6   3    2.67    1.21
   4  -6   3    1.04    1.00
   4  -6   3    0.49    0.80
  -4   6  -4 1120.76   20.41
   4  -6   4 1113.89   21.09
  -4   6  -4  954.86   21.09
   4  -6   4 1104.55   20.96
  -4   6  -4 1122.61   20.62
   4  -6   4 1041.93   19.85
  -4   6  -4 1103.76   20.62
  -4   6  -4 1173.73   21.15
   4  -6   4  925.92   22.19
  -4   6  -4 1110.60   18.59
  -4   6  -4 1065.57   17.90
   4  -6   4 1062.55   19.93
   4  -6   4  879.60   26.25
   4  -6   4 1087.27   20.57
  -4   6  -5  445.31   12.14
   4  -6   5  430.20   12.71
  -4   6  -5  308.47   10.07
  -4   6  -5  443.73   12.54
   4  -6   5  415.88   11.97
  -4   6  -5  426.02   10.89
   4  -6   5  342.62   14.87
   4  -6   5  397.87   11.80
   4  -6   5  414.94   12.49
   4  -6   5  425.59   12.00
   4  -6   5  341.24   13.63
  -4   6  -6   87.71    5.02
   4  -6   6   86.68    5.38
  -4   6  -6   87.20    5.26
   4  -6   6   77.95    4.85
  -4   6  -6   84.16    5.09
  -4   6  -6   89.32    4.80
   4  -6   6   80.81    4.91
   4  -6   6   73.44    5.73
   4  -6   6   84.56    4.95
   4  -6   7  118.85    5.66
  -4   6  -7  120.99    5.60
   4  -6   7  116.57    5.35
  -4   6  -7  117.76    5.47
   4  -6   7  102.76    5.73
   4  -6   7  117.99    5.42
   4  -6   7  119.20    5.23
   4  -5  -8    2.98    0.71
   4  -5  -7   50.47    4.53
   4  -5  -7   48.74    4.25
  -4   5   7   47.67    3.71
  -4   5   7   45.39    3.42
  -4   5   7   61.26    3.88
  -4   5   7   47.40    3.37
   4  -5  -7   46.45    3.51
  -4   5   6   37.61    3.48
   4  -5  -6   32.64    3.56
   4  -5  -6   30.77    4.23
   4  -5  -6   35.76    4.36
   4  -5  -6   30.41    3.71
  -4   5   6   32.17    2.87
  -4   5   6   30.90    3.24
  -4   5   6   39.01    3.72
  -4   5   6   31.77    3.06
   4  -5  -6   34.23    3.59
  -4   5   5  542.93   13.30
   4  -5  -5  589.54   19.73
   4  -5  -5  557.29   18.48
   4  -5  -5  571.02   20.07
   4  -5  -5  555.46   17.82
  -4   5   5  575.56   16.27
  -4   5   5  617.66   15.65
  -4   5   5  540.67   14.24
  -4   5   5  552.21   13.81
   4  -5  -5  555.67   15.93
   4  -5  -5  567.12   13.48
   4  -5  -4   44.91    5.85
   4  -5  -4   44.94    5.58
  -4   5   4   54.69    4.26
   4  -5  -4   47.26    5.12
   4  -5  -4   47.45    5.96
   4  -5  -4   42.99    4.10
   4  -5  -4   44.73    5.54
   4  -5  -4   43.22    5.47
  -4   5   4   43.23    4.32
  -4   5   4   55.96    5.00
  -4   5   4   42.30    4.02
  -4   5   4   54.67    5.29
  -4   5   4   49.94    4.09
   4  -5  -4   49.44    4.99
   4  -5  -4   42.60    3.91
   4  -5  -3  116.25    9.50
   4  -5  -3  109.39    8.61
   4  -5  -3  105.71    7.05
   4  -5  -3  106.39    7.76
   4  -5  -3  100.84    8.57
  -4   5   3  142.21    7.41
  -4   5   3  118.66    6.48
   4  -5  -3  107.21    8.51
   4  -5  -3  104.67    8.74
  -4   5   3  118.60    6.95
  -4   5   3  132.94    7.71
  -4   5   3  113.07    6.54
  -4   5   3  128.46    8.09
  -4   5   3  115.23    6.25
   4  -5  -3   92.63    6.22
  -4   5   3  105.22    5.87
  -4   5   2  118.37    5.46
   4  -5  -2  111.53    9.08
  -4   5   2  114.71    6.34
   4  -5  -2  104.03    8.26
   4  -5  -2  108.89    7.79
   4  -5  -2  110.79    8.55
   4  -5  -2  101.85    7.91
   4  -5  -2  104.71    8.97
  -4   5   2  122.18    7.05
  -4   5   2  103.34    5.89
  -4   5   2  138.22    7.99
  -4   5   2  114.50    6.34
  -4   5   2  128.30    8.30
   4  -5  -2  108.01    7.78
   4  -5  -2  108.25    6.92
   4  -5  -2  104.77    8.61
  -4   5   1  307.15    9.29
   4  -5  -1  295.53   14.49
   4  -5  -1  275.51   13.33
   4  -5  -1  302.49   12.35
   4  -5  -1  278.97   12.87
  -4   5   1  374.15   13.06
  -4   5   1  319.71    9.70
   4  -5  -1  245.20   14.05
  -4   5   1  287.81    9.94
  -4   5   1  309.59   11.00
  -4   5   1  316.20   10.40
   4  -5  -1  293.79   12.45
  -4   5   1  301.52   10.17
  -4   5   1  343.29   13.70
  -4   5   1  310.41    9.78
   4  -5  -1  281.96   12.55
   4  -5  -1  299.26   11.75
   4  -5  -1  274.12   14.90
   4  -5  -1  277.49   10.12
  -4   5   0  657.42   14.12
   4  -5   0  644.28   13.97
   4  -5   0  657.44   19.53
   4  -5   0  667.48   17.81
   4  -5   0  593.57   17.41
  -4   5   0  773.04   19.39
   4  -5   0  514.59   20.33
  -4   5   0  673.50   14.73
  -4   5   0  659.68   15.97
  -4   5   0  736.41   16.15
   4  -5   0  601.54   17.90
  -4   5   0  620.18   14.55
  -4   5   0  725.79   18.36
  -4   5   0  644.42   14.78
  -4   5   0  663.92   19.56
  -4   5   0  595.71   13.52
   4  -5   0  599.67   18.43
   4  -5   0  695.96   17.79
   4  -5   0  662.29   15.85
  -4   5  -1  285.24    9.46
  -4   5  -1  269.87   12.55
   4  -5   1  300.20    9.81
  -4   5  -1  358.21   11.06
   4  -5   1  252.94   12.20
  -4   5  -1  365.30   13.48
   4  -5   1  329.00   12.28
   4  -5   1  211.60   12.89
  -4   5  -1  302.84    9.93
   4  -5   1  300.97   10.34
  -4   5  -1  285.04    9.73
  -4   5  -1  290.81   10.44
   4  -5   1  305.39   12.50
  -4   5  -1  312.11   11.69
  -4   5  -1  315.42   10.62
  -4   5  -1  284.56    8.84
   4  -5   1  308.55   11.62
   4  -5   1  228.39   14.37
   4  -5   1  292.35   10.32
  -4   5  -2   10.04    1.94
   4  -5   2    8.93    3.08
   4  -5   2    7.21    2.01
  -4   5  -2   20.26    2.63
   4  -5   2   13.53    2.57
  -4   5  -2   14.12    2.84
   4  -5   2   12.30    2.36
   4  -5   2   13.30    2.23
  -4   5  -2   11.53    2.12
  -4   5  -2    9.49    1.96
   4  -5   2   11.97    2.49
  -4   5  -2    9.29    1.52
  -4   5  -2    9.10    1.55
  -4   5  -2    8.05    2.23
   4  -5   2   18.17    2.54
   4  -5   2   11.52    2.32
   4  -5   2    9.24    1.93
  -4   5  -3  256.08    9.53
   4  -5   3  245.42    9.66
   4  -5   3  259.64   10.77
   4  -5   3  201.44   11.92
  -4   5  -3  277.26   10.18
   4  -5   3  245.55    9.42
   4  -5   3  256.15   11.31
  -4   5  -3  239.57    8.66
  -4   5  -3  255.28    8.50
  -4   5  -3  183.43   10.21
   4  -5   3  246.71    9.34
   4  -5   3  265.21   10.67
   4  -5   3  197.50   13.16
   4  -5   3  249.64    9.72
  -4   5  -4  261.69    9.75
   4  -5   4  258.72   10.20
   4  -5   4  230.29   12.15
   4  -5   4  231.02    9.65
  -4   5  -4  268.69   11.68
   4  -5   4  272.98   10.23
  -4   5  -4  264.73   10.11
   4  -5   4  229.33    9.34
  -4   5  -4  277.31   10.62
  -4   5  -4  262.07    8.76
  -4   5  -4  258.53    9.13
   4  -5   4  234.91    8.04
  -4   5  -4  199.35   10.44
   4  -5   4  251.36    9.61
   4  -5   4  193.86   12.63
   4  -5   4  284.86   11.08
   4  -5   4  257.44    9.79
  -4   5  -5  464.74   13.11
   4  -5   5  491.06   14.12
  -4   5  -5  411.52   13.53
   4  -5   5  499.05   13.59
  -4   5  -5  484.23   13.80
   4  -5   5  438.58   12.77
  -4   5  -5  486.15   14.14
   4  -5   5  376.94   13.19
  -4   5  -5  465.90   11.19
   4  -5   5  425.36   11.04
  -4   5  -5  350.10   13.19
   4  -5   5  441.86   12.99
   4  -5   5  369.86   16.33
   4  -5   5  449.55   13.08
   4  -5   5  340.10   14.16
  -4   5  -6    1.60    0.96
   4  -5   6    2.43    1.20
   4  -5   6    0.28    0.72
  -4   5  -6    1.18    0.96
  -4   5  -6    0.10    0.78
   4  -5   6    1.03    0.74
  -4   5  -6   -0.09    0.70
   4  -5   6    1.13    0.89
   4  -5   6    2.84    1.15
   4  -5   6    0.56    0.69
  -4   5  -7  111.79    5.73
   4  -5   7  104.96    6.28
  -4   5  -7  106.79    6.01
   4  -5   7   98.32    5.61
  -4   5  -7   98.71    5.96
  -4   5  -7  106.01    5.81
   4  -5   7   94.62    4.91
   4  -5   7   87.24    6.10
   4  -5   7   98.10    5.66
   4  -5   7   85.84    6.14
   4  -5   7   99.60    5.66
   4  -5   8   41.68    3.46
  -4   5  -8   46.82    3.58
   4  -5   8   45.20    3.48
  -4   5  -8   42.65    3.53
  -4   5  -8   44.10    3.44
   4  -5   8   38.27    2.83
   4  -5   8   41.35    3.11
   4  -5   8   45.72    3.55
   4  -5   8   47.40    3.99
   4  -4  -8   29.43    2.46
   4  -4  -7  239.54    8.41
   4  -4  -7  262.90   11.53
   4  -4  -7  267.35   11.58
  -4   4   7  228.79    9.18
  -4   4   7  238.27    8.70
  -4   4   7  229.81    8.18
   4  -4  -7  240.95    8.72
   4  -4  -6   10.58    2.46
   4  -4  -6    9.79    2.02
   4  -4  -6    9.11    2.16
   4  -4  -6   12.42    2.99
   4  -4  -6   11.69    2.89
  -4   4   6    8.63    2.11
   4  -4  -6   10.35    2.39
  -4   4   6    6.58    1.52
  -4   4   6   10.70    2.11
  -4   4   6   11.19    2.13
  -4   4   6    9.16    1.88
   4  -4  -6    9.86    2.10
   4  -4  -6   10.64    1.73
  -4   4   5  503.40   14.24
   4  -4  -5  442.35   18.62
   4  -4  -5  458.40   18.69
  -4   4   5  425.08   14.54
   4  -4  -5  420.59   15.55
  -4   4   5  420.17   12.24
  -4   4   5  440.98   13.76
  -4   4   5  533.75   15.57
  -4   4   5  427.75   12.72
   4  -4  -5  410.66   13.55
   4  -4  -5  451.35   12.18
   4  -4  -4   16.07    3.66
   4  -4  -4   13.46    3.15
  -4   4   4   17.80    2.40
   4  -4  -4   13.01    3.32
   4  -4  -4   17.68    3.20
   4  -4  -4   16.21    3.30
   4  -4  -4   16.08    3.55
  -4   4   4   16.26    2.78
   4  -4  -4   14.28    3.06
   4  -4  -4   14.50    2.31
  -4   4   4   19.07    2.96
  -4   4   4   12.22    1.67
  -4   4   4   16.48    2.72
  -4   4   4   24.40    3.47
  -4   4   4   14.51    2.41
  -4   4   4   15.19    2.26
   4  -4  -4   15.33    2.38
   4  -4  -3   16.00    3.49
  -4   4   3   14.88    2.40
  -4   4   3   12.75    2.47
   4  -4  -3   16.13    3.41
   4  -4  -3   13.14    3.27
   4  -4  -3   13.32    2.76
  -4   4   3   17.33    2.57
   4  -4  -3   11.80    2.95
  -4   4   3   10.67    1.85
  -4   4   3   14.74    2.58
   4  -4  -3   13.13    2.99
   4  -4  -3   15.62    2.61
  -4   4   3   17.00    2.85
  -4   4   3   11.99    1.59
  -4   4   3   15.21    2.44
  -4   4   3   15.39    2.39
   4  -4  -3   17.27    2.97
   4  -4  -3   12.76    2.21
  -4   4   3   16.06    2.29
   4  -4  -3   20.28    3.61
   4  -4  -3   15.90    2.45
  -4   4   2 1359.43   19.83
   4  -4  -2 1207.60   29.51
  -4   4   2 1477.83   26.32
  -4   4   2 1342.16   22.20
   4  -4  -2 1398.81   29.73
   4  -4  -2 1344.86   27.02
   4  -4  -2 1291.29   24.81
   4  -4  -2 1282.39   29.08
  -4   4   2 1404.19   21.79
  -4   4   2 1409.46   23.90
   4  -4  -2 1239.08   29.95
  -4   4   2 1269.38   22.24
  -4   4   2 1526.24   26.40
  -4   4   2 1336.46   22.17
  -4   4   2 1579.04   29.26
   4  -4  -2 1236.07   25.36
   4  -4  -2 1292.74   23.33
  -4   4   2 1340.64   21.05
   4  -4  -2 1282.63   30.79
   4  -4  -2 1215.69   22.01
  -4   4   1    1.85    0.81
   4  -4  -1    1.00    1.19
   4  -4  -1    1.30    1.10
  -4   4   1    1.59    0.95
   4  -4  -1    2.88    1.49
   4  -4  -1    7.26    1.94
   4  -4  -1    1.01    1.01
   4  -4  -1    2.50    1.28
  -4   4   1    1.45    0.77
  -4   4   1    1.68    0.94
  -4   4   1    2.41    1.04
  -4   4   1    1.71    1.07
  -4   4   1    2.23    1.01
  -4   4   1    6.09    1.44
   4  -4  -1    4.77    1.97
  -4   4   1    1.84    1.16
   4  -4  -1    1.64    0.88
  -4   4   1    3.14    1.07
   4  -4  -1    2.56    1.30
   4  -4  -1    2.35    0.99
   4  -4   0   50.81    3.50
  -4   4   0   60.32    4.53
   4  -4   0   50.24    5.20
   4  -4   0   49.77    4.92
  -4   4   0   56.56    4.94
   4  -4   0   53.54    4.95
   4  -4   0   54.59    4.80
  -4   4   0   65.33    5.30
  -4   4   0   48.51    3.72
   4  -4   0   43.08    4.36
   4  -4   0   39.60    5.18
  -4   4   0   46.63    3.87
  -4   4   0   54.55    4.18
   4  -4   0   55.58    4.84
  -4   4   0   46.17    3.69
  -4   4   0   47.50    3.62
   4  -4   0   48.68    3.63
  -4   4   0   56.26    5.37
  -4   4   0   46.68    3.48
   4  -4   0   42.38    4.48
  -4   4   0   41.39    3.29
  -4   4   0   49.40    3.54
   4  -4   0   46.19    5.89
   4  -4   0   49.87    4.01
  -4   4  -1  194.64    7.34
   4  -4   1  201.46    7.48
   4  -4   1  219.93    9.67
   4  -4   1  213.92    9.39
   4  -4   1  223.52    9.37
  -4   4  -1  257.29   10.77
   4  -4   1  199.26    7.81
  -4   4  -1  188.96    7.45
  -4   4  -1  203.33    7.94
   4  -4   1  209.37    9.48
  -4   4  -1  197.32    6.36
  -4   4  -1  208.51   10.52
  -4   4  -1  188.01    6.63
   4  -4   1  198.53    7.42
   4  -4   1  207.01    8.70
  -4   4  -1  184.77    6.99
  -4   4  -1  198.97    7.55
   4  -4   1  147.86   11.08
   4  -4   1  211.78    8.20
  -4   4  -2  438.96   11.58
   4  -4   2  451.25   11.86
   4  -4   2  445.83   14.68
   4  -4   2  474.07   13.07
  -4   4  -2  572.97   16.82
   4  -4   2  504.09   13.72
   4  -4   2  337.36   14.76
  -4   4  -2  448.67   11.87
   4  -4   2  458.94   12.20
  -4   4  -2  453.66   11.95
  -4   4  -2  472.34   12.83
   4  -4   2  358.21   14.53
   4  -4   2  474.11   14.27
  -4   4  -2  455.24   10.59
  -4   4  -2  409.94    9.51
   4  -4   2  465.99   13.06
  -4   4  -2  419.89   10.94
   4  -4   2  353.33   17.20
   4  -4   2  458.14   12.28
  -4   4  -3  278.73    9.60
   4  -4   3  299.08   10.00
   4  -4   3  276.82   10.99
   4  -4   3  309.76   10.94
   4  -4   3  237.71   12.01
   4  -4   3  324.42   10.79
  -4   4  -3  289.68    9.86
   4  -4   3  287.69    9.68
  -4   4  -3  312.41   10.71
   4  -4   3  304.65   11.48
  -4   4  -3  283.69    8.87
  -4   4  -3  299.24    9.07
   4  -4   3  271.92    7.95
  -4   4  -3  259.92   12.38
   4  -4   3  285.99    9.43
   4  -4   3  323.91   10.95
   4  -4   3  229.53   13.67
   4  -4   3  304.09   10.01
  -4   4  -4  564.99   13.92
   4  -4   4  584.04   14.87
   4  -4   4  507.84   11.63
   4  -4   4  612.02   15.42
   4  -4   4  487.34   17.05
  -4   4  -4  612.63   18.35
   4  -4   4  612.30   15.25
  -4   4  -4  559.70   14.51
   4  -4   4  571.24   14.19
  -4   4  -4  577.13   15.14
   4  -4   4  581.81   16.31
  -4   4  -4  551.08   12.40
  -4   4  -4  478.98   16.81
   4  -4   4  570.60   13.90
   4  -4   4  631.83   15.40
   4  -4   4  482.78   19.54
   4  -4   4  545.67   14.06
  -4   4  -5   36.77    3.61
   4  -4   5   41.28    3.99
   4  -4   5   51.23    4.25
  -4   4  -5   34.11    4.14
  -4   4  -5   39.01    3.91
   4  -4   5   36.53    3.63
  -4   4  -5   39.78    4.15
   4  -4   5   41.28    4.31
  -4   4  -5   36.71    3.03
   4  -4   5   34.81    3.12
  -4   4  -5   36.80    3.62
  -4   4  -5   31.09    4.19
   4  -4   5   38.15    3.71
   4  -4   5   39.32    3.96
   4  -4   5   35.74    3.64
   4  -4   6  312.61   11.78
  -4   4  -6  269.42   11.00
  -4   4  -6  302.19    8.80
   4  -4   6  328.04   10.92
  -4   4  -6  318.32   11.39
   4  -4   6  302.75   10.64
  -4   4  -6  326.16   11.91
   4  -4   6  282.33    9.27
  -4   4  -6  282.41   12.21
  -4   4  -6  310.22   10.85
   4  -4   6  290.90   10.60
   4  -4   6  267.96   12.70
   4  -4   6  284.86   10.93
   4  -4   6  305.10   10.71
   4  -4   6  247.33   11.52
  -4   4  -7  482.55   12.85
   4  -4   7  508.62   14.66
  -4   4  -7  417.38   10.64
   4  -4   7  473.84   12.82
  -4   4  -7  475.04   13.64
   4  -4   7  437.82   12.89
  -4   4  -7  496.28   14.39
  -4   4  -7  453.06   11.32
  -4   4  -7  458.96   13.44
   4  -4   7  380.95   13.69
   4  -4   7  429.48   13.11
   4  -4   7  480.40   13.32
   4  -4   7  406.23   11.27
   4  -4   7  413.82   14.37
   4  -4   8   56.11    4.60
  -4   4  -8   45.72    3.30
  -4   4  -8   56.53    4.31
   4  -4   8   49.99    4.09
  -4   4  -8   51.75    4.45
   4  -4   8   45.75    3.57
  -4   4  -8   50.30    4.25
   4  -4   8   43.65    3.67
   4  -4   8   50.98    4.16
   4  -4   8   52.53    4.66
   4  -4   8   49.93    4.09
   4  -4   9  228.14    7.96
   4  -4   9  250.96    8.28
  -4   4  -9  262.98    8.79
   4  -4   9  225.81    7.16
  -4   4  -9  273.96    8.73
   4  -4   9  264.44    8.53
   4  -3  -8    3.43    1.22
  -4   3   8    2.33    0.97
  -4   3   8    2.94    0.76
  -4   3   8    1.93    0.85
  -4   3   8    2.21    0.87
   4  -3  -8    1.72    0.81
   4  -3  -7  405.90   15.13
   4  -3  -7  395.29   15.24
  -4   3   7  380.60   13.01
   4  -3  -7  414.57   12.90
  -4   3   7  385.61   12.27
  -4   3   7  356.90   10.81
   4  -3  -7  390.57   11.58
   4  -3  -6  131.29    8.14
   4  -3  -6  123.47    7.50
   4  -3  -6  135.91    9.91
   4  -3  -6  151.71   10.23
   4  -3  -6  122.12    9.79
  -4   3   6  121.89    7.81
   4  -3  -6  137.52    8.22
  -4   3   6  115.63    6.53
  -4   3   6  126.82    7.42
  -4   3   6  170.74    7.89
  -4   3   6  122.49    6.86
   4  -3  -6  125.62    7.00
  -4   3   6  146.21    7.00
   4  -3  -6  136.22    5.84
   4  -3  -5  517.55   18.23
   4  -3  -5  503.54   17.02
   4  -3  -5  546.07   17.28
   4  -3  -5  515.28   20.24
   4  -3  -5  591.70   21.12
   4  -3  -5  545.11   20.82
  -4   3   5  499.82   16.05
   4  -3  -5  514.03   17.13
  -4   3   5  503.97   14.93
  -4   3   5  447.87   10.53
  -4   3   5  493.28   14.09
   4  -3  -5  463.21   14.21
  -4   3   5  481.18   13.02
  -4   3   5  478.57   14.15
   4  -3  -5  538.64   12.88
  -4   3   4   15.90    3.03
   4  -3  -4   18.10    3.14
   4  -3  -4   13.94    3.33
   4  -3  -4   16.30    2.89
   4  -3  -4   18.19    3.72
   4  -3  -4   14.45    3.38
  -4   3   4   15.66    2.83
   4  -3  -4   14.24    2.89
  -4   3   4   19.04    2.88
  -4   3   4   14.41    2.51
  -4   3   4   14.86    1.86
  -4   3   4   18.83    2.99
  -4   3   4   28.52    3.26
  -4   3   4   13.99    2.47
  -4   3   4   16.47    2.33
   4  -3  -4   15.76    2.25
   4  -3  -3  502.16   17.34
  -4   3   3  410.22   10.80
   4  -3  -3  446.38   16.62
  -4   3   3  475.78   15.94
   4  -3  -3  431.14   15.57
   4  -3  -3  480.28   14.99
   4  -3  -3  470.03   17.84
  -4   3   3  529.26   12.88
   4  -3  -3  474.74   17.67
  -4   3   3  383.16   11.49
  -4   3   3  472.82   14.15
   4  -3  -3  424.19   12.28
  -4   3   3  446.41   12.37
   4  -3  -3  451.15   16.12
  -4   3   3  404.51    9.28
  -4   3   3  466.54   12.99
  -4   3   3  557.34   16.02
  -4   3   3  472.59   12.72
   4  -3  -3  390.96   11.18
   4  -3  -3  425.97   13.67
  -4   3   3  455.94   11.65
   4  -3  -3  446.86   11.85
   4  -3  -2 1893.27   35.96
  -4   3   2 1807.01   23.90
   4  -3  -2 1643.79   31.32
  -4   3   2 1871.12   29.64
   4  -3  -2 1746.43   30.97
   4  -3  -2 1815.53   33.14
   4  -3  -2 1679.08   27.68
  -4   3   2 1938.53   27.21
  -4   3   2 1746.86   25.01
  -4   3   2 1810.66   26.43
  -4   3   2 1742.32   24.94
  -4   3   2 1675.83   25.99
   4  -3  -2 1618.34   26.10
   4  -3  -2 1702.83   31.99
  -4   3   2 1958.69   29.96
  -4   3   2 1814.59   25.59
  -4   3   2 2095.42   32.34
   4  -3  -2 1595.92   24.47
   4  -3  -2 1607.06   26.99
  -4   3   2 1814.39   23.57
   4  -3  -2 2007.31   32.75
  -4   3   1  946.64   15.92
  -4   3   1  882.49   19.32
   4  -3  -1  989.59   21.53
   4  -3  -1  953.25   22.44
  -4   3   1 1055.40   19.65
   4  -3  -1  906.45   20.84
   4  -3  -1  969.64   21.98
  -4   3   1  912.05   16.94
   4  -3  -1  948.12   19.17
   4  -3  -1  925.45   21.59
  -4   3   1  943.77   16.67
  -4   3   1  922.15   17.31
  -4   3   1  868.50   19.30
   4  -3  -1  858.18   17.87
  -4   3   1  872.61   19.74
  -4   3   1  904.35   19.71
   4  -3  -1  883.78   19.85
   4  -3  -1 1007.30   21.51
  -4   3   1  945.18   16.63
   4  -3  -1  987.90   21.94
   4  -3  -1  949.49   19.30
   4  -3  -1  958.58   21.67
  -4   3   1  839.17   18.93
  -4   3   1  941.85   16.28
   4  -3  -1 1033.90   23.86
  -4   3   1  791.96   18.26
   4  -3  -1  902.80   17.23
  -4   3   1  859.20   14.16
  -4   3   1  841.09   13.22
   4  -3  -1  984.53   23.09
   4  -3  -1  863.10   15.85
  -4   3   0  767.23   14.16
   4  -3   0  810.62   13.01
   4  -3   0  850.46   19.78
  -4   3   0 1020.31   18.54
   4  -3   0  890.56   19.01
   4  -3   0  882.33   17.79
   4  -3   0  841.22   18.65
   4  -3   0  809.82   17.06
  -4   3   0  811.05   15.28
   4  -3   0  840.34   20.50
  -4   3   0  794.46   15.01
  -4   3   0  848.33   16.23
  -4   3   0  715.11   17.72
  -4   3   0  739.12   17.88
  -4   3   0  842.10   13.00
   4  -3   0  875.90   20.70
   4  -3   0  854.67   20.94
  -4   3   0  724.10   17.58
   4  -3   0  818.36   20.58
  -4   3   0  713.12   17.50
  -4   3   0  803.71   14.05
   4  -3   0  864.98   21.88
   4  -3   0  809.12   13.59
  -4   3   0  712.57   17.56
  -4   3   0  769.75   13.14
  -4   3   0  801.00   13.33
   4  -3   0  757.33   18.18
   4  -3   0  819.49   22.42
  -4   3  -1  378.69    9.88
   4  -3   1  439.95    9.95
   4  -3   1  439.88   13.14
   4  -3   1  465.13   12.95
   4  -3   1  526.03   14.04
   4  -3   1  457.81   12.28
  -4   3  -1  404.98   10.42
   4  -3   1  416.34   10.40
   4  -3   1  452.77   12.51
  -4   3  -1  401.97   10.26
   4  -3   1  430.26   12.03
  -4   3  -1  430.75   11.24
  -4   3  -1  405.24   10.21
  -4   3  -1  318.20   11.88
  -4   3  -1  338.33   12.20
  -4   3  -1  405.45    9.05
   4  -3   1  400.82   14.24
  -4   3  -1  402.52    9.65
   4  -3   1  412.10   14.73
  -4   3  -1  340.74   12.11
   4  -3   1  393.09   14.43
  -4   3  -1  342.15   12.28
  -4   3  -1  398.36    9.04
   4  -3   1  390.19   14.69
   4  -3   1  406.07    9.73
  -4   3  -1  324.85   11.94
   4  -3   1  401.69   14.30
   4  -3   1  465.06   11.73
  -4   3  -1  403.97    9.32
  -4   3  -1  431.18   10.07
   4  -3   1  360.28   13.14
   4  -3   1  422.56   10.66
  -4   3  -2  543.73   12.07
   4  -3   2  603.35   12.37
   4  -3   2  617.50   15.32
   4  -3   2  641.39   14.92
   4  -3   2  596.04   14.00
  -4   3  -2  569.81   12.60
  -4   3  -2  545.86   11.94
   4  -3   2  634.37   14.81
  -4   3  -2  567.82   13.12
   4  -3   2  484.11   15.69
   4  -3   2  471.84   15.97
  -4   3  -2  435.18   14.32
  -4   3  -2  446.99   14.40
  -4   3  -2  550.63   11.30
   4  -3   2  502.80   16.61
   4  -3   2  478.60   16.42
  -4   3  -2  470.00   15.06
   4  -3   2  462.18   16.19
  -4   3  -2  458.69   14.83
   4  -3   2  577.89   12.01
   4  -3   2  493.13   16.92
  -4   3  -2  485.73   15.39
   4  -3   2  589.25   13.55
  -4   3  -2  569.83   11.39
  -4   3  -2  583.51   12.59
   4  -3   2  525.71   17.02
   4  -3   2  527.74   19.59
   4  -3   2  573.52   12.78
  -4   3  -3  809.99   15.55
   4  -3   3  961.56   19.02
   4  -3   3  901.59   17.03
  -4   3  -3  853.60   16.11
   4  -3   3  857.64   16.03
  -4   3  -3  690.76   18.94
   4  -3   3  913.42   18.03
  -4   3  -3  869.55   17.02
   4  -3   3  733.28   20.43
   4  -3   3  714.29   16.99
  -4   3  -3  849.27   14.69
  -4   3  -3  685.79   18.93
  -4   3  -3  696.31   19.41
   4  -3   3  761.61   21.22
  -4   3  -3  694.57   18.93
   4  -3   3  731.82   21.00
  -4   3  -3  890.24   16.03
   4  -3   3  732.04   21.07
  -4   3  -3  671.71   18.75
   4  -3   3  921.15   17.07
   4  -3   3  697.92   20.76
  -4   3  -3  887.67   15.14
  -4   3  -3  866.03   16.57
   4  -3   3  730.75   21.27
   4  -3   3  859.98   16.19
  -4   3  -4  766.74   15.45
   4  -3   4  816.17   16.26
   4  -3   4  833.28   17.30
   4  -3   4  880.29   17.41
  -4   3  -4  783.20   13.74
  -4   3  -4  853.75   21.41
   4  -3   4  768.29   16.13
  -4   3  -4  732.87   15.69
   4  -3   4  760.39   15.93
   4  -3   4  859.84   17.98
  -4   3  -4  773.74   17.12
  -4   3  -4  773.33   13.85
  -4   3  -4  899.24   16.38
   4  -3   4  743.89   13.24
  -4   3  -4  754.23   15.33
  -4   3  -4  709.75   20.60
   4  -3   4  748.73   15.18
   4  -3   4  819.61   16.70
  -4   3  -4  808.37   15.09
   4  -3   4  664.13   20.92
   4  -3   4  788.89   15.99
  -4   3  -5   38.83    3.51
   4  -3   5   38.51    3.73
   4  -3   5   44.62    3.86
  -4   3  -5   36.94    3.14
  -4   3  -5   39.26    4.56
   4  -3   5   38.62    3.68
  -4   3  -5   35.76    3.58
   4  -3   5   35.70    3.51
  -4   3  -5   43.34    4.13
  -4   3  -5   37.33    3.78
  -4   3  -5   36.85    4.71
  -4   3  -5   36.46    3.34
   4  -3   5   34.94    2.98
  -4   3  -5   35.86    3.47
   4  -3   5   37.32    3.49
   4  -3   5   40.67    3.83
   4  -3   5   32.27    4.55
   4  -3   5   37.87    3.55
  -4   3  -6  181.65    7.80
  -4   3  -6  160.22    9.77
   4  -3   6  186.58    8.57
  -4   3  -6  165.86    9.16
   4  -3   6  202.60    8.17
  -4   3  -6  169.91    7.22
  -4   3  -6  173.04    8.00
   4  -3   6  168.21    7.85
  -4   3  -6  197.08    9.02
  -4   3  -6  158.23    8.11
   4  -3   6  199.26    9.02
  -4   3  -6  181.48    7.91
   4  -3   6  165.43    6.94
  -4   3  -6  173.98    7.96
  -4   3  -6  154.07    9.67
   4  -3   6  164.38    7.78
   4  -3   6  141.96    8.97
   4  -3   6  197.61    8.58
   4  -3   6  161.74    7.72
   4  -3   6  146.85    8.48
  -4   3  -7  603.61   14.50
  -4   3  -7  585.15   18.16
   4  -3   7  595.28   15.98
  -4   3  -7  478.64   14.31
  -4   3  -7  544.59   13.70
   4  -3   7  559.58   14.52
  -4   3  -7  557.26   14.91
   4  -3   7  537.08   14.59
  -4   3  -7  622.65   16.54
  -4   3  -7  567.94   15.56
   4  -3   7  525.46   14.30
  -4   3  -7  576.92   14.57
   4  -3   7  529.93   13.23
  -4   3  -7  556.01   15.12
   4  -3   7  475.92   15.27
   4  -3   7  545.36   14.81
   4  -3   7  525.31   14.37
   4  -3   7  500.20   15.77
   4  -3   8   80.05    5.76
  -4   3  -8   78.06    5.12
   4  -3   8   82.56    5.33
  -4   3  -8   78.79    5.34
   4  -3   8   74.22    5.31
  -4   3  -8   79.24    5.28
  -4   3  -8   87.64    5.99
  -4   3  -8   72.54    5.48
   4  -3   8   72.60    4.86
  -4   3  -8   79.01    5.68
   4  -3   8   76.38    5.53
   4  -3   8   84.80    5.46
   4  -3   8   75.58    5.73
   4  -3   8   81.21    5.53
   4  -3   9  153.71    7.31
  -4   3  -9  153.08    6.78
   4  -3   9  141.51    6.95
  -4   3  -9  162.86    7.51
  -4   3  -9  146.36    7.33
  -4   3  -9  141.79    6.64
   4  -3   9  133.90    6.24
  -4   3  -9  153.90    7.28
   4  -3   9  144.39    7.07
   4  -3   9  144.06    6.89
   4  -3  10    1.73    0.75
  -4   3 -10    2.26    0.75
   4  -3  10    2.61    0.91
   4  -3  10    1.99    0.76
   4  -3  10    2.67    0.94
   4  -3  10    2.52    0.87
   4  -2  -9    5.96    0.87
   4  -2  -8   12.98    2.05
  -4   2   8   13.73    2.15
  -4   2   8   13.94    2.06
  -4   2   8   13.10    1.90
   4  -2  -8   15.83    2.07
   4  -2  -7  277.06   11.83
   4  -2  -7  306.71   13.99
   4  -2  -7  286.61   13.07
  -4   2   7  252.00   10.98
  -4   2   7  217.89    8.25
   4  -2  -7  285.55   10.90
  -4   2   7  252.58   10.34
  -4   2   7  254.63    9.87
   4  -2  -7  264.18    9.53
  -4   2   7  239.81    8.45
   4  -2  -6   50.05    4.60
   4  -2  -6   69.93    6.60
   4  -2  -6   57.31    6.29
   4  -2  -6   60.56    6.84
   4  -2  -6   62.22    6.82
  -4   2   6   57.45    5.65
  -4   2   6   58.92    4.28
  -4   2   6   52.98    4.81
   4  -2  -6   64.31    5.71
  -4   2   6   60.56    5.43
  -4   2   6   60.03    4.44
  -4   2   6   58.61    5.05
   4  -2  -6   53.73    4.55
  -4   2   6   59.11    4.53
   4  -2  -5  590.88   18.49
  -4   2   5  535.30   18.47
   4  -2  -5  782.02   19.64
   4  -2  -5  678.35   21.25
   4  -2  -5  641.16   21.74
   4  -2  -5  716.00   24.13
   4  -2  -5  616.40   21.77
  -4   2   5  578.87   18.55
  -4   2   5  578.03   16.66
  -4   2   5  676.42   16.35
   4  -2  -5  645.36   20.43
   4  -2  -5  651.40   18.99
  -4   2   5  592.84   17.25
  -4   2   5  549.63   12.20
  -4   2   5  704.47   16.72
  -4   2   5  603.33   16.42
  -4   2   5  581.69   14.63
  -4   2   4   92.78    5.59
   4  -2  -4  114.31    8.09
  -4   2   4  112.18    8.31
   4  -2  -4  108.64    7.34
   4  -2  -4  136.76    9.11
   4  -2  -4  117.31    8.80
   4  -2  -4  101.58    6.61
   4  -2  -4  118.41    9.17
  -4   2   4  109.01    7.19
  -4   2   4  110.66    6.76
  -4   2   4  156.31    7.86
  -4   2   4  116.37    7.16
  -4   2   4  109.41    5.06
  -4   2   4  138.59    7.51
  -4   2   4  120.44    6.87
   4  -2  -4  115.15    6.63
  -4   2   4  116.59    6.20
  -4   2   3  345.27   10.52
  -4   2   3  358.04   13.48
   4  -2  -3  358.73   13.13
   4  -2  -3  421.57   14.92
   4  -2  -3  370.58   14.70
   4  -2  -3  350.26   12.03
   4  -2  -3  365.02   14.85
  -4   2   3  297.42   10.37
  -4   2   3  362.00   12.13
  -4   2   3  364.81   11.52
  -4   2   3  411.10   12.77
   4  -2  -3  403.25   14.31
  -4   2   3  376.85   11.93
  -4   2   3  459.68   13.72
  -4   2   3  373.69   11.45
   4  -2  -3  338.64   10.97
  -4   2   3  369.24   10.35
  -4   2   2 1181.25   18.96
  -4   2   2 1337.31   21.37
   4  -2  -2 1257.96   25.39
   4  -2  -2 1440.25   25.75
   4  -2  -2 1261.13   25.45
   4  -2  -2 1091.39   20.48
   4  -2  -2 1299.35   26.41
  -4   2   2 1141.53   19.79
  -4   2   2 1276.75   21.53
  -4   2   2 1075.69   20.23
   4  -2  -2 1060.93   18.56
  -4   2   2 1247.14   20.78
   4  -2  -2 1336.55   23.96
  -4   2   2 1237.14   22.60
   4  -2  -2 1302.10   23.12
   4  -2  -2 1341.82   23.63
   4  -2  -2 1385.26   24.69
  -4   2   2 1202.67   22.13
   4  -2  -2 1363.15   24.83
  -4   2   2 1194.44   21.92
  -4   2   2 1204.60   22.19
  -4   2   2 1219.04   22.06
   4  -2  -2 1072.70   17.61
   4  -2  -2 1429.78   22.54
  -4   2   2 1231.84   18.54
   4  -2  -2 1415.50   24.50
   4  -2  -1  804.01   18.47
   4  -2  -1  794.76   17.06
   4  -2  -1  882.14   19.52
   4  -2  -1  875.24   19.73
  -4   2   1  812.15   15.54
   4  -2  -1  757.61   15.13
  -4   2   1  764.34   15.52
   4  -2  -1  776.98   17.47
  -4   2   1  783.58   15.03
  -4   2   1  729.90   16.47
   4  -2  -1  741.11   16.67
   4  -2  -1  785.09   17.23
  -4   2   1  713.92   12.24
   4  -2  -1  816.55   18.02
  -4   2   1  694.21   16.01
   4  -2  -1  777.41   17.94
  -4   2   1  713.67   16.11
  -4   2   1  828.20   14.95
  -4   2   1  705.21   16.19
  -4   2   1  690.72   15.80
   4  -2  -1  731.22   13.84
  -4   2   1  697.70   11.10
  -4   2   1  791.06   13.27
   4  -2  -1  834.53   17.28
   4  -2  -1  916.44   20.05
   4  -2  -1  673.85   12.44
  -4   2   0  658.67   12.76
  -4   2   0  635.18    8.72
   4  -2   0  731.69   16.54
  -4   2   0  734.78   15.20
   4  -2   0  713.85   15.49
   4  -2   0  834.12   18.07
   4  -2   0  686.75   14.00
  -4   2   0  659.83   13.68
   4  -2   0  778.96   17.31
  -4   2   0  660.59   13.11
  -4   2   0  652.45   12.99
   4  -2   0  667.46   13.52
   4  -2   0  660.13   16.18
  -4   2   0  685.69   13.56
  -4   2   0  615.12   15.27
  -4   2   0  596.75   14.84
   4  -2   0  605.31   14.95
   4  -2   0  640.93   15.80
  -4   2   0  670.91   12.72
   4  -2   0  683.18   16.62
  -4   2   0  577.05   14.49
   4  -2   0  652.35   16.36
  -4   2   0  565.88   14.42
  -4   2   0  640.41   11.29
  -4   2   0  696.41   12.52
   4  -2   0  713.21   18.18
  -4   2   0  578.78   14.56
  -4   2   0  561.64   14.11
   4  -2   0  662.08   12.86
  -4   2   0  631.85   10.09
  -4   2   0  654.48   10.29
   4  -2   0  677.62   16.19
   4  -2   0  629.01   16.82
   4  -2   0  628.25   11.83
  -4   2  -1   47.94    3.27
   4  -2   1   61.95    4.47
   4  -2   1   58.16    4.13
   4  -2   1   58.91    3.98
   4  -2   1   49.89    3.12
  -4   2  -1   48.42    3.37
   4  -2   1   56.17    3.80
  -4   2  -1   50.77    3.62
   4  -2   1   50.96    4.68
  -4   2  -1   52.86    3.49
  -4   2  -1   45.61    4.14
  -4   2  -1   43.20    4.03
  -4   2  -1   48.03    2.99
   4  -2   1   45.74    4.48
  -4   2  -1   48.60    3.05
   4  -2   1   53.72    4.88
  -4   2  -1   38.43    3.80
   4  -2   1   48.14    4.68
  -4   2  -1   42.06    3.99
   4  -2   1   49.37    2.87
   4  -2   1   52.70    5.01
  -4   2  -1   49.53    4.30
  -4   2  -1   51.55    2.68
  -4   2  -1   49.69    2.91
   4  -2   1   49.27    4.50
   4  -2   1   46.89    4.89
   4  -2   1   49.62    3.23
  -4   2  -2  250.51    7.70
   4  -2   2  265.95    7.28
   4  -2   2  308.31    9.70
   4  -2   2  282.60    8.95
   4  -2   2  269.69    8.42
  -4   2  -2  249.27    7.75
   4  -2   2  252.10    7.34
  -4   2  -2  235.30    7.02
   4  -2   2  266.26    8.40
  -4   2  -2  257.53    8.10
   4  -2   2  218.07    9.97
  -4   2  -2  255.22    7.51
  -4   2  -2  207.18    9.09
  -4   2  -2  244.19    7.05
   4  -2   2  220.82   10.12
  -4   2  -2  251.37    6.64
   4  -2   2  225.75   10.32
  -4   2  -2  218.22    9.35
  -4   2  -2  215.63    9.30
   4  -2   2  219.68   10.27
  -4   2  -2  216.36    9.25
   4  -2   2  256.57    7.02
   4  -2   2  205.00   10.01
  -4   2  -2  211.25    9.23
   4  -2   2  264.87    8.03
  -4   2  -2  265.19    6.45
  -4   2  -2  266.74    7.42
   4  -2   2  196.31    9.48
   4  -2   2  229.40   11.36
  -4   2  -3 1064.59   16.86
   4  -2   3 1058.90   16.30
   4  -2   3 1289.76   20.37
   4  -2   3 1142.30   18.71
  -4   2  -3 1045.85   15.04
   4  -2   3 1049.21   17.71
  -4   2  -3 1044.06   16.98
   4  -2   3 1068.92   16.70
  -4   2  -3 1035.70   17.56
   4  -2   3  925.92   21.69
   4  -2   3  893.67   17.63
   4  -2   3  911.93   21.60
  -4   2  -3 1038.25   15.88
   4  -2   3 1159.10   18.63
  -4   2  -3 1160.74   17.85
  -4   2  -3  867.50   20.09
  -4   2  -3  998.67   15.92
  -4   2  -3  879.68   20.67
   4  -2   3  919.16   21.92
  -4   2  -3  899.50   20.35
   4  -2   3  887.14   21.74
  -4   2  -3  888.45   20.09
   4  -2   3 1037.57   15.78
   4  -2   3  881.97   21.86
  -4   2  -3  911.87   20.42
   4  -2   3 1071.54   17.17
   4  -2   3  878.82   21.78
  -4   2  -3 1103.43   14.76
  -4   2  -3 1151.55   17.58
  -4   2  -3  866.00   20.01
   4  -2   3 1004.51   25.45
   4  -2   3 1032.17   16.71
  -4   2  -4  813.10   15.09
   4  -2   4  818.97   15.07
   4  -2   4  988.56   17.85
  -4   2  -4  783.18   13.78
   4  -2   4  824.34   15.66
  -4   2  -4  791.10   15.17
   4  -2   4  900.41   17.09
   4  -2   4  748.75   20.00
  -4   2  -4  773.59   15.89
  -4   2  -4  837.45   13.57
  -4   2  -4  875.25   15.92
  -4   2  -4  676.76   18.20
   4  -2   4  764.16   12.40
  -4   2  -4  689.23   18.39
  -4   2  -4  772.26   14.92
  -4   2  -4  685.01   18.49
   4  -2   4  697.55   19.45
   4  -2   4  706.72   19.70
   4  -2   4  700.09   19.66
  -4   2  -4  687.48   18.51
   4  -2   4  789.45   15.38
   4  -2   4  708.15   19.95
  -4   2  -4  866.33   13.96
  -4   2  -4  822.42   16.23
   4  -2   4  689.53   20.55
  -4   2  -4  706.96   18.70
   4  -2   4  800.98   15.15
   4  -2   5   62.93    4.47
   4  -2   5   77.65    4.79
  -4   2  -5   61.18    4.08
   4  -2   5   62.94    4.40
  -4   2  -5   64.26    4.47
   4  -2   5   62.08    4.32
  -4   2  -5   64.11    4.94
  -4   2  -5   60.33    4.49
   4  -2   5   70.45    4.89
  -4   2  -5   63.96    4.48
   4  -2   5   57.81    3.57
  -4   2  -5   65.13    4.43
   4  -2   5   63.70    4.27
   4  -2   5   62.49    4.36
  -4   2  -5   66.90    4.06
  -4   2  -5   61.57    4.66
   4  -2   5   52.35    5.83
  -4   2  -5   52.86    4.28
   4  -2   5   56.52    4.13
  -4   2  -6   49.28    3.89
  -4   2  -6   35.49    4.81
   4  -2   6   45.54    4.07
  -4   2  -6   42.20    4.71
  -4   2  -6   47.06    3.83
   4  -2   6   44.72    3.86
   4  -2   6   47.51    4.00
  -4   2  -6   50.13    4.59
   4  -2   6   45.60    4.10
  -4   2  -6   45.29    4.15
  -4   2  -6   45.85    3.97
   4  -2   6   40.13    3.31
  -4   2  -6   43.70    3.99
  -4   2  -6   42.12    5.13
   4  -2   6   55.72    4.27
   4  -2   6   44.71    3.91
   4  -2   6   40.85    4.47
   4  -2   6   42.62    3.82
   4  -2   6   40.22    4.10
  -4   2  -7  807.96   16.46
  -4   2  -7  737.99   22.28
   4  -2   7  769.07   17.97
  -4   2  -7  706.67   18.51
   4  -2   7  815.30   16.92
   4  -2   7  717.89   16.46
  -4   2  -7  750.24   16.83
   4  -2   7  730.43   16.82
  -4   2  -7  775.66   18.81
   4  -2   7  745.67   17.04
  -4   2  -7  744.49   17.96
   4  -2   7  696.53   15.22
  -4   2  -7  696.93   21.06
  -4   2  -7  751.66   17.60
   4  -2   7  719.09   16.77
   4  -2   7  747.59   17.20
   4  -2   7  713.38   16.72
   4  -2   7  671.16   17.37
  -4   2  -8    2.78    1.48
   4  -2   8    2.02    1.08
   4  -2   8    3.09    1.18
   4  -2   8    4.85    1.36
  -4   2  -8    2.27    1.13
  -4   2  -8    2.65    1.05
  -4   2  -8    2.14    1.14
   4  -2   8    2.36    1.05
  -4   2  -8    1.84    1.10
   4  -2   8    2.19    1.13
   4  -2   8    1.86    1.07
   4  -2   9   57.30    4.73
  -4   2  -9   56.55    4.63
   4  -2   9   61.18    4.56
   4  -2   9   52.15    4.44
  -4   2  -9   61.96    5.16
   4  -2   9   51.49    4.15
  -4   2  -9   55.38    4.62
   4  -2   9   53.88    4.51
   4  -2   9   56.34    4.32
   4  -2   9   50.31    4.29
  -4   2 -10   35.71    3.28
   4  -2  10   31.50    3.16
  -4   2 -10   36.26    3.64
  -4   2 -10   33.77    3.18
   4  -2  10   29.66    3.07
   4  -2  10   33.57    3.25
   4  -2  11  107.33    4.73
   4  -1  -9   45.56    2.27
   4  -1  -8   36.57    3.77
   4  -1  -8   37.57    4.07
   4  -1  -8   36.75    3.53
  -4   1   8   36.01    3.61
   4  -1  -8   41.90    3.53
  -4   1   8   39.21    3.16
  -4   1   8   35.69    3.41
  -4   1   8   35.94    3.22
   4  -1  -8   40.13    3.21
   4  -1  -7  524.78   17.47
   4  -1  -7  461.41   15.02
   4  -1  -7  527.25   19.05
  -4   1   7  460.04   15.55
  -4   1   7  359.08   11.24
   4  -1  -7  536.82   16.94
   4  -1  -7  550.53   15.34
  -4   1   7  443.63   14.60
  -4   1   7  454.83   13.86
   4  -1  -7  500.87   13.09
  -4   1   7  425.45   11.51
   4  -1  -6  352.69   15.61
   4  -1  -6  296.02   13.66
   4  -1  -6  342.49   16.66
   4  -1  -6  323.90   15.08
  -4   1   6  296.58   13.21
   4  -1  -6  362.88   15.56
  -4   1   6  269.03   11.48
   4  -1  -6  374.78   13.81
  -4   1   6  293.74   12.65
  -4   1   6  291.92    8.82
  -4   1   6  313.23   12.28
  -4   1   6  287.97   10.31
   4  -1  -5  335.40   12.46
  -4   1   5  297.58   14.29
   4  -1  -5  434.36   17.63
   4  -1  -5  411.58   18.64
   4  -1  -5  368.64   16.44
  -4   1   5  335.14   14.12
  -4   1   5  381.61   11.67
   4  -1  -5  463.27   15.85
  -4   1   5  377.73   14.42
  -4   1   5  322.30    9.52
  -4   1   5  420.17   12.10
  -4   1   5  367.30   13.36
   4  -1  -5  360.26   11.77
  -4   1   5  339.11   11.37
  -4   1   4    1.19    0.85
   4  -1  -4    1.17    0.88
  -4   1   4    1.55    1.34
   4  -1  -4    1.65    0.91
   4  -1  -4    0.88    0.69
   4  -1  -4    0.81    1.05
   4  -1  -4    3.30    1.63
  -4   1   4    1.38    1.10
  -4   1   4    0.62    0.87
  -4   1   4    1.23    0.91
  -4   1   4    3.10    1.40
  -4   1   4    1.21    0.67
   4  -1  -4    1.87    1.31
  -4   1   4    1.04    0.89
   4  -1  -4    2.40    1.11
  -4   1   3  573.49   14.80
   4  -1  -3  634.86   16.85
  -4   1   3  675.42   19.67
   4  -1  -3  608.25   15.85
   4  -1  -3  697.48   19.35
   4  -1  -3  573.07   14.12
   4  -1  -3  727.29   20.62
  -4   1   3  500.43   13.88
  -4   1   3  650.94   17.08
  -4   1   3  672.37   16.84
  -4   1   3  700.82   17.19
  -4   1   3  698.81   16.51
   4  -1  -3  726.39   15.68
   4  -1  -3  758.01   16.23
  -4   1   3  687.21   14.75
  -4   1   2  432.32   11.63
  -4   1   2  478.35   14.36
   4  -1  -2  444.45   12.51
   4  -1  -2  514.58   15.32
   4  -1  -2  437.62   11.74
   4  -1  -2  536.28   15.98
  -4   1   2  470.50   13.17
  -4   1   2  493.25   13.12
  -4   1   2  388.40   11.79
  -4   1   2  472.14   12.65
  -4   1   2  498.54   13.21
  -4   1   2  439.13   11.99
  -4   1   2  458.30   12.27
  -4   1   2  460.46   12.33
  -4   1   2  453.13   12.21
   4  -1  -2  562.43   13.55
   4  -1  -2  594.46   14.98
  -4   1   2  495.42   11.24
  -4   1   1    2.40    0.87
   4  -1  -1    0.23    0.38
   4  -1  -1    2.95    1.08
  -4   1   1    0.28    0.58
   4  -1  -1    1.14    0.61
   4  -1  -1    0.10    0.50
   4  -1  -1    1.53    0.78
   4  -1  -1    2.25    1.10
  -4   1   1    0.23    0.54
  -4   1   1    1.39    0.74
   4  -1  -1    1.03    0.72
  -4   1   1    0.93    0.65
  -4   1   1    0.08    0.58
  -4   1   1    2.32    0.78
   4  -1  -1    1.66    0.87
   4  -1  -1    0.97    0.74
  -4   1   1    0.65    0.66
  -4   1   1    0.73    0.63
   4  -1  -1    1.00    0.72
  -4   1   1    1.06    0.68
  -4   1   1    0.66    0.60
  -4   1   1    1.05    0.66
   4  -1  -1    0.16    0.46
   4  -1  -1    0.09    0.56
  -4   1   0  212.87    7.20
  -4   1   0  226.61    7.84
   4  -1   0  236.16    8.44
  -4   1   0  226.83    8.09
   4  -1   0  216.91    7.63
   4  -1   0  206.33    6.86
  -4   1   0  206.54    7.13
  -4   1   0  210.36    7.15
   4  -1   0  204.58    6.50
  -4   1   0  202.34    7.92
  -4   1   0  207.45    7.24
   4  -1   0  207.62    8.25
  -4   1   0  181.42    4.20
  -4   1   0  205.89    8.13
  -4   1   0  197.91    7.90
   4  -1   0  188.32    7.58
  -4   1   0  199.04    6.23
   4  -1   0  204.38    8.11
  -4   1   0  225.06    7.11
   4  -1   0  212.74    8.41
  -4   1   0  198.32    7.80
   4  -1   0  198.25    8.23
  -4   1   0  198.10    7.79
   4  -1   0  217.08    9.07
  -4   1   0  185.19    7.51
   4  -1   0  207.37    6.16
  -4   1   0  181.19    3.81
  -4   1   0  188.21    3.98
   4  -1   0  233.65    9.40
  -4   1  -1  284.22    8.09
   4  -1   1  311.79    9.34
  -4   1  -1  285.19    6.24
   4  -1   1  302.03    8.67
  -4   1  -1  263.69    7.89
  -4   1  -1  271.46    7.29
   4  -1   1  240.04    9.11
  -4   1  -1  268.58    7.97
  -4   1  -1  230.41    8.64
  -4   1  -1  236.92    8.74
  -4   1  -1  247.51    6.94
   4  -1   1  242.96    9.13
   4  -1   1  252.38    9.41
  -4   1  -1  242.47    8.74
   4  -1   1  248.63    9.47
  -4   1  -1  230.79    8.55
   4  -1   1  246.35    9.72
  -4   1  -1  229.63    8.57
   4  -1   1  268.60    7.17
  -4   1  -1  235.56    3.94
  -4   1  -1  277.61    5.74
   4  -1   1  276.50   10.24
   4  -1   1  270.36   10.44
  -4   1  -2 3116.19   30.34
   4  -1   2 2984.38   31.09
   4  -1   2 2752.09   29.25
  -4   1  -2 2942.87   29.68
  -4   1  -2 2507.87   33.16
   4  -1   2 2937.62   29.49
  -4   1  -2 2923.60   29.92
   4  -1   2 2493.60   34.46
  -4   1  -2 2464.38   33.15
  -4   1  -2 2838.38   28.04
   4  -1   2 2444.51   34.35
   4  -1   2 2490.41   34.91
  -4   1  -2 2583.68   33.59
   4  -1   2 2411.29   34.71
  -4   1  -2 2592.97   33.81
   4  -1   2 2472.67   35.31
  -4   1  -2 2555.87   33.60
  -4   1  -2 2831.90   20.86
  -4   1  -2 3109.30   26.69
   4  -1   2 2430.64   35.02
   4  -1   2 2451.30   37.35
  -4   1  -2 3168.96   27.65
   4  -1   2 2758.21   27.00
  -4   1  -3  129.24    5.43
   4  -1   3  125.72    4.80
  -4   1  -3  115.81    4.70
   4  -1   3  120.58    5.34
  -4   1  -3  120.73    5.22
   4  -1   3  117.39    4.73
   4  -1   3  122.77    5.33
  -4   1  -3  117.49    5.28
   4  -1   3  105.03    6.56
  -4   1  -3   96.97    6.02
  -4   1  -3  111.95    6.41
  -4   1  -3  115.59    5.01
  -4   1  -3  110.27    6.55
   4  -1   3  105.76    6.56
   4  -1   3  106.20    6.66
  -4   1  -3  103.03    6.20
   4  -1   3  111.03    6.92
  -4   1  -3  107.40    6.26
   4  -1   3  124.35    4.68
   4  -1   3  107.10    6.79
  -4   1  -3  105.52    6.27
   4  -1   3  119.42    5.07
   4  -1   3  106.13    6.80
  -4   1  -3  126.99    3.59
  -4   1  -3  131.81    5.11
   4  -1   3   96.07    6.58
   4  -1   3  105.77    7.18
   4  -1   3  122.25    4.99
  -4   1  -4   28.33    2.50
   4  -1   4   35.84    3.00
  -4   1  -4   31.87    2.79
   4  -1   4   29.12    2.57
  -4   1  -4   31.05    3.09
   4  -1   4   35.76    3.00
   4  -1   4   28.46    3.56
  -4   1  -4   28.42    2.71
  -4   1  -4   25.27    3.22
  -4   1  -4   25.82    3.29
  -4   1  -4   29.65    2.68
  -4   1  -4   22.31    3.08
   4  -1   4   29.40    3.69
  -4   1  -4   27.84    3.40
   4  -1   4   22.75    3.27
   4  -1   4   29.58    2.50
   4  -1   4   26.71    3.51
  -4   1  -4   22.53    3.07
   4  -1   4   28.82    2.63
   4  -1   4   28.83    3.66
  -4   1  -4   30.80    2.74
  -4   1  -4   33.06    2.18
  -4   1  -4   30.28    2.76
  -4   1  -4   32.59    2.90
   4  -1   4   29.10    3.96
   4  -1   4   29.50    4.11
  -4   1  -5  720.61   14.11
   4  -1   5  687.50   14.02
  -4   1  -5  587.09   16.78
   4  -1   5  673.42   13.98
   4  -1   5  657.10   13.52
  -4   1  -5  725.80   16.15
   4  -1   5  730.72   14.94
   4  -1   5  639.59   18.21
  -4   1  -5  647.01   14.02
   4  -1   5  656.71   11.80
  -4   1  -5  660.40   14.38
  -4   1  -5  616.11   17.16
  -4   1  -5  672.24   14.25
   4  -1   5  650.62   18.34
  -4   1  -5  587.57   16.88
   4  -1   5  635.50   18.22
   4  -1   5  634.71   18.27
  -4   1  -5  593.75   16.90
  -4   1  -5  599.74   16.96
   4  -1   5  664.56   13.99
   4  -1   5  612.56   18.06
  -4   1  -5  774.09   12.66
   4  -1   5  615.47   19.18
  -4   1  -5  787.92   16.04
  -4   1  -5  595.46   13.14
   4  -1   5  707.44   14.04
  -4   1  -6   24.69    2.69
   4  -1   6   24.13    2.81
  -4   1  -6   19.28    2.51
  -4   1  -6   24.29    2.67
   4  -1   6   20.83    2.59
  -4   1  -6   22.74    2.59
   4  -1   6   19.36    2.52
  -4   1  -6   21.83    3.01
   4  -1   6   21.53    2.68
   4  -1   6   21.01    2.33
  -4   1  -6   20.16    2.69
  -4   1  -6   19.95    2.65
  -4   1  -6   19.64    3.50
   4  -1   6   22.97    2.63
   4  -1   6   26.78    2.89
   4  -1   6   20.11    3.10
   4  -1   6   20.43    2.56
  -4   1  -7  659.19   14.11
  -4   1  -7  606.62   20.74
   4  -1   7  590.97   15.29
  -4   1  -7  567.49   17.39
  -4   1  -7  524.85   14.24
  -4   1  -7  628.50   14.39
   4  -1   7  541.51   14.21
  -4   1  -7  574.40   13.84
   4  -1   7  594.44   14.82
  -4   1  -7  608.24   16.60
   4  -1   7  605.03   15.16
  -4   1  -7  582.98   15.48
   4  -1   7  562.04   13.37
  -4   1  -7  579.04   19.55
  -4   1  -7  600.72   15.33
   4  -1   7  580.64   14.52
   4  -1   7  587.22   14.80
   4  -1   7  570.72   14.56
  -4   1  -8   49.77    6.02
   4  -1   8   45.47    4.38
  -4   1  -8   48.51    4.73
  -4   1  -8   41.06    4.12
  -4   1  -8   50.60    4.13
   4  -1   8   44.52    4.07
  -4   1  -8   49.55    4.07
   4  -1   8   46.09    4.28
  -4   1  -8   48.47    4.79
   4  -1   8   45.39    4.01
  -4   1  -8   46.98    4.33
  -4   1  -8   45.64    4.53
   4  -1   8   45.46    3.98
  -4   1  -8   51.35    4.58
   4  -1   8   43.09    4.11
   4  -1   8   47.21    4.27
   4  -1   8   64.36    5.02
  -4   1  -9   31.58    4.55
   4  -1   9   22.90    3.14
  -4   1  -9   27.17    3.41
  -4   1  -9   30.46    3.13
   4  -1   9   29.05    3.26
   4  -1   9   26.28    3.19
  -4   1  -9   29.10    3.81
  -4   1  -9   30.36    3.38
  -4   1  -9   26.40    3.46
   4  -1   9   23.59    2.95
  -4   1  -9   29.30    3.49
   4  -1   9   26.04    3.30
   4  -1   9   23.89    3.11
   4  -1  10   69.49    4.88
  -4   1 -10   69.61    5.22
   4  -1  10   68.68    4.64
   4  -1  10   67.10    4.89
  -4   1 -10   76.19    5.66
  -4   1 -10   73.08    5.28
   4  -1  10   68.01    4.92
   4  -1  10   65.14    4.79
  -4   1 -11  159.17    6.74
   4  -1  11  150.08    6.19
  -4   1 -11  167.41    7.32
  -4   1 -11  172.52    7.14
   4  -1  11  149.54    6.19
  -4   0   9   27.50    1.67
   4   0  -8    2.35    1.15
   4   0  -8    2.72    1.19
  -4   0   8    1.96    0.91
  -4   0   8    1.93    0.93
   4   0  -8    3.22    1.16
  -4   0   8    1.62    0.88
   4   0  -8    3.48    1.02
   4   0  -7 1685.96   32.32
   4   0  -7 1324.01   23.31
   4   0  -7 1677.77   34.18
   4   0  -7 1484.88   27.75
  -4   0   7 1423.22   28.27
   4   0  -7 1670.15   32.12
   4   0  -7 1961.54   29.93
  -4   0   7 1440.38   27.33
  -4   0   7 1404.36   25.58
   4   0  -7 1618.94   23.78
  -4   0   7 1336.45   21.48
  -4   0   6   26.54    3.76
   4   0  -6   37.47    5.18
   4   0  -6   29.38    3.99
   4   0  -6   33.97    5.30
   4   0  -6   31.17    4.50
  -4   0   6   30.66    4.43
   4   0  -6   35.05    5.10
  -4   0   6   38.60    4.83
  -4   0   6   27.60    2.79
  -4   0   6   28.92    3.82
  -4   0   6   31.21    3.46
   4   0  -5  172.47   11.13
   4   0  -5  147.86    9.34
   4   0  -5  164.40   11.68
  -4   0   5  146.55    9.68
  -4   0   5  162.73    9.83
  -4   0   5  154.27    6.76
  -4   0   5  159.15    9.37
   4   0  -5  165.80    7.78
  -4   0   5  154.56    7.90
   4   0  -4 1013.53   20.66
  -4   0   4 1058.28   27.13
   4   0  -4 1306.15   29.99
   4   0  -4 1108.02   25.17
   4   0  -4 1224.13   27.30
  -4   0   4 1086.65   25.95
  -4   0   4 1308.14   23.05
  -4   0   4 1041.14   24.46
  -4   0   4 1154.95   25.93
  -4   0   4 1139.02   18.59
  -4   0   4 1237.37   25.36
   4   0  -4 1238.89   21.21
  -4   0   4 1147.74   21.50
  -4   0   3    4.57    1.26
  -4   0   3    2.80    1.32
  -4   0   3    2.75    1.31
   4   0  -3    3.34    1.20
  -4   0   3    3.51    1.60
   4   0  -3    4.15    1.17
   4   0  -3    4.07    1.53
  -4   0   3    2.97    1.33
   4   0  -3    4.29    1.27
  -4   0   3    4.12    1.23
   4   0  -3    4.11    1.26
   4   0  -3    4.63    1.28
   4   0  -3    3.49    1.21
  -4   0   3    3.84    1.53
  -4   0   3    3.27    1.04
   4   0  -3    5.03    1.42
  -4   0   3    3.17    0.92
  -4   0   3    3.59    1.09
  -4   0   3    3.33    1.10
  -4   0   3    4.76    1.28
  -4   0   3    2.81    1.32
   4   0  -3    4.55    1.35
   4   0  -2 1445.22   22.74
  -4   0   2 1437.48   27.14
   4   0  -2 1300.80   20.58
  -4   0   2 1777.95   26.18
   4   0  -2 1447.68   25.24
   4   0  -2 1164.86   18.38
   4   0  -2 1706.34   28.84
  -4   0   2 1134.62   21.89
  -4   0   2 1647.18   28.35
   4   0  -2 1550.01   23.00
  -4   0   2 1495.90   22.57
   4   0  -2 1552.64   22.72
   4   0  -2 1557.27   22.87
   4   0  -2 1552.46   23.33
  -4   0   2 1505.43   22.18
   4   0  -2 1528.03   23.76
  -4   0   2 1477.67   22.06
  -4   0   2 1498.54   22.33
  -4   0   2 1477.15   22.16
   4   0  -2 1671.20   24.07
   4   0  -2 1416.33   20.60
  -4   0   2 1495.68   21.35
  -4   0   2 1512.96   26.64
  -4   0   1  455.93   12.12
   4   0  -1  499.90   12.31
  -4   0   1  475.48   13.02
   4   0  -1  465.95   10.82
   4   0  -1  571.57   14.37
   4   0  -1  413.71    9.37
  -4   0   1  449.93   12.25
  -4   0   1  451.19   12.05
  -4   0   1  396.26   11.28
   4   0  -1  451.03   11.22
  -4   0   1  510.89   13.69
  -4   0   1  496.29   12.15
   4   0  -1  468.66   11.21
   4   0  -1  504.23   11.95
  -4   0   1  477.70   12.20
   4   0  -1  475.84   11.66
  -4   0   1  498.31   11.98
   4   0  -1  466.91   11.85
  -4   0   1  473.09   11.71
  -4   0   1  505.83   12.13
  -4   0   1  459.19   11.26
   4   0  -1  508.85   12.58
   4   0  -1  564.35   13.33
  -4   0   0    8.61    1.59
   4   0   0    9.02    1.59
  -4   0   0    8.11    1.60
   4   0   0    8.28    1.38
  -4   0   0    9.32    1.00
  -4   0   0    8.84    1.56
  -4   0   0    7.84    1.42
  -4   0   0    9.77    1.65
   4   0   0    7.73    1.48
  -4   0   0    7.69    1.61
  -4   0   0    9.32    1.66
  -4   0   0    9.00    1.61
   4   0   0    8.19    1.48
   4   0   0    7.57    1.46
   4   0   0    7.03    1.47
  -4   0   0    7.16    1.43
   4   0   0    6.31    1.37
  -4   0   0    8.09    1.51
   4   0   0    9.01    1.74
  -4   0   0    6.43    1.39
  -4   0   0    6.38    1.33
   4   0   0    7.71    1.53
   4   0   0    9.71    1.85
  -4   0  -1 1389.92   19.57
  -4   0  -1 1435.70   20.72
  -4   0  -1 1213.28   18.17
  -4   0  -1 1339.07   18.95
   4   0   1 1082.16   18.83
  -4   0  -1 1252.55   14.42
  -4   0  -1 1208.31   17.09
   4   0   1 1058.18   18.57
   4   0   1 1088.64   19.02
   4   0   1 1049.41   18.80
   4   0   1 1127.96   20.04
   4   0   1 1204.42   20.90
   4   0   1 1488.17   23.61
  -4   0  -2  434.69   10.17
  -4   0  -2  365.28    8.49
   4   0   2  371.00    8.59
  -4   0  -2  424.16    8.58
  -4   0  -2  414.73    9.76
  -4   0  -2  374.33    9.19
   4   0   2  325.72   10.38
  -4   0  -2  382.54    8.94
   4   0   2  310.27   10.10
   4   0   2  325.96   10.52
   4   0   2  311.14   10.38
   4   0   2  316.01   10.61
   4   0   2  330.38   11.21
   4   0   2  362.86   11.62
  -4   0  -3 1696.08   20.13
   4   0   3 1341.73   18.05
  -4   0  -3 1558.14   22.32
   4   0   3 1233.03   21.86
  -4   0  -3 1427.72   18.93
  -4   0  -3 1458.53   19.60
   4   0   3 1223.75   21.77
   4   0   3 1212.04   21.89
   4   0   3 1191.43   22.02
   4   0   3 1223.91   22.26
   4   0   3 1230.17   22.34
   4   0   3 1181.08   23.06
   4   0   3 1212.38   23.49
  -4   0  -4    7.00    1.33
   4   0   4    7.32    1.21
  -4   0  -4    8.30    1.49
  -4   0  -4    6.47    1.23
   4   0   4    5.80    1.19
   4   0   4    6.81    1.15
  -4   0  -4    6.17    1.23
  -4   0  -4    8.54    1.59
  -4   0  -4    5.95    1.18
  -4   0  -4   10.26    1.56
  -4   0  -4    5.32    1.18
   4   0   4    5.90    1.63
  -4   0  -4    7.18    1.35
   4   0   4    5.29    1.49
   4   0   4    5.11    1.51
   4   0   4   13.74    1.61
   4   0   4    7.04    1.71
   4   0   4    6.76    1.21
   4   0   4    5.20    1.47
   4   0   4    4.77    1.53
   4   0   4   11.08    2.39
  -4   0  -4    5.21    0.97
   4   0   4    6.18    1.19
  -4   0  -5 1990.96   24.29
   4   0   5 1685.92   22.41
   4   0   5 1697.82   19.61
  -4   0  -5 1577.37   22.57
  -4   0  -5 2005.14   26.22
  -4   0  -5 2111.36   28.36
  -4   0  -5 1999.03   25.25
   4   0   5 1786.88   22.49
  -4   0  -5 1774.79   22.73
  -4   0  -5 1809.46   25.43
   4   0   5 1727.57   28.73
  -4   0  -5 1757.62   22.96
  -4   0  -5 1688.48   23.84
  -4   0  -5 1560.69   26.28
  -4   0  -5 1575.74   26.45
  -4   0  -5 1658.40   23.47
  -4   0  -5 1564.38   26.29
  -4   0  -5 1531.56   25.93
   4   0   5 1627.31   28.09
  -4   0  -5 1605.15   26.90
   4   0   5 1605.17   28.03
   4   0   5 1659.39   21.61
   4   0   5 1675.64   28.74
   4   0   5 1624.52   28.08
  -4   0  -5 1613.57   26.78
   4   0   5 1677.56   22.46
   4   0   5 1647.94   28.29
   4   0   5 1604.06   30.56
   4   0   5 1771.97   31.20
  -4   0  -6   42.54    3.36
   4   0   6   41.73    3.57
  -4   0  -6   34.28    3.27
  -4   0  -6   44.89    4.03
  -4   0  -6   46.63    4.25
  -4   0  -6   36.31    3.41
   4   0   6   38.14    3.32
  -4   0  -6   38.29    3.20
  -4   0  -6   40.12    3.87
  -4   0  -6   38.88    3.73
  -4   0  -6   38.70    3.33
   4   0   6   37.83    2.95
  -4   0  -6   35.50    3.53
  -4   0  -6   35.38    3.93
  -4   0  -6   29.80    3.61
  -4   0  -6   36.78    3.42
  -4   0  -6   28.27    3.54
  -4   0  -6   32.89    3.80
   4   0   6   33.80    4.11
   4   0   6   31.31    3.94
   4   0   6   31.63    4.03
   4   0   6   32.83    4.04
  -4   0  -6   30.88    3.71
   4   0   6   35.25    3.22
   4   0   6   31.30    3.96
   4   0   6   34.05    4.20
   4   0   6   39.93    4.78
   4   0   6   42.49    3.58
  -4   0  -7  795.11   24.30
   4   0   7  724.84   16.59
  -4   0  -7  716.82   19.88
  -4   0  -7  671.03   15.99
  -4   0  -7  761.32   16.78
  -4   0  -7  764.66   18.51
  -4   0  -7  747.59   15.13
  -4   0  -7  752.94   17.88
  -4   0  -7  697.93   15.23
   4   0   7  691.80   14.70
  -4   0  -7  671.95   16.85
   4   0   7  690.21   15.59
   4   0   7  661.86   15.51
   4   0   7  726.07   16.28
  -4   0  -8    8.51    2.63
   4   0   8    7.44    1.79
  -4   0  -8    9.43    2.12
  -4   0  -8    7.26    1.77
  -4   0  -8    8.59    2.19
   4   0   8    7.14    1.69
  -4   0  -8    6.79    1.84
   4   0   8    8.13    1.80
  -4   0  -8    5.96    1.50
   4   0   8    7.51    1.68
  -4   0  -8    7.34    1.91
  -4   0  -8   11.89    2.23
   4   0   8    6.14    1.63
   4   0   8    5.87    1.57
   4   0   8    8.93    1.97
  -4   0  -9   48.34    4.56
   4   0   9   54.92    4.77
  -4   0  -9   48.90    4.71
  -4   0  -9   56.77    4.76
   4   0   9   48.47    4.37
  -4   0  -9   49.17    4.98
   4   0   9   59.32    4.39
  -4   0  -9   48.91    4.12
   4   0   9   48.71    4.27
  -4   0  -9   56.15    5.15
  -4   0  -9   60.81    4.91
   4   0   9   47.84    4.43
   4   0   9   50.69    4.43
   4   0   9   50.92    4.46
   4   0  10  581.48   14.77
  -4   0 -10  572.27   16.08
  -4   0 -10  607.63   14.92
   4   0  10  535.81   13.91
   4   0  10  582.22   14.67
  -4   0 -10  610.67   17.18
  -4   0 -10  583.63   15.94
   4   0  10  546.77   14.81
   4   0  10  563.61   14.01
   4   0  10  564.50   14.71
  -4   0 -11   45.91    3.95
   4   0  11   47.55    3.68
  -4   0 -11   49.25    4.29
  -4   0 -11   51.09    4.25
   4   0  11   45.82    3.63
   4   0  11   45.48    3.64
   4   1  -8  533.33   13.84
   4   1  -8  539.00   14.32
   4   1  -8  523.27   13.49
  -4  -1   8  563.57   12.08
   4   1  -7   62.12    5.95
   4   1  -7   64.74    6.23
   4   1  -7   51.40    4.22
  -4  -1   7   46.58    4.90
   4   1  -7   55.03    5.63
  -4  -1   7   65.87    5.15
  -4  -1   7   46.22    4.77
  -4  -1   7   56.17    4.91
   4   1  -6 1080.26   24.57
   4   1  -6 1109.29   27.81
   4   1  -6 1005.82   27.92
   4   1  -6  936.33   22.69
  -4  -1   6  890.76   24.45
   4   1  -6 1042.51   27.88
  -4  -1   6  936.12   24.44
  -4  -1   6  978.81   23.68
   4   1  -6 1144.54   20.58
  -4  -1   6  994.80   19.96
   4   1  -5   11.53    3.15
   4   1  -5    8.41    2.12
  -4  -1   5   11.41    1.70
   4   1  -5   12.54    3.35
   4   1  -5    8.65    2.31
  -4  -1   5    8.19    2.49
  -4  -1   5   10.62    2.74
  -4  -1   5   10.46    1.88
  -4  -1   5   18.29    3.38
   4   1  -5   10.34    2.02
  -4  -1   5   12.51    2.37
  -4  -1   4  383.75   16.71
   4   1  -4  534.02   18.81
   4   1  -4  413.41   14.45
   4   1  -4  466.38   18.80
  -4  -1   4  422.49   10.28
   4   1  -4  452.50   15.77
  -4  -1   4  447.60   17.03
  -4  -1   4  397.28   15.82
  -4  -1   4  450.83   16.80
  -4  -1   4  449.21   11.83
  -4  -1   4  450.67   16.08
   4   1  -4  521.51   13.24
  -4  -1   4  468.29   13.76
   4   1  -3  159.36    6.99
  -4  -1   3  127.91    9.10
   4   1  -3  131.82    7.51
  -4  -1   3  143.68    5.64
  -4  -1   3  137.27    9.11
  -4  -1   3  154.53    6.75
   4   1  -3  156.89    6.77
   4   1  -3  164.77    6.94
   4   1  -3  154.82    6.95
  -4  -1   3  142.94    8.74
  -4  -1   3  150.54    6.51
  -4  -1   3  147.87    6.31
   4   1  -3  165.37    7.39
  -4  -1   3  153.17    6.59
  -4  -1   3  156.14    6.67
  -4  -1   3  153.32    6.56
  -4  -1   3  146.08    8.74
  -4  -1   3  154.59    7.34
  -4  -1   2  202.64    9.63
   4   1  -2  266.44    8.62
  -4  -1   2  233.98   10.72
  -4  -1   2  228.00   10.97
   4   1  -2  256.41    9.68
   4   1  -2  274.34    8.62
   4   1  -2  321.37   11.90
  -4  -1   2  250.79   10.84
  -4  -1   2  224.65    6.86
  -4  -1   2  268.03    9.86
  -4  -1   2  240.97   10.87
  -4  -1   2  274.52    8.69
   4   1  -2  291.96    8.66
   4   1  -2  277.51    8.48
   4   1  -2  269.72    8.69
  -4  -1   2  235.03   10.45
  -4  -1   2  276.94    8.53
   4   1  -2  265.79    8.84
  -4  -1   2  269.65    8.42
  -4  -1   2  262.87    8.44
  -4  -1   2  268.89    8.41
   4   1  -2  275.87    6.95
   4   1  -2  276.32    9.70
   4   1  -2  309.26   10.08
   4   1  -2  261.40    8.07
  -4  -1   1  763.18   18.25
   4   1  -1  968.81   16.31
  -4  -1   1  861.50   18.84
   4   1  -1  816.10   13.50
   4   1  -1  995.84   18.61
  -4  -1   1  692.96   16.59
  -4  -1   1  823.36   18.00
  -4  -1   1  916.43   19.19
  -4  -1   1  905.49   20.91
   4   1  -1  848.89   14.63
  -4  -1   1  828.45   18.99
  -4  -1   1  901.69   15.43
   4   1  -1  877.78   14.52
   4   1  -1  872.67   14.50
   4   1  -1  852.77   14.90
  -4  -1   1  847.03   17.96
  -4  -1   1  886.08   14.98
   4   1  -1  824.47   15.05
  -4  -1   1  886.56   15.00
  -4  -1   1  900.22   15.26
  -4  -1   1  843.80   14.72
   4   1  -1  893.62   13.16
   4   1  -1 1015.17   18.36
   4   1  -1 1003.54   17.79
   4   1  -1  867.62   13.95
  -4  -1   0  659.41   15.59
  -4  -1   0  646.99   15.73
  -4  -1   0  731.31   15.77
  -4  -1   0  632.88   14.64
  -4  -1   0  689.65   17.16
  -4  -1   0  652.03   16.83
  -4  -1   0  595.23   13.50
   4   1   0  637.66   12.58
  -4  -1   0  681.65   13.46
  -4  -1   0  681.74   13.29
   4   1   0  608.28   11.86
   4   1   0  634.72   12.45
  -4  -1   0  584.95   12.50
   4   1   0  647.47   12.89
  -4  -1   0  663.69   13.03
   4   1   0  615.10   12.57
  -4  -1   0  649.94   12.84
   4   1   0  680.19   13.85
  -4  -1   0  650.64   12.98
  -4  -1   0  650.23   12.70
  -4  -1   0  614.89    9.40
   4   1   0  726.97   15.63
   4   1   0  768.19   14.79
  -4  -1  -1  135.65    6.46
   4   1   1   97.31    4.74
  -4  -1  -1  140.06    6.13
  -4  -1  -1  126.05    6.42
  -4  -1  -1  143.00    4.86
  -4  -1  -1  134.36    6.03
  -4  -1  -1  127.04    7.07
   4   1   1   99.83    4.79
  -4  -1  -1  103.83    4.92
  -4  -1  -1  103.69    4.89
  -4  -1  -1  122.48    5.36
   4   1   1   99.27    4.85
  -4  -1  -1  112.61    5.04
   4   1   1   97.54    4.82
  -4  -1  -1  108.43    4.95
   4   1   1  103.74    5.14
  -4  -1  -1  108.55    4.99
   4   1   1  138.49    5.13
   4   1   1  132.49    6.58
   4   1   1  140.65    6.28
  -4  -1  -2  924.93   16.30
  -4  -1  -2  784.47   13.41
   4   1   2  635.79   13.24
  -4  -1  -2  664.80   13.40
  -4  -1  -2  654.54   13.20
  -4  -1  -2  828.74   14.26
   4   1   2  639.40   13.35
   4   1   2  650.63   13.59
  -4  -1  -2  677.44   13.36
  -4  -1  -2  848.10   13.03
   4   1   2  621.00   13.40
  -4  -1  -2  662.89   13.28
   4   1   2  642.70   13.77
  -4  -1  -2  669.88   13.39
   4   1   2  711.66   16.03
   4   1   2  876.85   17.37
  -4  -1  -3  217.34    7.51
  -4  -1  -3  173.38    6.10
  -4  -1  -3  212.38    7.47
   4   1   3  178.23    5.84
  -4  -1  -3  223.89    7.36
  -4  -1  -3  172.03    7.16
   4   1   3  161.87    6.72
  -4  -1  -3  156.59    6.58
  -4  -1  -3  199.73    6.88
  -4  -1  -3  209.33    6.76
  -4  -1  -3  168.80    6.74
  -4  -1  -3  193.30    6.74
  -4  -1  -3  162.85    6.74
   4   1   3  160.83    6.83
  -4  -1  -3  172.54    6.78
   4   1   3  152.47    6.69
   4   1   3  159.37    6.85
  -4  -1  -3  179.26    6.91
   4   1   3  152.58    6.72
   4   1   3  143.52    7.34
  -4  -1  -4   29.05    2.72
   4   1   4   23.41    2.12
  -4  -1  -4   25.15    2.50
  -4  -1  -4   22.42    2.26
  -4  -1  -4   29.38    2.92
  -4  -1  -4   31.17    2.69
  -4  -1  -4   24.59    2.54
   4   1   4   23.54    2.73
  -4  -1  -4   22.61    2.35
  -4  -1  -4   39.93    2.91
  -4  -1  -4   27.03    2.66
  -4  -1  -4   21.17    2.51
  -4  -1  -4   24.99    2.71
  -4  -1  -4   22.57    2.39
  -4  -1  -4   21.04    2.51
   4   1   4   22.38    2.69
  -4  -1  -4   23.65    2.66
   4   1   4   20.44    2.57
   4   1   4   20.72    2.61
  -4  -1  -4   24.40    2.70
   4   1   4   22.52    2.71
   4   1   4   29.34    1.87
   4   1   4   21.75    3.05
   4   1   4   23.20    3.05
   4   1   4   26.44    2.24
  -4  -1  -5 1602.57   21.38
   4   1   5 1258.15   18.41
  -4  -1  -5 1305.10   19.76
  -4  -1  -5 1449.99   23.15
  -4  -1  -5 1404.89   21.41
   4   1   5 1373.75   18.48
  -4  -1  -5 1519.27   20.29
  -4  -1  -5 1347.28   21.20
   4   1   5 1317.74   22.93
  -4  -1  -5 1401.88   24.57
  -4  -1  -5 1392.29   19.12
  -4  -1  -5 1512.22   22.55
  -4  -1  -5 1343.43   20.62
  -4  -1  -5 1243.89   21.51
  -4  -1  -5 1180.33   21.11
  -4  -1  -5 1367.18   20.79
  -4  -1  -5 1211.96   21.34
   4   1   5 1287.03   16.51
  -4  -1  -5 1196.05   20.97
   4   1   5 1260.47   22.62
  -4  -1  -5 1192.04   21.29
   4   1   5 1248.76   22.52
   4   1   5 1313.34   18.12
   4   1   5 1207.68   22.42
   4   1   5 1273.11   22.63
  -4  -1  -5 1159.84   21.02
   4   1   5 1251.63   22.64
   4   1   5 1467.13   17.43
   4   1   5 1331.52   26.72
   4   1   5 1459.87   26.18
   4   1   5 1378.69   19.21
   4   1   6   67.82    4.42
  -4  -1  -6   77.87    5.26
  -4  -1  -6   69.17    4.71
  -4  -1  -6   77.93    5.31
   4   1   6   74.59    4.52
  -4  -1  -6   71.38    4.96
  -4  -1  -6   71.20    5.08
  -4  -1  -6   68.95    4.10
   4   1   6   67.01    3.88
  -4  -1  -6   70.50    4.78
  -4  -1  -6   65.15    4.91
  -4  -1  -6   62.92    4.82
  -4  -1  -6   60.09    4.70
  -4  -1  -6   61.72    4.78
   4   1   6   68.63    5.33
   4   1   6   65.23    5.18
   4   1   6   69.57    4.28
   4   1   6   63.66    5.17
   4   1   6   66.95    5.21
  -4  -1  -6   58.23    4.67
   4   1   6   62.46    5.03
   4   1   6   72.24    6.34
   4   1   6   81.16    4.34
   4   1   6   70.54    4.53
  -4  -1  -7 1187.90   29.80
   4   1   7 1071.01   19.87
  -4  -1  -7 1078.27   25.33
  -4  -1  -7 1025.77   20.60
  -4  -1  -7 1170.76   22.79
   4   1   7 1164.76   20.19
  -4  -1  -7 1053.63   21.29
  -4  -1  -7 1059.82   17.80
   4   1   7 1009.44   17.84
  -4  -1  -7 1046.74   21.06
  -4  -1  -7 1108.40   20.72
   4   1   7 1011.32   18.92
   4   1   7 1151.74   20.36
  -4  -1  -8    2.89    1.78
   4   1   8    1.05    0.86
  -4  -1  -8    2.37    1.17
  -4  -1  -8    1.33    0.91
  -4  -1  -8    2.86    1.45
  -4  -1  -8    2.27    1.19
  -4  -1  -8    1.63    1.01
   4   1   8    1.81    0.92
  -4  -1  -8    2.26    1.06
   4   1   8    1.76    0.90
   4   1   8    1.21    0.78
  -4  -1  -9  468.58   15.41
  -4  -1  -9  535.52   20.70
   4   1   9  431.71   13.63
  -4  -1  -9  431.46   14.37
  -4  -1  -9  464.50   14.73
  -4  -1  -9  445.19   14.93
   4   1   9  410.32   12.20
   4   1   9  399.36   12.40
  -4  -1  -9  452.32   14.91
  -4  -1  -9  494.24   13.68
   4   1   9  417.05   13.04
   4   1   9  419.19   12.79
   4   1   9  400.80   12.83
   4   1  10  864.83   18.65
  -4  -1 -10  915.71   20.32
  -4  -1 -10  968.78   20.62
   4   1  10  877.69   18.40
  -4  -1 -10  980.10   21.90
  -4  -1 -10  857.54   17.74
  -4  -1 -10  893.32   20.50
   4   1  10  836.54   18.44
   4   1  10  835.57   17.91
   4   1  10  829.28   18.32
  -4  -1 -11  129.95    6.88
  -4  -1 -11  133.66    6.68
   4   1  11  111.14    5.67
   4   1  11  113.92    5.79
  -4  -1 -11  139.74    7.34
  -4  -1 -11  136.46    7.24
   4   1  11  114.63    5.96
   4   1  11  116.44    5.51
   4   1  11  114.60    5.98
  -4  -2   8   64.92    3.72
   4   2  -8   64.58    3.15
   4   2  -7   14.01    2.83
   4   2  -7   13.44    2.32
   4   2  -7   12.58    2.53
  -4  -2   7   16.31    2.53
  -4  -2   7   10.41    2.10
   4   2  -6   10.16    2.46
   4   2  -6   12.34    2.84
   4   2  -6    8.90    2.58
  -4  -2   6   11.70    2.60
   4   2  -6    7.21    2.42
  -4  -2   6    9.72    2.61
  -4  -2   6    9.68    2.44
   4   2  -6   11.65    2.03
   4   2  -5  241.04   12.91
   4   2  -5  217.23   12.86
   4   2  -5  211.24   10.20
  -4  -2   5  210.20    7.67
  -4  -2   5  230.77   12.75
   4   2  -5  229.96   13.12
  -4  -2   5  280.76   13.00
  -4  -2   5  208.51   11.88
  -4  -2   5  214.14    8.31
  -4  -2   5  230.08   12.01
   4   2  -5  294.64   10.23
  -4  -2   5  224.63    9.52
   4   2  -4  542.00   19.11
   4   2  -4  447.92   18.25
   4   2  -4  479.25   15.34
  -4  -2   4  470.97   11.87
  -4  -2   4  398.47   17.04
  -4  -2   4  679.77   20.39
  -4  -2   4  479.59   18.07
  -4  -2   4  498.93   12.97
  -4  -2   4  481.76   17.45
   4   2  -4  610.13   14.45
  -4  -2   4  516.03   14.72
  -4  -2   3  295.34   14.03
   4   2  -3  293.64   10.77
   4   2  -3  368.26   12.94
  -4  -2   3  334.17    9.71
  -4  -2   3  331.04   14.30
  -4  -2   3  287.99   14.02
  -4  -2   3  456.58   16.37
  -4  -2   3  343.97   10.20
  -4  -2   3  343.00   14.20
   4   2  -3  383.98    9.28
   4   2  -3  396.54   10.81
  -4  -2   3  376.47   11.79
  -4  -2   2   13.01    2.79
   4   2  -2   13.26    2.14
   4   2  -2   19.29    2.86
  -4  -2   2   10.87    2.48
  -4  -2   2   12.85    2.36
  -4  -2   2   10.84    2.49
  -4  -2   2   11.85    1.78
  -4  -2   2   11.45    2.70
  -4  -2   2   14.43    2.78
   4   2  -2   14.75    2.37
   4   2  -2   15.49    1.84
   4   2  -2   14.90    2.38
   4   2  -2   15.75    1.99
  -4  -2   1   84.99    6.28
   4   2  -1  122.86    5.36
  -4  -2   1   97.05    6.67
   4   2  -1  134.63    6.39
  -4  -2   1   95.31    6.25
  -4  -2   1   93.00    6.32
  -4  -2   1   89.91    6.78
   4   2  -1  105.84    4.55
  -4  -2   1  106.30    5.06
  -4  -2   1  120.76    5.15
   4   2  -1  111.68    4.54
   4   2  -1  110.83    4.62
   4   2  -1  110.80    4.74
  -4  -2   1  107.92    6.72
  -4  -2   1  121.39    5.04
   4   2  -1  108.45    4.77
  -4  -2   1  123.80    5.08
  -4  -2   1  119.85    5.05
  -4  -2   1  114.22    4.87
  -4  -2   1   97.84    7.15
  -4  -2   1  110.12    6.78
   4   2  -1  123.82    5.00
   4   2  -1  127.88    6.40
   4   2  -1  129.34    6.39
   4   2  -1  116.91    4.73
  -4  -2   0  940.50   20.54
  -4  -2   0  911.74   18.94
  -4  -2   0  930.29   21.26
   4   2   0  991.45   14.37
  -4  -2   0 1029.07   22.11
  -4  -2   0 1146.81   16.12
  -4  -2   0 1106.90   15.65
   4   2   0  946.54   13.63
   4   2   0  967.11   14.11
   4   2   0 1007.54   14.66
  -4  -2   0  996.07   15.46
  -4  -2   0 1107.68   15.42
   4   2   0  967.87   14.44
  -4  -2   0 1120.57   15.53
   4   2   0 1052.04   15.72
  -4  -2   0 1107.23   15.51
  -4  -2   0 1113.63   15.33
  -4  -2   0 1071.17   19.55
   4   2   0 1247.77   16.72
   4   2   0 1279.91   20.60
   4   2   0 1396.73   20.66
   4   2   0 1163.79   14.25
  -4  -2  -1  965.87   19.40
  -4  -2  -1 1222.85   19.79
  -4  -2  -1 1185.95   16.00
  -4  -2  -1  985.79   21.50
  -4  -2  -1  948.83   20.41
   4   2   1  867.94   13.71
  -4  -2  -1 1038.28   17.77
  -4  -2  -1 1004.44   20.28
  -4  -2  -1 1054.73   15.08
  -4  -2  -1 1060.47   15.00
   4   2   1  861.30   13.70
  -4  -2  -1 1050.50   17.99
   4   2   1  894.20   14.08
  -4  -2  -1 1086.48   15.11
   4   2   1  856.87   13.92
  -4  -2  -1 1046.50   14.84
   4   2   1  863.23   14.10
  -4  -2  -1 1063.26   15.08
   4   2   1 1241.47   16.72
   4   2   1 1233.38   20.44
   4   2   1 1414.72   20.80
  -4  -2  -2  714.48   14.15
  -4  -2  -2  623.19   13.60
  -4  -2  -2  546.99   15.71
  -4  -2  -2  525.88   14.20
   4   2   2  518.19   10.01
  -4  -2  -2  661.87   12.57
  -4  -2  -2  570.16   10.45
  -4  -2  -2  551.68   10.30
  -4  -2  -2  575.34   10.66
  -4  -2  -2  657.69   13.55
   4   2   2  499.38   10.01
  -4  -2  -2  565.02   10.39
   4   2   2  507.93   10.15
   4   2   2  498.03   10.05
  -4  -2  -2  567.78   10.45
   4   2   2  698.99   12.52
   4   2   2  493.34   10.05
   4   2   2  593.44   14.35
  -4  -2  -3  112.54    5.74
  -4  -2  -3  130.77    5.81
  -4  -2  -3  118.38    5.32
  -4  -2  -3  129.35    5.62
   4   2   3   98.84    4.39
  -4  -2  -3  109.86    6.79
  -4  -2  -3  113.38    6.11
  -4  -2  -3  102.56    4.40
  -4  -2  -3  105.55    4.45
  -4  -2  -3  103.42    4.43
  -4  -2  -3  127.40    5.86
   4   2   3   97.05    4.38
  -4  -2  -3  112.85    4.62
   4   2   3   94.19    4.32
   4   2   3   95.34    4.36
   4   2   3  123.83    5.40
  -4  -2  -3  107.00    4.50
   4   2   3   94.11    4.34
   4   2   3  119.24    2.97
   4   2   3  111.37    6.42
   4   2   3  107.70    5.64
  -4  -2  -4   17.24    2.19
  -4  -2  -4   20.92    2.32
  -4  -2  -4   24.24    2.55
  -4  -2  -4   27.64    2.68
  -4  -2  -4   25.01    2.57
   4   2   4   23.50    2.34
  -4  -2  -4   19.36    2.83
  -4  -2  -4   18.09    2.20
  -4  -2  -4   21.16    2.11
  -4  -2  -4   20.68    2.07
  -4  -2  -4   23.52    2.22
  -4  -2  -4   21.22    2.11
   4   2   4   18.70    2.07
   4   2   4   22.51    2.28
   4   2   4   19.90    2.17
   4   2   4   22.45    2.26
  -4  -2  -4   20.50    2.08
   4   2   4   20.34    2.17
   4   2   4   20.44    1.55
  -4  -2  -4   21.48    2.58
   4   2   4   18.97    2.53
  -4  -2  -5 1164.57   18.86
  -4  -2  -5 1250.22   20.66
  -4  -2  -5 1223.97   20.36
   4   2   5 1269.05   16.82
  -4  -2  -5 1178.35   22.50
   4   2   5 1143.17   15.42
  -4  -2  -5  972.58   16.66
  -4  -2  -5 1172.51   19.11
  -4  -2  -5  989.36   16.72
  -4  -2  -5  967.16   16.63
  -4  -2  -5 1276.32   20.42
  -4  -2  -5  992.13   16.90
   4   2   5  990.99   17.45
   4   2   5  980.82   17.31
   4   2   5 1109.70   16.20
   4   2   5  939.14   17.32
   4   2   5  957.29   17.06
  -4  -2  -5 1007.50   17.11
  -4  -2  -5 1277.67   21.87
   4   2   5  926.13   16.87
   4   2   5 1168.48   25.74
   4   2   5 1188.06   15.17
   4   2   5 1138.29   23.29
   4   2   5 1274.73   22.48
   4   2   5 1215.61   17.41
  -4  -2  -6  254.10    9.17
  -4  -2  -6  275.86   10.11
  -4  -2  -6  262.87    9.76
   4   2   6  262.16    8.16
  -4  -2  -6  263.93   10.33
   4   2   6  255.99    7.73
  -4  -2  -6  220.83    8.19
  -4  -2  -6  245.87    9.20
  -4  -2  -6  215.85    8.11
  -4  -2  -6  214.61    8.12
  -4  -2  -6  279.52    9.65
  -4  -2  -6  214.04    8.10
   4   2   6  231.50    8.81
   4   2   6  221.37    8.55
   4   2   6  247.84    8.04
   4   2   6  209.83    8.31
   4   2   6  219.02    8.43
  -4  -2  -6  227.90    8.46
   4   2   6  212.46    8.33
  -4  -2  -6  278.67   10.48
   4   2   6  251.15   12.15
   4   2   6  259.60    7.62
   4   2   6  278.20   11.93
   4   2   6  243.83    8.14
  -4  -2  -7 1356.29   32.13
  -4  -2  -7 1704.33   40.77
  -4  -2  -7 1138.16   21.79
  -4  -2  -7 1249.62   23.61
  -4  -2  -7 1178.02   22.88
   4   2   7 1145.68   19.55
   4   2   7 1142.93   19.27
  -4  -2  -7 1554.52   30.97
  -4  -2  -7 1154.90   21.76
  -4  -2  -7 1252.80   21.95
   4   2   7 1107.78   19.76
  -4  -2  -8   73.32    6.73
  -4  -2  -8   96.18    8.74
   4   2   8   77.45    5.47
  -4  -2  -8   73.22    5.65
  -4  -2  -8   78.06    5.97
  -4  -2  -8   72.82    5.76
   4   2   8   75.43    5.11
  -4  -2  -8   59.42    5.16
   4   2   8   63.74    4.68
  -4  -2  -8   75.32    5.64
  -4  -2  -8   83.02    5.43
   4   2   8   74.24    5.17
  -4  -2  -9   41.35    5.96
   4   2   9   29.24    3.52
  -4  -2  -9   32.59    3.91
  -4  -2  -9   29.38    3.78
  -4  -2  -9   33.14    4.07
   4   2   9   26.11    3.14
  -4  -2  -9   32.13    3.95
   4   2   9   33.12    3.51
  -4  -2  -9   25.36    3.47
   4   2   9   29.73    3.45
   4   2   9   27.88    3.31
   4   2  10 1206.28   22.35
  -4  -2 -10 1329.57   25.31
  -4  -2 -10 1308.68   24.65
  -4  -2 -10 1452.07   26.77
  -4  -2 -10 1266.58   22.04
  -4  -2 -10 1362.37   25.61
   4   2  10 1218.60   22.42
   4   2  10 1185.47   21.90
   4   2  11   31.00    2.99
  -4  -2 -11   37.13    3.82
  -4  -2 -11   30.32    2.33
  -4  -2 -11   42.26    3.98
   4   2  11   32.62    3.23
   4   2  11   32.24    3.13
  -4  -2 -12   49.23    3.21
  -4  -3   8  167.46    4.84
   4   3  -8  197.11    5.55
   4   3  -7   92.74    5.60
   4   3  -7   89.40    5.64
   4   3  -7   79.08    5.08
   4   3  -7   82.14    5.80
  -4  -3   7   96.79    5.51
   4   3  -7  106.99    4.61
   4   3  -6  184.92    9.77
   4   3  -6  170.20    9.58
   4   3  -6  164.35   10.00
  -4  -3   6  156.81    6.01
  -4  -3   6  189.76    9.47
  -4  -3   6  155.86    8.91
  -4  -3   5   22.08    2.60
   4   3  -5   27.49    4.17
   4   3  -5   27.77    4.35
   4   3  -5   24.75    4.21
  -4  -3   5   33.82    4.60
  -4  -3   5   28.01    4.37
  -4  -3   5   25.01    2.81
  -4  -3   5   21.73    3.77
   4   3  -5   34.31    3.43
  -4  -3   4  757.69   17.68
   4   3  -4  814.65   23.04
   4   3  -4  690.52   22.15
   4   3  -4  650.66   16.97
  -4  -3   4  711.61   22.19
  -4  -3   4  730.92   15.72
  -4  -3   4  722.86   22.79
  -4  -3   4  737.37   16.15
  -4  -3   4  785.87   23.19
  -4  -3   4  758.30   13.51
  -4  -3   3   71.71    5.14
  -4  -3   3   52.86    6.29
   4   3  -3   62.13    6.32
   4   3  -3   68.17    5.32
  -4  -3   3   67.70    6.58
  -4  -3   3   64.26    4.63
  -4  -3   3   86.17    7.52
  -4  -3   3   68.38    4.71
  -4  -3   3   72.35    6.90
  -4  -3   3   72.78    3.91
   4   3  -3   84.10    4.75
   4   3  -2  117.08    6.86
  -4  -3   2   94.48    7.12
  -4  -3   2  101.98    5.70
  -4  -3   2   80.68    7.35
  -4  -3   2  111.33    8.24
  -4  -3   2   94.80    7.35
  -4  -3   2   98.74    5.33
  -4  -3   2  128.98    6.98
   4   3  -2  115.50    5.37
   4   3  -2  116.24    5.55
  -4  -3   1  129.17    8.26
   4   3  -1  153.97    6.60
  -4  -3   1  133.78    7.56
  -4  -3   1  126.92    7.98
  -4  -3   1  129.02    8.53
  -4  -3   1  126.86    8.60
  -4  -3   1  149.65    6.73
  -4  -3   1  146.80    8.25
  -4  -3   1  150.15    8.53
   4   3  -1  179.08    7.84
   4   3  -1  185.75    7.98
   4   3  -1  166.62    5.67
  -4  -3   0 1320.77   24.96
  -4  -3   0 1245.58   25.86
  -4  -3   0 1171.34   25.68
  -4  -3   0 1397.43   23.56
  -4  -3   0 1413.00   21.16
  -4  -3   0 1347.51   24.37
   4   3   0 1663.63   24.60
   4   3   0 1516.46   16.29
   4   3   0 1607.62   20.86
  -4  -3  -1 1323.26   25.31
  -4  -3  -1 1653.59   25.85
  -4  -3  -1 1614.96   30.43
  -4  -3  -1 1483.91   27.56
  -4  -3  -1 1501.96   26.14
  -4  -3  -1 1583.81   23.63
  -4  -3  -1 1595.11   22.26
   4   3   1 1894.17   22.81
   4   3   1 2119.01   25.87
  -4  -3  -2    1.75    0.93
  -4  -3  -2    4.26    1.21
  -4  -3  -2    3.11    0.81
  -4  -3  -2    1.84    0.83
  -4  -3  -2    2.04    1.12
  -4  -3  -2    2.04    1.01
  -4  -3  -2    2.88    0.89
   4   3   2    3.94    1.23
   4   3   2    3.26    0.97
  -4  -3  -2    5.67    1.33
  -4  -3  -3   81.62    5.17
  -4  -3  -3  104.19    4.86
  -4  -3  -3   96.76    6.98
  -4  -3  -3   82.39    5.40
   4   3   3  107.18    5.17
   4   3   3   95.92    3.14
   4   3   3   91.70    5.89
  -4  -3  -3   99.52    5.55
   4   3   3  100.38    5.40
  -4  -3  -4  110.04    5.61
  -4  -3  -4  130.35    6.25
  -4  -3  -4  118.03    5.63
  -4  -3  -4  127.44    7.82
  -4  -3  -4  127.92    6.31
  -4  -3  -4  127.47    6.66
   4   3   4  124.09    4.17
   4   3   4  111.81    7.43
   4   3   4  113.56    6.71
   4   3   4  113.79    5.90
  -4  -3  -5 1197.92   20.73
  -4  -3  -5 1129.35   19.77
  -4  -3  -5 1285.33   20.18
  -4  -3  -5 1098.63   23.17
  -4  -3  -5 1219.84   22.38
  -4  -3  -5 1141.05   19.76
  -4  -3  -5 1230.56   20.76
   4   3   5 1169.79   15.89
   4   3   5 1115.19   25.41
   4   3   5 1138.24   22.93
   4   3   5 1217.89   17.33
  -4  -3  -6  342.35   14.17
   4   3   6  352.41    9.52
  -4  -3  -6  369.11   11.62
  -4  -3  -6  363.21   11.81
  -4  -3  -6  361.22   11.99
   4   3   6  336.38    9.15
  -4  -3  -6  369.37   11.08
  -4  -3  -6  340.88   12.14
  -4  -3  -6  343.56   10.93
  -4  -3  -6  378.11   11.23
   4   3   6  356.48    9.25
   4   3   6  374.32   13.47
   4   3   6  338.75    9.62
  -4  -3  -7    8.09    2.46
  -4  -3  -7    1.06    1.80
  -4  -3  -7    2.86    1.24
  -4  -3  -7    0.42    0.63
  -4  -3  -7    1.51    1.18
   4   3   7    0.70    0.58
  -4  -3  -7    0.39    0.61
  -4  -3  -7    2.23    1.28
  -4  -3  -7    2.77    1.47
  -4  -3  -7    0.42    0.66
   4   3   7    2.83    1.02
  -4  -3  -7    1.30    0.76
   4   3   7    0.32    0.65
   4   3   7    5.90    1.41
  -4  -3  -8   36.96    5.54
  -4  -3  -8   30.65    3.76
  -4  -3  -8   30.99    3.93
   4   3   8   30.64    3.21
  -4  -3  -8   28.38    3.41
  -4  -3  -8   37.98    4.42
   4   3   8   33.97    3.43
  -4  -3  -8   31.74    3.71
   4   3   8   29.09    3.19
   4   3   9   85.90    5.85
  -4  -3  -9   90.61    6.72
  -4  -3  -9   95.27    6.93
  -4  -3  -9   95.05    6.49
   4   3   9   83.81    5.33
  -4  -3  -9   94.40    6.38
   4   3   9   80.37    5.45
  -4  -3  -9   99.88    6.77
   4   3   9   81.14    5.59
   4   3  10  793.09   17.74
  -4  -3 -10  951.91   20.51
  -4  -3 -10  934.96   20.93
  -4  -3 -10  970.72   22.31
  -4  -3 -10  951.23   20.46
   4   3  10  802.82   16.75
  -4  -3 -10  955.26   20.42
  -4  -3 -10  846.63   17.49
   4   3  10  786.14   17.47
   4   3  10  828.16   17.53
   4   3  11   10.71    1.81
  -4  -3 -11   12.12    2.11
  -4  -3 -11   15.55    2.63
   4   3  11   14.05    1.94
  -4  -3 -11   10.99    2.01
  -4  -3 -11   10.70    1.41
   4   3  11    9.14    1.69
   4   3  11    9.23    1.65
   4   3  11    9.94    1.73
  -4  -3 -12    3.28    0.90
  -4  -4   7    4.84    1.11
   4   4  -7    5.73    0.88
   4   4  -6   78.15    5.87
   4   4  -6   68.18    5.16
  -4  -4   6   78.06    5.51
  -4  -4   6   67.74    3.77
   4   4  -5   95.11    7.40
   4   4  -5   91.19    6.90
   4   4  -5   73.34    6.04
  -4  -4   5   98.78    7.39
   4   4  -4  345.40   14.24
   4   4  -4  279.34   12.83
  -4  -4   4  389.32   15.99
  -4  -4   4  325.37   10.50
  -4  -4   4  315.93   14.36
  -4  -4   4  362.50    8.89
  -4  -4   3    3.51    1.19
   4   4  -3    0.16    0.67
  -4  -4   3    1.01    1.25
  -4  -4   3    1.08    1.18
  -4  -4   3    0.92    0.69
  -4  -4   3    0.70    1.19
   4   4  -2    1.74    1.19
  -4  -4   2    3.71    1.36
  -4  -4   2    0.51    1.26
  -4  -4   2    1.42    1.20
  -4  -4   2    5.22    1.33
  -4  -4   2    2.90    0.82
  -4  -4   1  123.38    8.29
  -4  -4   1  166.46    7.66
  -4  -4   1  139.91   10.06
  -4  -4   1  141.92    9.42
  -4  -4   1  138.72    8.60
   4   4  -1  165.93    6.98
  -4  -4   0 1096.17   23.92
  -4  -4   0 1067.67   25.47
   4   4   0 1406.76   23.24
   4   4   0 1540.25   23.16
   4   4   0 1365.09   20.69
  -4  -4  -1  710.91   17.00
  -4  -4  -1  665.62   19.79
   4   4   1  586.10   14.49
   4   4   1  821.29   17.28
   4   4   1  840.22   15.33
   4   4   1  950.51   17.04
  -4  -4  -2   17.78    3.18
   4   4   2   16.64    2.12
   4   4   2   14.63    2.39
   4   4   2   12.02    2.09
   4   4   2   18.51    2.27
  -4  -4  -3  382.60    9.50
  -4  -4  -3  332.78   13.49
   4   4   3  388.92   10.52
   4   4   3  374.84    7.50
   4   4   3  327.47   12.09
   4   4   3  327.09   11.20
   4   4   3  370.23   10.40
  -4  -4  -4   69.11    5.28
  -4  -4  -4   73.13    4.40
  -4  -4  -4   65.06    5.82
   4   4   4   58.42    4.52
   4   4   4   69.43    3.48
   4   4   4   61.70    5.55
   4   4   4   65.64    5.09
  -4  -4  -5 1566.49   31.42
  -4  -4  -5 1473.16   28.29
  -4  -4  -5 1241.41   25.12
  -4  -4  -5 1664.64   34.45
  -4  -4  -5 1764.83   35.84
  -4  -4  -5 1370.17   21.95
   4   4   5 1575.50   19.81
   4   4   5 1521.40   29.98
  -4  -4  -6    1.18    1.14
  -4  -4  -6    2.71    1.22
  -4  -4  -6    0.50    0.53
  -4  -4  -6    1.29    0.88
  -4  -4  -6    2.03    1.35
  -4  -4  -6    0.72    0.75
  -4  -4  -6    2.35    1.56
  -4  -4  -6    2.14    1.20
  -4  -4  -6    5.47    1.48
   4   4   6    1.73    0.69
  -4  -4  -7   13.89    3.28
  -4  -4  -7   11.64    2.26
  -4  -4  -7    8.46    2.01
  -4  -4  -7   12.44    2.50
  -4  -4  -7    9.84    2.65
   4   4   7   14.03    1.92
  -4  -4  -7   12.96    2.17
  -4  -4  -7   10.59    2.35
  -4  -4  -7   12.71    2.93
   4   4   7    7.99    1.64
  -4  -4  -7   10.34    2.08
   4   4   7    9.46    1.69
  -4  -4  -8  292.52   11.70
  -4  -4  -8  304.43   12.00
  -4  -4  -8  306.41   12.62
   4   4   8  263.33    8.91
  -4  -4  -8  308.53   10.91
  -4  -4  -8  254.31   11.21
  -4  -4  -8  338.59   14.06
   4   4   8  261.28    9.64
  -4  -4  -8  304.80   11.53
   4   4   8  251.26    9.12
  -4  -4  -9   25.02    3.33
  -4  -4  -9   18.22    3.04
  -4  -4  -9   25.27    3.64
   4   4   9   15.97    2.28
  -4  -4  -9   17.67    2.93
  -4  -4  -9   19.94    2.95
   4   4   9   17.52    2.55
  -4  -4  -9   18.27    2.82
   4   4   9   15.20    2.38
   4   4   9   16.90    2.43
   4   4  10  338.07   10.92
   4   4  10  342.93    9.81
  -4  -4 -10  352.75   12.26
  -4  -4 -10  346.21   10.59
   4   4  10  334.92   10.70
   4   4  10  325.06   10.04
   4   4  11   56.32    3.85
  -4  -4 -11   72.59    4.97
   4   4  11   52.90    3.30
  -4  -4 -11   58.76    3.00
  -4  -4 -11   66.13    4.56
   4   4  11   54.92    3.83
   4   4  11   50.91    3.51
  -4  -4 -12   96.36    4.13
   4   5  -6  286.70    9.51
  -4  -5   6  281.98    8.92
   4   5  -5    4.47    1.65
   4   5  -5    2.28    1.01
  -4  -5   5    5.49    1.70
  -4  -5   5    4.63    1.20
   4   5  -5    2.79    1.22
   4   5  -5    4.14    1.06
   4   5  -4  433.49   14.38
   4   5  -4  412.63   15.28
  -4  -5   4  456.39   12.52
   4   5  -3   82.99    6.57
   4   5  -3   74.62    6.68
  -4  -5   3  103.86    9.06
  -4  -5   3   83.82    7.58
  -4  -5   3   86.07    5.85
  -4  -5   3   89.33    4.29
  -4  -5   2  172.79    8.21
  -4  -5   2  169.00   12.02
  -4  -5   2  151.66   10.30
  -4  -5   2  153.05    8.09
  -4  -5   2  149.65    5.60
  -4  -5   1  639.12   15.89
  -4  -5   1  641.08   24.08
  -4  -5   1  525.64   19.22
  -4  -5   1  587.86   16.25
  -4  -5   1  568.35   11.12
  -4  -5   0  198.17   11.84
  -4  -5   0  211.64   13.40
  -4  -5   0  179.15   10.80
  -4  -5   0  196.09    9.21
   4   5   0  196.40    7.95
  -4  -5  -1  892.18   25.90
  -4  -5  -1  938.82   18.18
   4   5   1  858.45   16.68
  -4  -5  -1  870.94   19.44
  -4  -5  -2   56.37    4.80
  -4  -5  -2   67.63    7.34
  -4  -5  -2   64.20    4.39
  -4  -5  -2   58.71    4.72
  -4  -5  -2   58.00    5.88
   4   5   2   66.03    4.45
  -4  -5  -3  596.81   16.43
  -4  -5  -3  744.46   23.80
  -4  -5  -3  662.09   16.81
  -4  -5  -3  691.54   14.64
  -4  -5  -3  774.48   24.63
  -4  -5  -3  604.49   18.74
   4   5   3  557.63   16.25
  -4  -5  -4  452.52   18.82
  -4  -5  -4  360.11    9.92
  -4  -5  -4  385.56   11.58
  -4  -5  -4  326.91   12.63
  -4  -5  -4  426.64   17.80
  -4  -5  -4  366.16   14.46
   4   5   4  386.95   11.02
  -4  -5  -5  685.23   15.45
  -4  -5  -5  846.35   26.21
  -4  -5  -5  737.80   21.08
  -4  -5  -5  610.93   17.94
  -4  -5  -5  779.19   24.18
  -4  -5  -6  350.47   13.62
  -4  -5  -6  359.05   12.76
  -4  -5  -6  394.44   16.96
  -4  -5  -6  455.06   19.53
  -4  -5  -6  418.94   16.21
  -4  -5  -7   65.39    5.37
  -4  -5  -7   66.10    5.68
  -4  -5  -7   64.11    5.73
   4   5   7   57.50    3.86
  -4  -5  -8  825.29   20.37
  -4  -5  -8  781.45   19.85
   4   5   8  777.85   16.85
   4   5   9  231.64    7.62
  -4  -5  -9  237.82   10.81
   4   5   9  233.39    8.83
   4   5   9  217.94    7.96
   4   5  10   77.69    4.94
   4   5  10   66.69    3.70
  -4  -5 -10   72.25    5.34
  -4  -5 -10   78.02    4.69
   4   5  10   70.07    4.50
   4   5  10   67.30    4.07
   4   5  11    0.65    0.52
  -4  -5 -11    0.69    0.65
  -4  -5 -11    0.43    0.55
   4   5  11    0.33    0.40
   4   5  11    0.80    0.54
  -4  -5 -12  123.62    3.90
  -4  -6   5   10.32    1.81
  -4  -6   5   10.16    1.45
   4   6  -5    8.88    0.97
  -4  -6   4  311.79   12.02
  -4  -6   4  316.21    9.87
  -4  -6   3    5.34    1.84
  -4  -6   3    4.00    1.36
   4   6  -2  174.45    8.74
  -4  -6   2  193.67   11.21
  -4  -6   2  201.62    9.32
  -4  -6   1  715.06   16.22
  -4  -6   1  704.18   23.29
  -4  -6   1  572.88   20.06
  -4  -6   1  625.74   17.44
  -4  -6   1  622.01   11.58
  -4  -6   0   99.55    7.93
  -4  -6   0  124.04    6.69
  -4  -6   0  120.14    5.49
  -4  -6   0  119.16    9.86
  -4  -6   0   94.63    8.14
  -4  -6   0  110.07    4.65
  -4  -6   0  110.59    7.28
  -4  -6  -1  302.03   12.08
  -4  -6  -1  341.60   16.85
  -4  -6  -1  350.67   11.23
  -4  -6  -1  320.43    9.61
  -4  -6  -1  349.29   11.33
  -4  -6  -1  335.22   15.69
  -4  -6  -2    1.69    0.87
  -4  -6  -2    0.12    0.65
  -4  -6  -2    0.98    1.28
  -4  -6  -2    0.70    0.87
  -4  -6  -2    2.29    1.24
  -4  -6  -3  389.96   11.15
  -4  -6  -3  396.15   17.42
  -4  -6  -3  390.91   11.90
  -4  -6  -3  359.38   15.29
  -4  -6  -4   69.05    4.16
  -4  -6  -4   71.73    4.58
  -4  -6  -4   63.97    5.82
  -4  -6  -4   66.98    7.30
  -4  -6  -4   82.99    8.37
  -4  -6  -4   72.92    6.96
  -4  -6  -5  395.00   11.37
  -4  -6  -5  431.82   14.05
  -4  -6  -5  373.08   14.34
  -4  -6  -5  456.37   18.74
  -4  -6  -5  502.17   20.65
  -4  -6  -5  449.61   17.42
  -4  -6  -6   31.97    3.51
  -4  -6  -6   43.81    4.59
  -4  -6  -6   34.41    4.30
  -4  -6  -6   53.27    6.81
  -4  -6  -6   51.00    5.97
  -4  -6  -6   42.39    5.71
  -4  -6  -7    9.12    2.26
  -4  -6  -7   14.99    3.59
  -4  -6  -7   13.74    3.70
  -4  -6  -7   12.37    2.56
  -4  -6  -8 1189.18   23.45
  -4  -6  -8 1158.60   24.52
  -4  -6  -8 1080.25   22.53
   4   6   8 1048.96   19.19
  -4  -6  -9    0.77    0.85
  -4  -6  -9    1.78    1.07
   4   6   9    1.62    0.87
   4   6   9    0.28    0.53
   4   6   9    0.59    0.44
   4   6  10   28.83    2.76
  -4  -6 -10   37.68    3.68
  -4  -6 -10   36.67    3.54
  -4  -6 -10   37.29    2.96
   4   6  10   31.22    2.68
   4   6  10   30.11    2.65
  -4  -6 -11   22.93    2.21
  -4  -7   4   81.16    4.14
   4   7  -3    1.24    0.82
  -4  -7   3    0.88    0.72
  -4  -7   2   45.54    3.74
  -4  -7   2   35.54    4.37
  -4  -7   2   35.61    3.71
  -4  -7   1  793.85   19.21
  -4  -7   1  728.06   21.45
  -4  -7   0    1.56    0.98
  -4  -7   0    2.05    1.29
  -4  -7   0    1.78    1.24
  -4  -7  -1   14.32    2.78
  -4  -7  -1   15.68    2.36
  -4  -7  -1   15.08    2.17
  -4  -7  -1   15.68    2.41
  -4  -7  -1   16.60    3.27
  -4  -7  -1   13.41    3.21
  -4  -7  -1   19.70    3.73
  -4  -7  -2    2.53    1.23
  -4  -7  -2    1.28    0.91
  -4  -7  -2    3.73    1.75
  -4  -7  -2    4.05    1.98
  -4  -7  -2    5.15    2.01
  -4  -7  -2    2.74    1.41
  -4  -7  -3  310.48   10.25
  -4  -7  -3  299.96   14.30
  -4  -7  -4  328.83   13.51
  -4  -7  -4  354.00   10.54
  -4  -7  -4  369.06   12.71
  -4  -7  -4  390.21   17.48
  -4  -7  -4  416.04   18.49
  -4  -7  -4  348.87   15.53
  -4  -7  -5   28.69    4.74
  -4  -7  -5   34.99    4.33
  -4  -7  -5   30.31    3.80
  -4  -7  -5   36.48    5.57
  -4  -7  -5   29.33    4.62
  -4  -7  -6    2.77    0.99
  -4  -7  -6    2.82    1.34
  -4  -7  -6    2.01    1.15
  -4  -7  -6    2.43    1.71
  -4  -7  -6    6.95    2.73
  -4  -7  -7  436.07   12.42
  -4  -7  -7  434.65   14.51
  -4  -7  -8  593.33   14.75
  -4  -7  -8  608.01   15.54
  -4  -7  -8  645.76   16.66
  -4  -7  -9    0.81    0.74
  -4  -7  -9    1.11    0.89
   4   7   9    0.94    0.60
   4   7   9    0.81    0.59
  -4  -7 -10  215.06    7.76
  -4  -7 -10  203.57    7.08
  -4  -7 -10  193.08    5.46
  -4  -8   2  311.34    9.33
  -4  -8   1  569.36   12.42
  -4  -8   1  450.69   12.67
  -4  -8   0   13.51    2.38
  -4  -8   0   13.68    2.10
  -4  -8   0   11.42    2.52
  -4  -8  -1   65.09    5.47
  -4  -8  -1   73.88    4.86
  -4  -8  -1   69.56    4.34
  -4  -8  -1   62.45    5.86
  -4  -8  -2    3.48    1.19
  -4  -8  -2    3.25    1.15
  -4  -8  -2    5.59    1.60
  -4  -8  -2    2.94    1.52
  -4  -8  -3  846.38   17.05
  -4  -8  -3  881.21   23.38
  -4  -8  -4    5.87    1.69
  -4  -8  -4    3.16    1.39
  -4  -8  -4    8.10    2.50
  -4  -8  -5   49.33    4.95
  -4  -8  -5   51.30    5.89
  -4  -8  -5   47.64    4.57
  -4  -8  -5   61.38    6.22
  -4  -8  -6  323.37   11.89
  -4  -8  -6  274.99   11.26
  -4  -8  -7   91.58    6.00
  -4  -8  -7   76.46    5.48
  -4  -8  -8  483.76   12.89
  -4  -8  -8  448.27   11.56
  -4  -8  -9  138.55    5.82
  -4  -8 -10   38.09    2.19
  -4  -9   0    0.94    0.71
  -4  -9  -1   88.12    4.56
  -4  -9  -2  427.41   10.59
  -4  -9  -3  675.17   17.73
  -4  -9  -4  111.88    5.93
  -4  -9  -4  118.18    6.52
  -4  -9  -5   38.57    3.57
  -4  -9  -5   38.00    3.75
  -4  -9  -6  513.87   12.83
  -4  -9  -6  457.09   12.27
  -4  -9  -7  229.73    7.88
  -4  -9  -7  225.19    7.68
  -4  -9  -8  598.76   11.16
  -4  -9  -8  624.40   10.85
  -4 -10  -5   45.49    2.72
  -4 -10  -6  957.39   12.36
  -5   8   2    1.53    0.57
   5  -8  -2    1.87    0.61
   5  -8  -2    1.33    0.69
   5  -8  -1   55.97    3.93
  -5   8   1   53.51    3.21
   5  -8   0   63.04    4.35
  -5   8   0   60.41    3.49
  -5   8  -1  100.40    4.52
   5  -8   1   83.60    4.66
  -5   8  -2   12.16    1.48
   5  -8   2   12.37    1.71
   5  -8   2   11.94    1.78
   5  -8   3  272.72    7.70
   5  -8   3  255.15    7.33
   5  -8   4   38.83    2.47
   5  -8   4   40.35    2.36
   5  -7  -4    6.44    1.28
  -5   7   4    5.00    1.06
   5  -7  -3    2.05    0.95
   5  -7  -3    0.86    0.81
   5  -7  -3    0.74    0.75
  -5   7   3    1.06    0.63
   5  -7  -3    0.81    0.80
  -5   7   3    0.93    0.60
  -5   7   3    1.07    0.73
   5  -7  -2  158.41    7.80
  -5   7   2  181.33    6.89
   5  -7  -2  171.03    8.58
  -5   7   2  177.06    6.92
  -5   7   2  165.80    6.46
  -5   7   2  178.25    6.57
   5  -7  -2  157.02    6.68
  -5   7   2  169.81    7.39
  -5   7   1  344.28   10.29
   5  -7  -1  310.28   12.47
   5  -7  -1  290.90   10.21
  -5   7   1  325.61    9.69
  -5   7   1  269.53    8.20
   5  -7  -1  297.91   10.19
  -5   7   1  320.03    9.18
  -5   7   1  322.00    8.90
   5  -7  -1  261.50    8.73
  -5   7   0  130.67    5.05
  -5   7   0  128.80    6.64
   5  -7   0  127.20    8.21
  -5   7   0  131.82    5.80
   5  -7   0  107.86    6.15
  -5   7   0  133.99    6.26
  -5   7   0   93.70    4.43
   5  -7   0  113.19    6.58
  -5   7   0  106.63    6.25
  -5   7   0  133.80    5.81
   5  -7   0  108.05    5.84
  -5   7  -1   70.24    3.98
   5  -7   1   71.17    6.07
  -5   7  -1   70.11    4.98
  -5   7  -1   76.23    4.79
   5  -7   1   66.18    5.09
  -5   7  -1   69.69    4.23
   5  -7   1   52.02    3.99
  -5   7  -1   50.36    4.24
   5  -7   1   55.26    5.19
   5  -7   1   55.55    4.34
   5  -7   2    2.88    1.46
  -5   7  -2    3.30    1.24
  -5   7  -2    3.77    0.93
  -5   7  -2    3.17    1.09
   5  -7   2    2.76    1.12
  -5   7  -2    3.63    1.07
   5  -7   2    3.35    1.53
  -5   7  -2    4.77    1.15
  -5   7  -2    1.98    0.92
   5  -7   2    3.41    1.15
  -5   7  -3  793.51   13.82
   5  -7   3  651.85   12.02
  -5   7  -3  690.74   14.56
  -5   7  -3  774.48   13.22
  -5   7  -3  769.27   14.38
  -5   7  -3  718.19   12.06
   5  -7   3  666.84   15.73
   5  -7   3  633.30   18.20
   5  -7   3  630.85   13.96
   5  -7   3  565.78   15.75
   5  -7   3  660.13   12.89
  -5   7  -4  510.23   10.41
  -5   7  -4  323.79    8.57
  -5   7  -4  478.74    9.83
  -5   7  -4  467.15   10.21
   5  -7   4  395.97   13.19
   5  -7   4  396.03   11.86
   5  -7   4  427.70    9.68
   5  -7   5  846.49   17.12
   5  -7   5  900.60   16.12
  -5   6   5    3.12    0.92
   5  -6  -5    3.11    1.04
  -5   6   5    3.48    0.99
   5  -6  -5    3.30    0.86
   5  -6  -4  136.49    7.65
   5  -6  -4  136.90    7.03
   5  -6  -4  130.90    7.22
   5  -6  -4  136.25    7.41
  -5   6   4  138.93    6.46
  -5   6   4  153.97    6.57
  -5   6   4  123.37    5.26
  -5   6   4  131.89    5.89
  -5   6   4  147.71    6.74
   5  -6  -4  132.53    6.01
   5  -6  -3   91.72    6.99
   5  -6  -3  102.12    7.22
  -5   6   3  108.92    5.40
   5  -6  -3   94.42    6.27
   5  -6  -3  102.96    7.26
   5  -6  -3   96.12    5.20
  -5   6   3  107.88    6.08
  -5   6   3  107.72    6.03
  -5   6   3  100.97    5.22
  -5   6   3  103.63    5.50
  -5   6   3  110.32    6.37
   5  -6  -3  107.13    5.97
  -5   6   3  101.13    4.91
   5  -6  -2  148.38    9.32
   5  -6  -2  156.10    9.04
  -5   6   2  178.42    7.80
  -5   6   2  156.90    6.87
   5  -6  -2  152.42    8.39
   5  -6  -2  161.31    9.70
  -5   6   2  170.07    7.83
  -5   6   2  172.26    7.99
   5  -6  -2  143.58    7.45
  -5   6   2  161.10    7.09
  -5   6   2  179.72    8.94
   5  -6  -2  155.61    7.67
  -5   6   2  167.16    6.52
  -5   6   1  224.42    7.31
  -5   6   1  257.89    9.11
   5  -6  -1  206.13   11.15
   5  -6  -1  218.43   10.79
  -5   6   1  271.24   10.16
   5  -6  -1  216.70    9.93
   5  -6  -1  239.44   12.47
  -5   6   1  238.23    9.45
  -5   6   1  231.40    9.42
   5  -6  -1  206.39    9.52
  -5   6   1  231.43    8.49
  -5   6   1  226.86   10.46
   5  -6  -1  217.53   11.05
   5  -6  -1  208.57    8.81
  -5   6   0   78.78    4.63
   5  -6   0   66.37    6.18
   5  -6   0   74.10    6.33
  -5   6   0   83.30    6.00
   5  -6   0   70.99    5.69
   5  -6   0   77.61    7.37
  -5   6   0   77.13    5.46
  -5   6   0   78.31    4.53
  -5   6   0   79.27    5.37
  -5   6   0   68.73    4.45
   5  -6   0   72.95    5.85
  -5   6   0   78.20    5.00
  -5   6   0   78.83    4.90
  -5   6   0   77.38    6.28
   5  -6   0   69.77    5.24
  -5   6  -1  181.66    7.27
   5  -6   1  160.83    6.26
   5  -6   1  168.44    9.46
   5  -6   1  151.75    8.66
  -5   6  -1  204.56    9.62
   5  -6   1  162.09   10.61
   5  -6   1  183.68    8.75
  -5   6  -1  195.14    7.53
  -5   6  -1  184.90    8.17
  -5   6  -1  159.85    7.53
  -5   6  -1  193.12    7.73
   5  -6   1  158.67    8.76
  -5   6  -1  184.38    7.60
   5  -6   1  161.81   10.99
   5  -6   1  173.85    8.39
   5  -6   1  158.30    7.26
  -5   6  -2   26.44    2.84
   5  -6   2   23.75    2.51
   5  -6   2   22.37    3.25
  -5   6  -2   27.32    3.66
   5  -6   2   23.35    3.13
  -5   6  -2   25.55    2.82
  -5   6  -2   24.62    2.99
  -5   6  -2   27.66    2.96
   5  -6   2   21.80    3.29
  -5   6  -2   22.45    2.67
  -5   6  -2   19.25    3.15
  -5   6  -2   24.02    2.63
   5  -6   2   20.57    4.03
   5  -6   2   19.65    2.88
   5  -6   2   24.34    2.80
  -5   6  -3   16.20    2.28
   5  -6   3   12.90    1.94
   5  -6   3   10.80    3.07
   5  -6   3   13.90    2.99
  -5   6  -3   14.82    2.65
  -5   6  -3   16.02    2.37
  -5   6  -3   15.21    2.24
   5  -6   3   13.80    2.65
  -5   6  -3   14.85    2.10
  -5   6  -3    9.83    2.21
   5  -6   3   13.88    2.39
   5  -6   3   13.16    2.11
  -5   6  -4  411.86   10.92
   5  -6   4  359.24   10.08
  -5   6  -4  340.14   11.54
   5  -6   4  371.00   10.93
  -5   6  -4  397.15   10.96
  -5   6  -4  387.20   10.87
  -5   6  -4  412.84   11.20
   5  -6   4  339.35   12.03
  -5   6  -4  227.93    9.71
  -5   6  -4  357.19    8.36
   5  -6   4  357.30    9.88
   5  -6   4  290.34   13.93
   5  -6   4  355.35   11.08
   5  -6   4  350.18   10.36
   5  -6   4  294.09   12.17
  -5   6  -5  100.10    5.15
   5  -6   5   94.50    4.99
  -5   6  -5   73.23    4.76
  -5   6  -5   99.03    5.21
   5  -6   5   94.31    4.96
  -5   6  -5   91.08    4.18
   5  -6   5   77.80    6.43
   5  -6   5   93.53    4.80
   5  -6   5   75.09    5.62
   5  -6   5   93.24    4.99
  -5   6  -6   44.73    3.11
   5  -6   6   37.81    3.00
  -5   6  -6   43.55    3.22
   5  -6   6   39.37    2.98
  -5   6  -6   35.62    2.68
  -5   6  -6   42.50    3.19
  -5   6  -6   37.78    2.56
   5  -6   6   37.86    2.86
   5  -6   6   42.13    3.08
   5  -6   7   11.52    1.56
   5  -6   7   13.55    1.68
   5  -5  -6  136.67    5.78
  -5   5   6  139.92    5.00
  -5   5   6  133.50    4.90
   5  -5  -6  129.83    4.84
   5  -5  -5   72.33    4.64
   5  -5  -5   73.93    5.67
   5  -5  -5   77.22    5.53
  -5   5   5   72.97    4.87
  -5   5   5   83.40    4.78
  -5   5   5   70.43    4.14
  -5   5   5   73.44    4.56
  -5   5   5   87.67    5.09
   5  -5  -5   80.09    4.71
  -5   5   5   74.31    4.17
   5  -5  -4    5.25    1.79
   5  -5  -4    3.65    1.53
   5  -5  -4    1.39    1.05
   5  -5  -4    1.12    1.02
  -5   5   4    1.61    0.91
  -5   5   4    1.97    1.08
  -5   5   4    2.35    1.03
   5  -5  -4    2.59    1.27
  -5   5   4    1.94    1.14
   5  -5  -4    1.40    0.93
   5  -5  -3  395.23   15.82
   5  -5  -3  390.29   14.84
  -5   5   3  415.67   11.31
   5  -5  -3  373.67   13.36
   5  -5  -3  381.37   14.84
  -5   5   3  367.41   11.92
   5  -5  -3  350.88   10.86
  -5   5   3  421.52   13.07
  -5   5   3  377.78   11.09
  -5   5   3  399.56   11.70
  -5   5   3  462.47   14.57
   5  -5  -3  378.31   12.38
  -5   5   2  252.50    8.10
  -5   5   2  281.90   11.11
   5  -5  -2  264.59   13.36
   5  -5  -2  266.44   12.57
   5  -5  -2  266.01   11.51
   5  -5  -2  262.05   12.23
   5  -5  -2  267.82   13.57
  -5   5   2  268.53   10.10
   5  -5  -2  256.09   10.31
  -5   5   2  260.80    9.34
  -5   5   2  279.04    9.76
  -5   5   2  309.37   12.49
  -5   5   2  275.99    9.02
   5  -5  -2  268.11   10.95
   5  -5  -2  246.25    9.43
   5  -5  -2  249.33   12.04
  -5   5   1  268.47    8.85
   5  -5  -1  249.15   12.68
   5  -5  -1  248.46   12.02
  -5   5   1  277.39   10.89
   5  -5  -1  254.14   11.19
   5  -5  -1  242.99   11.55
   5  -5  -1  234.05   12.90
  -5   5   1  249.62    8.79
  -5   5   1  256.85    9.85
  -5   5   1  237.08    8.97
  -5   5   1  263.11   11.27
  -5   5   1  251.77    9.26
  -5   5   1  264.13    9.44
  -5   5   1  261.42   11.96
   5  -5  -1  246.18   10.61
  -5   5   1  268.86    8.72
   5  -5  -1  253.59   13.43
  -5   5   0   17.63    2.35
   5  -5   0   19.74    3.65
  -5   5   0   16.00    2.51
   5  -5   0   21.00    3.48
  -5   5   0   18.17    3.00
   5  -5   0   16.49    2.92
   5  -5   0   14.39    2.75
   5  -5   0   13.44    3.38
  -5   5   0   17.35    2.42
  -5   5   0   19.89    2.75
  -5   5   0   18.14    2.58
   5  -5   0   16.23    2.85
  -5   5   0   19.54    3.07
  -5   5   0   16.36    2.44
  -5   5   0   16.95    3.19
  -5   5   0   16.41    2.09
   5  -5   0   16.76    2.70
   5  -5   0   17.25    2.47
  -5   5  -1  840.37   16.81
   5  -5   1  821.76   15.12
   5  -5   1  798.02   22.35
  -5   5  -1  956.67   18.70
   5  -5   1  819.34   21.43
  -5   5  -1  917.14   22.18
   5  -5   1  814.55   19.28
  -5   5  -1  900.00   17.83
  -5   5  -1  882.48   18.46
  -5   5  -1  919.18   18.64
  -5   5  -1  826.37   20.03
   5  -5   1  783.56   19.92
  -5   5  -1  852.74   17.23
  -5   5  -1  836.27   16.44
  -5   5  -1  789.74   21.78
   5  -5   1  801.81   19.04
   5  -5   1  736.86   25.96
   5  -5   1  825.22   17.25
  -5   5  -2    7.15    1.75
   5  -5   2    8.68    1.65
  -5   5  -2    9.81    1.96
   5  -5   2    7.98    2.95
   5  -5   2    7.47    2.08
   5  -5   2    9.80    2.21
  -5   5  -2    8.31    2.16
  -5   5  -2    6.43    1.65
   5  -5   2    7.69    2.11
  -5   5  -2    5.81    1.68
  -5   5  -2    8.04    1.62
   5  -5   2    5.71    2.21
   5  -5   2    8.05    1.69
   5  -5   2    7.44    1.89
   5  -5   2    7.52    1.75
  -5   5  -3 1892.04   27.12
   5  -5   3 1786.38   25.45
   5  -5   3 1797.46   29.62
   5  -5   3 1646.81   34.07
  -5   5  -3 2030.27   34.22
   5  -5   3 1958.57   29.29
  -5   5  -3 1928.15   27.89
   5  -5   3 1852.95   26.61
  -5   5  -3 1936.98   27.44
  -5   5  -3 1993.20   29.10
   5  -5   3 1908.13   32.15
  -5   5  -3 1873.40   25.60
  -5   5  -3 1831.48   23.49
  -5   5  -3 1455.43   30.66
  -5   5  -3 1818.86   24.14
   5  -5   3 1633.52   24.43
   5  -5   3 1787.20   28.30
   5  -5   3 1389.84   36.46
   5  -5   3 1818.43   27.18
  -5   5  -4    3.97    1.35
   5  -5   4    1.98    1.66
   5  -5   4    2.79    1.11
   5  -5   4    3.12    1.27
   5  -5   4    2.98    1.18
  -5   5  -4    1.78    1.00
  -5   5  -4    2.86    1.21
  -5   5  -4    3.09    1.26
   5  -5   4    6.40    1.82
  -5   5  -4    3.52    1.11
   5  -5   4    1.98    1.43
  -5   5  -4    2.55    0.93
  -5   5  -4    4.03    1.63
   5  -5   4    3.75    1.39
   5  -5   4    3.04    1.22
  -5   5  -5    0.17    0.62
   5  -5   5    2.63    1.58
   5  -5   5    1.02    0.77
  -5   5  -5    0.25    0.69
   5  -5   5    0.17    0.65
  -5   5  -5    1.65    0.97
  -5   5  -5    1.94    1.05
  -5   5  -5    0.45    0.56
  -5   5  -5    2.30    1.27
   5  -5   5    0.32    0.73
   5  -5   5    0.10    0.66
   5  -5   5    0.14    0.93
   5  -5   5    1.46    0.90
  -5   5  -6   46.51    3.70
   5  -5   6   45.94    3.78
  -5   5  -6   32.77    3.40
   5  -5   6   46.46    3.77
  -5   5  -6   45.81    3.86
   5  -5   6   44.06    3.61
  -5   5  -6   41.83    3.33
  -5   5  -6   45.11    3.96
   5  -5   6   35.39    3.67
  -5   5  -6   28.47    3.37
   5  -5   6   41.86    3.47
   5  -5   6   40.58    4.18
   5  -5   6   43.77    3.68
  -5   5  -7  107.38    4.98
   5  -5   7   89.43    4.92
  -5   5  -7   97.45    5.10
   5  -5   7   87.88    4.69
  -5   5  -7   96.27    5.30
  -5   5  -7   92.16    4.69
   5  -5   7   71.33    5.06
   5  -5   7   90.21    4.73
   5  -5   7   85.67    5.21
   5  -5   7   92.69    4.88
   5  -5   8  575.55   11.35
  -5   5  -8  608.35   11.35
   5  -5   8  536.68   10.65
  -5   5  -8  596.54   11.72
  -5   5  -8  591.68   10.89
   5  -5   8  548.86   10.65
   5  -5   8  556.07   10.81
   5  -4  -7   14.82    1.35
   5  -4  -6  576.73   15.77
   5  -4  -6  586.48   15.42
   5  -4  -6  585.44   14.15
  -5   4   6  567.91   13.36
  -5   4   6  522.09   12.19
   5  -4  -6  607.27   12.31
  -5   4   6  508.76   11.07
   5  -4  -5    4.66    1.63
   5  -4  -5    4.24    1.40
   5  -4  -5    3.19    1.07
   5  -4  -5    2.63    1.37
   5  -4  -5    2.49    1.33
  -5   4   5    2.68    1.26
  -5   4   5    2.99    1.13
  -5   4   5    3.49    1.25
  -5   4   5    2.68    1.08
   5  -4  -5    2.45    1.26
  -5   4   5    2.87    1.08
  -5   4   5    2.82    1.03
   5  -4  -5    3.06    1.15
   5  -4  -4    1.75    1.37
   5  -4  -4    1.63    1.12
   5  -4  -4    2.52    1.49
  -5   4   4    5.11    1.67
  -5   4   4    2.84    1.08
  -5   4   4    3.30    1.29
  -5   4   4    4.07    1.36
   5  -4  -4    2.70    1.60
  -5   4   4    3.11    1.39
  -5   4   4    2.20    0.98
   5  -4  -4    3.21    1.27
   5  -4  -3  418.00   16.71
  -5   4   3  375.84   13.16
   5  -4  -3  371.01   14.80
  -5   4   3  431.55   11.60
  -5   4   3  386.96   11.89
   5  -4  -3  412.08   16.44
   5  -4  -3  393.17   14.08
   5  -4  -3  413.47   16.08
  -5   4   3  376.61   12.43
   5  -4  -3  392.48   15.61
  -5   4   3  430.37   13.92
  -5   4   3  389.06   12.07
  -5   4   3  455.14   14.62
   5  -4  -3  390.47   12.96
  -5   4   2  354.52   10.35
   5  -4  -2  362.59   15.56
  -5   4   2  366.55   12.73
   5  -4  -2  352.90   14.48
  -5   4   2  397.79   12.11
   5  -4  -2  358.87   14.97
   5  -4  -2  347.14   13.03
   5  -4  -2  370.95   14.90
  -5   4   2  329.75   10.46
  -5   4   2  361.68   11.81
   5  -4  -2  348.22   15.17
  -5   4   2  306.50   10.64
   5  -4  -2  343.39   11.74
  -5   4   2  355.57   11.35
  -5   4   2  395.40   13.57
  -5   4   2  355.42   11.26
  -5   4   2  423.50   14.56
  -5   4   2  361.41   10.76
   5  -4  -2  348.74   12.43
   5  -4  -2  346.50   10.98
  -5   4   2  346.76    9.44
   5  -4  -2  349.55   15.42
  -5   4   1 2865.62   33.28
   5  -4  -1 2514.11   42.73
  -5   4   1 2972.53   38.60
   5  -4  -1 2585.30   40.73
   5  -4  -1 2568.47   37.75
   5  -4  -1 2577.58   40.28
  -5   4   1 2801.19   34.11
   5  -4  -1 2634.12   45.16
  -5   4   1 2748.37   35.04
  -5   4   1 2664.69   34.81
   5  -4  -1 2642.22   37.00
  -5   4   1 2873.02   35.00
  -5   4   1 2841.58   39.91
  -5   4   1 2756.35   33.32
  -5   4   1 2961.72   43.46
  -5   4   1 2745.30   31.70
   5  -4  -1 2772.75   37.85
   5  -4  -1 2624.68   34.88
  -5   4   1 2598.14   28.94
   5  -4  -1 2790.33   47.95
   5  -4   0  862.46   22.54
  -5   4   0 1064.33   21.52
   5  -4   0  882.43   21.67
  -5   4   0 1005.84   21.80
   5  -4   0  938.74   22.63
   5  -4   0  887.53   20.22
  -5   4   0  931.12   17.90
   5  -4   0  839.33   20.52
  -5   4   0  904.61   18.40
   5  -4   0  810.65   19.47
  -5   4   0  914.16   18.13
  -5   4   0  970.10   24.06
  -5   4   0  972.48   16.62
   5  -4   0  860.96   19.85
  -5   4   0  913.91   15.01
   5  -4   0  845.60   27.03
   5  -4   0  849.58   17.24
  -5   4  -1   17.00    2.39
   5  -4   1   17.02    2.06
   5  -4   1   20.76    3.46
  -5   4  -1   21.90    2.96
   5  -4   1   19.09    3.18
  -5   4  -1   26.81    3.73
   5  -4   1   19.08    3.01
   5  -4   1   20.30    2.98
  -5   4  -1   15.73    2.83
   5  -4   1   17.46    3.62
  -5   4  -1   16.05    2.41
  -5   4  -1   17.46    2.60
   5  -4   1   14.49    2.66
  -5   4  -1   17.95    2.50
  -5   4  -1   14.62    2.11
  -5   4  -1   18.13    3.42
   5  -4   1   16.35    2.14
   5  -4   1   19.37    2.75
   5  -4   1   16.70    4.01
  -5   4  -2 1256.22   21.58
   5  -4   2 1276.15   19.96
   5  -4   2 1291.49   26.74
   5  -4   2 1341.11   25.59
  -5   4  -2 1519.24   29.01
   5  -4   2 1373.06   24.82
   5  -4   2 1430.77   25.25
   5  -4   2 1092.86   28.23
   5  -4   2 1344.30   21.87
  -5   4  -2 1330.57   22.33
  -5   4  -2 1320.31   21.95
  -5   4  -2 1218.26   25.28
  -5   4  -2 1381.78   23.99
   5  -4   2 1304.85   25.43
  -5   4  -2 1290.41   19.21
  -5   4  -2 1302.43   19.87
  -5   4  -2 1254.63   29.26
   5  -4   2 1258.36   20.19
   5  -4   2 1323.37   23.58
   5  -4   2 1120.65   32.76
   5  -4   2 1337.16   22.26
  -5   4  -3  291.62   10.10
   5  -4   3  311.56    9.82
   5  -4   3  309.95   12.26
  -5   4  -3  359.71   14.22
   5  -4   3  262.64   13.00
   5  -4   3  322.02   11.40
  -5   4  -3  315.37   10.61
  -5   4  -3  261.28   11.20
  -5   4  -3  320.57   11.27
   5  -4   3  319.83   11.81
  -5   4  -3  326.44    9.88
  -5   4  -3  308.54    9.34
  -5   4  -3  297.15    8.72
  -5   4  -3  259.62   13.40
   5  -4   3  304.98    9.68
   5  -4   3  315.27   10.90
   5  -4   3  239.27   15.10
   5  -4   3  314.90   10.48
  -5   4  -4  265.99    9.70
   5  -4   4  258.46   10.55
   5  -4   4  290.34   10.76
   5  -4   4  227.07   11.40
  -5   4  -4  307.34   13.61
   5  -4   4  288.91   10.45
  -5   4  -4  274.67   10.32
   5  -4   4  272.75    9.70
  -5   4  -4  271.27    9.43
  -5   4  -4  297.47   10.92
   5  -4   4  284.19   11.30
  -5   4  -4  301.23    9.15
  -5   4  -4  270.03    9.11
  -5   4  -4  269.89    7.95
   5  -4   4  304.01   10.72
   5  -4   4  214.71   13.69
   5  -4   4  274.47    9.86
  -5   4  -5  109.14    6.22
   5  -4   5  111.50    6.24
   5  -4   5  115.04    6.49
  -5   4  -5  118.18    8.20
   5  -4   5  110.90    6.46
  -5   4  -5  113.70    6.44
   5  -4   5  110.58    6.19
  -5   4  -5  108.50    5.78
  -5   4  -5  119.40    6.91
   5  -4   5  117.04    7.11
  -5   4  -5   84.13    7.29
   5  -4   5  110.92    5.93
   5  -4   5  121.76    6.82
   5  -4   5  110.32    6.23
  -5   4  -6  212.54    8.38
  -5   4  -6  156.47    9.05
   5  -4   6  212.60    8.69
  -5   4  -6  175.61    9.31
  -5   4  -6  211.99    8.80
   5  -4   6  194.08    8.07
  -5   4  -6  180.03    7.11
  -5   4  -6  210.49    8.99
   5  -4   6  199.33    9.03
  -5   4  -6  152.27    9.33
  -5   4  -6  205.70    8.31
   5  -4   6  195.98    8.00
   5  -4   6  148.62    9.84
   5  -4   6  227.95    9.20
   5  -4   6  204.33    8.33
   5  -4   6  152.88    8.56
  -5   4  -7    1.45    0.90
   5  -4   7    2.30    1.16
   5  -4   7    0.18    0.67
   5  -4   7    0.75    0.73
  -5   4  -7   -0.09    0.61
   5  -4   7    3.65    1.11
  -5   4  -7    1.02    0.84
   5  -4   7    1.08    0.56
  -5   4  -7    0.57    0.69
   5  -4   7    0.08    0.60
   5  -4   7    2.61    1.11
   5  -4   7    0.75    0.72
   5  -4   8  235.96    8.48
  -5   4  -8  230.42    8.02
   5  -4   8  216.88    7.59
  -5   4  -8  234.57    8.42
  -5   4  -8  219.27    7.84
   5  -4   8  222.79    7.76
   5  -4   8  238.89    7.96
   5  -4   8  221.31    7.83
   5  -4   9   78.27    4.13
   5  -4   9   69.19    3.74
  -5   4  -9   78.94    4.20
  -5   4  -9   71.35    3.90
   5  -4   9   71.94    3.81
   5  -4   9   68.95    3.74
   5  -3  -7   61.51    3.79
   5  -3  -7   62.91    3.30
   5  -3  -6  200.92    9.75
   5  -3  -6  208.37   10.06
  -5   3   6  194.66    8.36
   5  -3  -6  205.93    8.86
  -5   3   6  170.23    6.86
  -5   3   6  166.71    7.23
  -5   3   6  190.84    7.35
   5  -3  -6  201.54    7.53
   5  -3  -5    3.84    1.44
   5  -3  -5    3.55    1.30
   5  -3  -5    4.39    1.76
   5  -3  -5    3.98    1.71
   5  -3  -5    2.90    1.45
  -5   3   5    2.75    1.27
  -5   3   5    3.35    1.24
  -5   3   5    2.90    1.19
   5  -3  -5    3.74    1.52
  -5   3   5    4.61    1.34
  -5   3   5    3.87    1.25
   5  -3  -5    3.08    1.22
   5  -3  -4   35.71    4.57
  -5   3   4   34.54    4.31
   5  -3  -4   39.17    4.48
   5  -3  -4   40.14    5.27
   5  -3  -4   36.77    3.97
   5  -3  -4   40.99    5.23
   5  -3  -4   41.22    5.37
  -5   3   4   35.15    4.05
   5  -3  -4   33.85    4.37
  -5   3   4   37.40    3.87
  -5   3   4   37.17    3.87
  -5   3   4   39.04    3.88
  -5   3   4   33.58    3.48
   5  -3  -4   39.85    4.03
  -5   3   3   37.46    3.52
   5  -3  -3   42.42    5.15
  -5   3   3   43.08    4.84
   5  -3  -3   38.63    5.05
   5  -3  -3   43.06    4.55
   5  -3  -3   46.88    5.63
  -5   3   3   38.62    4.11
   5  -3  -3   38.35    4.90
  -5   3   3   42.75    4.40
  -5   3   3   38.48    3.99
  -5   3   3   37.88    3.82
  -5   3   3   42.65    4.51
   5  -3  -3   49.10    4.50
  -5   3   3   39.73    3.19
   5  -3  -3   40.69    4.90
  -5   3   2  688.04   15.16
   5  -3  -2  761.52   21.82
  -5   3   2  790.93   20.25
   5  -3  -2  724.69   19.74
  -5   3   2  786.75   17.13
   5  -3  -2  745.80   21.51
  -5   3   2  712.38   16.90
  -5   3   2  686.39   15.84
  -5   3   2  780.82   17.97
   5  -3  -2  744.09   21.55
  -5   3   2  787.57   19.72
  -5   3   2  734.87   16.31
  -5   3   2  827.89   20.66
  -5   3   2  731.61   15.68
   5  -3  -2  693.13   16.05
   5  -3  -2  678.64   16.87
   5  -3  -2  672.33   14.71
  -5   3   2  701.01   13.48
   5  -3  -2  821.16   23.46
  -5   3   1  341.01   10.41
   5  -3  -1  331.16   13.68
  -5   3   1  405.14   13.79
   5  -3  -1  348.44   13.23
  -5   3   1  369.18   12.13
   5  -3  -1  367.91   14.11
   5  -3  -1  334.64   12.16
   5  -3  -1  356.97   13.80
  -5   3   1  365.42   11.35
  -5   3   1  362.43   11.56
   5  -3  -1  327.57   14.40
  -5   3   1  330.80   11.29
   5  -3  -1  334.47   11.26
  -5   3   1  344.05   11.10
  -5   3   1  366.68   13.39
  -5   3   1  392.86   14.38
  -5   3   1  349.59   10.20
   5  -3  -1  330.46   11.46
   5  -3  -1  322.65   10.34
  -5   3   0  940.10   17.54
   5  -3   0  939.56   22.08
  -5   3   0 1091.83   21.46
   5  -3   0  940.04   20.91
   5  -3   0 1039.78   23.16
   5  -3   0  994.81   20.51
   5  -3   0  965.82   21.98
  -5   3   0  852.82   17.25
  -5   3   0 1005.07   18.73
   5  -3   0  875.56   23.61
   5  -3   0  916.41   19.26
  -5   3   0  997.49   19.58
  -5   3   0 1052.61   23.63
  -5   3   0  955.33   18.16
  -5   3   0  961.82   17.41
  -5   3   0 1026.67   24.22
  -5   3   0  979.14   16.45
   5  -3   0  940.62   18.39
   5  -3   0  900.68   16.76
   5  -3   0  985.30   28.12
  -5   3  -1  216.20    8.04
   5  -3   1  225.48   10.41
   5  -3   1  214.84    9.96
  -5   3  -1  252.34   10.92
   5  -3   1  247.75   10.58
   5  -3   1  232.32    9.54
   5  -3   1  224.55    9.53
  -5   3  -1  217.11    8.40
   5  -3   1  190.53   10.79
   5  -3   1  211.97    8.99
  -5   3  -1  218.28    8.79
  -5   3  -1  225.11    8.46
  -5   3  -1  215.20    7.14
  -5   3  -1  220.61    7.63
  -5   3  -1  237.88   12.12
   5  -3   1  210.71    6.94
   5  -3   1  213.64   13.25
   5  -3   1  223.89    8.08
  -5   3  -2  323.15   10.18
   5  -3   2  348.47    9.33
   5  -3   2  369.10   12.65
   5  -3   2  369.74   12.45
  -5   3  -2  394.56   14.22
   5  -3   2  413.82   13.23
   5  -3   2  362.47   11.74
   5  -3   2  352.75   10.13
   5  -3   2  283.74   13.07
  -5   3  -2  336.65   10.63
  -5   3  -2  304.72    9.50
   5  -3   2  333.14   11.17
  -5   3  -2  347.40   11.20
  -5   3  -2  342.56   13.50
  -5   3  -2  337.65   10.08
  -5   3  -2  336.12    9.37
  -5   3  -2  338.50    9.08
  -5   3  -2  352.70   15.12
   5  -3   2  339.13    9.27
   5  -3   2  356.36   11.06
   5  -3   2  296.77   15.97
  -5   3  -3    3.56    1.22
   5  -3   3    4.82    1.21
   5  -3   3    5.21    2.25
   5  -3   3    3.78    1.39
   5  -3   3    4.68    1.44
  -5   3  -3    9.16    2.38
   5  -3   3    3.92    1.29
   5  -3   3    6.20    1.64
   5  -3   3    3.95    1.18
  -5   3  -3    4.02    1.28
  -5   3  -3    4.11    1.13
  -5   3  -3    3.77    1.32
  -5   3  -3    7.16    1.48
   5  -3   3    3.12    1.27
  -5   3  -3    3.26    1.40
  -5   3  -3    4.03    1.10
   5  -3   3    4.27    1.70
  -5   3  -3    3.17    0.92
  -5   3  -3    5.97    2.15
   5  -3   3    5.31    1.27
   5  -3   3    4.87    1.35
   5  -3   3    5.32    1.40
  -5   3  -4  242.54    9.05
   5  -3   4  239.47    8.67
   5  -3   4  257.75   10.20
  -5   3  -4  275.00   13.00
   5  -3   4  267.33    9.87
  -5   3  -4  251.01    9.48
   5  -3   4  240.38    8.86
  -5   3  -4  226.42    8.02
  -5   3  -4  194.35    9.82
   5  -3   4  268.47   10.52
  -5   3  -4  251.96    9.92
  -5   3  -4  269.86    8.42
  -5   3  -4  202.82   12.06
   5  -3   4  248.87    8.59
   5  -3   4  254.32    9.64
   5  -3   4  177.76   12.26
   5  -3   4  247.04    9.11
  -5   3  -5   63.38    4.64
   5  -3   5   62.33    4.56
   5  -3   5   60.81    4.66
   5  -3   5   71.50    5.15
  -5   3  -5   62.05    3.92
   5  -3   5   61.63    4.84
  -5   3  -5   58.08    4.63
  -5   3  -5   60.75    4.12
   5  -3   5   68.03    5.34
  -5   3  -5   61.67    4.83
  -5   3  -5   64.52    4.71
  -5   3  -5   59.62    6.54
   5  -3   5   58.48    4.59
   5  -3   5   48.66    6.07
   5  -3   5   52.05    4.28
  -5   3  -6  567.46   20.15
   5  -3   6  663.35   15.81
  -5   3  -6  586.65   18.87
   5  -3   6  734.08   16.50
  -5   3  -6  638.18   13.50
   5  -3   6  640.78   15.89
  -5   3  -6  655.73   15.67
   5  -3   6  616.86   14.97
  -5   3  -6  586.43   12.90
  -5   3  -6  651.14   16.63
   5  -3   6  657.91   16.85
  -5   3  -6  726.60   15.85
  -5   3  -6  636.00   15.43
   5  -3   6  628.61   14.65
   5  -3   6  660.28   15.94
   5  -3   6  494.75   18.19
   5  -3   6  639.57   15.29
   5  -3   6  476.46   15.21
  -5   3  -7   78.04    5.02
  -5   3  -7   65.89    6.26
   5  -3   7   76.00    5.30
  -5   3  -7   58.54    5.41
  -5   3  -7   68.10    4.32
   5  -3   7   71.83    5.10
  -5   3  -7   72.84    5.04
   5  -3   7   65.48    4.71
   5  -3   7   76.31    5.38
  -5   3  -7   72.54    4.84
  -5   3  -7   64.65    6.30
   5  -3   7   63.38    3.80
  -5   3  -7   73.29    5.18
   5  -3   7   65.74    4.70
   5  -3   7   59.04    5.42
   5  -3   7   75.62    5.21
   5  -3   7   70.77    4.94
   5  -3   7   55.76    4.72
  -5   3  -8  132.42    7.80
   5  -3   8  141.23    7.05
  -5   3  -8  132.72    5.79
  -5   3  -8  145.33    6.72
   5  -3   8  133.94    6.43
  -5   3  -8  144.10    7.19
  -5   3  -8  146.07    6.52
   5  -3   8  121.81    5.10
  -5   3  -8  133.83    6.76
   5  -3   8  128.76    6.39
   5  -3   8  140.00    6.74
   5  -3   9   18.49    2.34
  -5   3  -9   15.88    1.84
   5  -3   9   15.37    2.03
  -5   3  -9   19.76    2.37
  -5   3  -9   19.61    2.14
   5  -3   9   13.43    1.52
  -5   3  -9   17.28    2.26
   5  -3   9   16.18    2.09
   5  -3   9   16.44    2.12
   5  -3  10  191.73    6.01
   5  -2  -7   13.55    2.19
  -5   2   7   12.58    1.93
   5  -2  -7   11.03    1.81
  -5   2   7   10.46    1.66
   5  -2  -7   11.96    1.57
  -5   2   7   11.31    1.61
   5  -2  -6   16.58    2.97
  -5   2   6   15.45    2.59
   5  -2  -6   14.61    2.51
  -5   2   6   13.74    2.14
  -5   2   6   15.87    1.86
  -5   2   6   14.43    2.34
  -5   2   6   13.22    2.04
   5  -2  -6   14.14    2.07
   5  -2  -5   13.90    2.48
   5  -2  -5   19.28    3.45
   5  -2  -5   15.23    3.32
   5  -2  -5   15.34    3.29
  -5   2   5   13.42    2.67
  -5   2   5   16.47    2.34
   5  -2  -5   12.82    2.63
  -5   2   5   15.79    2.18
  -5   2   5   13.35    2.49
  -5   2   5   12.08    2.21
   5  -2  -5   14.11    2.29
   5  -2  -4  927.91   22.88
  -5   2   4  858.25   22.78
   5  -2  -4  831.77   20.06
   5  -2  -4 1031.64   23.72
   5  -2  -4  899.85   24.95
   5  -2  -4  923.17   22.90
   5  -2  -4  788.76   17.77
   5  -2  -4 1022.31   27.85
   5  -2  -4  931.95   25.88
  -5   2   4  843.18   20.60
  -5   2   4  900.93   19.52
  -5   2   4  806.11   19.19
  -5   2   4  862.75   19.80
  -5   2   4 1001.24   19.91
  -5   2   4  853.71   18.38
   5  -2  -4  904.41   19.03
  -5   2   3  439.61   12.89
   5  -2  -3  489.79   15.39
   5  -2  -3  582.21   17.38
   5  -2  -3  528.26   18.78
   5  -2  -3  508.32   14.66
   5  -2  -3  544.65   18.99
  -5   2   3  502.44   15.10
  -5   2   3  535.17   15.44
   5  -2  -3  555.11   17.58
  -5   2   3  517.57   14.69
  -5   2   3  591.43   16.03
  -5   2   3  490.20   14.35
   5  -2  -3  502.37   13.87
  -5   2   3  482.47   11.50
  -5   2   2 1215.01   21.74
   5  -2  -2 1218.35   26.12
   5  -2  -2 1088.30   23.36
   5  -2  -2 1395.63   26.05
  -5   2   2 1247.96   20.54
   5  -2  -2 1301.07   28.29
   5  -2  -2 1148.40   22.05
   5  -2  -2 1322.57   28.20
  -5   2   2 1011.05   20.16
  -5   2   2 1193.58   22.53
  -5   2   2  968.94   20.33
  -5   2   2 1316.79   25.23
  -5   2   2 1178.53   22.04
   5  -2  -2 1289.75   27.16
  -5   2   2 1386.98   25.82
  -5   2   2 1227.65   21.22
   5  -2  -2 1108.06   20.63
   5  -2  -1    6.69    1.86
  -5   2   1    4.76    1.48
   5  -2  -1    3.86    1.44
   5  -2  -1    6.85    1.71
  -5   2   1    4.00    1.29
   5  -2  -1    3.75    1.59
   5  -2  -1    4.60    1.71
  -5   2   1    4.33    1.36
  -5   2   1    2.91    1.12
   5  -2  -1    6.44    1.51
  -5   2   1    3.71    1.26
  -5   2   1    3.93    1.54
  -5   2   1    5.95    1.48
   5  -2  -1    4.59    1.14
  -5   2   1    4.42    1.24
  -5   2   1    4.08    1.38
  -5   2   0   65.66    4.45
   5  -2   0   72.08    5.62
  -5   2   0   79.42    5.55
   5  -2   0   76.80    5.62
  -5   2   0   79.11    5.63
   5  -2   0   89.51    6.48
   5  -2   0   88.03    6.23
  -5   2   0   68.41    4.76
  -5   2   0   75.66    4.98
   5  -2   0   73.70    4.78
   5  -2   0   63.49    5.78
  -5   2   0   68.23    4.86
  -5   2   0   76.88    6.21
  -5   2   0   65.92    3.91
  -5   2   0   72.66    4.45
  -5   2   0   79.94    6.43
  -5   2   0   79.58    4.50
   5  -2   0   73.29    4.57
   5  -2   0   71.60    4.08
  -5   2  -1  622.14   13.73
   5  -2   1  690.03   17.15
  -5   2  -1  689.84   16.34
   5  -2   1  674.76   16.15
   5  -2   1  777.54   18.72
   5  -2   1  636.50   14.87
   5  -2   1  752.65   17.74
  -5   2  -1  618.09   14.19
  -5   2  -1  605.72   13.19
  -5   2  -1  615.94   14.43
  -5   2  -1  708.00   19.05
  -5   2  -1  606.47   14.07
  -5   2  -1  569.27   12.14
  -5   2  -1  637.58   13.08
  -5   2  -1  664.28   19.66
   5  -2   1  616.69   13.50
   5  -2   1  620.03   18.48
   5  -2   1  610.29   12.58
  -5   2  -2  278.95    9.26
  -5   2  -2  259.99    7.05
   5  -2   2  281.63    7.66
   5  -2   2  305.52   10.91
   5  -2   2  310.90   10.61
  -5   2  -2  342.85   13.07
   5  -2   2  290.49    9.87
   5  -2   2  276.35    8.20
  -5   2  -2  262.53    9.05
  -5   2  -2  257.09    8.11
   5  -2   2  286.53    9.66
  -5   2  -2  268.39    9.30
  -5   2  -2  300.24    9.37
  -5   2  -2  258.98    8.13
  -5   2  -2  289.25    7.99
  -5   2  -2  298.62   13.62
   5  -2   2  268.05    7.45
   5  -2   2  249.03   12.22
   5  -2   2  280.70    8.62
   5  -2   2  272.04   14.27
  -5   2  -3  273.00    9.00
   5  -2   3  255.24    7.92
   5  -2   3  271.95    9.77
  -5   2  -3  314.72   13.07
  -5   2  -3  276.65    8.09
   5  -2   3  269.65    9.51
   5  -2   3  255.13    8.27
  -5   2  -3  241.79    8.65
  -5   2  -3  243.61    7.71
  -5   2  -3  219.23   10.92
   5  -2   3  288.59    9.76
  -5   2  -3  247.77    9.06
  -5   2  -3  283.82    8.78
  -5   2  -3  240.71   12.73
   5  -2   3  251.22    7.65
   5  -2   3  266.84    8.92
   5  -2   3  208.82   12.63
   5  -2   3  260.41    8.60
  -5   2  -4   15.72    2.22
   5  -2   4   15.63    2.09
   5  -2   4   14.60    2.33
  -5   2  -4    9.79    2.76
   5  -2   4   10.27    2.88
   5  -2   4   18.45    2.61
  -5   2  -4   13.68    2.96
  -5   2  -4   12.92    1.82
   5  -2   4   13.45    2.17
   5  -2   4   13.44    2.00
  -5   2  -4    9.36    1.84
  -5   2  -4   10.64    1.61
  -5   2  -4   11.02    2.42
   5  -2   4   18.46    2.54
  -5   2  -4   12.47    2.15
  -5   2  -4   14.55    1.95
  -5   2  -4   10.99    1.87
  -5   2  -4   10.42    2.80
   5  -2   4   12.51    1.83
   5  -2   4   15.00    2.20
  -5   2  -5   26.45    4.48
   5  -2   5   27.92    3.16
   5  -2   5   26.05    3.07
  -5   2  -5   27.10    4.22
  -5   2  -5   31.14    2.97
   5  -2   5   25.11    3.01
  -5   2  -5   25.83    2.99
   5  -2   5   26.43    2.94
  -5   2  -5   21.64    3.34
  -5   2  -5   20.23    2.22
   5  -2   5   27.23    3.19
  -5   2  -5   26.60    3.10
  -5   2  -5   29.35    3.25
  -5   2  -5   23.28    2.79
  -5   2  -5   21.24    3.92
   5  -2   5   23.86    2.62
   5  -2   5   24.41    2.95
   5  -2   5   24.61    4.23
   5  -2   5   26.42    2.95
  -5   2  -6  743.18   16.08
  -5   2  -6  632.32   22.41
  -5   2  -6  746.22   23.90
   5  -2   6  693.02   15.78
   5  -2   6  767.33   16.38
  -5   2  -6  613.76   20.01
   5  -2   6  752.62   16.72
  -5   2  -6  665.59   14.56
   5  -2   6  686.33   16.21
  -5   2  -6  693.86   15.83
  -5   2  -6  598.90   12.17
   5  -2   6  771.87   17.34
  -5   2  -6  696.03   16.65
  -5   2  -6  761.43   17.10
  -5   2  -6  680.10   15.94
  -5   2  -6  593.10   21.19
   5  -2   6  698.93   16.11
   5  -2   6  519.80   18.26
   5  -2   6  661.83   15.51
  -5   2  -7   20.93    2.67
  -5   2  -7   16.65    3.61
   5  -2   7   17.04    2.57
  -5   2  -7   13.56    2.87
   5  -2   7   18.95    2.63
  -5   2  -7   13.94    2.19
   5  -2   7   14.67    2.43
  -5   2  -7   19.52    2.68
  -5   2  -7   20.51    3.12
  -5   2  -7   20.15    2.81
  -5   2  -7   17.85    2.64
   5  -2   7   15.65    1.96
  -5   2  -7   17.18    3.53
  -5   2  -7   17.91    2.65
   5  -2   7   19.50    2.61
   5  -2   7   14.63    2.72
   5  -2   7   16.03    2.51
   5  -2   7   16.30    2.44
  -5   2  -8  190.76   10.93
   5  -2   8  196.81    8.61
  -5   2  -8  172.04    9.03
  -5   2  -8  195.92    8.05
   5  -2   8  188.39    8.33
   5  -2   8  190.11    8.04
  -5   2  -8  217.57    8.51
  -5   2  -8  221.59    9.94
   5  -2   8  200.36    8.35
  -5   2  -8  209.41    8.74
   5  -2   8  171.02    6.50
  -5   2  -8  193.69    8.53
   5  -2   8  191.49    8.09
   5  -2   8  201.76    8.48
   5  -2   8  187.47    8.08
  -5   2  -9  150.85    8.69
   5  -2   9  143.19    6.97
  -5   2  -9  137.75    6.28
   5  -2   9  138.98    6.46
  -5   2  -9  151.99    7.74
  -5   2  -9  141.77    6.76
  -5   2  -9  146.15    6.90
   5  -2   9  119.13    5.14
  -5   2  -9  142.57    6.92
   5  -2   9  131.38    6.32
   5  -2   9  140.39    6.56
   5  -2  10  182.57    6.89
  -5   2 -10  180.64    6.43
   5  -2  10  166.42    6.32
  -5   2 -10  183.02    6.74
   5  -2  10  176.20    6.53
   5  -2  10  163.48    6.47
   5  -1  -7  101.70    6.33
   5  -1  -7   92.81    5.44
  -5   1   7   82.19    4.93
   5  -1  -7   96.20    5.22
  -5   1   7   92.86    3.91
  -5   1   7   85.17    4.79
  -5   1   7   88.42    4.64
   5  -1  -7   94.60    4.26
   5  -1  -6  672.21   17.47
   5  -1  -6  776.37   21.67
   5  -1  -6  728.59   19.60
  -5   1   6  649.61   16.85
  -5   1   6  579.85   14.68
   5  -1  -6  800.31   18.45
  -5   1   6  751.77   14.73
  -5   1   6  658.74   16.37
  -5   1   6  632.49   15.16
   5  -1  -6  712.73   14.47
   5  -1  -5  276.54   14.17
   5  -1  -5  254.72   12.55
  -5   1   5  236.12   11.06
   5  -1  -5  277.92   12.68
  -5   1   5  277.79    9.97
   5  -1  -5  291.30   12.05
  -5   1   5  235.22   10.54
  -5   1   5  245.45   10.01
   5  -1  -5  269.95    9.60
   5  -1  -4  273.07   11.16
  -5   1   4  268.30   12.97
   5  -1  -4  286.46   13.10
   5  -1  -4  283.55   13.38
   5  -1  -4  307.49   15.41
   5  -1  -4  300.11   13.97
  -5   1   4  286.54   12.22
  -5   1   4  299.82   11.15
  -5   1   4  261.73   11.44
  -5   1   4  329.35   11.24
   5  -1  -4  335.48   13.53
  -5   1   4  273.84   11.58
  -5   1   4  255.20   10.41
   5  -1  -4  279.98   10.05
  -5   1   3 1342.06   24.97
   5  -1  -3 1624.51   29.38
  -5   1   3 1586.96   31.81
   5  -1  -3 1492.58   25.90
   5  -1  -3 1827.93   33.45
   5  -1  -3 1537.22   31.29
   5  -1  -3 1374.01   23.24
   5  -1  -3 1735.59   33.40
  -5   1   3 1547.08   28.56
  -5   1   3 1658.84   28.23
  -5   1   3 1499.96   28.22
  -5   1   3 1909.06   27.93
   5  -1  -3 1847.47   32.30
  -5   1   3 1626.58   28.17
  -5   1   3 1766.32   27.18
   5  -1  -3 1603.10   24.67
  -5   1   3 1470.97   21.61
  -5   1   2    2.95    1.13
  -5   1   2    0.29    0.76
   5  -1  -2    4.39    1.42
   5  -1  -2    0.18    0.50
   5  -1  -2   -0.14    0.79
   5  -1  -2    0.15    0.87
  -5   1   2    0.42    0.77
  -5   1   2    1.59    1.11
  -5   1   2    1.10    0.85
  -5   1   2    1.37    0.96
  -5   1   1    2.61    1.14
   5  -1  -1    2.38    1.10
  -5   1   1    2.69    1.30
   5  -1  -1    2.29    0.97
   5  -1  -1    2.47    0.99
   5  -1  -1    3.40    1.42
   5  -1  -1    3.93    1.52
  -5   1   1    2.77    1.16
  -5   1   1    2.86    1.15
  -5   1   1    1.67    0.89
  -5   1   1    1.84    1.17
  -5   1   1    1.91    1.10
  -5   1   1    3.39    1.14
   5  -1  -1    2.20    1.15
  -5   1   1    4.87    1.54
  -5   1   1    3.76    1.22
  -5   1   0  100.00    5.68
   5  -1   0  123.32    6.77
  -5   1   0  107.17    6.38
   5  -1   0  135.37    7.81
   5  -1   0  105.10    5.51
  -5   1   0  104.75    5.83
  -5   1   0  104.30    5.63
   5  -1   0  109.82    6.96
  -5   1   0  104.46    6.18
   5  -1   0  108.26    5.26
  -5   1   0  104.25    5.89
  -5   1   0  117.69    7.55
  -5   1   0   97.90    6.42
  -5   1   0   94.76    6.28
   5  -1   0  104.57    6.78
  -5   1   0   93.95    4.89
  -5   1   0  110.66    5.72
   5  -1   0  115.73    7.24
  -5   1   0   97.42    6.30
   5  -1   0  112.01    7.13
  -5   1   0  101.32    6.45
   5  -1   0  110.46    7.35
  -5   1   0  101.62    6.45
  -5   1   0  109.46    5.42
   5  -1   0  101.37    4.68
   5  -1   0  111.87    7.11
  -5   1  -1  910.43   17.04
   5  -1   1  998.36   19.70
  -5   1  -1  963.73   18.71
   5  -1   1  930.52   18.22
   5  -1   1  917.61   16.88
  -5   1  -1  845.91   16.75
  -5   1  -1  925.61   16.01
   5  -1   1  889.63   15.94
  -5   1  -1  853.15   16.80
   5  -1   1  880.95   20.69
  -5   1  -1  760.45   18.74
  -5   1  -1  787.01   18.97
  -5   1  -1  823.80   14.87
   5  -1   1  890.47   20.80
  -5   1  -1  900.08   15.53
   5  -1   1  924.09   21.48
  -5   1  -1  785.09   18.81
   5  -1   1  884.63   21.10
  -5   1  -1  773.15   18.77
   5  -1   1  875.42   21.54
  -5   1  -1  797.33   19.03
   5  -1   1  904.70   15.19
   5  -1   1  881.24   21.31
   5  -1   1  930.36   22.66
   5  -1   1  826.27   13.34
  -5   1  -2  453.82   11.72
   5  -1   2  520.92   13.57
   5  -1   2  469.44   12.46
  -5   1  -2  429.98   11.45
  -5   1  -2  427.34   11.31
  -5   1  -2  436.38    9.10
  -5   1  -2  448.76   10.31
   5  -1   2  421.08   14.56
  -5   1  -2  481.80   12.09
  -5   1  -2  379.67   13.34
  -5   1  -2  379.55   13.36
   5  -1   2  423.57   14.61
   5  -1   2  421.55   14.99
  -5   1  -2  389.41   13.43
   5  -1   2  423.51   14.93
  -5   1  -2  380.98   13.28
   5  -1   2  415.18   15.05
  -5   1  -2  391.95   13.71
   5  -1   2  450.36   10.66
   5  -1   2  464.68   16.98
   5  -1   2  434.97    9.83
  -5   1  -3    5.15    1.33
   5  -1   3    7.15    1.22
   5  -1   3    5.78    1.53
   5  -1   3    5.02    1.35
  -5   1  -3    5.03    1.09
  -5   1  -3    4.65    1.12
   5  -1   3    5.78    1.36
   5  -1   3    5.48    1.11
  -5   1  -3    5.14    1.28
  -5   1  -3    8.03    1.31
   5  -1   3    5.54    1.34
  -5   1  -3    5.02    1.52
  -5   1  -3    3.81    1.12
  -5   1  -3    5.20    1.25
  -5   1  -3    5.94    1.76
   5  -1   3    5.23    1.66
  -5   1  -3    3.95    1.49
  -5   1  -3    5.83    1.33
  -5   1  -3    7.54    2.04
   5  -1   3    5.38    1.77
   5  -1   3    5.10    1.78
  -5   1  -3    4.59    1.52
   5  -1   3    3.53    1.52
  -5   1  -3    5.93    1.75
   5  -1   3    5.13    1.02
   5  -1   3    6.27    1.95
  -5   1  -3    4.49    1.61
   5  -1   3    6.18    1.88
   5  -1   3    4.82    1.84
   5  -1   3    5.07    2.02
   5  -1   3    3.96    1.02
  -5   1  -4  159.06    7.07
   5  -1   4  146.13    5.92
  -5   1  -4  163.45    9.86
  -5   1  -4  145.65    6.19
   5  -1   4  151.56    6.96
   5  -1   4  144.45    5.97
  -5   1  -4  140.80    6.56
   5  -1   4  145.65    6.72
   5  -1   4  108.45    7.81
  -5   1  -4  143.13    6.66
  -5   1  -4  122.64    8.10
  -5   1  -4  126.49    8.24
  -5   1  -4  134.33    6.29
  -5   1  -4  113.51    7.84
  -5   1  -4  133.20    9.44
   5  -1   4  118.06    8.25
  -5   1  -4  123.72    8.21
   5  -1   4  108.67    8.01
   5  -1   4  145.59    5.77
   5  -1   4  105.24    7.82
  -5   1  -4  120.00    8.03
   5  -1   4  138.42    6.27
   5  -1   4  112.85    8.15
   5  -1   4  158.11    6.51
  -5   1  -5  130.55    6.42
  -5   1  -5  128.72   10.40
  -5   1  -5  121.43    8.66
  -5   1  -5  119.43    5.84
   5  -1   5  132.04    6.59
   5  -1   5  126.19    5.95
  -5   1  -5   95.08    7.33
   5  -1   5  124.79    6.45
  -5   1  -5  116.45    6.15
  -5   1  -5  129.13    6.68
  -5   1  -5  112.77    6.04
  -5   1  -5  108.05    8.85
   5  -1   5  122.34    5.68
   5  -1   5  123.34    6.19
   5  -1   5   88.57    7.39
   5  -1   5  117.54    6.00
  -5   1  -6 1143.90   19.98
   5  -1   6  972.14   18.36
  -5   1  -6 1128.11   31.70
  -5   1  -6  787.89   23.16
   5  -1   6  950.19   19.38
   5  -1   6 1023.17   18.59
  -5   1  -6 1015.66   18.89
  -5   1  -6  841.01   21.75
  -5   1  -6 1109.29   22.73
   5  -1   6 1051.64   19.84
  -5   1  -6 1027.11   20.25
  -5   1  -6  974.67   18.95
  -5   1  -6  868.51   26.01
   5  -1   6  985.71   17.92
   5  -1   6  976.36   18.96
   5  -1   6  779.12   21.16
  -5   1  -7  359.70   10.82
  -5   1  -7  302.56   15.72
  -5   1  -7  372.96   18.20
   5  -1   7  300.20   10.50
   5  -1   7  374.21   11.16
  -5   1  -7  263.94   13.07
   5  -1   7  312.84   10.94
   5  -1   7  303.22   10.11
  -5   1  -7  313.14   10.36
  -5   1  -7  328.66   12.47
   5  -1   7  312.54   11.00
  -5   1  -7  301.23   10.47
  -5   1  -7  308.49   11.15
   5  -1   7  290.22    8.42
  -5   1  -7  289.70   14.82
  -5   1  -7  294.50   10.66
   5  -1   7  301.60   10.52
   5  -1   7  283.31   10.11
   5  -1   8    0.40    0.80
  -5   1  -8    3.20    1.20
   5  -1   8    0.10    0.64
  -5   1  -8    2.42    1.33
  -5   1  -8    3.64    1.44
  -5   1  -8    0.69    0.61
  -5   1  -8    0.96    0.76
   5  -1   8    0.99    0.77
  -5   1  -8    0.74    0.78
   5  -1   8    0.21    0.55
  -5   1  -8    0.30    0.60
   5  -1   8    0.18    0.69
   5  -1   8    0.39    0.86
   5  -1   8    0.75    0.85
  -5   1  -9  321.04   14.36
  -5   1  -9  255.29   10.22
   5  -1   9  288.10   10.25
  -5   1  -9  276.76    9.92
   5  -1   9  291.84   10.13
  -5   1  -9  315.82   11.83
  -5   1  -9  289.81    9.58
  -5   1  -9  299.73   10.71
   5  -1   9  255.77    8.07
   5  -1   9  270.47    9.57
   5  -1   9  295.47   10.11
   5  -1   9  268.94    9.62
   5  -1  10  255.06    8.78
  -5   1 -10  246.20    8.63
   5  -1  10  241.22    8.29
   5  -1  10  223.88    7.75
  -5   1 -10  279.88   10.19
  -5   1 -10  265.08    9.28
   5  -1  10  216.31    6.75
  -5   1 -10  266.13    8.75
   5  -1  10  233.73    8.18
   5  -1  10  241.49    8.31
   5  -1  11  541.61   10.56
   5  -1  11  531.96   10.35
   5  -1  11  517.86   10.33
   5   0  -7  768.81   16.14
   5   0  -7  749.03   17.33
   5   0  -7  834.33   15.71
  -5   0   7  716.33   12.13
  -5   0   7  644.95   13.60
  -5   0   7  654.22   13.12
   5   0  -7  737.06   11.99
   5   0  -6   55.92    5.37
   5   0  -6   47.37    4.12
   5   0  -6   55.05    5.77
   5   0  -6   54.46    4.98
  -5   0   6   50.26    4.70
  -5   0   6   55.76    4.17
   5   0  -6   64.28    5.20
  -5   0   6   47.29    4.31
  -5   0   6   47.94    4.22
   5   0  -6   59.06    4.02
   5   0  -5   21.84    3.67
   5   0  -5   19.14    3.19
   5   0  -5   21.15    4.06
   5   0  -5   24.57    3.82
  -5   0   5   18.74    3.26
  -5   0   5   14.74    2.83
   5   0  -5   26.12    4.09
  -5   0   5   26.60    3.23
   5   0  -5   27.74    3.86
  -5   0   5   20.06    3.15
  -5   0   5   23.74    3.28
   5   0  -5   18.05    2.46
  -5   0   4  104.46    8.34
   5   0  -4  118.65    8.68
   5   0  -4  107.45    7.74
   5   0  -4  111.49    9.16
   5   0  -4  103.86    7.95
  -5   0   4   98.89    7.42
  -5   0   4  104.44    6.40
  -5   0   4   93.68    7.33
  -5   0   4  116.49    7.06
   5   0  -4  136.81    8.52
  -5   0   4   98.53    7.27
  -5   0   4   94.30    6.65
   5   0  -4  102.89    5.82
   5   0  -3  560.27   15.66
  -5   0   3  589.67   20.12
   5   0  -3  699.69   20.94
   5   0  -3  651.82   19.76
  -5   0   3  593.72   16.45
  -5   0   3  544.75   17.74
  -5   0   3  728.84   17.95
   5   0  -3  741.56   19.75
   5   0  -3  593.29   13.79
   5   0  -2  184.81    8.56
  -5   0   2  175.87    9.74
   5   0  -2  172.66    7.64
   5   0  -2  183.70    9.48
   5   0  -2  213.60   10.60
  -5   0   2  177.49    9.07
  -5   0   2  198.62    9.84
  -5   0   2  171.27    9.25
  -5   0   2  225.26    9.53
   5   0  -2  209.97   10.00
  -5   0   2  180.73    8.95
  -5   0   2  189.04    8.87
  -5   0   1    0.76    0.74
   5   0  -1    1.10    0.77
  -5   0   1    4.17    1.58
   5   0  -1    0.91    0.70
   5   0  -1    3.00    0.94
   5   0  -1    0.24    0.59
   5   0  -1    1.43    1.12
  -5   0   1    1.03    0.87
  -5   0   1    1.35    0.87
  -5   0   1    1.00    0.96
  -5   0   1    1.50    1.02
  -5   0   1    1.48    0.91
   5   0  -1    0.56    0.77
  -5   0   1    2.94    1.18
   5   0   0  325.61   10.79
  -5   0   0  302.66   11.12
   5   0   0  294.28    9.62
   5   0   0  270.43    8.03
  -5   0   0  259.28    9.70
  -5   0   0  270.60    9.31
  -5   0   0  319.52   12.59
   5   0   0  289.29    7.91
  -5   0   0  252.71    9.44
   5   0   0  288.49   10.50
  -5   0   0  283.87   10.76
  -5   0   0  254.03    9.90
  -5   0   0  272.24   10.13
   5   0   0  281.98   10.43
  -5   0   0  237.19    8.10
   5   0   0  299.58   10.89
  -5   0   0  287.87    9.62
  -5   0   0  276.06   10.12
   5   0   0  290.18   10.74
  -5   0   0  250.09    9.61
   5   0   0  307.94   11.40
  -5   0   0  269.51   10.02
  -5   0   0  293.18    9.61
   5   0   0  297.30   11.51
   5   0   0  327.19   12.48
  -5   0  -1 1798.14   26.84
   5   0   1 2019.91   28.09
  -5   0  -1 1955.15   27.39
   5   0   1 1871.62   23.48
  -5   0  -1 1839.65   26.49
  -5   0  -1 1943.58   25.19
   5   0   1 1840.03   22.55
  -5   0  -1 2066.51   32.79
  -5   0  -1 1840.00   25.86
   5   0   1 1789.50   28.37
  -5   0  -1 1952.45   28.70
  -5   0  -1 1621.57   26.76
  -5   0  -1 1646.70   26.95
   5   0   1 1823.64   28.51
  -5   0  -1 1713.69   23.61
   5   0   1 1784.55   28.92
  -5   0  -1 1744.10   27.34
   5   0   1 1790.41   28.87
  -5   0  -1 1716.71   27.28
   5   0   1 1803.84   29.39
  -5   0  -1 1679.25   27.36
   5   0   1 1784.22   20.69
   5   0   1 1972.16   31.71
   5   0   1 2111.03   32.74
  -5   0  -2   91.88    5.58
   5   0   2   86.16    5.02
   5   0   2   88.37    4.67
  -5   0  -2   85.97    5.12
   5   0   2   85.54    4.54
  -5   0  -2   99.62    6.64
  -5   0  -2   83.47    4.92
   5   0   2   78.67    5.76
  -5   0  -2   95.22    5.70
  -5   0  -2   72.37    5.44
  -5   0  -2   75.69    5.54
  -5   0  -2   78.42    4.57
   5   0   2   65.87    5.27
  -5   0  -2   79.45    3.86
   5   0   2   79.53    5.91
  -5   0  -2   71.05    5.31
   5   0   2   66.11    5.42
  -5   0  -2   77.30    5.57
   5   0   2   72.91    5.74
  -5   0  -2   69.08    5.26
   5   0   2   83.95    4.22
   5   0   2   77.34    6.26
   5   0   2   81.91    6.46
  -5   0  -3   24.53    2.85
   5   0   3   21.65    1.97
  -5   0  -3   27.59    2.68
   5   0   3   25.44    2.63
  -5   0  -3   26.60    2.84
   5   0   3   22.33    2.42
  -5   0  -3   27.96    3.42
   5   0   3   18.83    2.89
  -5   0  -3   20.20    2.39
  -5   0  -3   25.55    2.80
  -5   0  -3   25.20    2.38
  -5   0  -3   15.16    2.61
  -5   0  -3   17.36    2.76
  -5   0  -3   21.42    2.43
  -5   0  -3   17.75    2.87
   5   0   3   16.77    2.75
   5   0   3   16.00    2.76
  -5   0  -3   21.48    3.09
   5   0   3   17.88    2.93
  -5   0  -3   20.69    2.99
   5   0   3   14.76    2.67
  -5   0  -3   17.80    2.83
   5   0   3   23.82    2.37
   5   0   3   17.96    2.94
   5   0   3   19.09    3.29
   5   0   3   25.78    3.87
   5   0   3   22.41    2.10
   5   0   4  289.54    8.00
   5   0   4  291.16    9.28
  -5   0  -4  323.75    9.43
   5   0   4  294.31    9.14
  -5   0  -4  273.29   10.01
   5   0   4  243.29   10.81
  -5   0  -4  249.64   10.99
  -5   0  -4  309.64   10.10
  -5   0  -4  246.50   10.90
  -5   0  -4  281.12    9.15
  -5   0  -4  230.63   10.61
   5   0   4  238.53   10.83
  -5   0  -4  253.01   10.98
   5   0   4  229.64   10.69
   5   0   4  297.72    7.82
   5   0   4  226.75   10.75
  -5   0  -4  256.34   11.05
   5   0   4  219.01   10.55
   5   0   4  240.24   12.47
   5   0   4  313.26    8.67
  -5   0  -5  249.83    9.12
   5   0   5  209.79    7.45
  -5   0  -5  197.21   11.10
  -5   0  -5  197.54    7.67
   5   0   5  217.04    8.30
   5   0   5  224.64    7.46
  -5   0  -5  229.82    8.33
  -5   0  -5  176.31   10.26
  -5   0  -5  247.95    9.79
   5   0   5  205.93    8.15
   5   0   5  174.40    9.61
  -5   0  -5  203.66    7.82
  -5   0  -5  183.32    9.61
  -5   0  -5  225.38    8.79
  -5   0  -5  181.00    9.61
  -5   0  -5  204.14    8.05
  -5   0  -5  182.85   11.20
  -5   0  -5  173.82    9.36
   5   0   5  174.14    9.62
  -5   0  -5  185.52    9.75
   5   0   5  176.49    9.74
   5   0   5  209.19    7.18
   5   0   5  172.36    9.62
  -5   0  -5  182.48    9.64
   5   0   5  208.72    7.82
   5   0   5  168.31    9.59
   5   0   5  223.78    7.87
  -5   0  -6 2276.14   29.22
  -5   0  -6 1898.63   41.27
   5   0   6 1647.50   24.77
  -5   0  -6 2144.48   45.62
  -5   0  -6 1724.06   35.28
  -5   0  -6 1775.42   25.98
   5   0   6 1867.25   27.64
   5   0   6 1976.52   25.95
  -5   0  -6 1972.97   26.88
  -5   0  -6 1706.46   33.68
  -5   0  -6 2045.06   31.15
   5   0   6 1854.98   27.28
  -5   0  -6 1814.88   25.87
  -5   0  -6 1894.41   28.61
  -5   0  -6 1784.19   37.61
  -5   0  -6 1840.95   27.24
   5   0   6 1883.43   25.08
   5   0   6 1821.23   26.26
   5   0   6 1985.76   26.66
  -5   0  -7    4.02    2.06
   5   0   7    2.86    1.10
  -5   0  -7    5.20    2.54
   5   0   7    5.16    1.47
  -5   0  -7    2.32    1.05
   5   0   7    3.86    1.31
   5   0   7    6.09    1.42
  -5   0  -7    3.03    1.32
  -5   0  -7    2.65    1.08
  -5   0  -7    3.19    1.12
  -5   0  -7    5.78    1.62
  -5   0  -7    6.40    1.68
   5   0   7    3.37    0.93
  -5   0  -7    2.46    1.68
   5   0   7    6.07    1.46
   5   0   7    4.00    1.29
  -5   0  -8   13.94    3.53
  -5   0  -8   14.99    3.10
  -5   0  -8   14.31    2.38
   5   0   8   14.04    2.42
   5   0   8   14.34    2.24
  -5   0  -8   16.91    2.91
  -5   0  -8   16.06    2.32
   5   0   8   28.19    2.71
  -5   0  -8   15.83    2.59
   5   0   8   15.84    2.49
   5   0   8   17.14    2.51
  -5   0  -9  162.82   11.02
  -5   0  -9  134.67    8.24
   5   0   9  138.18    7.20
  -5   0  -9  141.72    7.46
   5   0   9  134.38    6.97
   5   0   9  137.88    6.66
  -5   0  -9  160.83    8.57
   5   0   9  151.68    7.10
  -5   0  -9  142.62    7.59
   5   0   9  127.31    5.86
  -5   0  -9  151.10    7.52
   5   0   9  132.09    6.70
   5   0   9  143.74    7.26
   5   0   9  136.94    6.87
   5   0  10    9.27    1.81
  -5   0 -10    8.26    1.77
   5   0  10    6.98    1.55
   5   0  10    7.52    1.51
  -5   0 -10   12.66    2.35
  -5   0 -10   10.48    2.03
   5   0  10    7.20    1.34
   5   0  10    9.30    1.78
   5   0  10    9.53    1.76
   5   0  10    6.02    1.44
   5   0  11  280.98    8.16
  -5   0 -11  302.68    9.14
   5   0  11  284.46    8.15
   5   0  11  258.46    7.31
  -5   0 -11  342.24   10.41
  -5   0 -11  233.29    6.56
  -5   0 -11  311.65    9.49
   5   0  11  274.06    7.93
   5   0  11  268.44    7.90
   5   1  -7   37.59    3.42
  -5  -1   7   44.89    3.79
   5   1  -7   43.66    3.38
  -5  -1   7   38.76    2.71
  -5  -1   7   33.16    2.75
   5   1  -7   35.47    2.13
   5   1  -6   26.54    3.64
   5   1  -6   27.39    3.93
   5   1  -6   23.44    2.97
  -5  -1   6   22.58    3.07
   5   1  -6   27.58    3.80
  -5  -1   6   26.50    2.90
   5   1  -6   38.89    3.94
  -5  -1   6   24.36    3.09
  -5  -1   6   20.71    2.79
   5   1  -6   26.21    2.51
   5   1  -5  101.14    6.73
   5   1  -5   98.20    7.71
   5   1  -5   82.97    5.78
   5   1  -5  116.66    8.92
   5   1  -5   97.05    6.98
  -5  -1   5   82.21    6.55
   5   1  -5  110.91    8.48
  -5  -1   5   91.01    6.89
  -5  -1   5   93.84    6.67
   5   1  -5   99.98    5.35
  -5  -1   4   83.50    7.74
   5   1  -4  118.21    8.71
   5   1  -4   99.67    6.98
   5   1  -4  110.13    9.03
  -5  -1   4   88.79    7.37
  -5  -1   4  127.02    7.67
  -5  -1   4   98.35    7.52
  -5  -1   4  109.46    7.44
   5   1  -4  119.75    6.01
  -5  -1   3  192.63   11.58
   5   1  -3  198.08    9.89
   5   1  -3  211.72   10.81
  -5  -1   3  204.07   10.76
  -5  -1   3  203.62    9.32
  -5  -1   3  183.31   10.71
  -5  -1   2   49.21    5.00
   5   1  -2   62.07    4.58
  -5  -1   2   52.00    5.70
   5   1  -2   62.91    5.29
   5   1  -2   71.78    6.12
  -5  -1   2   53.72    5.46
  -5  -1   2   64.38    5.65
  -5  -1   2   56.82    6.00
  -5  -1   2   66.52    5.64
  -5  -1   2   62.30    5.66
  -5  -1   2   58.97    5.26
  -5  -1   1  182.44    9.51
   5   1  -1  246.39    9.00
  -5  -1   1  229.63   10.93
   5   1  -1  207.05    7.26
  -5  -1   1  177.69    8.76
  -5  -1   1  205.52    9.64
  -5  -1   1  226.18   10.96
  -5  -1   1  228.42   11.18
  -5  -1   1  258.95   10.60
  -5  -1   1  227.76    9.93
  -5  -1   1  234.96    9.90
  -5  -1   0  625.27   16.73
   5   1   0  783.59   16.38
  -5  -1   0  655.95   16.90
   5   1   0  665.40   13.39
  -5  -1   0  600.04   15.76
  -5  -1   0  646.97   15.64
  -5  -1   0  697.89   19.01
  -5  -1   0  676.23   19.36
  -5  -1   0  554.60   14.62
   5   1   0  653.17   14.77
  -5  -1   0  674.33   18.81
  -5  -1   0  645.62   14.85
  -5  -1   0  630.87   14.72
   5   1   0  661.56   14.71
   5   1   0  675.14   15.17
  -5  -1   0  692.07   16.26
  -5  -1   0  660.39   14.75
   5   1   0  632.85   14.76
  -5  -1   0  645.01   14.58
   5   1   0  675.96   15.74
  -5  -1   0  641.86   14.67
  -5  -1   0  685.33   16.15
   5   1   0  793.92   19.07
   5   1   0  844.52   19.56
  -5  -1  -1  444.40   13.36
  -5  -1  -1  430.12    8.75
  -5  -1  -1  487.13   13.27
   5   1   1  491.01   11.59
  -5  -1  -1  442.67   13.88
  -5  -1  -1  435.48   12.72
   5   1   1  468.75    9.89
  -5  -1  -1  525.42   16.74
  -5  -1  -1  454.43   15.48
   5   1   1  416.80   11.85
  -5  -1  -1  406.36   11.77
  -5  -1  -1  416.27   11.87
   5   1   1  398.49   11.60
  -5  -1  -1  419.17   11.31
   5   1   1  421.99   12.14
  -5  -1  -1  403.82   11.56
   5   1   1  397.50   11.78
  -5  -1  -1  405.48   11.61
   5   1   1  407.81   12.13
  -5  -1  -1  411.34   11.73
   5   1   1  494.00   14.92
   5   1   1  539.49   15.41
  -5  -1  -2  122.81    6.97
  -5  -1  -2  120.88    6.30
   5   1   2  109.78    4.79
  -5  -1  -2  105.34    4.81
  -5  -1  -2  114.55    6.17
   5   1   2  114.94    5.11
  -5  -1  -2  114.60    7.91
  -5  -1  -2  101.86    7.16
  -5  -1  -2  108.08    5.74
  -5  -1  -2  105.36    6.26
  -5  -1  -2   90.13    5.69
  -5  -1  -2   99.40    5.94
   5   1   2   87.82    5.51
  -5  -1  -2   96.57    6.08
   5   1   2   83.91    5.41
  -5  -1  -2  103.93    5.58
   5   1   2   87.37    5.59
  -5  -1  -2   94.54    5.76
   5   1   2   83.83    5.51
  -5  -1  -2   93.66    5.70
   5   1   2   84.03    5.55
  -5  -1  -2   97.44    5.88
   5   1   2  106.89    4.39
   5   1   2   78.02    5.39
   5   1   2   99.07    6.87
   5   1   2  119.05    7.33
   5   1   3  415.14   10.08
  -5  -1  -3  431.96   11.88
  -5  -1  -3  447.80   15.85
  -5  -1  -3  360.51   12.65
   5   1   3  283.61   10.24
  -5  -1  -3  417.76   10.99
  -5  -1  -3  327.11   11.03
  -5  -1  -3  325.68   11.04
  -5  -1  -3  316.41   11.06
  -5  -1  -3  392.36   11.02
   5   1   3  271.01   10.24
  -5  -1  -3  334.96   11.15
   5   1   3  266.82   10.22
   5   1   3  266.69   10.12
  -5  -1  -3  322.64   11.00
   5   1   3  384.37    9.24
   5   1   3  253.04    9.93
  -5  -1  -3  423.64   10.63
   5   1   3  361.12   14.06
  -5  -1  -4 1200.27   20.98
   5   1   4 1012.28   15.47
  -5  -1  -4 1119.99   18.34
  -5  -1  -4 1040.19   17.85
   5   1   4 1098.31   17.96
  -5  -1  -4 1178.65   19.90
   5   1   4  824.19   18.71
  -5  -1  -4 1057.93   24.68
  -5  -1  -4  905.44   19.19
  -5  -1  -4  886.68   19.24
  -5  -1  -4  901.17   19.41
  -5  -1  -4 1116.91   19.18
  -5  -1  -4  888.24   19.31
   5   1   4  802.79   18.61
  -5  -1  -4  891.92   19.31
   5   1   4  750.35   18.09
   5   1   4  768.41   18.24
  -5  -1  -4  857.53   19.04
   5   1   4 1084.98   17.21
   5   1   4  783.65   18.50
   5   1   4  856.49   22.94
   5   1   4  909.02   23.14
   5   1   4 1118.67   15.67
  -5  -1  -5  120.25    6.45
   5   1   5  106.91    5.14
  -5  -1  -5  132.23   11.13
  -5  -1  -5   97.07    7.84
  -5  -1  -5  105.11    5.61
  -5  -1  -5  124.91    6.21
   5   1   5   81.77    5.94
  -5  -1  -5  104.46    7.69
  -5  -1  -5  113.94    5.65
  -5  -1  -5   91.40    6.14
  -5  -1  -5  107.15    6.10
  -5  -1  -5   85.09    5.98
  -5  -1  -5  106.56    8.45
  -5  -1  -5  110.04    6.05
  -5  -1  -5   84.87    5.92
  -5  -1  -5   87.01    5.96
   5   1   5   79.93    5.88
  -5  -1  -5   90.73    6.20
   5   1   5   80.61    5.92
   5   1   5  105.33    4.82
   5   1   5   75.55    5.78
   5   1   5   80.90    5.91
  -5  -1  -5   91.28    6.16
   5   1   5   88.03    6.19
   5   1   5  107.67    8.13
   5   1   5  117.52    5.39
  -5  -1  -6 1100.89   19.37
  -5  -1  -6 1051.02   29.98
  -5  -1  -6 1180.80   34.42
  -5  -1  -6  953.68   25.86
  -5  -1  -6  973.55   18.76
   5   1   6  967.19   18.82
   5   1   6 1053.13   17.10
  -5  -1  -6  890.79   24.65
  -5  -1  -6 1177.69   19.84
  -5  -1  -6 1107.69   21.39
  -5  -1  -6 1022.20   17.93
  -5  -1  -6  985.45   20.08
  -5  -1  -6  946.19   26.74
  -5  -1  -6 1010.79   19.85
   5   1   6 1004.10   17.26
   5   1   6  956.38   18.26
   5   1   6 1039.61   18.21
  -5  -1  -7    3.87    2.06
   5   1   7    1.44    0.88
  -5  -1  -7    2.20    1.72
  -5  -1  -7    0.19    0.71
  -5  -1  -7    0.61    0.92
   5   1   7    1.60    0.94
  -5  -1  -7    0.93    1.11
   5   1   7    1.74    0.82
  -5  -1  -7    1.79    0.99
  -5  -1  -7    3.38    1.09
  -5  -1  -7    0.32    0.66
   5   1   7    0.12    0.40
   5   1   7    5.05    1.35
   5   1   7    1.00    0.86
   5   1   7    0.09    0.54
  -5  -1  -8  474.52   20.42
   5   1   8  443.33   12.89
  -5  -1  -8  412.93   13.03
   5   1   8  416.19   12.75
   5   1   8  445.56   12.04
  -5  -1  -8  476.46   14.99
   5   1   8  456.58   13.29
   5   1   8  423.83   10.72
  -5  -1  -8  428.68   13.64
  -5  -1  -8  476.70   13.92
   5   1   8  414.02   11.89
   5   1   8  440.77   12.91
  -5  -1  -9  842.28   22.53
  -5  -1  -9  981.09   28.92
   5   1   9  840.44   18.33
  -5  -1  -9  836.37   18.91
   5   1   9  828.33   17.81
   5   1   9  875.43   17.08
  -5  -1  -9  915.89   20.99
   5   1   9  811.58   17.45
   5   1   9  789.01   15.33
  -5  -1  -9  895.15   19.78
  -5  -1  -9  922.39   18.98
   5   1   9  728.11   16.36
   5   1   9  851.31   17.96
   5   1  10  108.45    6.03
  -5  -1 -10  111.81    6.43
   5   1  10  102.00    5.76
   5   1  10   97.84    5.19
  -5  -1 -10  114.16    7.00
   5   1  10   93.92    4.83
  -5  -1 -10  118.36    6.81
   5   1  10  100.89    5.58
   5   1  10  110.73    5.95
   5   1  10   98.86    5.46
   5   1  11  292.33    8.68
  -5  -1 -11  313.64    9.74
   5   1  11  283.08    8.51
  -5  -1 -11  264.96    7.69
   5   1  11  274.12    7.52
   5   1  11  255.08    6.88
   5   1  11  287.23    8.35
   5   1  11  282.28    8.26
   5   1  11  284.52    8.28
  -5  -1 -12    1.40    0.57
  -5  -2   7    1.71    0.61
   5   2  -7    1.79    0.71
  -5  -2   6  102.28    6.87
   5   2  -6   85.49    6.08
  -5  -2   6   75.80    4.84
   5   2  -6  111.05    6.35
  -5  -2   6   70.01    4.85
   5   2  -6   77.72    3.81
   5   2  -5  401.37   15.03
   5   2  -5  342.67   11.88
  -5  -2   5  345.16   13.00
   5   2  -5  368.34   14.98
  -5  -2   5  402.07   12.99
  -5  -2   5  335.29   12.93
  -5  -2   5  338.69   12.61
   5   2  -5  415.76   10.38
  -5  -2   4   67.03    6.57
   5   2  -4   79.35    7.05
   5   2  -4   69.69    7.05
   5   2  -4   71.57    5.90
  -5  -2   4   77.31    6.66
  -5  -2   4   82.72    6.44
  -5  -2   4   67.14    6.06
   5   2  -4   77.95    4.62
  -5  -2   3  218.40   12.48
   5   2  -3  220.78    9.63
   5   2  -3  248.74   13.39
   5   2  -3  262.20   11.38
  -5  -2   3  246.41   12.14
  -5  -2   3  218.29   12.25
  -5  -2   3  242.95   11.89
  -5  -2   2    2.16    1.40
   5   2  -2    2.01    1.02
  -5  -2   2    1.04    1.05
  -5  -2   2    0.92    1.30
  -5  -2   2    1.40    1.09
  -5  -2   2    0.74    1.08
  -5  -2   2    2.59    1.33
   5   2  -1 1443.90   21.66
  -5  -2   1 1332.30   28.88
   5   2  -1 1448.89   24.64
  -5  -2   1 1248.48   26.52
  -5  -2   1 1306.42   25.99
  -5  -2   1 1204.33   28.37
  -5  -2   1 1405.29   27.74
  -5  -2   1 1369.50   26.61
   5   2  -1 1404.03   19.89
  -5  -2   1 1341.60   26.33
  -5  -2   0  501.73   16.28
   5   2   0  698.38   15.15
  -5  -2   0  554.77   16.33
  -5  -2   0  534.41   17.75
  -5  -2   0  598.71   15.66
   5   2   0  646.94   13.00
  -5  -2   0  574.89   15.43
  -5  -2  -1   51.44    5.10
   5   2   1   62.38    3.82
  -5  -2  -1   53.00    4.75
  -5  -2  -1   54.69    5.59
  -5  -2  -1   50.41    5.46
  -5  -2  -1   41.19    3.86
  -5  -2  -1   56.09    5.38
   5   2   1   65.47    5.44
   5   2   1   78.59    5.79
  -5  -2  -2  427.86   13.90
  -5  -2  -2  493.34   13.54
  -5  -2  -2  446.10   10.72
  -5  -2  -2  429.13   13.11
  -5  -2  -2  441.38   16.23
  -5  -2  -2  368.95   14.16
  -5  -2  -2  429.26   12.02
  -5  -2  -2  404.43   13.39
  -5  -2  -2  444.86   12.44
   5   2   2  481.46   11.59
   5   2   2  488.59   15.32
   5   2   2  533.05   15.33
  -5  -2  -3    6.15    1.73
  -5  -2  -3    4.40    1.20
  -5  -2  -3    4.16    1.27
   5   2   3    4.53    0.99
  -5  -2  -3    7.06    1.61
  -5  -2  -3    4.16    1.69
  -5  -2  -3    3.15    1.30
  -5  -2  -3    4.35    1.18
  -5  -2  -3    4.27    1.26
   5   2   3    4.56    0.97
   5   2   3    3.54    1.45
   5   2   3    4.51    1.47
  -5  -2  -4 1760.17   28.27
   5   2   4 1621.19   20.38
  -5  -2  -4 1708.34   24.72
   5   2   4 1778.88   22.83
  -5  -2  -4 1882.53   26.77
  -5  -2  -4 1590.31   31.49
  -5  -2  -4 1298.89   24.62
  -5  -2  -4 1905.74   25.04
  -5  -2  -4 1873.99   26.75
   5   2   4 1715.32   22.30
   5   2   4 1432.49   27.95
  -5  -2  -5   88.08    5.70
   5   2   5   85.92    4.61
  -5  -2  -5  108.91   10.37
  -5  -2  -5   76.10    6.97
  -5  -2  -5   88.98    5.51
  -5  -2  -5  100.27    6.04
   5   2   5   91.05    5.13
  -5  -2  -5   72.35    7.15
  -5  -2  -5   91.94    5.31
  -5  -2  -5   95.09    8.46
  -5  -2  -5   90.82    5.68
  -5  -2  -5   79.63    7.09
  -5  -2  -5   97.61    5.96
   5   2   5   89.01    7.03
  -5  -2  -6 1780.79   39.23
   5   2   6 1559.29   23.24
  -5  -2  -6 1529.30   33.76
  -5  -2  -6 1818.77   36.22
  -5  -2  -6 1662.11   26.14
  -5  -2  -6 1905.63   29.55
  -5  -2  -6 1587.95   34.63
  -5  -2  -6 1709.24   33.60
  -5  -2  -6 1743.55   26.96
   5   2   6 1783.34   23.13
   5   2   6 1731.32   23.24
  -5  -2  -7   38.54    5.73
   5   2   7   41.24    3.76
  -5  -2  -7   38.77    5.32
  -5  -2  -7   59.36    8.19
  -5  -2  -7   42.32    4.05
  -5  -2  -7   43.76    4.45
   5   2   7   42.21    3.31
  -5  -2  -7   39.60    4.73
  -5  -2  -7   45.71    5.36
   5   2   7   40.76    3.04
  -5  -2  -7   44.77    4.27
  -5  -2  -7   45.16    4.25
   5   2   7   43.16    3.57
   5   2   7   42.42    3.66
  -5  -2  -8   33.94    5.48
  -5  -2  -8   29.58    4.63
   5   2   8   28.79    3.30
  -5  -2  -8   28.67    3.57
  -5  -2  -8   36.48    4.26
   5   2   8   33.47    3.10
  -5  -2  -8   31.17    3.73
   5   2   8   31.13    2.88
  -5  -2  -8   32.65    3.83
  -5  -2  -8   41.65    4.06
   5   2   8   28.72    3.09
   5   2   8   29.13    3.12
  -5  -2  -9  987.02   25.43
  -5  -2  -9 1255.79   32.90
   5   2   9  947.87   19.48
  -5  -2  -9 1016.63   21.37
  -5  -2  -9 1170.14   23.70
   5   2   9  918.04   16.90
   5   2   9  917.79   16.69
  -5  -2  -9 1030.93   21.76
   5   2   9  940.21   19.15
   5   2   9  959.52   18.22
   5   2  10   63.03    4.62
  -5  -2 -10   70.05    5.27
   5   2  10   66.27    4.60
   5   2  10   66.89    4.45
  -5  -2 -10   54.63    4.70
   5   2  10   64.82    4.03
  -5  -2 -10   74.68    5.48
   5   2  10   66.58    4.62
   5   2  11  226.30    7.68
  -5  -2 -11  260.67    9.00
   5   2  11  217.54    7.40
   5   2  11  204.83    6.27
  -5  -2 -11  211.51    7.03
   5   2  11  200.61    6.16
  -5  -2 -11  268.14    9.29
   5   2  11  223.10    7.33
  -5  -2 -12    5.32    0.98
  -5  -3   7    2.71    0.59
   5   3  -7    2.13    0.59
  -5  -3   6    3.65    1.10
   5   3  -6    3.14    1.18
   5   3  -6    4.04    1.35
   5   3  -6    3.99    1.23
   5   3  -5  606.08   16.71
   5   3  -5  604.90   17.33
   5   3  -5  593.31   17.28
   5   3  -5  600.05   18.14
  -5  -3   5  595.67   15.57
   5   3  -5  647.81   11.69
   5   3  -4   76.47    6.69
   5   3  -4   69.38    6.58
   5   3  -4   66.21    4.98
  -5  -3   4   76.77    6.20
  -5  -3   4   64.65    5.84
  -5  -3   4   71.47    6.17
   5   3  -4   82.39    4.44
   5   3  -3  193.32   10.93
   5   3  -3  172.12   10.65
   5   3  -3  177.53    8.83
  -5  -3   3  159.12    9.37
  -5  -3   3  180.52   10.11
  -5  -3   3  155.81    6.28
  -5  -3   3  158.41    9.53
   5   3  -2   53.83    4.94
  -5  -3   2   39.85    4.61
  -5  -3   2   49.63    6.53
  -5  -3   2   34.59    5.14
  -5  -3   2   44.96    5.24
  -5  -3   2   42.72    4.91
  -5  -3   2   41.30    3.37
  -5  -3   2   40.93    4.82
  -5  -3   1  809.03   23.34
   5   3  -1  814.24   17.03
  -5  -3   1  828.49   20.69
  -5  -3   1  787.00   15.20
  -5  -3   1  832.89   21.04
   5   3   0  444.65   11.46
  -5  -3   0  363.64   14.51
  -5  -3   0  312.95   13.66
  -5  -3   0  494.53   22.07
  -5  -3   0  370.28   14.44
   5   3   0  408.29   10.79
  -5  -3   0  355.35   12.63
  -5  -3   0  335.48    9.53
  -5  -3  -1  292.93   12.81
  -5  -3  -1  335.69    9.39
  -5  -3  -1  369.15   13.54
  -5  -3  -1  303.26   13.80
  -5  -3  -1  411.77   19.91
  -5  -3  -1  311.81   13.33
  -5  -3  -1  460.20   20.51
  -5  -3  -1  327.75   13.20
   5   3   1  413.33   10.94
  -5  -3  -2   13.60    2.48
  -5  -3  -2   10.85    1.67
  -5  -3  -2   12.77    3.49
  -5  -3  -2   10.52    2.37
  -5  -3  -2   11.82    3.29
   5   3   2   13.41    2.01
   5   3   2   10.98    2.18
  -5  -3  -3   45.31    4.71
  -5  -3  -3   61.89    4.84
  -5  -3  -3   41.99    5.34
  -5  -3  -3   33.76    3.56
  -5  -3  -3   37.15    4.37
  -5  -3  -3   58.04    4.43
  -5  -3  -3   54.92    6.95
  -5  -3  -3   50.68    6.36
  -5  -3  -3   48.15    4.32
   5   3   3   51.69    3.99
   5   3   3   38.60    4.45
   5   3   3   47.99    4.40
  -5  -3  -4  147.74    7.97
  -5  -3  -4  220.67   14.71
  -5  -3  -4  235.16    9.02
  -5  -3  -4  198.20    7.91
  -5  -3  -4  196.64   12.91
  -5  -3  -4  157.85   10.58
  -5  -3  -4  149.57    7.01
  -5  -3  -4  176.31    8.73
  -5  -3  -4  172.73    8.23
   5   3   4  158.23    8.49
  -5  -3  -5  708.45   22.67
  -5  -3  -5  578.99   19.82
  -5  -3  -5  846.29   29.40
  -5  -3  -5  800.38   16.73
  -5  -3  -5  716.44   16.67
   5   3   5  707.57   14.04
  -5  -3  -5  629.64   21.51
  -5  -3  -5  628.26   12.92
  -5  -3  -5  689.68   22.78
  -5  -3  -5  608.10   16.68
  -5  -3  -5  738.60   17.32
  -5  -3  -6   31.22    4.99
  -5  -3  -6   29.06    4.63
  -5  -3  -6   35.75    6.23
  -5  -3  -6   26.10    3.23
  -5  -3  -6   31.01    3.51
  -5  -3  -6   38.74    5.44
  -5  -3  -6   27.18    4.46
  -5  -3  -6   29.71    3.44
  -5  -3  -6   28.44    3.41
   5   3   6   27.47    2.59
   5   3   7    4.56    1.27
  -5  -3  -7    9.18    3.34
  -5  -3  -7    9.81    2.08
  -5  -3  -7    6.07    1.74
  -5  -3  -7    6.86    2.42
  -5  -3  -7    5.83    2.11
  -5  -3  -7    5.76    2.26
   5   3   7    5.00    1.12
  -5  -3  -7    9.03    1.94
   5   3   7    5.96    1.37
   5   3   7    7.98    1.53
  -5  -3  -8   53.36    6.30
  -5  -3  -8   68.03    7.62
   5   3   8   57.59    4.59
  -5  -3  -8   60.98    5.21
  -5  -3  -8   63.86    5.43
  -5  -3  -8   67.94    5.33
  -5  -3  -8   49.20    5.25
  -5  -3  -8   59.97    5.62
   5   3   8   52.89    3.70
   5   3   8   56.49    4.18
   5   3   8   50.75    3.92
  -5  -3  -9  465.44   19.91
   5   3   9  342.09   11.22
  -5  -3  -9  393.95   13.00
  -5  -3  -9  415.15   13.78
   5   3   9  309.21    8.80
  -5  -3  -9  398.95   12.90
  -5  -3  -9  335.70   13.01
   5   3   9  331.29    9.50
   5   3   9  350.65   10.54
   5   3   9  348.44   10.33
   5   3  10   33.59    3.27
  -5  -3 -10   40.93    4.15
   5   3  10   30.15    2.54
   5   3  10   30.90    2.73
  -5  -3 -10   41.84    4.02
   5   3  10   33.00    3.21
   5   3  10   31.19    2.86
   5   3  11    5.56    1.24
  -5  -3 -11    8.88    1.65
   5   3  11    6.41    1.27
  -5  -3 -11    6.85    1.46
  -5  -3 -11    5.09    1.14
   5   3  11    6.85    1.14
   5   3  11    5.77    1.24
   5   3  11    4.44    0.99
  -5  -3 -12   57.92    3.11
  -5  -4   6    3.87    0.92
   5   4  -6    6.29    1.22
   5   4  -5  485.29   13.84
   5   4  -5  483.18   13.47
  -5  -4   5  463.48   12.71
   5   4  -4    0.35    0.63
  -5  -4   4    1.73    1.42
  -5  -4   4    0.49    0.83
   5   4  -3    3.68    1.66
  -5  -4   3    2.54    1.49
  -5  -4   3    0.95    0.67
   5   4  -2  322.88   11.38
   5   4  -2  287.44   12.87
  -5  -4   2  318.53   14.22
  -5  -4   2  297.20    9.63
  -5  -4   1  256.40   12.83
  -5  -4   1  305.57   16.09
  -5  -4   1  328.70   14.50
  -5  -4   1  284.76    9.66
  -5  -4   0  839.77   22.81
  -5  -4   0 1211.20   21.92
  -5  -4   0  977.31   30.38
  -5  -4   0 1203.21   34.87
  -5  -4   0  977.03   25.40
  -5  -4   0  966.63   18.49
  -5  -4  -1   41.49    3.67
  -5  -4  -1   42.46    4.62
  -5  -4  -1   33.31    4.61
  -5  -4  -1   49.54    6.96
   5   4   1   47.17    3.83
  -5  -4  -2  887.52   29.69
  -5  -4  -2  614.31   16.44
  -5  -4  -2  679.53   15.21
  -5  -4  -2  578.09   19.97
  -5  -4  -2  814.25   16.36
  -5  -4  -2  667.26   14.85
  -5  -4  -2  705.53   25.81
  -5  -4  -2  740.85   26.13
  -5  -4  -2  573.26   18.46
   5   4   2  759.79   15.85
  -5  -4  -3  431.15   16.14
  -5  -4  -3  621.63   24.67
  -5  -4  -3  558.16   12.77
  -5  -4  -3  450.15   13.47
  -5  -4  -3  496.94   21.35
  -5  -4  -3  497.69   21.11
  -5  -4  -3  368.98   14.53
   5   4   3  526.32   13.38
  -5  -4  -4 2029.41   38.76
  -5  -4  -4 2492.78   29.67
  -5  -4  -4 2161.02   41.62
  -5  -4  -4 2226.23   26.18
  -5  -4  -4 2236.63   34.61
  -5  -4  -4 2560.38   48.94
  -5  -4  -4 2501.06   47.87
  -5  -4  -4 2042.75   35.51
  -5  -4  -5   35.78    5.06
  -5  -4  -5   47.21    5.57
  -5  -4  -5   53.38    7.45
  -5  -4  -5   43.66    3.86
  -5  -4  -5   44.04    3.54
  -5  -4  -5   45.94    4.88
  -5  -4  -5   47.87    6.43
  -5  -4  -5   43.19    6.08
  -5  -4  -5   42.30    4.78
  -5  -4  -6    0.38    0.94
  -5  -4  -6    0.60    0.99
  -5  -4  -6    0.36    0.56
  -5  -4  -6    0.29    0.83
  -5  -4  -6    1.04    0.97
  -5  -4  -7  357.67   16.98
  -5  -4  -7  389.85   12.68
  -5  -4  -7  339.40   13.93
  -5  -4  -7  408.15   17.48
   5   4   7  375.11    9.52
   5   4   7  365.90    9.92
   5   4   8  525.74   13.62
  -5  -4  -8  581.31   16.22
  -5  -4  -8  532.77   14.93
  -5  -4  -8  488.95   16.41
  -5  -4  -8  605.73   19.36
   5   4   8  523.57   11.79
   5   4   8  514.99   12.33
   5   4   8  520.39   11.73
   5   4   9  436.74   12.43
  -5  -4  -9  537.16   15.09
  -5  -4  -9  516.11   15.25
  -5  -4  -9  467.31   13.82
  -5  -4  -9  450.93   14.82
  -5  -4  -9  585.11   16.66
   5   4   9  416.81   10.40
   5   4   9  432.65   11.16
   5   4   9  446.99   10.76
   5   4  10   40.20    3.47
  -5  -4 -10   45.50    4.05
   5   4  10   39.26    2.92
   5   4  10   42.00    3.27
   5   4  10   39.65    2.89
   5   4  11    5.00    1.11
  -5  -4 -11    5.08    1.23
  -5  -4 -11    5.54    1.10
   5   4  11    4.45    0.98
   5   4  11    5.96    1.21
  -5  -4 -12   77.18    3.31
  -5  -5   5  446.88   10.67
   5   5  -4   65.55    5.30
   5   5  -4   57.95    4.54
   5   5  -4   55.67    4.74
  -5  -5   4   66.10    5.15
   5   5  -3    1.82    1.09
  -5  -5   3    2.26    1.50
   5   5  -3    1.24    1.00
  -5  -5   3    0.35    0.52
  -5  -5   2  334.17   14.29
  -5  -5   2  311.22   10.00
  -5  -5   1  509.67   18.36
  -5  -5   1  483.91   13.30
  -5  -5   0 1085.46   20.83
  -5  -5   0  842.11   26.71
  -5  -5   0 1002.17   31.48
  -5  -5   0  857.28   24.38
  -5  -5   0  908.86   19.09
  -5  -5  -1  834.33   18.44
  -5  -5  -1  828.90   27.52
  -5  -5  -2   11.20    3.23
  -5  -5  -2    9.14    1.99
  -5  -5  -2   12.31    2.11
  -5  -5  -2   14.55    2.23
  -5  -5  -2    9.70    3.20
  -5  -5  -2    9.69    3.32
  -5  -5  -2    7.65    2.41
  -5  -5  -3  820.15   27.21
  -5  -5  -3  672.97   17.09
  -5  -5  -3  764.07   15.70
  -5  -5  -3  628.25   12.56
  -5  -5  -3  668.03   25.03
  -5  -5  -3  680.28   25.70
  -5  -5  -3  571.76   19.41
  -5  -5  -4 1333.73   19.83
  -5  -5  -4 1272.04   19.89
  -5  -5  -4 1343.51   35.42
  -5  -5  -5  212.84    8.20
  -5  -5  -5  238.73   14.47
  -5  -5  -5  222.69    8.41
  -5  -5  -5  214.02   10.75
  -5  -5  -5  235.48   14.73
  -5  -5  -6    6.50    2.06
  -5  -5  -6    6.92    2.79
  -5  -5  -6    2.91    1.09
  -5  -5  -6    2.82    1.11
  -5  -5  -6    1.48    1.22
  -5  -5  -6    3.79    2.01
  -5  -5  -6    2.69    1.52
  -5  -5  -7  676.46   26.36
  -5  -5  -7  359.43   14.44
  -5  -5  -7  579.42   22.81
   5   5   7  409.93    9.88
   5   5   7  400.60    9.76
  -5  -5  -8    1.82    1.08
  -5  -5  -8    2.29    1.18
  -5  -5  -8    1.78    1.18
  -5  -5  -8    3.20    1.68
   5   5   8    2.66    0.84
   5   5   8    1.10    0.66
   5   5   9  274.93    9.16
  -5  -5  -9  322.10   11.41
  -5  -5  -9  298.21   10.86
  -5  -5  -9  280.00   10.97
   5   5   9  252.01    7.57
   5   5   9  258.81    7.85
   5   5  10   14.19    1.95
  -5  -5 -10   16.22    2.50
   5   5  10   11.89    1.56
  -5  -5 -10   13.28    2.12
   5   5  10   12.80    1.50
   5   5  10   12.43    1.61
   5   5  11  225.32    6.53
  -5  -5 -11  227.69    5.99
  -5  -6   4   26.98    2.68
   5   6  -3    2.97    1.23
  -5  -6   3    3.66    0.97
   5   6  -2  322.17   11.10
  -5  -6   2  327.03   13.11
  -5  -6   1  178.67   11.49
  -5  -6   1  157.53    9.93
  -5  -6   0  132.53    6.85
  -5  -6   0  113.90    8.60
  -5  -6  -1  595.75   21.72
  -5  -6  -1  603.30   23.75
  -5  -6  -1  559.76   20.02
  -5  -6  -2   63.40    4.64
  -5  -6  -2   56.62    4.33
  -5  -6  -2   48.03    6.44
  -5  -6  -2   55.11    7.21
  -5  -6  -2   46.23    5.67
  -5  -6  -3   63.65    4.49
  -5  -6  -3   56.41    3.81
  -5  -6  -3   64.97    5.20
  -5  -6  -3   65.41    7.63
  -5  -6  -3   61.73    7.68
  -5  -6  -3   51.12    5.97
  -5  -6  -4  282.12    8.98
  -5  -6  -4  248.60    8.68
  -5  -6  -4  252.14   11.22
  -5  -6  -4  248.41   14.79
  -5  -6  -4  278.61   16.28
  -5  -6  -4  224.56   12.42
  -5  -6  -5  111.07    6.17
  -5  -6  -5  109.64    7.56
  -5  -6  -5  100.26    9.66
  -5  -6  -5  125.13   10.67
  -5  -6  -5  113.11    8.80
  -5  -6  -6  523.00   12.96
  -5  -6  -6  478.25   16.41
  -5  -6  -6  567.56   21.57
  -5  -6  -6  659.64   24.81
  -5  -6  -6  615.54   20.64
  -5  -6  -7  511.07   13.34
  -5  -6  -7  514.54   14.40
  -5  -6  -8  188.75    9.37
   5   6   8  180.92    6.02
   5   6   9  339.31    9.41
  -5  -6  -9  426.53   12.08
  -5  -6  -9  418.64   12.00
  -5  -6  -9  361.39   11.60
   5   6   9  310.32    7.43
   5   6   9  320.02    7.44
  -5  -6 -10   49.33    3.82
  -5  -6 -10   47.77    3.62
  -5  -6 -11  351.66    7.83
  -5  -7   3  833.92   14.79
   5   7  -2   93.96    5.47
  -5  -7   2   93.31    5.92
  -5  -7   1  464.05   11.85
  -5  -7   1  449.58   14.92
  -5  -7   0    1.70    0.98
  -5  -7   0    2.52    1.40
  -5  -7   0    0.65    0.72
  -5  -7  -1    1.88    1.00
  -5  -7  -1    0.97    1.27
  -5  -7  -1    1.30    1.26
  -5  -7  -1    1.37    0.93
  -5  -7  -2  873.15   24.65
  -5  -7  -2  874.63   24.21
  -5  -7  -3    5.02    1.29
  -5  -7  -3    5.63    1.57
  -5  -7  -3    4.84    2.30
  -5  -7  -3    5.39    2.12
  -5  -7  -4  281.79    9.23
  -5  -7  -4  292.81   15.01
  -5  -7  -4  308.83   16.12
  -5  -7  -4  277.15   13.56
  -5  -7  -5   23.31    2.80
  -5  -7  -5   25.82    3.57
  -5  -7  -5   33.64    5.14
  -5  -7  -5   27.07    4.24
  -5  -7  -6    2.66    1.28
  -5  -7  -6    0.19    1.03
  -5  -7  -6    3.75    1.99
  -5  -7  -7  942.72   18.92
  -5  -7  -7 1018.28   26.55
  -5  -7  -8   42.57    3.79
  -5  -7  -8   51.52    5.59
  -5  -7  -9   91.14    5.04
  -5  -7  -9   82.06    4.87
  -5  -7 -10    8.14    1.33
  -5  -8   1    1.70    0.85
  -5  -8   0   29.26    3.41
  -5  -8  -1   52.05    3.57
  -5  -8  -1   45.79    4.64
  -5  -8  -2  649.70   18.73
  -5  -8  -3  268.47   12.78
  -5  -8  -3  201.42   10.54
  -5  -8  -4    9.66    1.90
  -5  -8  -4    9.74    2.55
  -5  -8  -5   75.36    4.55
  -5  -8  -5   77.31    5.38
  -5  -8  -5   79.09    6.97
  -5  -8  -5   82.91    7.44
  -5  -8  -5   81.70    6.89
  -5  -8  -6  115.78    6.66
  -5  -8  -6  144.36    9.32
  -5  -8  -7  905.16   16.39
  -5  -8  -7  799.68   17.38
  -5  -8  -8   36.15    2.96
  -5  -8  -8   32.98    3.02
  -5  -8  -9   41.09    2.67
  -5  -8  -9   46.35    2.79
  -5  -9  -1   46.95    3.46
  -5  -9  -2  819.46   16.61
  -5  -9  -3  103.29    6.07
  -5  -9  -6   76.48    4.25
  -5  -9  -7  449.04    8.55
  -5  -9  -7  443.84    9.58
   6  -7  -2   68.17    3.15
   6  -7  -1    1.43    0.48
   6  -7  -1    1.70    0.74
  -6   7   0   57.68    3.30
  -6   7   0   52.79    3.16
  -6   7  -1    1.85    0.78
  -6   7  -1    1.03    0.62
  -6   7  -2   79.67    4.04
   6  -7   2   73.78    4.21
   6  -7   2   68.06    3.88
   6  -7   3    1.84    0.77
   6  -7   3    1.95    0.70
   6  -7   4    7.76    1.26
   6  -6  -3  396.17   10.01
  -6   6   3  400.54    8.80
  -6   6   3  393.26    9.26
   6  -6  -2  342.29   10.71
   6  -6  -2  346.76   10.64
   6  -6  -2  375.90   11.25
   6  -6  -2  339.73    9.74
  -6   6   2  345.59    9.07
  -6   6   2  371.82    9.53
  -6   6   2  359.25    8.75
  -6   6   2  368.61   10.20
   6  -6  -1   95.99    5.96
   6  -6  -1   93.26    5.85
  -6   6   1  111.82    5.18
   6  -6  -1  110.50    6.54
   6  -6  -1   97.98    5.58
  -6   6   1  110.90    5.27
  -6   6   1  111.88    5.38
   6  -6  -1   97.07    4.89
  -6   6   1  100.17    4.80
  -6   6   1  107.65    5.94
  -6   6   1  105.03    4.60
  -6   6   0    4.26    0.97
   6  -6   0    4.78    1.42
   6  -6   0    4.88    1.40
   6  -6   0    5.13    1.42
  -6   6   0    4.20    1.25
  -6   6   0    4.93    1.20
  -6   6   0    4.25    1.14
  -6   6   0    3.58    1.02
   6  -6   0    4.44    1.51
  -6   6   0    4.77    1.53
  -6   6  -1   70.24    3.93
  -6   6  -1   74.38    4.89
   6  -6   1   60.41    4.45
  -6   6  -1   66.47    3.66
  -6   6  -1   74.63    4.44
  -6   6  -1   58.52    3.65
  -6   6  -1   59.82    3.52
   6  -6   1   61.81    4.49
  -6   6  -1   73.15    4.12
  -6   6  -1   66.58    5.04
   6  -6   1   64.90    5.44
   6  -6   1   60.34    4.10
   6  -6   2 1018.91   20.39
  -6   6  -2 1050.13   19.20
   6  -6   2  896.66   17.62
  -6   6  -2 1014.28   15.66
  -6   6  -2 1026.61   16.56
  -6   6  -2  940.08   15.34
   6  -6   2  876.57   17.76
  -6   6  -2 1004.35   15.53
   6  -6   2  924.02   22.02
   6  -6   2  856.56   16.20
  -6   6  -3   24.02    2.37
  -6   6  -3   23.60    2.77
   6  -6   3   21.46    2.42
  -6   6  -3   23.33    2.28
  -6   6  -3   24.63    2.37
   6  -6   3   19.40    2.58
  -6   6  -3   19.87    2.71
   6  -6   3   19.59    3.22
   6  -6   3   22.60    2.54
   6  -6   3   21.18    2.18
  -6   6  -4  522.27   10.81
  -6   6  -4  500.63   10.33
   6  -6   4  451.84   11.70
   6  -6   4  433.77   13.89
   6  -6   4  426.36   10.34
   6  -6   4  436.54    9.69
  -6   6  -5    0.39    0.50
   6  -6   5    0.18    0.68
  -6   6  -5    0.55    0.52
  -6   6  -5    0.29    0.42
   6  -6   5    0.81    0.55
   6  -6   5    0.96    0.56
   6  -6   5    1.05    0.50
   6  -5  -5  182.93    5.12
   6  -5  -4   34.52    3.09
  -6   5   4   38.93    2.90
  -6   5   4   38.71    2.85
   6  -5  -3   12.14    2.21
   6  -5  -3   13.42    2.23
   6  -5  -3   11.56    2.07
   6  -5  -3   13.06    2.33
  -6   5   3   14.82    2.08
  -6   5   3   16.21    2.16
  -6   5   3   13.65    1.91
  -6   5   3   11.18    1.61
  -6   5   3   14.30    2.09
   6  -5  -2  843.98   20.24
   6  -5  -2  830.59   19.32
   6  -5  -2  797.12   17.47
   6  -5  -2  859.20   20.27
  -6   5   2  853.50   16.60
  -6   5   2  847.67   17.33
  -6   5   2  832.20   15.84
  -6   5   2  879.30   18.37
  -6   5   1   29.92    2.73
   6  -5  -1   32.26    4.04
   6  -5  -1   32.16    3.93
   6  -5  -1   29.77    3.47
   6  -5  -1   33.14    4.22
  -6   5   1   27.19    2.52
  -6   5   1   32.81    3.23
  -6   5   1   35.70    3.67
   6  -5  -1   28.75    3.06
  -6   5   1   30.22    3.00
  -6   5   1   31.77    2.89
  -6   5   1   35.59    3.99
   6  -5  -1   25.51    2.64
   6  -5  -1   30.87    3.87
  -6   5   0  101.09    5.11
   6  -5   0   96.85    6.94
   6  -5   0   94.12    6.58
  -6   5   0  115.77    6.53
   6  -5   0  100.49    6.38
  -6   5   0   99.03    5.13
  -6   5   0  112.31    5.93
  -6   5   0   96.18    5.32
   6  -5   0   96.05    5.94
  -6   5   0  106.62    5.74
  -6   5   0  101.71    5.06
  -6   5   0  104.83    7.09
   6  -5   0  100.87    5.61
   6  -5   0   92.88    7.41
  -6   5  -1  206.34    8.04
   6  -5   1  186.71    9.36
  -6   5  -1  204.53    9.12
   6  -5   1  189.21   10.21
   6  -5   1  190.07    8.50
  -6   5  -1  196.00    7.54
  -6   5  -1  201.79    7.83
  -6   5  -1  192.91    8.66
  -6   5  -1  204.05    8.04
   6  -5   1  170.11    8.18
  -6   5  -1  200.88    7.74
  -6   5  -1  195.09   10.10
   6  -5   1  176.18    7.77
   6  -5   1  190.38   11.35
  -6   5  -2   12.62    2.02
   6  -5   2   10.57    2.93
   6  -5   2    9.39    2.12
  -6   5  -2   12.44    2.02
   6  -5   2    8.84    2.03
  -6   5  -2    9.03    2.08
   6  -5   2    8.58    1.90
  -6   5  -2    8.62    1.87
   6  -5   2    8.63    2.02
  -6   5  -2   10.79    1.85
  -6   5  -2    8.60    2.28
   6  -5   2    8.59    2.26
   6  -5   2    9.35    1.89
  -6   5  -3  533.49   12.62
   6  -5   3  473.78   10.17
  -6   5  -3  586.66   13.55
   6  -5   3  500.96   14.23
   6  -5   3  518.42   15.45
  -6   5  -3  550.44   15.70
   6  -5   3  505.60   13.55
  -6   5  -3  550.38   13.16
  -6   5  -3  532.38   12.26
  -6   5  -3  568.10   13.54
   6  -5   3  486.81   14.00
  -6   5  -3  458.82   15.62
   6  -5   3  491.39   12.87
   6  -5   3  471.33   18.42
   6  -5   3  506.53   12.07
  -6   5  -4  120.45    5.81
  -6   5  -4   84.76    6.01
   6  -5   4  103.84    4.76
  -6   5  -4  128.04    6.09
  -6   5  -4  115.74    7.12
   6  -5   4  116.37    6.19
  -6   5  -4  123.75    5.97
  -6   5  -4  117.51    5.43
  -6   5  -4  122.08    6.12
   6  -5   4  114.28    6.57
  -6   5  -4  110.01    4.61
   6  -5   4  111.39    4.96
   6  -5   4  107.63    8.38
   6  -5   4  110.63    5.91
   6  -5   4  108.33    5.43
  -6   5  -5   56.43    3.82
   6  -5   5   63.63    3.69
  -6   5  -5   57.08    3.93
   6  -5   5   51.85    3.73
  -6   5  -5   59.18    4.02
  -6   5  -5   55.07    3.96
   6  -5   5   49.96    4.12
  -6   5  -5   38.34    4.03
  -6   5  -5   51.38    3.15
   6  -5   5   50.48    3.24
   6  -5   5   50.00    5.24
   6  -5   5   49.55    3.79
   6  -5   5   46.23    3.96
   6  -5   5   49.94    3.53
  -6   5  -6   36.60    2.81
  -6   5  -6   31.56    2.98
   6  -5   6   35.57    2.92
  -6   5  -6   37.10    2.95
  -6   5  -6   38.10    3.07
   6  -5   6   33.54    3.10
  -6   5  -6   33.70    2.47
   6  -5   6   32.50    2.45
   6  -5   6   32.52    2.88
   6  -5   6   31.08    2.71
   6  -5   6   33.84    2.70
  -6   5  -7  395.34    8.66
  -6   5  -7  393.78    8.87
   6  -4  -5    0.78    0.61
   6  -4  -4   36.36    3.57
   6  -4  -4   35.70    3.27
   6  -4  -4   36.72    3.64
   6  -4  -4   34.42    3.44
  -6   4   4   33.69    3.14
  -6   4   4   41.29    3.31
  -6   4   4   31.74    2.83
  -6   4   4   36.70    3.07
   6  -4  -4   36.01    2.40
   6  -4  -3   75.39    5.92
   6  -4  -3   71.79    5.88
   6  -4  -3   76.94    5.08
  -6   4   3   70.46    4.65
   6  -4  -3   75.79    5.83
  -6   4   3   67.33    4.74
  -6   4   3   83.11    5.38
  -6   4   3   65.78    4.35
  -6   4   3   82.60    5.37
   6  -4  -3   69.83    4.00
  -6   4   2  259.93    8.34
   6  -4  -2  299.79   12.81
  -6   4   2  284.90   10.53
   6  -4  -2  286.28   11.85
   6  -4  -2  295.81   12.34
   6  -4  -2  308.19   12.59
  -6   4   2  297.20   10.29
  -6   4   2  307.79   11.26
  -6   4   2  296.95    9.94
  -6   4   2  319.62   11.76
  -6   4   1  133.80    6.17
   6  -4  -1  136.37    8.75
  -6   4   1  132.74    7.25
   6  -4  -1  132.90    8.15
  -6   4   1  142.46    6.92
   6  -4  -1  132.21    7.49
   6  -4  -1  138.37    8.94
  -6   4   1  127.54    6.23
  -6   4   1  142.42    7.07
  -6   4   1  148.61    8.19
  -6   4   1  115.52    6.16
   6  -4  -1  134.44    6.77
  -6   4   1  133.88    6.61
  -6   4   1  137.81    6.39
  -6   4   1  149.35    8.55
   6  -4  -1  127.27    6.07
  -6   4   0  111.99    5.82
   6  -4   0  114.46    7.90
  -6   4   0  137.02    7.40
   6  -4   0  117.04    7.54
  -6   4   0  118.19    6.95
   6  -4   0  111.30    7.45
   6  -4   0  112.69    6.87
   6  -4   0  110.86    8.19
  -6   4   0  120.49    6.25
  -6   4   0  116.11    6.23
  -6   4   0  126.70    7.73
   6  -4   0  115.41    6.70
  -6   4   0  118.28    6.40
  -6   4   0  113.68    5.62
  -6   4   0  109.03    7.59
   6  -4   0  119.70    6.31
   6  -4   0  114.30    9.03
  -6   4  -1    3.36    1.19
   6  -4   1    2.48    1.70
   6  -4   1    1.14    1.04
  -6   4  -1    1.17    0.85
   6  -4   1    4.13    1.52
   6  -4   1    1.91    1.13
  -6   4  -1    2.93    1.40
   6  -4   1    1.33    0.91
  -6   4  -1    2.48    1.16
  -6   4  -1    2.03    1.11
   6  -4   1    7.95    2.29
  -6   4  -1    2.83    0.96
  -6   4  -1    1.39    1.16
   6  -4   1    1.61    0.96
   6  -4   1    1.56    0.77
  -6   4  -2  259.59    9.22
  -6   4  -2  278.63   10.44
   6  -4   2  251.75   10.71
  -6   4  -2  256.01   11.25
   6  -4   2  239.60   10.00
   6  -4   2  250.28   10.25
   6  -4   2  239.99   11.81
  -6   4  -2  252.29    9.30
  -6   4  -2  251.10    8.96
  -6   4  -2  221.09   10.28
  -6   4  -2  251.22    9.58
   6  -4   2  242.39    9.93
  -6   4  -2  246.19    8.73
  -6   4  -2  234.96    7.26
  -6   4  -2  251.12   12.61
   6  -4   2  253.01    9.51
   6  -4   2  229.01   13.79
   6  -4   2  238.35    8.58
  -6   4  -3  367.27   10.96
   6  -4   3  343.63    9.12
  -6   4  -3  437.37   13.08
   6  -4   3  338.73   12.37
   6  -4   3  340.38   11.80
  -6   4  -3  396.12   14.47
   6  -4   3  335.35   13.25
   6  -4   3  358.10   12.03
  -6   4  -3  380.25   11.60
  -6   4  -3  364.20   10.43
  -6   4  -3  302.62   11.69
  -6   4  -3  375.96   11.85
   6  -4   3  356.04   12.18
  -6   4  -3  407.47   10.85
  -6   4  -3  361.78    9.61
  -6   4  -3  351.39   15.40
   6  -4   3  359.79    9.47
   6  -4   3  361.19   11.32
   6  -4   3  339.08   16.90
  -6   4  -4    4.46    1.33
   6  -4   4    3.66    1.08
   6  -4   4    2.75    1.99
   6  -4   4    4.53    1.48
  -6   4  -4    6.52    2.01
   6  -4   4    3.97    1.16
  -6   4  -4    5.93    1.35
  -6   4  -4    4.18    1.36
  -6   4  -4    5.53    1.54
   6  -4   4    3.80    1.44
  -6   4  -4    3.79    1.07
  -6   4  -4    4.95    1.89
   6  -4   4    4.61    1.19
   6  -4   4    4.23    1.35
   6  -4   4    4.54    1.32
  -6   4  -5   22.16    2.68
  -6   4  -5   24.83    3.84
   6  -4   5   23.92    2.54
  -6   4  -5   23.54    3.51
   6  -4   5   22.09    2.81
   6  -4   5   24.09    2.85
   6  -4   5   22.01    2.54
  -6   4  -5   24.06    2.86
  -6   4  -5   26.74    3.05
   6  -4   5   21.27    2.93
  -6   4  -5   16.37    3.19
  -6   4  -5   23.97    2.56
   6  -4   5   24.76    2.51
   6  -4   5   24.25    2.92
   6  -4   5   18.68    3.64
   6  -4   5   19.78    2.47
   6  -4   5   20.21    2.91
  -6   4  -6    5.70    1.35
  -6   4  -6    2.90    1.29
   6  -4   6    3.76    1.56
   6  -4   6    4.60    1.27
  -6   4  -6    3.66    1.43
   6  -4   6    4.20    1.13
  -6   4  -6    4.63    1.28
  -6   4  -6    5.47    1.48
   6  -4   6    5.08    1.45
   6  -4   6    6.01    1.26
   6  -4   6    4.92    1.32
   6  -4   6    7.11    1.48
   6  -4   6    3.88    1.15
   6  -4   7  408.99    9.92
  -6   4  -7  305.71    9.99
  -6   4  -7  439.26   10.63
  -6   4  -7  422.14   10.86
   6  -4   7  381.34   10.44
  -6   4  -7  403.03    9.84
   6  -4   7  292.52   10.12
   6  -4   7  374.88    8.99
   6  -4   7  422.03   10.79
   6  -4   7  396.53    9.92
   6  -4   8   16.90    1.81
  -6   4  -8   19.07    2.04
  -6   4  -8   18.79    1.91
   6  -4   8   17.52    1.84
   6  -3  -6    4.21    0.90
   6  -3  -5    7.29    1.70
   6  -3  -5    6.86    1.65
  -6   3   5    7.10    1.43
  -6   3   5    5.68    1.19
   6  -3  -5    6.27    1.47
   6  -3  -4  290.40   10.54
   6  -3  -4  275.88    9.34
   6  -3  -4  285.14   11.77
   6  -3  -4  298.18   11.73
  -6   3   4  285.53    9.76
   6  -3  -4  290.26   10.95
  -6   3   4  281.59    9.02
  -6   3   4  266.41    9.06
  -6   3   4  273.37    8.94
   6  -3  -4  286.46    7.79
  -6   3   3  283.18   11.11
   6  -3  -3  300.42   11.41
   6  -3  -3  293.62   12.76
   6  -3  -3  293.20   10.06
   6  -3  -3  336.75   13.36
   6  -3  -3  280.60   11.99
  -6   3   3  273.37   10.02
   6  -3  -3  293.45   11.96
  -6   3   3  293.22   10.73
  -6   3   3  269.93    9.72
  -6   3   3  311.97   10.70
   6  -3  -3  280.56    8.63
  -6   3   2  272.83    9.46
   6  -3  -2  300.52   12.90
  -6   3   2  314.49   12.30
   6  -3  -2  322.98   13.38
   6  -3  -2  293.64   10.79
  -6   3   2  293.32   10.47
   6  -3  -2  317.55   13.09
  -6   3   2  329.66   12.20
  -6   3   2  272.31   10.15
  -6   3   2  291.73    9.78
  -6   3   2  308.90   11.85
   6  -3  -2  314.16   13.36
  -6   3   1   12.29    2.03
   6  -3  -1   15.55    3.08
  -6   3   1   15.77    2.86
   6  -3  -1   12.43    2.52
  -6   3   1   17.22    2.46
   6  -3  -1   14.76    2.93
   6  -3  -1   15.70    2.65
   6  -3  -1   17.70    3.09
  -6   3   1   13.08    2.22
  -6   3   1   12.89    2.21
  -6   3   1   24.19    3.47
  -6   3   1   11.38    2.14
   6  -3  -1   12.55    2.07
  -6   3   1   15.11    2.45
  -6   3   1   13.15    2.07
  -6   3   1   14.42    2.82
   6  -3  -1   11.27    1.77
  -6   3   0   68.29    4.70
  -6   3   0  104.52    8.76
   6  -3   0   70.42    6.24
  -6   3   0   85.95    6.34
   6  -3   0   75.69    6.04
  -6   3   0   83.07    5.83
   6  -3   0   78.11    6.31
   6  -3   0   79.89    6.22
  -6   3   0   72.39    5.10
   6  -3   0   80.79    6.91
  -6   3   0   88.05    6.74
  -6   3   0   67.84    5.11
   6  -3   0   84.49    5.59
  -6   3   0   78.02    5.28
  -6   3   0   76.31    4.81
  -6   3   0   80.37    6.68
   6  -3   0   79.32    4.98
   6  -3   0   74.16    7.51
  -6   3  -1   38.46    3.67
  -6   3  -1   39.72    5.33
   6  -3   1   33.49    4.06
   6  -3   1   32.83    3.86
  -6   3  -1   39.18    4.29
   6  -3   1   40.03    4.08
   6  -3   1   34.17    3.81
   6  -3   1   35.35    4.63
  -6   3  -1   35.40    3.56
  -6   3  -1   37.17    3.42
  -6   3  -1   34.79    4.35
   6  -3   1   42.03    4.04
  -6   3  -1   37.51    3.78
  -6   3  -1   30.96    3.39
  -6   3  -1   31.72    2.77
  -6   3  -1   31.87    2.93
  -6   3  -1   35.45    4.71
   6  -3   1   36.11    3.48
   6  -3   1   36.82    5.55
   6  -3   1   38.63    3.31
  -6   3  -2  374.96   11.48
   6  -3   2  359.31   13.29
  -6   3  -2  424.68   13.32
   6  -3   2  367.90   13.23
  -6   3  -2  392.90   14.09
   6  -3   2  397.09   13.38
   6  -3   2  394.98   12.86
   6  -3   2  353.60   14.23
  -6   3  -2  366.88   11.55
  -6   3  -2  356.76   10.61
   6  -3   2  370.71   11.96
  -6   3  -2  381.19   12.03
  -6   3  -2  376.74   11.04
  -6   3  -2  357.80    9.85
  -6   3  -2  357.58   15.35
   6  -3   2  359.80   17.67
   6  -3   2  372.04   10.76
  -6   3  -3    0.88    0.78
   6  -3   3    1.76    0.72
   6  -3   3    0.46    1.23
   6  -3   3    1.30    0.98
   6  -3   3    1.73    0.98
  -6   3  -3    2.95    1.62
   6  -3   3    1.11    0.86
  -6   3  -3    1.20    0.90
  -6   3  -3    1.34    0.79
  -6   3  -3    1.58    1.05
   6  -3   3    1.26    0.93
  -6   3  -3    1.51    0.83
  -6   3  -3    0.90    1.02
  -6   3  -3    0.60    0.65
   6  -3   3    0.95    0.96
  -6   3  -3    0.37    1.09
   6  -3   3    0.69    0.55
   6  -3   3    0.91    0.77
   6  -3   3    1.09    0.74
  -6   3  -4  319.95   10.56
   6  -3   4  296.83    8.99
   6  -3   4  312.65   11.59
   6  -3   4  318.25   11.47
  -6   3  -4  322.99   13.68
   6  -3   4  346.36   11.53
   6  -3   4  321.03   11.30
   6  -3   4  314.07    9.70
  -6   3  -4  298.51   10.41
  -6   3  -4  296.55    9.01
  -6   3  -4  242.66   11.30
   6  -3   4  316.75   11.34
  -6   3  -4  299.29   10.75
  -6   3  -4  300.82    9.52
  -6   3  -4  270.21   14.01
   6  -3   4  304.68    8.94
   6  -3   4  313.08   10.51
   6  -3   4  249.49   14.61
   6  -3   4  313.72   10.17
  -6   3  -5  161.06    7.32
   6  -3   5  147.79    6.49
  -6   3  -5  142.98    9.24
   6  -3   5  156.19    7.50
   6  -3   5  162.02    6.98
  -6   3  -5  153.63    7.41
   6  -3   5  157.32    7.78
  -6   3  -5  160.78    7.75
  -6   3  -5  146.92    6.74
  -6   3  -5  125.43    9.48
   6  -3   5  148.71    6.34
   6  -3   5  159.12    7.43
  -6   3  -6   -0.18    0.58
   6  -3   6    0.77    0.68
   6  -3   6    0.17    0.84
   6  -3   6    0.09    0.52
   6  -3   6    0.55    0.71
   6  -3   6    0.39    0.67
  -6   3  -6    0.35    0.68
  -6   3  -6    0.19    0.61
   6  -3   6   -0.10    0.63
  -6   3  -6    0.65    0.69
  -6   3  -6    1.93    1.36
   6  -3   6    0.07    0.52
   6  -3   6    0.87    0.77
   6  -3   6    0.08    0.56
  -6   3  -7  151.46    9.05
   6  -3   7  187.47    7.25
  -6   3  -7  163.56    8.69
   6  -3   7  199.49    7.91
   6  -3   7  188.18    7.05
  -6   3  -7  198.70    7.73
  -6   3  -7  192.32    7.87
  -6   3  -7  183.78    7.35
   6  -3   7  180.55    6.75
   6  -3   7  125.12    7.40
   6  -3   7  202.51    7.87
   6  -3   7  192.87    7.41
  -6   3  -8   28.82    3.33
  -6   3  -8   22.39    2.68
   6  -3   8   36.98    3.04
   6  -3   8   34.33    3.00
   6  -3   8   36.12    2.83
  -6   3  -8   35.35    2.94
  -6   3  -8   33.52    3.01
  -6   3  -8   33.05    2.95
   6  -3   8   35.61    3.12
   6  -3   8   32.74    2.83
   6  -3   9   66.69    3.61
  -6   3  -9   61.88    3.53
   6  -3   9   60.63    3.36
   6  -2  -6    7.10    1.33
   6  -2  -5    1.71    0.98
   6  -2  -5    2.58    1.18
  -6   2   5    1.50    0.89
  -6   2   5    1.23    0.74
   6  -2  -5    1.80    1.00
  -6   2   5    1.82    0.76
   6  -2  -4  344.33   11.33
   6  -2  -4  357.38   13.50
   6  -2  -4  370.22   14.56
   6  -2  -4  369.53   14.09
  -6   2   4  330.32   11.15
  -6   2   4  343.20   10.37
   6  -2  -4  371.79   12.63
  -6   2   4  327.41   11.04
   6  -2  -4  333.44    8.78
  -6   2   4  314.80    9.42
   6  -2  -3   22.74    3.33
   6  -2  -3   25.51    3.90
   6  -2  -3   18.62    2.40
   6  -2  -3   26.32    3.99
  -6   2   3   22.10    3.03
  -6   2   3   23.43    3.05
  -6   2   3   23.19    3.15
  -6   2   3   20.86    2.52
   6  -2  -3   28.82    3.82
   6  -2  -2  225.78   11.74
  -6   2   2  192.68    8.38
   6  -2  -2  213.32   10.58
   6  -2  -2  221.84    9.97
   6  -2  -2  226.28   11.55
   6  -2  -2  208.47    8.65
   6  -2  -2  228.72   11.48
  -6   2   2  212.10    9.93
  -6   2   2  208.21    9.38
  -6   2   2  206.35    8.63
  -6   2   2  227.01    9.88
  -6   2   2  203.52    7.95
   6  -2  -1   24.20    4.17
   6  -2  -1   24.62    3.64
  -6   2   1   26.12    3.77
  -6   2   1   24.49    2.91
   6  -2  -1   25.19    3.92
   6  -2  -1   24.44    3.10
   6  -2  -1   24.90    3.72
  -6   2   1   20.97    2.83
   6  -2  -1   21.48    3.43
  -6   2   1   25.06    3.64
  -6   2   1   18.92    2.77
  -6   2   1   21.13    2.99
  -6   2   1   21.50    2.76
  -6   2   1   28.99    3.79
   6  -2   0  627.10   21.76
  -6   2   0  546.91   14.30
   6  -2   0  523.05   16.42
  -6   2   0  536.01   15.67
   6  -2   0  551.43   16.17
  -6   2   0  545.75   15.18
   6  -2   0  584.72   18.01
   6  -2   0  562.48   15.11
   6  -2   0  519.43   16.14
  -6   2   0  495.66   13.71
  -6   2   0  536.11   13.84
   6  -2   0  525.05   17.00
  -6   2   0  557.06   17.55
   6  -2   0  503.43   12.95
  -6   2   0  483.73   13.81
  -6   2   0  555.88   15.16
  -6   2   0  499.78   12.51
   6  -2   0  503.92   12.04
   6  -2   1  227.31   13.32
  -6   2  -1  203.71    8.64
   6  -2   1  197.49    9.64
  -6   2  -1  225.13    9.71
   6  -2   1  222.97    9.93
  -6   2  -1  212.79   10.05
   6  -2   1  249.55   11.20
   6  -2   1  228.36   10.30
  -6   2  -1  203.10    8.65
   6  -2   1  205.11   10.47
  -6   2  -1  201.96    7.95
  -6   2  -1  219.15   11.46
   6  -2   1  211.73    8.55
  -6   2  -1  203.04    8.73
  -6   2  -1  198.66    7.35
  -6   2  -1  217.59    7.71
  -6   2  -1  223.19   11.81
   6  -2   1  217.74    8.19
  -6   2  -2  641.01   15.21
  -6   2  -2  753.77   25.38
   6  -2   2  676.82   17.75
  -6   2  -2  709.59   17.50
   6  -2   2  675.67   17.34
  -6   2  -2  706.46   19.45
   6  -2   2  785.79   19.70
   6  -2   2  686.80   16.41
   6  -2   2  740.17   17.72
   6  -2   2  587.95   17.55
  -6   2  -2  624.39   15.29
  -6   2  -2  629.10   13.72
  -6   2  -2  647.64   20.11
  -6   2  -2  651.20   15.79
  -6   2  -2  674.15   15.48
  -6   2  -2  634.40   13.65
  -6   2  -2  662.31   20.88
   6  -2   2  662.57   14.77
   6  -2   2  658.29   13.66
   6  -2   2  686.38   23.82
  -6   2  -3    1.38    0.90
  -6   2  -3    0.89    1.26
   6  -2   3   -0.22    0.93
   6  -2   3    1.40    1.03
   6  -2   3    0.73    0.73
   6  -2   3    0.29    0.67
  -6   2  -3    3.00    1.49
   6  -2   3    1.31    0.69
   6  -2   3    3.39    1.23
  -6   2  -3    0.37    0.73
  -6   2  -3    0.92    0.69
  -6   2  -3    0.57    0.70
   6  -2   3    0.77    0.93
  -6   2  -3    1.29    0.81
  -6   2  -3    0.67    1.05
  -6   2  -3    0.38    1.23
   6  -2   3    0.70    0.64
  -6   2  -4  118.44    6.40
   6  -2   4  116.57    5.46
  -6   2  -4  110.16    9.44
   6  -2   4  131.88    7.30
  -6   2  -4  117.56    8.73
   6  -2   4  126.19    6.93
   6  -2   4  122.64    5.77
  -6   2  -4  108.26    6.25
  -6   2  -4  111.84    5.17
  -6   2  -4   97.35    7.82
   6  -2   4  120.26    6.67
  -6   2  -4  115.36    6.53
  -6   2  -4  108.98    5.81
  -6   2  -4  107.49    8.96
   6  -2   4  119.31    5.32
   6  -2   4  127.97    6.62
   6  -2   4  128.01    6.30
  -6   2  -5 1549.93   24.27
   6  -2   5 1484.44   21.81
  -6   2  -5 1352.81   33.29
   6  -2   5 1628.25   26.13
  -6   2  -5 1444.74   31.71
   6  -2   5 1613.70   25.56
   6  -2   5 1550.78   25.39
   6  -2   5 1492.70   22.23
  -6   2  -5 1468.57   24.08
  -6   2  -5 1138.36   26.42
   6  -2   5 1433.11   25.07
  -6   2  -5 1469.41   24.47
  -6   2  -5 1428.00   22.89
  -6   2  -5 1254.16   32.01
   6  -2   5 1421.03   20.83
   6  -2   5 1487.84   23.83
   6  -2   5 1180.16   30.90
   6  -2   5 1509.13   23.32
  -6   2  -6    2.09    1.01
  -6   2  -6   -0.22    1.35
   6  -2   6    1.84    0.92
  -6   2  -6    0.77    1.09
   6  -2   6    0.53    0.93
   6  -2   6    2.19    1.13
  -6   2  -6    1.56    0.80
   6  -2   6    2.73    1.27
  -6   2  -6    2.04    1.43
   6  -2   6    2.12    0.90
  -6   2  -6    1.64    1.00
  -6   2  -6    1.14    0.86
   6  -2   6    3.75    1.35
  -6   2  -6    0.98    0.80
  -6   2  -6    1.01    1.26
   6  -2   6    1.54    0.82
   6  -2   6    1.36    0.90
   6  -2   7  125.59    6.57
  -6   2  -7  108.63    5.45
   6  -2   7  108.30    6.22
   6  -2   7  109.85    5.63
  -6   2  -7  113.86    6.08
   6  -2   7  115.49    6.43
  -6   2  -7  107.36    6.09
  -6   2  -7   86.32    7.77
  -6   2  -7  103.51    5.93
   6  -2   7  114.58    5.57
   6  -2   7   73.81    5.88
   6  -2   7  114.55    6.24
   6  -2   7  100.38    5.58
  -6   2  -8    1.56    1.21
   6  -2   8    1.60    0.90
  -6   2  -8    1.71    0.76
   6  -2   8    2.37    0.97
  -6   2  -8    1.11    0.96
   6  -2   8    1.89    0.78
   6  -2   8    3.03    1.14
  -6   2  -8    2.82    1.08
   6  -2   8    2.14    0.84
   6  -2   8    1.89    0.91
   6  -2   8    1.86    0.84
  -6   2  -9  140.54    7.61
   6  -2   9  158.56    6.24
  -6   2  -9  148.86    5.48
   6  -2   9  160.49    6.32
   6  -2   9  145.51    5.46
  -6   2  -9  159.31    6.43
   6  -2   9  164.18    6.41
   6  -2   9  148.97    5.88
   6  -1  -6   15.89    1.99
  -6   1   6   20.47    2.39
   6  -1  -5  163.34    7.65
   6  -1  -5  177.10    9.16
   6  -1  -5  160.86    8.22
  -6   1   5  144.10    6.76
   6  -1  -5  171.88    7.81
  -6   1   5  140.99    5.94
  -6   1   4  217.20   10.22
   6  -1  -4  265.48   12.72
   6  -1  -4  250.97   11.50
   6  -1  -4  252.48   10.42
  -6   1   4  216.40    9.28
  -6   1   4  226.81    8.42
   6  -1  -3   30.60    3.68
  -6   1   3   27.87    3.99
   6  -1  -3   34.04    4.07
   6  -1  -3   30.95    4.10
   6  -1  -3   36.35    4.61
  -6   1   3   35.59    3.82
   6  -1  -3   37.17    4.21
  -6   1   3   29.85    3.65
  -6   1   3   30.62    3.50
  -6   1   3   28.83    3.14
  -6   1   2  108.14    6.69
   6  -1  -2  122.11    7.52
  -6   1   2  121.17    8.29
   6  -1  -2  119.58    6.94
   6  -1  -2  142.84    8.32
   6  -1  -2  131.20    8.56
   6  -1  -2  143.74    9.05
  -6   1   2  118.60    6.97
  -6   1   2  110.90    7.18
  -6   1   2  120.68    7.72
  -6   1   2  120.23    6.68
  -6   1   2  137.22    7.27
  -6   1   2  114.38    6.32
  -6   1   1    7.52    1.75
   6  -1  -1    7.40    1.97
  -6   1   1    7.38    2.07
   6  -1  -1    6.93    1.75
   6  -1  -1    9.71    2.42
   6  -1  -1    6.61    1.56
   6  -1  -1   10.24    2.49
  -6   1   1    6.25    1.70
  -6   1   1    7.36    1.86
   6  -1  -1    9.55    2.24
  -6   1   1    7.41    2.03
  -6   1   1    9.21    2.32
  -6   1   1    7.84    1.81
  -6   1   1    7.62    1.93
  -6   1   1    6.69    1.51
  -6   1   0  236.32    9.52
   6  -1   0  275.66   11.16
  -6   1   0  252.95   10.79
   6  -1   0  245.94   10.00
  -6   1   0  261.29   10.36
   6  -1   0  304.36   12.43
   6  -1   0  272.87    9.73
   6  -1   0  301.59   12.66
  -6   1   0  243.87    9.88
  -6   1   0  264.28    9.75
  -6   1   0  280.06   12.92
   6  -1   0  259.57    8.58
   6  -1   0  254.96   11.13
  -6   1   0  224.37    9.47
  -6   1   0  251.26   10.23
  -6   1   0  307.00   12.84
  -6   1   0  243.20    8.80
  -6   1  -1  281.59   10.72
   6  -1   1  332.70   12.24
  -6   1  -1  295.13   11.07
   6  -1   1  309.12   11.04
  -6   1  -1  275.67   11.24
   6  -1   1  357.24   13.46
   6  -1   1  306.07   10.04
  -6   1  -1  276.98   10.38
  -6   1  -1  282.74    9.49
   6  -1   1  290.09   11.60
  -6   1  -1  291.54   13.39
   6  -1   1  288.02    9.29
  -6   1  -1  280.07   10.41
  -6   1  -1  335.43   14.33
  -6   1  -1  259.75    8.67
  -6   1  -1  286.34   12.88
   6  -1   1  286.60    8.49
  -6   1  -2  261.39    9.82
  -6   1  -2  317.17   17.71
   6  -1   2  278.43   11.07
  -6   1  -2  271.23   10.48
   6  -1   2  287.31   10.49
   6  -1   2  280.38    9.82
  -6   1  -2  260.18    9.99
  -6   1  -2  247.78    8.22
  -6   1  -2  240.22   12.39
   6  -1   2  258.25    9.07
  -6   1  -2  248.59    9.53
  -6   1  -2  278.01   10.26
   6  -1   2  271.42    8.76
   6  -1   3   96.38    8.70
  -6   1  -3  101.53    5.98
  -6   1  -3  110.38   10.26
   6  -1   3   96.04    6.37
   6  -1   3  104.65    6.40
  -6   1  -3  105.55    7.87
  -6   1  -3   98.05    5.83
  -6   1  -3   93.77    7.91
   6  -1   3  103.32    5.87
  -6   1  -3   96.32    5.84
  -6   1  -3  101.98    5.94
  -6   1  -3   91.32    5.28
  -6   1  -3   94.75    8.13
   6  -1   3   95.65    5.37
   6  -1   3   95.70    4.85
  -6   1  -4    8.97    1.92
   6  -1   4    8.51    1.45
   6  -1   4    9.65    2.05
  -6   1  -4    7.50    2.94
   6  -1   4    7.56    2.61
   6  -1   4   10.20    2.16
   6  -1   4    9.15    1.95
  -6   1  -4    7.89    2.30
  -6   1  -4   10.14    1.97
   6  -1   4    8.02    1.76
  -6   1  -4    7.99    1.78
  -6   1  -4    7.09    2.37
  -6   1  -4    7.09    1.56
  -6   1  -4   10.62    2.87
   6  -1   4    7.85    1.54
   6  -1   5 1559.66   22.13
  -6   1  -5 1570.22   39.05
  -6   1  -5 1609.83   34.20
   6  -1   5 1646.13   26.36
  -6   1  -5 1571.31   23.37
   6  -1   5 1668.97   26.25
  -6   1  -5 1542.77   24.48
  -6   1  -5 1241.54   29.62
   6  -1   5 1612.55   25.49
  -6   1  -5 1523.97   24.59
  -6   1  -5 1502.06   23.85
  -6   1  -5 1312.13   33.30
   6  -1   5 1513.28   20.80
   6  -1   5 1590.01   24.06
   6  -1   5 1213.84   30.73
   6  -1   5 1582.72   23.30
  -6   1  -6   23.11    2.88
   6  -1   6   22.33    2.61
  -6   1  -6   20.69    4.42
   6  -1   6   23.26    2.98
  -6   1  -6   17.43    3.62
   6  -1   6   22.95    3.03
  -6   1  -6   22.60    2.69
   6  -1   6   21.45    2.91
   6  -1   6   19.42    2.36
  -6   1  -6   20.55    2.68
   6  -1   6   25.52    3.11
  -6   1  -6   15.95    3.74
  -6   1  -6   24.94    3.02
   6  -1   6   22.34    2.46
   6  -1   6   21.59    2.78
   6  -1   6   15.48    3.15
   6  -1   6   21.28    2.66
  -6   1  -7   37.51    5.63
  -6   1  -7   50.75    6.67
  -6   1  -7   36.15    5.04
   6  -1   7   46.42    4.16
  -6   1  -7   40.96    3.62
   6  -1   7   42.83    3.98
   6  -1   7   41.85    3.42
  -6   1  -7   45.47    3.89
   6  -1   7   47.18    4.14
  -6   1  -7   42.40    3.78
  -6   1  -7   40.41    5.63
  -6   1  -7   42.38    3.90
   6  -1   7   39.27    3.33
   6  -1   7   43.83    3.91
   6  -1   7   43.25    3.73
  -6   1  -8    1.35    1.31
   6  -1   8    4.79    1.32
   6  -1   8    3.76    1.30
  -6   1  -8    2.10    0.95
   6  -1   8    1.71    0.96
  -6   1  -8    1.23    1.23
   6  -1   8    3.14    1.04
  -6   1  -8    0.89    0.70
   6  -1   8    1.00    0.82
  -6   1  -8    2.51    1.15
  -6   1  -8    1.88    1.01
   6  -1   8    1.07    0.72
   6  -1   8    3.33    1.15
  -6   1  -9   36.20    3.87
   6  -1   9   46.20    3.59
   6  -1   9   42.22    3.57
   6  -1   9   44.08    3.14
   6  -1   9   47.18    3.56
  -6   1  -9   50.00    3.89
   6  -1   9   42.25    3.17
   6  -1   9   45.72    3.62
   6  -1   9   39.66    3.22
   6  -1  10   48.95    3.29
  -6   1 -10   44.10    3.03
   6  -1  10   45.33    3.19
  -6   1 -10   45.62    3.15
   6  -1  10   40.07    2.71
   6  -1  10   44.52    3.09
   6  -1  10   43.67    2.95
  -6   0   6    2.55    0.94
   6   0  -6    2.11    0.81
   6   0  -5  100.83    5.43
   6   0  -5  115.36    7.44
  -6   0   5  100.56    5.51
   6   0  -5  132.19    6.69
  -6   0   5   89.52    5.29
   6   0  -5  113.47    6.68
  -6   0   5  102.60    4.26
  -6   0   5   95.27    4.89
   6   0  -4  327.38   12.09
   6   0  -4  365.31   15.03
   6   0  -4  349.33   13.41
  -6   0   4  315.28   11.20
  -6   0   4  303.70   11.51
   6   0  -4  391.00   12.77
  -6   0   4  308.54    8.94
  -6   0   4  309.14   10.74
  -6   0   4  301.53   10.14
   6   0  -3    1.27    0.80
  -6   0   3    0.91    0.99
   6   0  -3    1.88    1.24
   6   0  -3    1.79    1.26
  -6   0   3    0.47    0.74
  -6   0   3    0.13    1.03
  -6   0   3    0.95    0.73
  -6   0   3    4.15    1.42
  -6   0   3    1.99    1.10
  -6   0   3    1.39    0.91
   6   0  -2  190.24    8.90
  -6   0   2  191.53   10.56
   6   0  -2  209.05   10.57
   6   0  -2  213.89   10.98
  -6   0   2  194.40    9.26
  -6   0   2  204.15    9.82
  -6   0   2  190.95    9.85
   6   0  -2  227.07   10.26
  -6   0   2  196.19    9.22
  -6   0   2  201.29    8.80
  -6   0   1    3.07    1.39
   6   0  -1    2.77    1.23
  -6   0   1    3.43    1.55
   6   0  -1    3.23    1.12
   6   0  -1    4.00    1.62
   6   0  -1    3.73    1.64
  -6   0   1    1.58    0.95
  -6   0   1    2.44    1.16
  -6   0   1    2.80    1.42
  -6   0   1    2.44    1.11
   6   0  -1    1.85    1.09
  -6   0   1    4.18    1.34
  -6   0   0  330.87   12.11
   6   0   0  405.22   13.28
  -6   0   0  373.39   13.62
   6   0   0  384.83   11.82
   6   0   0  456.44   15.10
   6   0   0  484.76   15.97
  -6   0   0  311.75   11.44
  -6   0   0  352.98   11.62
  -6   0   0  353.63   14.48
  -6   0   0  295.72   10.89
  -6   0   0  335.36   12.76
   6   0   0  379.10   12.71
  -6   0   0  363.99   13.26
  -6   0   0  351.88   11.27
  -6   0  -1   97.12    6.43
   6   0   1  128.09    7.32
  -6   0  -1  109.86    7.00
  -6   0  -1  108.21    7.09
   6   0   1  123.58    6.70
   6   0   1  110.96    5.53
  -6   0  -1   90.64    6.03
  -6   0  -1  100.48    5.63
  -6   0  -1  103.61    8.04
   6   0   1  115.76    5.54
  -6   0  -1   99.07    6.08
  -6   0  -1  107.11    6.95
  -6   0  -1  136.34    9.91
  -6   0  -1  107.36    7.81
  -6   0  -2   58.03    4.96
  -6   0  -2   71.37    8.81
   6   0   2   67.52    5.33
  -6   0  -2   57.76    4.89
  -6   0  -2   55.92    5.36
   6   0   2   64.15    4.90
   6   0   2   62.37    4.32
  -6   0  -2   55.79    4.70
  -6   0  -2   52.24    5.99
   6   0   2   63.52    4.31
  -6   0  -2   60.41    4.61
  -6   0  -2   59.76    5.02
  -6   0  -2   54.62    6.01
  -6   0  -2   52.74    4.10
  -6   0  -2   59.79    6.06
   6   0   2   59.69    3.69
  -6   0  -3  314.42   11.07
  -6   0  -3  353.29   19.25
   6   0   3  321.50   11.79
  -6   0  -3  302.04   11.02
   6   0   3  330.22   11.17
   6   0   3  321.14   10.23
  -6   0  -3  318.65   10.83
  -6   0  -3  275.21   14.27
  -6   0  -3  284.03    9.80
  -6   0  -3  303.30   10.70
  -6   0  -3  274.99    9.46
  -6   0  -3  279.75   13.91
   6   0   3  309.08    9.21
   6   0   4    5.00    1.10
   6   0   4    3.20    1.66
   6   0   4    2.52    1.12
   6   0   4    1.65    0.91
  -6   0  -4    1.56    1.30
   6   0   4    3.43    1.14
  -6   0  -4    2.29    1.48
  -6   0  -4    0.61    0.66
  -6   0  -4    0.81    1.26
   6   0   4    1.82    0.88
  -6   0  -5 1594.75   25.72
   6   0   5 1404.17   20.35
  -6   0  -5 1442.66   33.06
  -6   0  -5 1514.74   24.15
   6   0   5 1467.18   23.66
  -6   0  -5 1419.59   22.90
  -6   0  -5 1345.78   32.75
  -6   0  -5 1219.20   32.38
  -6   0  -5 1308.53   22.81
   6   0   5 1150.28   28.43
   6   0   5 1452.93   21.19
  -6   0  -6   26.93    3.18
   6   0   6   26.38    2.76
  -6   0  -6   24.26    4.31
   6   0   6   25.81    3.16
  -6   0  -6   22.01    2.82
  -6   0  -6   18.26    3.74
   6   0   6   28.01    3.19
  -6   0  -6   26.22    2.98
  -6   0  -6   19.90    4.16
  -6   0  -6   24.49    2.99
   6   0   6   25.50    2.55
   6   0   6   27.25    3.09
   6   0   6   16.53    3.13
   6   0   6   23.54    2.67
  -6   0  -7    8.41    3.00
   6   0   7    8.08    1.70
  -6   0  -7    6.69    2.85
  -6   0  -7    6.25    1.58
   6   0   7    6.61    1.63
  -6   0  -7    5.58    2.20
   6   0   7    5.43    1.26
  -6   0  -7    5.48    1.45
  -6   0  -7    4.30    1.28
   6   0   7    4.71    1.44
  -6   0  -7    5.71    1.63
  -6   0  -7    9.59    1.93
  -6   0  -7    3.04    1.78
   6   0   7    4.44    1.18
   6   0   7    4.85    1.42
   6   0   7    4.60    1.27
  -6   0  -8 1023.96   29.28
   6   0   8  995.08   18.51
  -6   0  -8  981.58   19.02
   6   0   8 1026.28   19.79
   6   0   8  976.00   16.60
   6   0   8 1017.31   19.68
  -6   0  -8 1080.12   21.15
  -6   0  -8 1050.59   20.11
   6   0   8  986.56   17.21
   6   0   8 1026.90   19.21
   6   0   8 1021.18   18.24
  -6   0  -9 1302.69   30.66
  -6   0  -9 1051.65   23.87
   6   0   9 1218.10   19.98
   6   0   9 1333.37   21.05
  -6   0  -9 1256.70   20.75
   6   0   9 1199.20   20.49
   6   0   9 1149.72   17.26
  -6   0  -9 1342.96   22.79
   6   0   9 1173.74   18.35
   6   0   9 1201.04   20.28
   6   0   9 1229.81   19.18
   6   0  10 1279.50   18.84
  -6   0 -10 1360.85   20.08
   6   0  10 1278.02   19.09
   6   0  10 1183.88   15.64
   6   0  10 1238.37   17.17
   6   0  10 1276.99   18.90
  -6   0 -11   88.29    3.70
   6   1  -6   63.12    3.47
  -6  -1   6   65.78    3.95
   6   1  -5   94.51    6.08
   6   1  -5   89.50    6.29
   6   1  -5   80.17    5.08
  -6  -1   5  113.83    7.20
   6   1  -5   91.95    6.13
   6   1  -5  105.83    5.76
  -6  -1   5   80.22    4.02
  -6  -1   5   77.55    4.38
   6   1  -4  668.36   18.38
   6   1  -4  540.63   14.03
   6   1  -4  624.65   19.30
  -6  -1   4  505.17   15.34
  -6  -1   4  600.78   13.39
   6   1  -4  728.70   17.36
  -6  -1   4  544.73   14.33
  -6  -1   4  533.61   13.66
  -6  -1   3   43.97    5.13
   6   1  -3   50.97    5.39
   6   1  -3   44.17    4.50
   6   1  -3   50.26    5.85
   6   1  -3   48.22    5.01
  -6  -1   3   47.53    4.62
  -6  -1   3   44.44    4.97
  -6  -1   3   47.22    4.08
   6   1  -3   61.23    5.28
  -6  -1   3   42.53    4.26
  -6  -1   3   51.14    4.45
   6   1  -2  319.71   10.61
  -6  -1   2  336.81   14.52
   6   1  -2  342.98   12.77
   6   1  -2  390.12   14.46
  -6  -1   2  335.97   12.55
  -6  -1   2  325.24   12.37
  -6  -1   2  313.36   13.39
  -6  -1   2  336.98   11.29
   6   1  -2  416.14   13.74
  -6  -1   2  321.85   12.09
  -6  -1   2  309.90   11.52
  -6  -1   1  192.94   10.05
   6   1  -1  243.42    9.74
  -6  -1   1  233.83   11.86
   6   1  -1  282.37   12.35
  -6  -1   1  222.86    9.87
  -6  -1   1  231.46   11.37
  -6  -1   1  209.69   11.28
  -6  -1   1  222.23    9.18
   6   1  -1  254.79   10.41
  -6  -1   1  219.09    9.53
  -6  -1   1  224.40    9.42
  -6  -1   0 1011.01   23.30
   6   1   0 1257.05   22.55
  -6  -1   0 1065.94   23.64
   6   1   0 1142.88   19.47
   6   1   0 1363.28   25.80
  -6  -1   0  944.79   21.43
  -6  -1   0  946.15   23.34
   6   1   0 1187.91   21.99
  -6  -1  -1  498.66   15.68
   6   1   1  645.56   16.13
  -6  -1  -1  563.62   15.93
  -6  -1  -1  560.70   15.81
   6   1   1  590.90   13.77
  -6  -1  -1  468.93   14.50
  -6  -1  -1  545.51   19.02
  -6  -1  -1  438.29   13.33
  -6  -1  -1  529.02   16.57
  -6  -1  -1  704.56   24.11
  -6  -1  -2   59.08    5.37
   6   1   2   80.42    5.88
  -6  -1  -2   97.03   10.46
  -6  -1  -2   72.12    5.40
  -6  -1  -2   64.91    5.96
   6   1   2   80.46    5.16
   6   1   2   73.52    4.20
  -6  -1  -2   72.94    5.55
  -6  -1  -2   62.93    6.78
   6   1   2   78.04    4.54
  -6  -1  -2   69.92    5.73
  -6  -1  -2   67.66    7.22
  -6  -1  -2   63.75    4.61
  -6  -1  -2   64.46    6.08
  -6  -1  -3  383.18   13.14
  -6  -1  -3  481.90   23.13
  -6  -1  -3  411.76   12.87
  -6  -1  -3  383.68   15.44
   6   1   3  442.33   11.22
  -6  -1  -3  355.91   16.43
   6   1   3  414.56   11.21
  -6  -1  -3  381.53   11.58
  -6  -1  -3  400.06   13.24
  -6  -1  -3  381.16   16.44
  -6  -1  -3  390.64   16.16
  -6  -1  -3  379.02   11.56
   6   1   3  421.08   10.11
  -6  -1  -4   21.52    3.12
  -6  -1  -4   20.99    4.98
  -6  -1  -4   19.04    2.80
  -6  -1  -4   19.97    3.71
   6   1   4   23.89    2.73
  -6  -1  -4   23.42    2.98
  -6  -1  -4   17.16    3.74
  -6  -1  -4   21.45    2.73
  -6  -1  -4   27.07    5.16
  -6  -1  -4   18.29    3.51
  -6  -1  -4   16.81    3.55
  -6  -1  -4   18.37    2.60
   6   1   4   23.02    2.58
  -6  -1  -5 1800.49   28.76
   6   1   5 1706.20   22.37
  -6  -1  -5 1865.41   46.49
  -6  -1  -5 1597.09   34.82
  -6  -1  -5 1645.67   25.76
   6   1   5 1868.65   26.81
  -6  -1  -5 1889.07   27.55
  -6  -1  -5 1350.44   34.12
   6   1   5 1635.47   25.60
  -6  -1  -5 1803.60   25.62
  -6  -1  -5 1597.18   38.17
  -6  -1  -5 1692.68   26.79
   6   1   5 1809.06   25.21
   6   1   5 1459.99   30.79
  -6  -1  -6  497.38   13.95
  -6  -1  -6  458.41   20.99
   6   1   6  498.90   12.04
  -6  -1  -6  523.47   24.43
  -6  -1  -6  428.50   18.58
  -6  -1  -6  474.33   13.32
  -6  -1  -6  552.90   13.96
   6   1   6  486.64   13.38
  -6  -1  -6  507.27   12.75
  -6  -1  -6  459.68   17.92
  -6  -1  -6  416.32   18.48
  -6  -1  -6  492.32   14.00
   6   1   6  525.06   11.96
  -6  -1  -7 1213.58   34.66
   6   1   7 1240.95   20.54
  -6  -1  -7 1460.10   40.81
  -6  -1  -7 1100.43   29.71
  -6  -1  -7 1256.27   22.49
   6   1   7 1358.68   23.26
   6   1   7 1269.32   22.67
  -6  -1  -7 1292.33   23.32
   6   1   7 1355.80   19.81
   6   1   7 1272.03   22.01
   6   1   7 1297.05   20.37
  -6  -1  -8   99.72    9.60
  -6  -1  -8   71.10    7.35
  -6  -1  -8  114.40   11.01
  -6  -1  -8   89.82    5.72
   6   1   8   95.16    5.80
   6   1   8   90.53    5.69
  -6  -1  -8   92.70    6.22
   6   1   8   86.04    4.78
   6   1   8   91.91    5.56
   6   1   8   90.44    5.07
  -6  -1  -9   51.87    6.40
   6   1   9   40.44    3.51
  -6  -1  -9   47.14    4.01
   6   1   9   45.75    3.85
   6   1   9   39.74    2.82
   6   1   9   51.56    4.03
  -6  -1  -9   47.53    4.26
  -6  -1  -9   50.64    4.07
   6   1   9   42.73    3.27
   6   1   9   42.98    3.68
   6   1   9   43.63    3.37
  -6  -1 -10  710.61   21.06
   6   1  10  600.32   12.73
  -6  -1 -10  688.40   14.50
   6   1  10  589.52   12.68
   6   1  10  611.37   12.45
  -6  -1 -10  542.21   14.23
   6   1  10  572.42   11.26
   6   1  10  588.89   12.68
   6   1  10  566.71   11.36
   6   1  11   65.15    3.45
  -6  -1 -11   72.53    3.98
   6   1  11   62.84    3.42
   6   2  -6  165.35    4.63
   6   2  -5   37.76    3.73
   6   2  -5   44.78    4.02
  -6  -2   5   52.78    4.56
   6   2  -5   47.70    4.25
  -6  -2   5   37.39    2.74
   6   2  -5   57.30    3.90
   6   2  -4  301.62   12.10
   6   2  -4  257.92    9.80
   6   2  -4  304.35   12.55
  -6  -2   4  280.22    9.25
  -6  -2   4  261.60    9.22
   6   2  -3    1.88    1.19
   6   2  -3    0.59    0.74
  -6  -2   3    0.29    0.90
  -6  -2   3    3.88    2.03
  -6  -2   3    1.31    0.93
   6   2  -3    1.43    1.02
  -6  -2   3    1.23    0.91
  -6  -2   2    4.07    1.78
   6   2  -2    3.97    1.37
  -6  -2   2    4.85    1.97
  -6  -2   2    7.41    2.77
  -6  -2   2    4.09    1.44
   6   2  -2    6.77    1.84
  -6  -2   2    5.25    1.59
   6   2  -1  371.29   11.15
  -6  -2   1  319.23   14.00
   6   2  -1  362.83   12.49
   6   2  -1  434.73   15.23
  -6  -2   1  332.27   13.43
  -6  -2   1  307.26   14.27
  -6  -2   1  494.44   21.55
  -6  -2   1  345.44   12.42
   6   2  -1  447.32   13.36
  -6  -2   0  426.09   16.12
   6   2   0  635.13   15.16
  -6  -2   0  532.85   17.22
   6   2   0  637.47   16.73
  -6  -2   0  526.72   18.29
  -6  -2   0  740.91   26.25
  -6  -2   0  509.94   15.24
  -6  -2  -1  106.80    7.94
   6   2   1  150.14    7.55
   6   2   1  126.21    5.73
  -6  -2  -1  114.39    8.31
  -6  -2  -1  146.40   11.63
  -6  -2  -1  103.65    6.53
  -6  -2  -2   27.93    4.04
  -6  -2  -2   31.48    4.03
   6   2   2   37.91    3.40
  -6  -2  -2   27.63    4.66
   6   2   2   36.56    2.96
  -6  -2  -2   30.51    3.39
  -6  -2  -2   35.25    4.33
  -6  -2  -3  201.20   11.06
  -6  -2  -3  264.18   17.51
  -6  -2  -3  225.90    9.57
   6   2   3  253.95    9.43
  -6  -2  -3  192.89   12.29
  -6  -2  -3  201.74    9.23
   6   2   3  239.93    8.30
  -6  -2  -3  201.19    8.50
  -6  -2  -3  204.73    8.06
  -6  -2  -3  248.78   16.20
  -6  -2  -3  220.99   13.49
  -6  -2  -3  197.32   10.58
  -6  -2  -3  210.56    9.00
  -6  -2  -4   99.87    6.86
  -6  -2  -4  125.07   12.14
  -6  -2  -4  127.40    7.02
   6   2   4  115.23    5.49
  -6  -2  -4  106.09    6.59
   6   2   4  119.49    6.13
  -6  -2  -4  106.85    5.98
  -6  -2  -4  118.57   10.96
  -6  -2  -4   89.35    8.36
  -6  -2  -4   96.63    7.97
  -6  -2  -4  110.65    6.55
   6   2   4  118.30    5.45
  -6  -2  -5  168.78    8.56
   6   2   5  192.51    6.80
  -6  -2  -5  204.11   15.68
  -6  -2  -5  153.24   10.54
  -6  -2  -5  210.15    9.02
   6   2   5  196.62    7.77
  -6  -2  -5  157.45   11.67
  -6  -2  -5  182.30    8.34
   6   2   5  195.27    8.25
  -6  -2  -5  188.97    7.62
  -6  -2  -5  180.02   12.83
  -6  -2  -5  164.89   10.85
  -6  -2  -5  162.02   10.72
  -6  -2  -5  188.53    8.62
   6   2   5  205.48    7.77
  -6  -2  -6   26.47    5.04
   6   2   6   35.90    3.15
  -6  -2  -6   23.39    4.48
  -6  -2  -6   30.38    6.16
  -6  -2  -6   24.96    3.15
   6   2   6   28.54    3.13
  -6  -2  -6   22.85    4.42
  -6  -2  -6   24.18    4.40
  -6  -2  -6   24.78    3.97
  -6  -2  -6   28.75    3.44
   6   2   6   25.70    2.91
  -6  -2  -7 1272.91   34.70
   6   2   7 1238.43   20.38
  -6  -2  -7 1277.34   23.16
   6   2   7 1337.94   22.45
   6   2   7 1238.72   22.44
  -6  -2  -7 1189.68   28.16
   6   2   7 1291.59   18.82
  -6  -2  -8   55.60    7.12
  -6  -2  -8   40.09    5.53
  -6  -2  -8   71.92    9.10
  -6  -2  -8   53.88    4.53
   6   2   8   51.76    4.32
  -6  -2  -8   58.31    4.66
   6   2   8   52.20    3.60
   6   2   8   57.20    4.33
   6   2   8   52.83    3.62
  -6  -2  -9   39.93    5.14
  -6  -2  -9   63.51    7.09
   6   2   9   52.38    3.94
  -6  -2  -9   54.89    4.47
   6   2   9   53.81    4.05
   6   2   9   55.33    4.21
  -6  -2  -9   52.08    5.05
   6   2   9   52.79    3.49
   6   2   9   52.94    4.04
   6   2   9   51.34    3.45
   6   2  10  181.77    6.82
   6   2  10  191.81    6.97
  -6  -2 -10  183.90    6.53
  -6  -2 -10  178.49    8.10
   6   2  10  177.06    5.91
   6   2  10  180.92    6.89
   6   2  10  169.13    5.70
   6   2  11  103.52    4.39
   6   2  11  105.13    4.35
  -6  -2 -11   89.46    4.37
   6   2  11  102.39    4.35
  -6  -3   5    8.15    1.23
   6   3  -4    3.58    1.40
   6   3  -4    2.90    1.17
  -6  -3   4   10.82    2.37
  -6  -3   4    1.55    0.87
   6   3  -4    3.45    1.36
   6   3  -4   12.27    1.96
   6   3  -3   14.19    2.69
   6   3  -3   10.19    2.41
   6   3  -3   13.00    2.21
  -6  -3   3   17.44    3.51
   6   3  -3   17.68    2.61
   6   3  -2  454.39   16.61
   6   3  -2  435.86   13.77
  -6  -3   2  407.05   13.59
  -6  -3   1  445.63   16.60
   6   3  -1  513.77   13.86
  -6  -3   1  605.64   23.12
  -6  -3   1  412.60   16.65
  -6  -3   1  664.60   25.17
  -6  -3   1  497.04   15.64
   6   3  -1  656.61   15.66
   6   3   0  694.01   14.88
  -6  -3   0  561.61   18.29
   6   3   0  691.28   16.56
  -6  -3   0  586.62   19.30
  -6  -3   0  784.28   27.71
  -6  -3   0  579.30   17.33
   6   3   1   15.14    2.37
  -6  -3  -1    8.20    3.38
  -6  -3  -1    4.66    1.72
  -6  -3  -1    6.46    2.80
  -6  -3  -1    7.67    2.28
  -6  -3  -1   14.00    3.77
  -6  -3  -1   15.36    2.83
  -6  -3  -1    5.18    2.07
  -6  -3  -2   83.36    7.09
  -6  -3  -2   92.08    6.55
   6   3   2  104.09    5.12
  -6  -3  -2  108.08   10.93
  -6  -3  -2   82.75    6.58
  -6  -3  -2  104.92   10.07
  -6  -3  -2   85.47    6.40
  -6  -3  -3 3078.80   46.37
  -6  -3  -3 3559.64   50.96
  -6  -3  -3 4525.44   75.52
  -6  -3  -3 4168.48   48.25
   6   3   3 4213.63   41.77
  -6  -3  -3 3196.25   54.86
   6   3   3 4065.92   39.18
  -6  -3  -3 3566.29   39.55
  -6  -3  -3 3995.49   68.85
  -6  -3  -3 3605.97   61.20
  -6  -3  -3 3366.23   44.10
  -6  -3  -4    2.39    1.38
  -6  -3  -4    4.08    1.88
  -6  -3  -4    2.51    2.13
  -6  -3  -4    1.21    0.97
  -6  -3  -4    4.43    1.96
  -6  -3  -4    1.91    1.09
  -6  -3  -4    2.18    1.92
  -6  -3  -4    1.50    1.00
  -6  -3  -4    2.74    1.97
  -6  -3  -4    1.56    1.03
  -6  -3  -5 1573.57   28.34
  -6  -3  -5 1871.68   39.96
   6   3   5 1977.13   23.60
  -6  -3  -5 1672.87   36.96
  -6  -3  -5 2316.61   53.25
  -6  -3  -5 2213.31   30.40
  -6  -3  -5 1548.58   37.83
  -6  -3  -5 1871.14   31.30
  -6  -3  -5 1814.04   43.25
  -6  -3  -5 1872.45   40.38
  -6  -3  -5 1904.49   30.27
   6   3   5 2084.61   25.76
  -6  -3  -6  316.98   16.37
  -6  -3  -6  281.07   14.94
   6   3   6  309.64    9.17
  -6  -3  -6  385.92   21.51
   6   3   6  329.11    9.85
  -6  -3  -6  271.79    7.84
  -6  -3  -6  295.21   12.40
  -6  -3  -6  311.79   16.31
  -6  -3  -6  294.81   15.00
  -6  -3  -6  322.48   11.72
   6   3   6  343.84   10.22
  -6  -3  -7  157.02   11.19
   6   3   7  180.57    7.25
   6   3   7  189.56    7.63
  -6  -3  -7  176.60    6.72
  -6  -3  -7  175.54    9.69
  -6  -3  -7  183.51   11.30
  -6  -3  -7  190.77   11.51
  -6  -3  -7  187.28    8.68
   6   3   7  194.68    7.83
  -6  -3  -8  419.47   17.84
  -6  -3  -8  505.06   20.46
   6   3   8  449.39   11.72
  -6  -3  -8  495.35   14.29
   6   3   8  462.12   11.94
  -6  -3  -8  422.76   10.98
  -6  -3  -8  418.42   15.16
  -6  -3  -8  434.45   15.28
   6   3   9  130.12    6.06
  -6  -3  -9  160.16    7.72
   6   3   9  146.76    6.34
   6   3   9  148.06    6.79
  -6  -3  -9  130.86    5.99
  -6  -3  -9  137.79    8.06
   6   3   9  136.62    5.34
   6   3   9  139.53    6.36
   6   3  10   47.07    3.39
   6   3  10   49.38    3.49
  -6  -3 -10   43.64    3.96
   6   3  10   44.80    2.74
   6   3  10   47.67    3.39
  -6  -4   5    0.38    0.31
   6   4  -4  204.44    7.90
  -6  -4   4  187.13    6.74
   6   4  -3  187.20    9.00
  -6  -4   3  179.34    7.95
   6   4  -2  184.40    9.61
   6   4  -2  147.74    8.11
   6   4  -2  159.49    7.30
  -6  -4   2  191.20   11.82
  -6  -4   2  153.34    8.20
   6   4  -1  693.86   16.88
   6   4  -1  631.43   18.23
  -6  -4   1  630.32   21.58
  -6  -4   0  351.62   18.40
  -6  -4   0  209.53   11.01
  -6  -4   0  260.56   15.26
  -6  -4   0  294.58   16.88
  -6  -4  -1 1244.04   36.16
   6   4   1 1134.99   19.18
  -6  -4  -1  807.63   21.69
   6   4   1 1062.12   19.51
  -6  -4  -1  809.61   23.18
  -6  -4  -1  954.62   31.11
  -6  -4  -1  969.88   31.53
  -6  -4  -1  833.71   22.07
  -6  -4  -2  847.83   30.43
  -6  -4  -2  617.49   17.79
  -6  -4  -2  595.53   21.13
  -6  -4  -2  730.28   27.72
  -6  -4  -2  764.67   27.60
  -6  -4  -2  620.70   18.76
  -6  -4  -3  131.58    8.60
  -6  -4  -3  160.01   13.39
   6   4   3  151.60    6.21
  -6  -4  -3  139.34    6.58
  -6  -4  -3  131.67   11.72
  -6  -4  -3  149.39   12.16
  -6  -4  -3  115.53    7.89
  -6  -4  -4  936.36   25.40
  -6  -4  -4  963.70   20.09
  -6  -4  -4  954.67   31.64
  -6  -4  -4  957.27   30.81
  -6  -4  -4  935.74   22.43
  -6  -4  -5    6.62    2.16
  -6  -4  -5    7.15    1.93
  -6  -4  -5    7.51    2.92
  -6  -4  -5    6.53    2.65
  -6  -4  -5    7.46    2.07
  -6  -4  -6   15.26    3.62
  -6  -4  -6   22.11    4.03
   6   4   6   23.92    2.48
  -6  -4  -6   26.90    5.82
  -6  -4  -6   19.00    2.12
  -6  -4  -6   26.66    3.76
  -6  -4  -6   22.38    4.59
   6   4   6   20.12    2.35
  -6  -4  -7   45.81    5.96
  -6  -4  -7   64.47    6.91
   6   4   7   54.44    3.85
  -6  -4  -7   75.15    9.38
   6   4   7   53.54    3.58
  -6  -4  -7   50.64    3.65
  -6  -4  -7   44.26    4.91
  -6  -4  -7   43.87    5.88
  -6  -4  -7   56.98    6.71
   6   4   7   60.08    4.10
   6   4   8 1003.06   17.32
   6   4   8 1003.98   16.51
  -6  -4  -8 1005.93   17.55
   6   4   8 1043.88   17.80
   6   4   9   22.73    2.24
  -6  -4  -9   24.23    2.56
  -6  -4  -9   21.34    3.13
  -6  -4  -9   23.94    3.08
   6   4  10  128.15    5.24
   6   4  10  124.50    4.70
   6   4  10  126.44    5.42
  -6  -4 -10  117.41    6.26
   6   4  10  126.76    5.14
  -6  -5   4    6.40    1.06
   6   5  -3   17.15    2.32
  -6  -5   3   16.81    2.22
   6   5  -3   21.21    1.74
   6   5  -2   38.68    3.92
   6   5  -2   39.88    4.11
  -6  -5   2   32.85    3.62
  -6  -5   1   95.89    8.49
  -6  -5   1   83.86    6.31
  -6  -5   0  567.10   20.22
  -6  -5   0  552.44   17.36
  -6  -5  -1  206.20   13.27
  -6  -5  -1  206.38   10.96
  -6  -5  -2  464.43   20.96
  -6  -5  -2  491.30   22.11
  -6  -5  -3  621.03   25.06
  -6  -5  -3  666.13   25.91
  -6  -5  -3  621.99   19.44
  -6  -5  -4   94.64    9.80
  -6  -5  -4   81.08    5.58
  -6  -5  -4   68.39    8.16
  -6  -5  -4   75.33    8.60
  -6  -5  -4   71.09    6.44
  -6  -5  -5   21.09    4.75
  -6  -5  -5   16.50    2.78
  -6  -5  -5   14.89    3.88
  -6  -5  -5   18.72    4.25
  -6  -5  -5   13.80    2.88
   6   5   6   13.72    1.79
  -6  -5  -6   20.22    4.63
  -6  -5  -6   14.24    2.73
  -6  -5  -6   13.82    3.65
  -6  -5  -6   16.31    4.00
  -6  -5  -6   16.67    3.17
   6   5   7  238.08    7.63
  -6  -5  -7  252.03    8.15
  -6  -5  -7  238.66   13.25
   6   5   7  233.95    7.46
   6   5   8  964.67   15.96
  -6  -5  -8 1046.17   17.48
  -6  -5  -8  909.43   20.96
  -6  -5  -8 1108.06   26.30
   6   5   8  947.81   15.59
   6   5   9    9.50    1.48
  -6  -5  -9   11.42    1.76
  -6  -5  -9   10.00    2.04
  -6  -5  -9   13.72    2.50
   6   5   9   10.09    1.44
   6   5  10   56.06    3.30
  -6  -5 -10   54.61    3.82
   6   5  10   53.09    2.92
  -6  -5 -11  106.74    3.53
  -6  -6   3   97.21    4.15
  -6  -6   2  800.92   15.88
   6   6  -1  359.49   10.99
  -6  -6   1  332.97   11.51
  -6  -6   0  382.03   16.08
  -6  -6   0  340.08   12.75
  -6  -6  -1  481.55   19.60
  -6  -6  -1  450.46   15.68
  -6  -6  -2    7.50    2.67
  -6  -6  -2    4.37    1.73
  -6  -6  -3  236.67   14.09
  -6  -6  -3  270.43   15.62
  -6  -6  -3  244.91   11.93
  -6  -6  -4    8.04    1.69
  -6  -6  -4    6.24    2.48
  -6  -6  -4    4.97    2.31
  -6  -6  -5   20.35    2.87
  -6  -6  -5   17.51    3.87
  -6  -6  -5   19.76    4.24
  -6  -6  -6  297.69   11.21
  -6  -6  -6  276.95   14.71
   6   6   7  190.32    6.04
  -6  -6  -7  188.78    9.00
   6   6   8  214.13    6.30
   6   6   8  206.61    5.68
   6   6   9    8.18    1.15
  -6  -6  -9    7.21    1.61
  -6  -6 -10   68.54    3.73
  -6  -7   2    8.38    1.17
  -6  -7   1  276.25    8.62
  -6  -7   0   64.52    4.82
  -6  -7  -1  564.93   15.80
  -6  -7  -2  182.87   10.80
  -6  -7  -2  172.68    9.07
  -6  -7  -3  439.94   17.71
  -6  -7  -3  414.93   14.72
  -6  -7  -4   35.21    4.92
  -6  -7  -4   42.53    5.68
  -6  -7  -4   37.72    4.51
  -6  -7  -5  140.94    6.56
  -6  -7  -5  134.53    9.60
  -6  -7  -5  153.15   10.66
  -6  -7  -5  147.17    8.82
  -6  -7  -6  905.17   18.06
  -6  -7  -6  854.52   23.96
  -6  -7  -7  156.28    7.22
  -6  -7  -7  168.12    9.71
  -6  -7  -8  227.94    8.17
  -6  -7  -8  311.90   11.89
  -6  -7  -9   23.79    2.25
  -6  -8   0   60.48    3.34
  -6  -8  -1  263.88    8.52
  -6  -8  -2  185.72    7.90
  -6  -8  -3  332.45   11.39
  -6  -8  -4   29.18    3.80
  -6  -8  -4   28.93    3.41
  -6  -8  -5   46.09    4.59
  -6  -8  -5   56.12    5.38
  -6  -8  -6  732.64   18.48
  -6  -8  -7   86.72    4.21
  -6  -8  -7  106.95    6.56
  -6  -8  -8  155.23    4.96
  -7   6   0   13.80    1.46
  -7   6  -1  213.17    5.69
  -7   6  -1  197.19    5.90
  -7   6  -2  133.42    4.69
   7  -6   2  121.07    4.81
  -7   6  -3  180.62    5.33
   7  -6   3  178.92    5.93
   7  -6   4    3.23    0.76
  -7   5   2    3.70    0.82
  -7   5   2    3.38    0.80
   7  -5  -1  288.07    7.97
  -7   5   1  262.64    7.42
  -7   5   1  279.54    8.00
   7  -5   0   13.19    2.04
   7  -5   0   12.17    1.93
   7  -5   0   13.72    1.88
   7  -5   0   12.13    1.81
  -7   5   0   11.27    1.57
  -7   5   0   13.01    2.01
  -7   5  -1  143.20    5.35
   7  -5   1  136.32    6.38
  -7   5  -1  153.54    6.16
   7  -5   1  138.52    6.54
   7  -5   1  148.00    5.90
   7  -5   1  137.52    6.11
  -7   5  -1  129.70    5.61
   7  -5   1  138.44    5.61
  -7   5  -1  138.89    5.14
  -7   5  -1  150.85    6.97
   7  -5   1  138.32    7.03
  -7   5  -2  130.19    5.21
  -7   5  -2  123.52    5.85
   7  -5   2  125.48    4.80
   7  -5   2  113.62    5.73
   7  -5   2  118.87    5.64
  -7   5  -2  117.39    4.77
  -7   5  -2  108.17    4.67
  -7   5  -2  116.56    4.87
   7  -5   2  114.69    5.39
  -7   5  -2  131.33    6.60
   7  -5   2  119.81    6.98
   7  -5   2  112.03    4.82
  -7   5  -3    6.53    1.19
   7  -5   3    5.01    1.51
  -7   5  -3    6.44    1.42
   7  -5   3    4.99    1.14
   7  -5   3    5.00    1.18
  -7   5  -3    6.36    1.53
   7  -5   3    4.64    1.07
  -7   5  -4    0.10    0.42
  -7   5  -4    0.55    0.43
   7  -5   4    0.48    0.80
   7  -5   4   -0.06    0.41
  -7   5  -4    0.35    0.63
  -7   5  -4    0.35    0.46
  -7   5  -4    0.05    0.41
   7  -5   4    0.81    0.57
  -7   5  -4    0.96    0.76
   7  -5   4    0.47    0.45
   7  -5   4    0.15    0.30
  -7   5  -5   25.56    2.39
  -7   5  -5   21.26    2.25
   7  -5   5   24.77    2.60
   7  -4  -3   28.31    2.32
  -7   4   3   23.97    2.02
   7  -4  -2   22.51    2.67
  -7   4   2   23.65    2.49
  -7   4   2   22.73    2.27
  -7   4   2   23.73    2.33
   7  -4  -1    1.36    0.82
   7  -4  -1    0.78    0.71
   7  -4  -1    1.00    0.64
   7  -4  -1    1.43    0.86
  -7   4   1    0.92    0.59
  -7   4   1    2.29    0.99
   7  -4  -1    0.34    0.66
  -7   4   1    1.71    0.85
  -7   4   0    2.43    0.86
   7  -4   0    3.29    1.42
   7  -4   0    2.28    1.05
  -7   4   0    3.13    1.08
   7  -4   0    1.52    0.95
  -7   4   0    2.49    0.86
   7  -4   0    2.59    0.83
  -7   4   0    2.87    0.99
  -7   4   0    3.87    1.29
   7  -4   0    3.79    1.35
  -7   4   0    2.83    1.22
   7  -4   1  418.43   13.10
  -7   4  -1  443.09   11.96
  -7   4  -1  436.21   11.88
   7  -4   1  408.58   12.72
   7  -4   1  449.51   12.45
   7  -4   1  441.64   12.25
  -7   4  -1  372.56   10.20
   7  -4   1  411.62   10.85
  -7   4  -1  441.95   13.61
   7  -4   1  391.92    9.72
   7  -4   1  430.82   15.33
  -7   4  -2  116.69    5.47
  -7   4  -2  137.37    6.60
  -7   4  -2  127.23    6.73
   7  -4   2  115.35    6.49
   7  -4   2  117.45    5.87
   7  -4   2  123.90    6.36
  -7   4  -2  119.57    5.70
  -7   4  -2  115.21    6.56
  -7   4  -2  124.62    5.94
  -7   4  -2  122.65    7.64
   7  -4   2  122.64    5.69
   7  -4   2  125.06    8.43
  -7   4  -3    2.22    0.89
   7  -4   3    3.03    1.56
  -7   4  -3    2.15    0.93
   7  -4   3    1.41    0.88
   7  -4   3    1.99    0.91
  -7   4  -3    2.16    1.18
  -7   4  -3    2.39    0.98
  -7   4  -3    1.32    0.82
   7  -4   3    2.63    1.04
  -7   4  -3    1.81    0.95
  -7   4  -3    2.81    1.34
   7  -4   3    1.82    0.71
  -7   4  -4   56.61    3.85
  -7   4  -4   64.64    4.20
  -7   4  -4   57.75    4.79
   7  -4   4   55.79    4.12
   7  -4   4   60.36    4.17
  -7   4  -4   59.79    4.00
  -7   4  -4   62.74    4.12
   7  -4   4   50.86    3.99
  -7   4  -4   52.69    4.94
  -7   4  -4   51.20    2.91
   7  -4   4   57.68    3.84
   7  -4   4   55.03    5.43
   7  -4   4   45.89    3.23
   7  -4   4   57.88    3.48
  -7   4  -5   33.21    2.84
  -7   4  -5   29.44    3.40
  -7   4  -5   27.29    3.14
   7  -4   5   35.64    3.10
  -7   4  -5   33.21    2.88
   7  -4   5   32.29    3.08
  -7   4  -5   30.44    3.60
  -7   4  -5   32.50    2.35
   7  -4   5   36.36    4.04
   7  -4   5   34.34    2.89
   7  -4   5   32.56    2.51
  -7   4  -6  201.67    7.17
  -7   4  -6  234.14    8.21
   7  -4   6  260.81    7.48
  -7   4  -6  277.29    7.68
  -7   4  -6  255.30    7.49
   7  -4   6  245.56    7.77
  -7   4  -6  236.43    8.96
   7  -4   6  226.61    8.35
   7  -4   6  253.43    7.42
   7  -4   6  260.71    6.63
  -7   4  -7   71.53    3.54
   7  -3  -4  103.60    3.97
  -7   3   3  352.75    8.71
   7  -3  -3  328.08   10.26
  -7   3   3  303.58    8.17
  -7   3   3  279.66    8.10
  -7   3   2   66.51    4.79
   7  -3  -2   50.71    4.30
  -7   3   2   50.24    3.90
   7  -3  -2   47.18    3.78
   7  -3  -2   49.17    4.34
   7  -3  -2   51.95    4.20
  -7   3   2   55.00    4.14
  -7   3   2   47.72    3.65
  -7   3   1   31.21    2.83
   7  -3  -1   29.86    3.63
  -7   3   1   35.95    3.61
   7  -3  -1   34.46    3.78
   7  -3  -1   34.85    3.25
   7  -3  -1   34.61    3.65
  -7   3   1   31.35    3.45
  -7   3   1   31.21    3.06
  -7   3   0    5.65    1.80
   7  -3   0    3.92    1.69
   7  -3   0    5.28    1.64
  -7   3   0    5.27    1.50
   7  -3   0    4.75    1.54
   7  -3   0    3.67    1.24
   7  -3   0    3.85    1.47
  -7   3   0    5.23    1.42
  -7   3   0    4.80    1.48
   7  -3   0    5.62    1.65
  -7   3   0    6.40    1.74
  -7   3  -1  211.07    8.03
   7  -3   1  218.83   10.06
   7  -3   1  228.61    9.95
   7  -3   1  227.26    9.48
  -7   3  -1  210.06    8.23
  -7   3  -1  237.37   10.51
  -7   3  -1  207.31    8.19
  -7   3  -1  196.15    7.71
  -7   3  -1  222.09   10.43
   7  -3   1  218.06    7.36
   7  -3   1  229.76   11.99
  -7   3  -2  168.88    7.50
   7  -3   2  158.07    8.29
  -7   3  -2  167.60    7.85
  -7   3  -2  170.03    8.32
   7  -3   2  159.57    8.06
   7  -3   2  153.36    7.28
   7  -3   2  162.34    7.90
   7  -3   2  170.55    7.70
  -7   3  -2  159.16    7.16
  -7   3  -2  155.94    7.25
   7  -3   2  156.12    7.31
  -7   3  -2  156.90    6.70
  -7   3  -2  163.68    9.43
   7  -3   2  167.02    6.91
   7  -3   2  169.39   10.73
  -7   3  -3    0.73    0.76
   7  -3   3    1.09    1.41
  -7   3  -3    2.07    1.05
   7  -3   3    1.46    0.90
   7  -3   3    2.37    1.17
  -7   3  -3    2.91    1.32
   7  -3   3    3.35    1.18
  -7   3  -3    1.48    0.92
  -7   3  -3    0.68    0.72
   7  -3   3    1.35    0.83
  -7   3  -3    1.63    1.18
  -7   3  -3    1.56    0.70
  -7   3  -3    2.24    1.43
   7  -3   3    1.10    0.77
   7  -3   3    1.79    0.73
  -7   3  -4  519.56   12.85
   7  -3   4  493.24   13.69
  -7   3  -4  519.89   15.96
   7  -3   4  496.10   13.36
   7  -3   4  541.32   13.68
  -7   3  -4  525.26   13.03
  -7   3  -4  447.90   14.10
   7  -3   4  493.24   13.31
  -7   3  -4  517.68   12.86
  -7   3  -4  492.45   17.19
  -7   3  -4  496.72   11.15
   7  -3   4  506.97   18.26
   7  -3   4  522.40   11.36
  -7   3  -5    9.79    1.77
  -7   3  -5   10.80    1.94
  -7   3  -5   10.78    2.36
   7  -3   5    9.78    1.83
   7  -3   5    8.77    1.74
  -7   3  -5    7.21    1.62
  -7   3  -5    9.35    1.69
   7  -3   5    6.57    1.51
  -7   3  -5   11.05    1.91
  -7   3  -5    7.97    1.41
  -7   3  -5    9.13    2.41
   7  -3   5    9.97    1.72
   7  -3   5    7.30    1.37
  -7   3  -6  539.33   16.71
   7  -3   6  644.79   11.06
  -7   3  -6  783.01   15.77
  -7   3  -6  666.86   17.06
   7  -3   6  671.72   14.03
   7  -3   6  677.62   13.96
  -7   3  -6  703.19   13.76
   7  -3   6  639.54   13.89
  -7   3  -6  674.66   13.83
  -7   3  -6  587.45   17.49
   7  -3   6  577.44   16.06
   7  -3   6  706.37   13.98
   7  -3   6  688.46   12.49
  -7   3  -7   28.65    3.27
   7  -3   7   29.65    2.17
   7  -3   7   30.13    2.65
  -7   3  -7   30.97    2.67
   7  -3   7   32.48    2.87
  -7   3  -7   32.08    2.56
   7  -3   7   25.39    2.41
   7  -3   7   33.09    2.76
   7  -3   7   30.41    2.35
  -7   3  -8    4.55    0.96
  -7   3  -8    5.15    1.05
  -7   2   4    8.72    1.53
   7  -2  -4    5.36    1.12
   7  -2  -3  112.95    6.47
   7  -2  -3  115.77    6.46
  -7   2   3  122.85    5.35
  -7   2   2    4.68    1.78
   7  -2  -2    4.92    1.54
   7  -2  -2    2.58    1.14
   7  -2  -2    2.33    0.95
   7  -2  -2    1.52    1.01
   7  -2  -2    3.31    1.48
   7  -2  -2    2.43    1.12
  -7   2   2    2.73    1.08
  -7   2   2    3.56    1.14
  -7   2   2    3.40    1.26
   7  -2  -2    3.94    1.34
  -7   2   1  252.09    8.87
   7  -2  -1  303.73   11.53
  -7   2   1  303.66   11.46
   7  -2  -1  289.31   10.37
   7  -2  -1  314.48   12.43
   7  -2  -1  292.95    9.07
   7  -2  -1  313.73   11.24
  -7   2   1  324.85   11.77
  -7   2   1  290.30   10.34
   7  -2  -1  350.89   13.57
  -7   2   0   18.46    2.51
  -7   2   0   27.68    4.56
   7  -2   0   19.27    3.01
  -7   2   0   21.24    3.10
   7  -2   0   19.99    3.22
   7  -2   0   18.67    2.51
   7  -2   0   19.74    2.94
   7  -2   0   19.00    2.84
  -7   2   0   14.53    2.27
  -7   2   0   22.36    3.39
  -7   2   0   18.44    2.61
  -7   2   0   19.43    2.94
   7  -2   0   21.27    3.70
  -7   2  -1  329.34   10.61
   7  -2   1  387.45   13.71
  -7   2  -1  393.22   13.19
  -7   2  -1  377.93   11.83
   7  -2   1  391.88   12.85
   7  -2   1  405.62   13.85
   7  -2   1  393.46   11.86
   7  -2   1  364.88   12.15
   7  -2   1  377.28   12.59
  -7   2  -1  340.29   11.08
  -7   2  -1  371.30   14.11
   7  -2   1  360.74   10.58
  -7   2  -1  335.73   10.93
  -7   2  -1  363.60   11.48
   7  -2   1  414.91   16.65
  -7   2  -2   87.36    5.60
  -7   2  -2  120.15    9.47
   7  -2   2   98.27    6.58
  -7   2  -2  101.85    6.54
   7  -2   2   90.31    6.10
   7  -2   2   98.83    6.64
   7  -2   2  101.30    6.07
  -7   2  -2   85.23    5.50
  -7   2  -2   85.93    6.93
   7  -2   2   91.43    5.53
  -7   2  -2   89.19    5.61
  -7   2  -2   95.59    5.70
  -7   2  -2   79.70    4.47
  -7   2  -2   95.62    7.50
   7  -2   2   92.23    5.01
   7  -2   2  104.04    8.72
  -7   2  -3   27.32    3.09
  -7   2  -3   32.60    4.91
   7  -2   3   29.48    3.58
  -7   2  -3   34.96    3.73
  -7   2  -3   27.02    3.79
   7  -2   3   37.48    3.93
  -7   2  -3   29.36    3.22
  -7   2  -3   25.17    3.90
  -7   2  -3   26.82    3.05
  -7   2  -3   26.66    2.70
  -7   2  -3   31.62    4.48
   7  -2   3   32.40    3.12
   7  -2   3   28.73    4.72
  -7   2  -4  185.32    7.91
  -7   2  -4  185.69   11.25
   7  -2   4  166.63    8.02
  -7   2  -4  206.54    8.97
  -7   2  -4  185.40    9.98
   7  -2   4  204.39    8.74
   7  -2   4  211.63    9.13
   7  -2   4  206.49    8.50
  -7   2  -4  180.54    7.80
  -7   2  -4  173.04    9.93
   7  -2   4  186.14    8.10
  -7   2  -4  180.11    7.71
  -7   2  -4  189.67   10.20
  -7   2  -4  172.53   10.68
   7  -2   4  187.88    7.51
   7  -2   4  183.82   11.42
   7  -2   4  189.20    6.71
  -7   2  -5   45.70    3.85
  -7   2  -5   45.74    5.30
   7  -2   5   42.68    3.83
  -7   2  -5   46.29    4.19
  -7   2  -5   46.26    5.05
   7  -2   5   45.97    4.10
   7  -2   5   48.62    4.17
   7  -2   5   48.80    4.10
  -7   2  -5   46.49    3.91
  -7   2  -5   39.65    4.50
   7  -2   5   41.27    3.73
  -7   2  -5   47.26    3.90
  -7   2  -5   39.40    5.19
  -7   2  -5   44.44    3.53
   7  -2   5   37.83    4.96
   7  -2   5   46.27    3.37
  -7   2  -6   81.70    4.85
  -7   2  -6   75.09    7.21
   7  -2   6   78.68    4.02
  -7   2  -6   80.98    6.57
   7  -2   6   84.25    5.29
   7  -2   6   81.11    4.99
  -7   2  -6   56.17    4.58
  -7   2  -6   78.98    4.73
   7  -2   6   75.13    4.94
  -7   2  -6   80.36    4.89
  -7   2  -6   68.89    6.64
  -7   2  -6   73.09    4.50
   7  -2   6   83.65    4.93
   7  -2   6   73.29    6.13
   7  -2   6   81.34    4.40
  -7   2  -7    4.54    1.84
   7  -2   7    5.89    1.12
   7  -2   7    5.87    1.33
  -7   2  -7    4.51    1.57
  -7   2  -7    5.36    1.26
   7  -2   7    6.12    1.40
  -7   2  -7    6.07    1.29
  -7   2  -7    3.31    1.58
   7  -2   7    6.04    1.39
   7  -2   7    6.00    1.29
   7  -2   7    5.00    1.08
   7  -2   8  161.78    5.30
   7  -2   8  169.97    6.23
   7  -2   8  164.01    6.22
  -7   2  -8  166.33    6.06
   7  -2   8  170.25    6.12
   7  -2   8  169.56    5.43
  -7   1   4   40.03    3.04
  -7   1   3   78.82    5.24
   7  -1  -3   80.41    5.50
   7  -1  -3   99.29    6.82
   7  -1  -3   90.88    6.02
   7  -1  -3   91.18    5.31
  -7   1   3   76.44    4.83
  -7   1   3  111.67    6.24
   7  -1  -2    2.21    1.03
  -7   1   2    2.75    1.22
   7  -1  -2    3.63    1.44
   7  -1  -2    2.15    1.21
  -7   1   2    2.81    1.21
  -7   1   2    3.22    1.37
   7  -1  -2    2.40    1.14
   7  -1  -1  230.83   11.41
  -7   1   1  193.49    9.48
   7  -1  -1  185.53    7.98
   7  -1  -1  199.52    9.80
   7  -1  -1  210.54    9.96
   7  -1  -1  181.87    8.48
  -7   1   1  191.08    9.12
  -7   1   1  171.28    8.19
  -7   1   1  229.09   10.58
   7  -1   0  232.34   12.22
  -7   1   0  166.07    8.18
  -7   1   0  248.31   14.58
   7  -1   0  198.28    9.65
  -7   1   0  193.64    9.52
   7  -1   0  199.45    8.89
   7  -1   0  206.85   10.07
   7  -1   0  196.76    9.76
  -7   1   0  141.30    7.18
   7  -1   0  194.12    8.79
  -7   1   0  201.71   10.08
  -7   1   0  157.57    8.13
  -7   1   0  218.00   10.26
  -7   1   0  186.62    8.78
   7  -1   1  382.10   16.42
  -7   1  -1  335.42   11.47
   7  -1   1  376.81   13.28
  -7   1  -1  368.53   12.86
  -7   1  -1  334.74   11.21
   7  -1   1  403.09   14.13
   7  -1   1  359.47   10.78
  -7   1  -1  302.68   10.67
  -7   1  -1  327.22   13.86
   7  -1   1  333.59    9.56
  -7   1  -1  288.28   10.25
  -7   1  -1  319.25   11.05
  -7   1  -1  356.01   13.19
  -7   1  -2  228.14    9.24
  -7   1  -2  318.61   16.84
   7  -1   2  249.71   10.56
  -7   1  -2  267.28   10.63
  -7   1  -2  236.15   10.35
   7  -1   2  259.91   10.57
   7  -1   2  288.93   12.07
   7  -1   2  259.87    9.46
   7  -1   2  265.78   10.85
  -7   1  -2  213.38    8.89
  -7   1  -2  241.16   12.07
   7  -1   2  247.79    8.75
  -7   1  -2  210.17    8.74
  -7   1  -2  219.97    8.97
  -7   1  -2  238.69   11.73
   7  -1   2  261.61   13.92
  -7   1  -3   63.05    4.98
  -7   1  -3   76.43    8.34
   7  -1   3   76.09    5.85
  -7   1  -3   73.64    5.54
  -7   1  -3   65.00    5.86
   7  -1   3   74.23    5.49
   7  -1   3   88.98    6.54
   7  -1   3   78.64    5.28
   7  -1   3   78.72    5.75
  -7   1  -3   69.14    5.09
  -7   1  -3   60.94    6.35
   7  -1   3   72.16    4.86
  -7   1  -3   65.47    4.78
  -7   1  -3   59.70    6.15
   7  -1   3   73.66    4.56
   7  -1   3   79.08    7.67
  -7   1  -4 1449.31   24.63
  -7   1  -4 1512.27   37.26
   7  -1   4 1429.79   25.12
  -7   1  -4 1486.27   25.30
  -7   1  -4 1374.78   28.69
   7  -1   4 1527.47   25.45
   7  -1   4 1522.71   24.44
  -7   1  -4 1356.18   22.94
  -7   1  -4 1193.91   29.21
   7  -1   4 1448.22   23.59
  -7   1  -4 1338.38   22.67
  -7   1  -4 1466.15   33.37
  -7   1  -4 1282.36   30.69
  -7   1  -4 1272.84   21.19
   7  -1   4 1487.89   22.36
  -7   1  -5    9.03    2.88
   7  -1   5    6.70    2.20
   7  -1   5    4.29    1.38
  -7   1  -5    2.98    1.32
   7  -1   5    5.11    1.56
  -7   1  -5    5.49    2.06
  -7   1  -5    4.72    1.43
   7  -1   5    4.16    1.30
  -7   1  -5    4.10    1.61
  -7   1  -5    3.43    1.71
  -7   1  -5    3.26    1.14
  -7   1  -5    3.63    1.80
   7  -1   5    3.22    1.06
  -7   1  -6  759.02   16.32
  -7   1  -6  611.89   22.56
  -7   1  -6  725.92   23.90
   7  -1   6  717.22   12.97
  -7   1  -6  660.15   20.26
   7  -1   6  753.67   16.12
   7  -1   6  772.04   17.06
   7  -1   6  757.35   16.48
  -7   1  -6  564.27   17.86
  -7   1  -6  734.83   15.49
   7  -1   6  723.55   15.74
  -7   1  -6  673.56   14.63
  -7   1  -6  636.36   21.52
  -7   1  -6  676.56   14.75
   7  -1   6  679.74   14.70
   7  -1   6  586.28   18.04
   7  -1   6  697.18   13.25
  -7   1  -7  108.68    8.81
  -7   1  -7  128.84    9.23
   7  -1   7  120.07    5.16
  -7   1  -7  104.66    7.74
   7  -1   7  135.71    6.58
   7  -1   7  122.32    6.13
   7  -1   7  122.28    6.10
  -7   1  -7  117.21    5.60
  -7   1  -7  103.25    8.18
  -7   1  -7  109.32    5.76
   7  -1   7  129.46    6.05
   7  -1   7  122.06    5.20
  -7   1  -8  400.23   15.40
  -7   1  -8  398.59   13.55
   7  -1   8  447.20    9.76
   7  -1   8  464.86   11.18
   7  -1   8  475.46   11.48
  -7   1  -8  436.14   10.84
   7  -1   8  484.49   11.12
   7  -1   8  427.12    9.28
   7  -1   9 1159.28   15.06
   7  -1   9 1200.09   16.89
  -7   1  -9 1182.55   16.66
   7  -1   9 1202.13   16.54
  -7   1 -10   90.46    3.71
   7   0  -4    4.85    1.08
  -7   0   4    5.13    1.31
   7   0  -3    2.18    0.95
   7   0  -3    2.98    1.34
   7   0  -3    4.41    1.45
  -7   0   3    2.36    1.24
   7   0  -3    2.22    1.03
   7   0  -2    1.08    0.72
  -7   0   2    0.95    0.92
   7   0  -2    0.74    0.93
  -7   0   2    0.32    0.72
   7   0  -2    0.54    0.68
  -7   0   1  517.42   14.39
   7   0  -1  697.17   16.49
  -7   0   1  621.24   17.66
   7   0  -1  782.14   18.86
   7   0  -1  722.12   18.70
   7   0  -1  756.80   19.80
   7   0  -1  635.32   15.39
  -7   0   1  603.98   16.65
  -7   0   1  841.29   22.32
  -7   0   0  590.63   15.93
  -7   0   0  655.54   17.94
   7   0   0  707.20   16.18
   7   0   0  783.65   20.00
   7   0   0  801.54   20.49
  -7   0   0  633.26   18.43
   7   0   0  671.03   15.73
  -7   0   0  821.91   22.51
  -7   0  -1  302.45   11.72
  -7   0  -1  468.44   21.38
   7   0   1  350.74   12.43
  -7   0  -1  306.37   11.76
   7   0   1  328.25   10.95
   7   0   1  374.43   13.90
   7   0   1  386.71   14.11
  -7   0  -1  266.87   10.43
  -7   0  -1  336.90   14.53
  -7   0  -1  292.02   11.29
  -7   0  -1  365.38   14.89
  -7   0  -2   16.96    2.76
  -7   0  -2   27.95    5.50
   7   0   2   19.67    2.94
  -7   0  -2   16.49    2.83
  -7   0  -2   17.73    2.82
   7   0   2   23.21    2.99
   7   0   2   28.55    3.88
   7   0   2   18.11    2.33
  -7   0  -2   17.30    2.69
  -7   0  -2   17.21    3.50
   7   0   2   21.15    2.43
  -7   0  -2   17.07    2.55
  -7   0  -2   18.22    2.80
  -7   0  -2   20.13    3.37
  -7   0  -2   20.98    3.38
   7   0   3  118.32    9.19
  -7   0  -3  104.66    6.79
  -7   0  -3  138.93   11.90
   7   0   3  123.13    7.35
  -7   0  -3  105.36    6.49
  -7   0  -3  110.74    7.70
   7   0   3  120.99    6.80
   7   0   3  117.83    6.14
  -7   0  -3   94.84    5.97
  -7   0  -3  104.22    8.63
   7   0   3  109.60    5.76
  -7   0  -3  106.48    8.11
  -7   0  -3   94.85    5.52
  -7   0  -4  553.15   15.13
  -7   0  -4  661.98   26.10
   7   0   4  679.19   17.11
  -7   0  -4  650.54   16.36
  -7   0  -4  603.03   19.27
   7   0   4  714.72   17.19
   7   0   4  684.59   15.44
  -7   0  -4  513.68   14.15
  -7   0  -4  540.19   20.19
  -7   0  -4  523.15   13.48
  -7   0  -4  673.62   24.13
  -7   0  -4  540.70   13.55
   7   0   4  644.38   13.60
   7   0   4  627.29   20.96
  -7   0  -5  116.91    6.66
   7   0   5  149.31    7.74
  -7   0  -5  114.25    8.60
  -7   0  -5  134.49    7.22
   7   0   5  137.66    7.38
   7   0   5  142.98    7.05
  -7   0  -5  110.78    9.04
  -7   0  -5  135.58    6.95
   7   0   5  126.53    6.52
  -7   0  -5  124.96    6.34
  -7   0  -5  118.00    9.21
  -7   0  -5  110.10    8.93
  -7   0  -5  118.16    6.33
   7   0   5  137.16    6.32
   7   0   5  113.12    8.53
  -7   0  -6  445.68   12.56
  -7   0  -6  433.28   19.48
   7   0   6  466.97   10.35
  -7   0  -6  460.16   17.51
   7   0   6  496.19   13.98
  -7   0  -6  387.31   16.19
  -7   0  -6  456.55   12.14
   7   0   6  489.88   12.90
  -7   0  -6  469.52   12.09
  -7   0  -6  411.87   17.43
  -7   0  -6  452.98   12.28
   7   0   6  507.09   12.46
   7   0   6  399.27   14.47
  -7   0  -7   39.02    5.68
  -7   0  -7   45.85    6.32
   7   0   7   44.11    3.18
  -7   0  -7   37.75    4.98
   7   0   7   48.12    3.89
   7   0   7   50.88    4.21
   7   0   7   44.78    3.78
   7   0   7   43.44    3.70
  -7   0  -7   41.97    3.65
   7   0   7   41.95    3.49
   7   0   7   39.14    2.84
  -7   0  -8    2.71    1.63
   7   0   8    1.71    0.70
   7   0   8    2.02    0.91
   7   0   8    3.43    1.11
  -7   0  -8    1.47    1.27
   7   0   8    1.37    0.86
  -7   0  -8    1.87    0.88
   7   0   8    1.39    0.77
   7   0   8    2.42    0.77
  -7   0  -9  189.08   10.09
   7   0   9  194.73    6.05
   7   0   9  199.86    6.81
   7   0   9  209.79    6.94
   7   0   9  199.06    6.64
  -7   0 -10  110.32    4.78
   7   1  -4   33.48    2.34
  -7  -1   4   36.73    3.23
   7   1  -3    7.79    1.77
   7   1  -3    5.66    1.69
   7   1  -3    6.29    1.37
  -7  -1   3   10.98    2.25
  -7  -1   2   10.18    2.22
   7   1  -2    8.63    1.82
   7   1  -2   14.87    2.98
   7   1  -2   11.05    2.24
   7   1  -2    9.94    1.83
  -7  -1   2   11.09    2.22
  -7  -1   2   18.09    3.24
   7   1  -1  365.26   11.02
  -7  -1   1  363.31   13.69
   7   1  -1  410.00   13.29
   7   1  -1  412.23   14.17
  -7  -1   1  382.82   13.17
   7   1  -1  380.80   11.11
  -7  -1   1  341.15   12.79
  -7  -1   0   58.68    5.23
  -7  -1   0  102.44    9.97
   7   1   0   82.71    5.63
  -7  -1   0   71.11    6.05
   7   1   0   89.83    6.78
  -7  -1   0   83.23    7.48
  -7  -1  -1  104.01    7.04
  -7  -1  -1  179.18   13.59
  -7  -1  -1  132.82    8.09
   7   1   1  126.84    6.29
   7   1   1  156.45    8.76
   7   1   1  168.23    9.50
  -7  -1  -1  113.18    8.33
  -7  -1  -1  110.52    7.24
  -7  -1  -1  149.09   10.25
  -7  -1  -2  129.43    8.03
  -7  -1  -2  142.34    7.90
  -7  -1  -2  187.79   14.48
   7   1   2  176.26    8.72
  -7  -1  -2  149.66    8.33
   7   1   2  166.66    7.63
   7   1   2  196.00   10.04
  -7  -1  -2  144.53   10.23
  -7  -1  -2  119.55    7.10
  -7  -1  -2  126.19    7.50
  -7  -1  -2  156.53   10.32
  -7  -1  -3    0.49    0.76
  -7  -1  -3   -0.29    1.73
   7   1   3    1.38    0.99
  -7  -1  -3    1.34    0.99
   7   1   3    1.19    0.89
  -7  -1  -3    0.28    0.89
  -7  -1  -3    0.84    0.81
   7   1   3    0.93    0.69
  -7  -1  -3    0.26    1.39
  -7  -1  -3    1.02    1.10
  -7  -1  -3    1.01    1.37
  -7  -1  -3    0.61    0.82
   7   1   4  603.43   19.94
  -7  -1  -4  642.89   27.05
   7   1   4  673.71   17.37
  -7  -1  -4  558.27   14.95
   7   1   4  603.29   15.45
   7   1   4  615.04   13.58
  -7  -1  -4  538.67   21.03
  -7  -1  -4  496.92   14.27
   7   1   4  579.34   13.81
  -7  -1  -4  501.12   13.17
  -7  -1  -4  516.63   17.03
  -7  -1  -4  524.35   18.44
  -7  -1  -4  522.07   13.80
   7   1   4  593.15   12.23
  -7  -1  -5    1.02    0.93
  -7  -1  -5   -0.29    1.56
   7   1   5    0.34    0.71
   7   1   5    0.16    0.78
   7   1   5    1.03    0.89
   7   1   5    0.42    0.59
  -7  -1  -5    2.44    1.43
  -7  -1  -5    1.20    0.86
  -7  -1  -5    0.77    0.73
  -7  -1  -5    1.32    1.37
  -7  -1  -5    0.63    1.11
  -7  -1  -5    0.56    0.72
  -7  -1  -5    0.55    1.15
   7   1   5    5.07    1.27
  -7  -1  -6  250.01   15.06
  -7  -1  -6  291.05   17.60
  -7  -1  -6  271.23   13.85
  -7  -1  -6  287.46   10.27
   7   1   6  317.34   11.14
   7   1   6  298.70    9.79
  -7  -1  -6  226.24   12.97
   7   1   6  290.19    9.83
  -7  -1  -6  232.08   12.28
  -7  -1  -6  268.38    9.73
   7   1   6  296.32    9.31
  -7  -1  -7   93.29    8.88
   7   1   7  102.33    4.77
  -7  -1  -7   98.49    8.18
  -7  -1  -7  110.58   10.53
  -7  -1  -7  109.13    6.09
   7   1   7  113.26    6.34
   7   1   7  106.06    5.77
   7   1   7  105.08    5.78
  -7  -1  -7  102.20    5.89
   7   1   7   99.73    5.33
  -7  -1  -8  522.04   19.64
  -7  -1  -8  463.78   17.01
  -7  -1  -8  620.70   23.35
   7   1   8  514.32   10.90
   7   1   8  616.73   13.59
   7   1   8  581.61   13.71
   7   1   8  560.85   13.13
  -7  -1  -8  528.26   12.88
   7   1   8  528.33   12.00
  -7  -1  -9  511.94   15.76
  -7  -1  -9  562.59   18.90
   7   1   9  562.20   10.78
   7   1   9  594.13   12.68
   7   1   9  542.54   11.43
   7   1   9  594.14   12.29
  -7  -1  -9  567.84   13.85
   7   1   9  560.14   11.59
  -7  -1 -10    4.24    1.06
   7   1  10    4.20    0.88
  -7  -2   4   56.48    3.64
  -7  -2   3  297.17   11.56
   7   2  -3  220.24    8.80
   7   2  -3  225.75    9.14
   7   2  -3  196.62    7.58
   7   2  -3  207.80    6.41
   7   2  -3  218.89    9.17
  -7  -2   3  247.13    9.88
  -7  -2   3  156.65    4.57
   7   2  -2  214.55    9.69
  -7  -2   2  225.10   10.91
  -7  -2   1 1085.55   23.50
   7   2  -1 1167.65   21.22
   7   2  -1 1334.88   24.89
  -7  -2   1  988.71   22.57
  -7  -2   1 1500.91   31.72
  -7  -2   1 1060.60   17.34
  -7  -2   0  470.68   20.94
   7   2   0  337.51   10.63
  -7  -2   0  294.12   12.10
   7   2   0  348.34   11.91
   7   2   0  392.19   14.10
  -7  -2   0  314.89   12.66
  -7  -2   0  406.24   18.34
  -7  -2   0  289.00   12.14
  -7  -2   0  389.24   16.65
  -7  -2  -1  102.21   10.38
   7   2   1   85.35    5.56
   7   2   1   94.24    6.46
  -7  -2  -1   96.23    9.65
  -7  -2  -1   75.56    6.19
  -7  -2  -2  479.75   16.24
  -7  -2  -2  724.00   28.43
   7   2   2  600.54   13.52
  -7  -2  -2  519.32   19.15
  -7  -2  -2  681.75   26.22
  -7  -2  -2  637.48   22.09
  -7  -2  -3    8.10    2.21
   7   2   3   14.23    2.61
  -7  -2  -3    8.19    3.23
  -7  -2  -3   12.55    2.43
   7   2   3   10.28    1.93
  -7  -2  -3    8.29    2.19
  -7  -2  -3    7.86    1.85
   7   2   3   10.63    1.69
  -7  -2  -3   18.48    4.65
  -7  -2  -3    6.96    2.45
  -7  -2  -3    7.12    2.52
  -7  -2  -4 1218.53   25.35
  -7  -2  -4 1326.84   29.39
  -7  -2  -4 1543.26   43.45
  -7  -2  -4 1508.31   25.52
   7   2   4 1685.81   25.80
  -7  -2  -4 1229.63   32.45
  -7  -2  -4 1170.38   22.68
   7   2   4 1554.45   22.55
  -7  -2  -4 1476.32   38.83
  -7  -2  -4 1353.84   31.35
  -7  -2  -5   36.71    4.08
  -7  -2  -5   44.52    6.14
  -7  -2  -5   35.96    4.97
  -7  -2  -5   49.62    7.70
  -7  -2  -5   42.61    3.93
   7   2   5   49.96    3.53
  -7  -2  -5   44.56    6.21
   7   2   5   48.79    3.98
  -7  -2  -5   43.98    3.88
  -7  -2  -5   44.27    6.31
  -7  -2  -5   42.09    5.12
  -7  -2  -5   42.24    3.99
   7   2   5   49.73    3.46
   7   2   5   42.53    4.78
  -7  -2  -6   45.74    5.73
  -7  -2  -6   55.98    8.01
  -7  -2  -6   57.28    4.47
   7   2   6   58.41    4.76
   7   2   6   56.21    3.94
  -7  -2  -6   42.85    5.83
   7   2   6   54.48    4.26
  -7  -2  -6   45.63    5.87
  -7  -2  -6   53.65    5.20
  -7  -2  -6   48.31    4.25
   7   2   6   58.05    3.93
  -7  -2  -7  223.40   13.35
  -7  -2  -7  217.30   12.33
   7   2   7  231.50    7.04
  -7  -2  -7  260.50   16.69
   7   2   7  251.53    8.30
   7   2   7  236.08    8.67
  -7  -2  -7  226.06    9.53
  -7  -2  -7  188.20    9.98
  -7  -2  -7  213.94    8.64
   7   2   7  247.63    8.17
  -7  -2  -8  114.22    8.48
  -7  -2  -8  123.98    9.48
   7   2   8  122.24    5.09
   7   2   8  130.51    5.75
   7   2   8  122.45    6.03
  -7  -2  -8  119.56    6.86
  -7  -2  -8  121.74    6.09
   7   2   8  134.44    5.80
  -7  -2  -9   80.43    6.45
  -7  -2  -9   96.47    7.70
   7   2   9   88.78    4.05
   7   2   9   95.87    5.04
   7   2   9   92.27    4.42
   7   2   9   92.87    4.73
  -7  -2  -9   90.29    5.53
   7   2  10   17.30    1.86
  -7  -2 -10   16.58    2.08
   7   2  10   18.69    1.76
  -7  -3   3    1.38    0.90
  -7  -3   3    1.12    0.48
   7   3  -2  309.40   10.82
   7   3  -2  299.68    9.56
  -7  -3   2  330.66   13.08
   7   3  -1   42.44    4.46
   7   3  -1   43.61    4.06
  -7  -3   1   46.06    5.09
  -7  -3   1   44.72    5.37
  -7  -3   1   40.80    3.36
  -7  -3   0  581.25   21.98
  -7  -3   0  338.81   12.78
   7   3   0  408.68   11.80
   7   3   0  489.69   14.85
  -7  -3   0  460.70   18.48
  -7  -3   0  492.16   18.82
  -7  -3   0  357.44   10.79
  -7  -3  -1   49.16    6.92
   7   3   1   40.30    3.51
  -7  -3  -1   33.10    3.99
   7   3   1   41.31    3.93
  -7  -3  -1   37.62    4.76
  -7  -3  -1   45.19    6.34
  -7  -3  -1   47.57    6.18
  -7  -3  -1   34.06    3.39
  -7  -3  -2  303.22   17.92
   7   3   2  308.87   10.59
  -7  -3  -2  239.92   10.91
   7   3   2  322.29   11.60
  -7  -3  -2  272.37   16.24
  -7  -3  -2  266.39   14.84
  -7  -3  -2  221.67    8.64
  -7  -3  -3   61.59    8.36
  -7  -3  -3   49.07    4.69
   7   3   3   54.43    3.83
  -7  -3  -3   50.57    6.24
  -7  -3  -3   52.44    7.31
  -7  -3  -4   50.56    5.27
  -7  -3  -4   48.66    7.71
   7   3   4   51.97    4.10
  -7  -3  -4   38.23    5.62
   7   3   4   48.26    3.64
  -7  -3  -4   47.72    6.89
  -7  -3  -4   40.07    5.66
  -7  -3  -5   92.66    8.04
  -7  -3  -5   94.11    7.69
  -7  -3  -5  109.04   11.36
   7   3   5  123.98    6.51
  -7  -3  -5   87.18    8.43
   7   3   5  120.96    6.04
  -7  -3  -5   94.23    5.59
  -7  -3  -5  104.08    9.73
  -7  -3  -5   98.79    8.45
  -7  -3  -6  216.71   12.17
  -7  -3  -6  229.20   12.78
  -7  -3  -6  238.91   16.66
  -7  -3  -6  208.98    8.84
  -7  -3  -6  191.78   12.21
  -7  -3  -6  234.21   12.11
   7   3   6  226.81    7.07
  -7  -3  -7  972.11   26.06
  -7  -3  -7 1018.99   27.24
   7   3   7 1029.63   18.29
  -7  -3  -7  956.13   19.93
  -7  -3  -7  888.47   23.68
  -7  -3  -7 1095.19   24.38
   7   3   7 1000.78   16.14
  -7  -3  -8   39.36    4.99
   7   3   8   45.63    2.93
   7   3   8   44.28    2.97
   7   3   8   44.35    3.51
  -7  -3  -8   47.64    4.31
  -7  -3  -8   41.30    4.06
   7   3   8   45.01    3.18
   7   3   9  113.51    4.36
   7   3   9  116.28    4.43
   7   3   9  123.06    5.37
  -7  -3  -9  119.83    6.30
   7   3   9  116.36    4.74
  -7  -3 -10    8.24    1.45
  -7  -4   3  203.94    6.67
   7   4  -2  231.44    8.84
  -7  -4   2  208.86    6.32
   7   4  -1   33.77    3.71
   7   4  -1   25.59    2.69
  -7  -4   1   27.48    3.93
  -7  -4   1   26.45    2.68
   7   4   0    3.21    1.20
  -7  -4   0    3.17    1.52
  -7  -4   0    3.33    1.71
  -7  -4   0    5.81    1.43
  -7  -4  -1   78.28    8.00
  -7  -4  -1   59.44    6.75
  -7  -4  -1   66.21    7.08
  -7  -4  -1   54.62    4.42
  -7  -4  -2  681.79   25.06
   7   4   2  699.58   14.54
   7   4   2  658.89   14.86
  -7  -4  -2  540.07   17.82
  -7  -4  -2  580.22   22.74
  -7  -4  -2  648.40   22.99
  -7  -4  -2  533.79   14.47
   7   4   3   12.20    2.17
  -7  -4  -3   11.97    3.50
  -7  -4  -3    9.43    2.92
  -7  -4  -3   10.22    2.03
  -7  -4  -3    6.88    2.31
  -7  -4  -4  395.72   20.27
   7   4   4  392.87    9.47
  -7  -4  -4  373.13   18.47
  -7  -4  -4  368.81   17.35
  -7  -4  -4  377.12   11.71
  -7  -4  -5   41.92    4.87
  -7  -4  -5   53.70    7.54
   7   4   5   45.13    3.56
   7   4   5   42.63    3.37
  -7  -4  -5   34.74    5.50
  -7  -4  -6  483.32   22.46
   7   4   6  433.67   11.24
  -7  -4  -6  399.20   11.86
  -7  -4  -6  366.86   17.13
  -7  -4  -6  450.50   17.62
  -7  -4  -7  293.18   10.34
  -7  -4  -7  282.83   13.45
  -7  -4  -8    0.83    0.80
   7   4   8    0.71    0.56
  -7  -4  -8    1.38    0.92
   7   4   8    0.50    0.41
   7   4   9   22.40    2.15
  -7  -4  -9   15.66    2.24
  -7  -4 -10    1.48    0.69
  -7  -5   1   30.84    3.53
  -7  -5   0   33.52    4.35
  -7  -5   0   30.34    2.97
   7   5   1    1.09    0.80
  -7  -5  -1    0.89    1.08
  -7  -5  -1    1.03    1.25
  -7  -5  -1    0.90    0.78
  -7  -5  -2  201.53   11.81
  -7  -5  -2  222.78   13.00
  -7  -5  -2  217.83    9.02
   7   5   3    3.35    1.02
  -7  -5  -3    2.44    1.71
  -7  -5  -3    1.62    1.58
  -7  -5  -3    1.85    1.00
  -7  -5  -4   21.17    4.28
  -7  -5  -4   27.42    4.71
  -7  -5  -4   25.43    3.17
  -7  -5  -5  388.36   18.15
   7   5   5  322.17    8.16
  -7  -5  -5  280.44   14.97
  -7  -5  -5  312.78   15.34
  -7  -5  -5  363.39   11.52
   7   5   6  635.21   11.97
   7   5   6  652.98   12.47
  -7  -5  -6  622.71   13.93
  -7  -5  -6  596.97   20.82
  -7  -5  -6  686.80   21.82
   7   5   7  486.71   10.61
  -7  -5  -7  482.47   12.37
   7   5   8   53.45    3.27
  -7  -5  -8   55.11    4.08
  -7  -5  -8   57.17    4.95
   7   5   9   58.92    3.11
  -7  -5  -9   62.77    3.87
  -7  -5 -10  192.59    5.48
  -7  -6   0  153.34    7.31
  -7  -6  -1   15.47    2.82
   7   6   2  928.52   15.53
  -7  -6  -2  882.37   22.97
  -7  -6  -3   40.32    4.86
  -7  -6  -3   38.93    5.00
  -7  -6  -3   45.30    3.96
   7   6   4    6.35    1.18
  -7  -6  -4    5.13    1.97
  -7  -6  -4    4.69    1.99
  -7  -6  -4    4.63    1.38
  -7  -6  -5  278.51   12.98
  -7  -6  -5  315.08   14.21
  -7  -6  -6   68.90    6.31
  -7  -6  -6   89.62    7.31
  -7  -6  -7 1175.98   24.78
  -7  -6  -7 1602.27   29.87
  -7  -6  -8    8.74    1.41
  -7  -6  -9   22.05    1.90
  -7  -7  -1    0.57    0.46
  -7  -7  -2  323.20   10.64
  -7  -7  -2  339.64    8.76
  -7  -7  -3   16.96    2.72
  -7  -7  -4   65.22    5.07
  -7  -7  -4   78.88    6.11
  -7  -7  -5  167.21    8.37
  -7  -7  -5  172.39    9.02
  -7  -7  -6   34.97    3.88
  -7  -7  -6   42.97    4.48
  -7  -7  -7  197.67    8.22
  -8   4  -1    4.75    0.95
   8  -4   1    4.65    1.00
   8  -4   2    3.95    1.08
  -8   4  -2    5.48    1.12
  -8   4  -3  152.49    5.16
  -8   4  -3  166.15    6.02
   8  -4   3  158.76    6.25
  -8   4  -4  208.80    6.13
  -8   4  -4  211.63    6.67
   8  -4   4  206.30    6.56
  -8   4  -5  243.45    5.98
  -8   3   1  108.53    4.22
  -8   3   1  127.48    5.07
  -8   3   0  537.53   11.21
   8  -3   0  631.87   12.84
   8  -3   1  100.68    5.32
  -8   3  -1  109.46    5.41
   8  -3   1   99.28    5.70
  -8   3  -2   91.67    4.53
   8  -3   2   97.52    5.30
  -8   3  -2  102.26    4.96
   8  -3   2  102.10    5.33
  -8   3  -2  103.36    5.36
  -8   3  -2   86.88    4.19
  -8   3  -2  109.66    5.11
  -8   3  -2  105.36    5.43
   8  -3   2  100.84    6.25
  -8   3  -3   84.86    4.33
  -8   3  -3   93.83    4.79
   8  -3   3   87.14    4.86
   8  -3   3   99.68    4.76
  -8   3  -3   88.91    4.95
  -8   3  -3   79.68    4.04
  -8   3  -3   75.92    3.95
  -8   3  -3   87.23    5.28
   8  -3   3   88.85    5.83
  -8   3  -4  141.18    5.50
  -8   3  -4  157.24    7.56
  -8   3  -4  153.44    6.33
  -8   3  -4  166.97    6.24
  -8   3  -4  132.38    5.30
  -8   3  -4  138.20    5.32
  -8   3  -4  136.12    5.21
  -8   3  -4  158.54    7.09
   8  -3   4  147.42    7.05
  -8   3  -5  320.11   10.05
  -8   3  -5  333.88    9.38
  -8   3  -5  319.27    9.99
   8  -3   5  297.33    8.93
  -8   3  -6   25.17    2.37
  -8   3  -6   26.06    2.38
  -8   2   2    5.23    1.04
  -8   2   1   16.86    1.89
  -8   2   1   15.96    1.88
  -8   2   0   68.34    3.72
  -8   2   0  112.07    5.75
   8  -2   0   88.93    5.11
  -8   2   0   84.05    4.86
   8  -2   0   89.94    5.31
  -8   2   0   87.02    4.94
   8  -2   0   96.90    5.80
  -8   2  -1   11.81    1.76
  -8   2  -1   18.23    2.59
   8  -2   1   18.89    2.55
  -8   2  -1   20.34    2.54
   8  -2   1   16.86    2.23
   8  -2   1   19.88    2.63
  -8   2  -1   14.67    2.24
   8  -2   1   18.09    2.78
  -8   2  -2   15.75    2.14
  -8   2  -2   15.36    2.52
   8  -2   2   15.71    2.28
  -8   2  -2   14.88    2.24
   8  -2   2   18.01    2.40
   8  -2   2   15.42    2.28
   8  -2   2   14.01    1.79
  -8   2  -2   14.42    2.38
  -8   2  -2   10.83    1.69
  -8   2  -2   18.73    2.92
   8  -2   2   16.37    2.85
  -8   2  -3  284.51    8.70
  -8   2  -3  369.99   11.60
   8  -2   3  311.83   10.08
  -8   2  -3  340.58   10.17
   8  -2   3  314.43    9.86
   8  -2   3  324.34    8.94
  -8   2  -3  314.58   10.93
  -8   2  -3  278.31    8.43
   8  -2   3  316.26    8.59
  -8   2  -3  264.82    8.05
  -8   2  -3  343.24   11.16
  -8   2  -3  329.61   11.14
   8  -2   3  336.16   12.54
  -8   2  -4    1.63    0.82
   8  -2   4    1.16    1.02
   8  -2   4    0.16    0.58
  -8   2  -4    0.66    0.65
   8  -2   4    0.16    0.73
   8  -2   4    0.31    0.58
  -8   2  -4    2.36    1.09
  -8   2  -4    0.26    0.59
   8  -2   4    0.50    0.55
  -8   2  -4    0.29    0.76
  -8   2  -4    0.52    0.81
  -8   2  -5 1395.69   26.39
  -8   2  -5 1477.73   23.35
  -8   2  -5 1535.33   21.43
   8  -2   5 1371.79   19.98
  -8   2  -5 1273.94   20.37
  -8   2  -5 1236.98   17.77
   8  -2   5 1402.95   19.46
  -8   2  -5 1282.15   17.91
  -8   2  -5 1452.82   24.73
  -8   2  -5 1241.69   16.29
   8  -2   5 1383.27   17.40
   8  -2   5 1399.19   23.71
  -8   2  -6    7.80    1.81
  -8   2  -6    8.93    1.77
  -8   2  -6    8.91    1.44
   8  -2   6    7.97    1.36
   8  -2   6    7.32    1.26
  -8   2  -6    6.69    1.15
   8  -2   6    8.19    1.38
  -8   2  -6    8.61    1.83
   8  -2   6    6.08    1.19
  -8   2  -7   29.10    2.93
  -8   2  -7   29.00    2.69
  -8   1   2  722.06   13.06
  -8   1   1   19.33    2.30
   8  -1  -1   21.49    2.57
   8  -1  -1   21.03    2.84
  -8   1   1   19.60    2.15
  -8   1   1   26.04    3.10
   8  -1  -1   22.30    2.69
  -8   1   0  114.24    5.93
   8  -1   0  136.59    6.97
  -8   1   0  127.75    6.45
   8  -1   0  138.74    7.53
  -8   1  -1   63.42    4.32
   8  -1   1   80.20    5.23
  -8   1  -1   72.98    4.83
   8  -1   1   76.05    4.59
   8  -1   1   77.98    5.50
   8  -1   1   78.39    5.00
  -8   1  -1   77.62    5.51
   8  -1   1   82.80    6.27
  -8   1  -2    3.34    1.15
  -8   1  -2    4.57    1.74
   8  -1   2    4.88    1.69
   8  -1   2    3.71    1.36
  -8   1  -2    4.42    1.39
   8  -1   2    4.64    1.27
   8  -1   2    4.57    1.44
  -8   1  -2    3.19    1.01
  -8   1  -2    2.32    1.26
  -8   1  -3   94.32    5.52
  -8   1  -3  133.35    8.78
   8  -1   3   98.94    5.88
  -8   1  -3   97.08    5.86
   8  -1   3   97.68    5.49
   8  -1   3  107.58    6.20
   8  -1   3  105.98    4.98
  -8   1  -3   99.00    6.71
  -8   1  -3   79.39    4.64
   8  -1   3   98.33    4.74
  -8   1  -3   75.33    4.40
  -8   1  -3  115.83    7.68
  -8   1  -3   98.26    6.23
   8  -1   3  103.79    7.30
  -8   1  -4   14.54    2.11
  -8   1  -4   23.59    3.69
  -8   1  -4   16.22    2.48
   8  -1   4   16.54    2.41
  -8   1  -4   16.58    2.35
   8  -1   4   19.19    2.51
   8  -1   4   21.30    2.77
   8  -1   4   17.30    2.09
  -8   1  -4   20.02    3.11
  -8   1  -4   15.66    2.10
   8  -1   4   16.09    2.02
  -8   1  -4   18.94    2.89
  -8   1  -5  243.58   12.00
  -8   1  -5  317.56   12.70
  -8   1  -5  248.58    9.85
   8  -1   5  257.72    8.87
  -8   1  -5  275.09    9.09
   8  -1   5  262.98    8.71
   8  -1   5  278.59    8.19
  -8   1  -5  222.90    9.80
  -8   1  -5  215.08    7.10
  -8   1  -5  257.79   10.69
  -8   1  -5  220.97    6.98
   8  -1   5  251.68    6.91
   8  -1   5  249.08   10.21
  -8   1  -6   14.83    2.92
  -8   1  -6   21.20    3.03
  -8   1  -6   13.98    2.39
  -8   1  -6   18.31    2.18
   8  -1   6   16.17    2.07
   8  -1   6   17.51    2.03
   8  -1   6   16.82    2.04
  -8   1  -6   15.86    2.62
  -8   1  -6   13.92    1.73
   8  -1   6   16.59    1.78
   8  -1   6   11.90    1.82
  -8   1  -7   17.07    2.75
  -8   1  -7   17.88    2.50
  -8   1  -7   16.79    1.94
   8  -1   7   17.32    1.95
   8  -1   7   18.03    1.95
  -8   1  -7   16.82    1.78
  -8   1  -8  478.80   12.14
  -8   1  -8  459.80   10.82
  -8   0   2  577.09   13.34
  -8   0   1   83.58    6.01
  -8   0   1   50.32    3.84
   8   0  -1   70.27    5.25
   8   0  -1   63.15    4.50
  -8   0   1   68.76    5.00
  -8   0   1   55.55    3.43
   8   0  -1   73.47    5.03
   8   0   0  120.22    5.93
  -8   0   0  110.41    6.18
   8   0   0  109.23    6.22
   8   0   0  120.70    6.55
  -8   0   0  109.96    5.94
  -8   0   0  135.22    8.21
  -8   0   0  114.74    5.46
   8   0   0  130.08    7.54
  -8   0  -1   27.91    2.99
  -8   0  -1   51.94    5.75
  -8   0  -1   29.74    3.37
   8   0   1   30.55    2.75
   8   0   1   37.00    3.75
   8   0   1   34.46    3.57
  -8   0  -1   34.08    3.75
  -8   0  -1   44.05    5.09
   8   0   1   40.55    4.48
  -8   0  -2   40.79    3.77
  -8   0  -2   66.63    6.81
   8   0   2   47.10    4.18
  -8   0  -2   50.88    4.31
   8   0   2   49.18    3.81
   8   0   2   54.83    4.78
  -8   0  -2   46.94    4.75
  -8   0  -2   57.82    6.00
   8   0   2   57.00    5.46
  -8   0  -3  625.64   15.15
  -8   0  -3  974.13   26.68
   8   0   3  789.38   17.10
  -8   0  -3  726.73   16.21
   8   0   3  825.98   16.50
   8   0   3  918.11   19.51
   8   0   3  848.93   17.64
  -8   0  -3  754.41   20.30
  -8   0  -3  586.27   13.75
   8   0   3  736.18   13.17
   8   0   3  801.03   20.69
  -8   0  -4    4.24    1.32
  -8   0  -4    4.62    2.05
  -8   0  -4    6.05    1.44
   8   0   4    6.85    1.95
   8   0   4    4.08    1.33
   8   0   4    6.20    1.49
   8   0   4    5.49    1.62
   8   0   4    5.79    1.26
  -8   0  -4    3.70    1.03
  -8   0  -4    6.85    2.06
  -8   0  -4    4.84    1.80
  -8   0  -5   67.87    4.59
  -8   0  -5   75.15    6.91
  -8   0  -5   81.42    5.91
   8   0   5   89.07    5.40
  -8   0  -5   78.60    4.89
   8   0   5   88.01    5.28
   8   0   5  104.05    6.31
   8   0   5   83.74    4.33
  -8   0  -5   72.69    6.18
  -8   0  -5   61.47    3.99
   8   0   5   84.86    4.62
  -8   0  -5   68.79    5.51
  -8   0  -5   79.55    5.93
  -8   0  -5   65.67    4.02
   8   0   5   74.96    5.66
  -8   0  -6   79.92    6.85
  -8   0  -6  108.87    8.24
  -8   0  -6   88.70    6.19
   8   0   6   95.49    5.25
  -8   0  -6   89.31    4.88
   8   0   6   93.55    5.06
   8   0   6   90.41    4.39
   8   0   6   91.28    4.74
  -8   0  -6   75.71    4.25
   8   0   6   88.54    4.02
   8   0   6   73.00    4.48
  -8   0  -7   26.80    3.76
  -8   0  -7   25.93    3.29
  -8   0  -7   34.25    4.22
   8   0   7   24.01    2.41
   8   0   7   25.25    2.22
   8   0   7   25.00    2.39
  -8   0  -7   20.55    2.13
   8   0   7   25.10    2.11
  -8   0  -8  235.70    9.75
  -8   0  -8  259.63    9.11
   8   0   8  265.94    7.27
   8   0   8  248.61    6.74
  -8   0  -8  218.47    6.25
  -8   0  -8  224.69    6.34
  -8   0  -9   14.17    1.70
  -8   0  -9   16.20    2.04
  -8   0  -9   13.17    1.30
  -8  -1   2  322.03    9.63
   8   1  -2  276.90    7.87
   8   1  -1  520.51   13.99
   8   1  -1  487.75   12.49
  -8  -1   1  509.69   13.42
  -8  -1   1  510.42   12.00
  -8  -1   0  560.82   17.67
  -8  -1   0  352.70   11.06
   8   1   0  409.33   11.51
   8   1   0  440.01   12.90
  -8  -1   0  505.43   15.54
  -8  -1   0  437.77   12.39
  -8  -1  -1   32.48    4.80
   8   1   1   22.45    2.59
  -8  -1  -1   20.20    2.73
   8   1   1   26.38    3.09
   8   1   1   26.20    3.24
  -8  -1  -1   20.00    2.94
  -8  -1  -1   28.31    4.16
  -8  -1  -1   24.94    3.12
   8   1   2   17.58    3.04
  -8  -1  -2   12.85    2.18
  -8  -1  -2   24.11    4.42
   8   1   2   15.95    2.35
  -8  -1  -2   13.85    2.27
   8   1   2   12.55    1.76
   8   1   2   15.32    2.54
   8   1   2   15.53    2.61
  -8  -1  -2   14.12    2.69
  -8  -1  -2   17.42    3.46
  -8  -1  -2   13.75    2.32
  -8  -1  -3  417.56   12.71
  -8  -1  -3  657.08   22.93
   8   1   3  583.63   14.94
  -8  -1  -3  462.50   12.66
   8   1   3  591.82   13.24
   8   1   3  641.16   16.40
   8   1   3  630.80   16.42
  -8  -1  -3  508.84   16.79
  -8  -1  -3  611.47   20.26
  -8  -1  -3  495.82   13.06
  -8  -1  -4    5.18    2.19
   8   1   4    5.65    1.74
   8   1   4    5.91    1.50
   8   1   4    6.25    1.44
   8   1   4    6.87    1.79
  -8  -1  -4    3.67    1.12
   8   1   4    4.96    1.12
  -8  -1  -4    4.55    1.85
  -8  -1  -5   10.76    2.67
  -8  -1  -5   18.73    4.01
   8   1   5   15.82    2.39
  -8  -1  -5   14.63    2.13
  -8  -1  -5   14.50    2.97
   8   1   5   17.78    2.15
  -8  -1  -5   13.89    2.84
   8   1   5   12.40    2.29
  -8  -1  -6  118.65    8.35
  -8  -1  -6  120.69    7.37
  -8  -1  -6  134.85   10.02
   8   1   6  135.07    6.42
  -8  -1  -6  122.59    5.81
   8   1   6  130.99    6.18
   8   1   6  118.96    4.60
  -8  -1  -6  103.77    6.28
  -8  -1  -7  348.19   13.57
  -8  -1  -7  360.55   12.53
   8   1   7  394.79   10.17
   8   1   7  368.73    8.12
   8   1   7  378.30    9.30
   8   1   7  350.55    7.61
  -8  -1  -8   90.82    5.82
  -8  -1  -8   87.36    6.16
   8   1   8   96.64    4.53
   8   1   8   88.95    4.10
  -8  -1  -8   79.86    3.94
  -8  -1  -9    6.22    1.50
  -8  -1  -9    5.43    0.96
  -8  -2   2   49.38    3.26
   8   2  -2   51.83    3.11
  -8  -2   1  355.19   11.66
  -8  -2   1  314.22    9.49
  -8  -2   0   43.30    4.76
   8   2   0   38.45    3.64
  -8  -2   0   35.04    3.92
  -8  -2  -1   81.55    7.31
   8   2   1   60.56    3.84
  -8  -2  -1   57.85    4.47
   8   2   1   63.68    4.38
   8   2   1   79.31    5.52
  -8  -2  -1   72.77    6.35
  -8  -2  -1   66.74    5.33
  -8  -2  -2    7.02    2.49
   8   2   2    4.61    1.27
  -8  -2  -2    2.74    1.12
   8   2   2    8.15    1.97
  -8  -2  -2    4.70    2.07
  -8  -2  -2    4.83    1.61
  -8  -2  -2    3.26    1.44
   8   2   3 1425.17   26.31
  -8  -2  -3 1536.30   36.04
   8   2   3 1335.10   21.92
  -8  -2  -3 1096.25   20.26
   8   2   3 1223.81   17.80
   8   2   3 1595.07   25.44
  -8  -2  -3 1217.66   26.43
  -8  -2  -3 1369.84   31.19
  -8  -2  -3 1286.93   24.77
  -8  -2  -4  158.80   11.54
   8   2   4  145.83    7.13
   8   2   4  139.60    6.04
   8   2   4  167.58    8.25
  -8  -2  -4  122.02    8.46
  -8  -2  -4  137.87    9.71
  -8  -2  -4  122.28    6.93
   8   2   4  123.46    7.24
  -8  -2  -5   11.40    2.24
   8   2   5    9.88    1.88
  -8  -2  -5   12.24    3.35
   8   2   5   13.17    1.92
   8   2   5   12.98    1.70
  -8  -2  -5    9.71    2.47
   8   2   5    9.71    1.81
  -8  -2  -6  367.42   12.68
  -8  -2  -6  322.46   12.99
  -8  -2  -6  431.73   18.79
   8   2   6  411.53   11.32
   8   2   6  375.49    9.50
  -8  -2  -6  316.41   12.34
  -8  -2  -7  243.72   10.26
   8   2   7  258.00    7.88
  -8  -2  -8  177.62    8.22
  -8  -2  -8  176.24    8.57
   8   2   8  188.05    6.15
   8   2   8  187.15    5.92
  -8  -2  -9    0.56    0.44
  -8  -3   1   77.74    4.40
  -8  -3   0   23.81    3.19
   8   3   0   21.93    2.68
  -8  -3   0   18.11    2.56
  -8  -3  -1   25.72    3.81
   8   3   1   20.76    2.67
  -8  -3  -1   20.86    3.20
  -8  -3  -1   22.64    3.17
  -8  -3  -2   24.11    4.10
   8   3   2   17.16    2.02
   8   3   2   20.93    2.43
   8   3   2   20.73    2.90
  -8  -3  -2   24.72    3.83
  -8  -3  -3  266.31   14.08
   8   3   3  253.99    8.46
   8   3   3  259.91    9.23
  -8  -3  -3  243.43   12.48
  -8  -3  -3  245.25   10.90
  -8  -3  -4  100.47    8.96
   8   3   4   98.50    5.57
  -8  -3  -4   85.49    7.46
  -8  -3  -4   81.85    6.16
   8   3   4   83.25    5.31
  -8  -3  -5  194.54   12.54
   8   3   5  203.05    8.04
   8   3   5  172.35    6.07
   8   3   5  169.01    5.44
  -8  -3  -5  170.63   10.16
  -8  -3  -5  158.94    7.97
  -8  -3  -6  275.21   14.66
   8   3   6  263.66    8.98
   8   3   6  263.59    7.72
   8   3   6  241.64    6.86
  -8  -3  -6  252.83    8.63
  -8  -3  -7  147.09    7.54
  -8  -3  -7  184.75   11.46
   8   3   7  163.67    6.55
   8   3   7  157.90    5.71
   8   3   7  148.57    5.26
  -8  -3  -7  131.06    6.56
   8   3   8  259.41    7.34
  -8  -3  -9   11.57    1.28
  -8  -4   1   10.46    1.31
  -8  -4   0   87.53    5.01
  -8  -4  -1  552.88   14.52
   8   4   2   36.59    3.32
  -8  -4  -2   29.59    3.75
  -8  -4  -2   33.40    3.85
   8   4   3  185.45    6.23
  -8  -4  -3  173.89    9.75
  -8  -4  -3  186.24    9.31
  -8  -4  -4    1.91    1.47
   8   4   4    1.52    0.73
   8   4   4    0.26    0.48
  -8  -4  -4    0.59    0.88
  -8  -4  -5  190.54   11.35
  -8  -4  -5  157.47    9.25
  -8  -4  -5  177.63    8.66
   8   4   6  401.14   10.31
  -8  -4  -6  402.93   11.90
  -8  -4  -7  129.74    8.79
   8   4   7  118.33    5.17
  -8  -5  -1  683.63   13.89
  -8  -5  -2    1.71    0.85
  -8  -5  -2    2.07    1.03
  -8  -5  -3    4.06    1.38
  -8  -5  -3    4.12    1.40
  -8  -5  -4   47.86    4.62
  -8  -5  -4   56.85    4.80
  -8  -5  -5  182.87    8.90
  -8  -5  -6  571.33   15.03
  -8  -5  -6  794.71   16.37
  -8  -6  -2   52.60    3.13
  -8  -6  -3   45.82    3.42
  -8  -6  -4  234.10    7.84
  -8  -6  -4  251.23    8.51
  -8  -6  -5  234.09    8.01
  -8  -6  -5  272.29    8.86
  -8  -6  -6  135.70    5.86
  -9   1  -2  165.48    5.09
   9  -1   2  179.29    5.55
  -9   1  -3    5.46    1.05
  -9   1  -3    7.08    1.15
   9  -1   3    5.33    1.03
  -9   1  -4  169.63    5.83
  -9   1  -5    0.83    0.49
  -9   0  -1    7.24    1.08
   9   0   1    8.67    1.22
  -9   0  -2  325.27    7.84
  -9   0  -2  335.12    8.30
   9   0   2  346.16    8.62
  -9   0  -3   66.64    3.83
  -9   0  -3   64.77    3.56
  -9   0  -4  184.88    6.52
   9   0   4  149.33    4.92
  -9   0  -5   46.76    3.21
  -9   0  -5   61.50    3.64
  -9   0  -6  249.42    6.99
  -9  -1  -1   29.10    2.43
  -9  -1  -1   24.51    2.01
   9   1   1   26.85    2.10
  -9  -1  -2  328.98    8.69
   9   1   2  306.58    8.03
  -9  -1  -3   34.39    2.82
  -9  -1  -3   39.39    3.12
   9   1   3   35.97    2.68
  -9  -1  -4  165.95    7.61
  -9  -1  -4  129.87    5.37
  -9  -1  -5    1.59    0.92
  -9  -2  -2  327.93    9.39
  -9  -2  -2  266.41    7.56
  -9  -2  -3    3.75    1.25
  -9  -2  -3    2.79    0.96
  -9  -2  -4   48.61    4.22
  -9  -2  -4   39.03    3.08
  -9  -2  -5   40.00    3.81
  -9  -2  -5   26.95    2.22
  -9  -2  -6  153.00    7.01
  -9  -3  -3   23.62    2.22
  -9  -3  -4   19.57    2.46
  -9  -3  -4   15.19    1.84
  -9  -3  -5    2.76    1.06
  -9  -3  -6  466.59   11.62
   0   0   0    0.00    0.00
TITL ed6 in P-1
REM P-1 (#2 in standard setting)
CELL 1.54184   7.323020   8.598328  10.034305  79.1674  71.0187  84.0798
ZERR    2.00   0.000177   0.000220   0.000232   0.0020   0.0021   0.0020
LATT  1
SFAC C H N S
UNIT 16.00 20.00 8.00 4.00
TREF
HKLF 4
END
_computing_structure_solution     'SHELXT 2014/5 (Sheldrick, 2014)'
;
_shelx_hkl_checksum              33366
_shelx_res_file
;
TITL ed6_a.res in P-1
CELL 1.54184 7.323 8.5983 10.0343 79.167 71.019 84.08
ZERR 2 0.0002 0.0002 0.0002 0.002 0.002 0.002
LATT 1
SFAC C  H  N  S
UNIT 18  24  8  4
L.S. 8
ACTA
BOND $H
FMAP 2
PLAN 3
HTAB C43 N3_$3
HTAB N5 S2_$3
HTAB N5 S2_$2
HTAB C2 N42_$1
HTAB C43 N3_$3
HTAB N5 S2_$3
HTAB N5 S2_$2
HTAB C2 N42_$1
HTAB C43 N3_$3
HTAB N5 S2_$3
HTAB N5 S2_$2
HTAB C2 N42_$1
HTAB C43 N3_$3
HTAB N5 S2_$3
EQIV $3 x+1, y, z
HTAB N5 S2_$2
EQIV $2 -x+1, -y, -z+1
HTAB C2 N42_$1
EQIV $1 x-1, y, z
HTAB
HTAB C2 N42_$1
HTAB N5 S2_$2
HTAB N5 S2_$3
HTAB C43 N3_$3
HTAB C2 N42_$1
HTAB N5 S2_$2
HTAB N5 S2_$3
HTAB C43 N3_$3
WGHT    0.065600    0.309000
EXTI    0.014701
FVAR       1.26567
C1    1    0.316304    0.091766    0.722642    11.00000    0.00909    0.01455 =
         0.01551   -0.00711   -0.00503    0.00099
S1    4    0.343968    0.063462    0.894110    11.00000    0.01809    0.01735 =
         0.01562   -0.00283   -0.00900   -0.00557
C2    1    0.390962    0.277221    0.495567    11.00000    0.01703    0.01948 =
         0.01623   -0.00294   -0.00666   -0.00270
AFIX 137
H2A   2    0.405866    0.190985    0.443892    11.00000   -1.50000
H2B   2    0.489165    0.351626    0.444309    11.00000   -1.50000
H2C   2    0.265798    0.329083    0.505617    11.00000   -1.50000
AFIX   0
N2    3    0.409333    0.216236    0.637074    11.00000    0.01307    0.01360 =
         0.01659   -0.00463   -0.00667   -0.00270
S2    4    0.187627   -0.025141    0.674218    11.00000    0.01591    0.01624 =
         0.01947   -0.00725   -0.00815   -0.00468
N3    3    0.479648    0.325133    0.698117    11.00000    0.01265    0.01369 =
         0.02002   -0.00655   -0.00648   -0.00322
C4    1    0.666457    0.308337    0.674351    11.00000    0.01458    0.01223 =
         0.01349   -0.00198   -0.00599   -0.00194
N5    3    0.788921    0.204360    0.603578    11.00000    0.01304    0.02527 =
         0.02975   -0.01807   -0.00912    0.00135
H5A   2    0.751626    0.133374    0.569279    11.00000   -1.20000
H5B   2    0.898967    0.198750    0.603440    11.00000   -1.20000
C11   1    0.227157   -0.119037    0.979150    11.00000    0.02366    0.01784 =
         0.02299    0.00213   -0.01064   -0.00579
AFIX 137
H11A  2    0.096623   -0.109332    0.976354    11.00000   -1.50000
H11B  2    0.226405   -0.142028    1.076719    11.00000   -1.50000
H11C  2    0.295959   -0.203372    0.929864    11.00000   -1.50000
AFIX   0
C41   1    0.751102    0.418811    0.735313    11.00000    0.01386    0.01083 =
         0.01378   -0.00105   -0.00591   -0.00300
N42   3    0.942477    0.401720    0.709503    11.00000    0.01397    0.01814 =
         0.02768   -0.00940   -0.00695   -0.00164
C43   1    1.023086    0.497149    0.763513    11.00000    0.01516    0.02331 =
         0.03540   -0.01163   -0.01015   -0.00392
AFIX  43
H43   2    1.155951    0.486398    0.746965    11.00000   -1.20000
AFIX   0
C44   1    0.918740    0.611333    0.842939    11.00000    0.02274    0.02084 =
         0.02861   -0.01002   -0.01144   -0.00640
AFIX  43
H44   2    0.980302    0.675593    0.878410    11.00000   -1.20000
AFIX   0
C45   1    0.721032    0.627299    0.868094    11.00000    0.02216    0.02107 =
         0.02683   -0.01355   -0.00808   -0.00084
AFIX  43
H45   2    0.647270    0.703030    0.920627    11.00000   -1.20000
AFIX   0
C46   1    0.634241    0.528927    0.813969    11.00000    0.01467    0.02029 =
         0.02067   -0.00885   -0.00597   -0.00106
AFIX  43
H46   2    0.501463    0.536520    0.829923    11.00000   -1.20000
AFIX   0
HKLF 4
REM  ed6_a.res in P-1
REM R1 =  0.0350 for    2393 Fo > 4sig(Fo)  and  0.0353 for all    2417 data
REM    145 parameters refined using      0 restraints
END
WGHT      0.0656      0.3090
REM Instructions for potential hydrogen bonds
HTAB C2 N42_$1
HTAB N5 S2_$2
HTAB N5 S2_$3
HTAB C43 N3_$3
REM Highest difference peak  0.558,  deepest hole -0.300,  1-sigma level  0.076
Q1    1   0.7102  0.3690  0.7037  11.00000  0.05    0.56
Q2    1   0.2229  0.0511  0.6970  11.00000  0.05    0.54
Q3    1   0.3304  0.1608  0.9209  11.00000  0.05    0.51
;
_shelx_res_checksum              71553
_shelxl_version_number           2.014
loop_
_space_group_symop_operation_xyz
'x, y, z'
'-x, -y, -z'
loop_
_atom_site_type_symbol
_atom_site_label
_atom_site_fract_x
_atom_site_fract_y
_atom_site_fract_z
_atom_site_U_iso_or_equiv
_atom_site_adp_type
_atom_site_calc_flag
_atom_site_occupancy
C C1 0.31630(19) 0.09177(17) 0.72264(15) 0.0122(3) Uani d 1
S S1 0.34397(5) 0.06346(4) 0.89411(4) 0.01573(15) Uani d 1
C C2 0.3910(2) 0.27722(18) 0.49557(16) 0.0171(3) Uani d 1
H H2A 0.4059 0.1910 0.4439 0.026 Uiso calc 1
H H2B 0.4892 0.3516 0.4443 0.026 Uiso calc 1
H H2C 0.2658 0.3291 0.5056 0.026 Uiso calc 1
N N2 0.40933(17) 0.21624(15) 0.63707(13) 0.0135(3) Uani d 1
S S2 0.18763(5) -0.02514(4) 0.67422(4) 0.01568(15) Uani d 1
N N3 0.47965(17) 0.32513(15) 0.69812(13) 0.0144(3) Uani d 1
C C4 0.6665(2) 0.30834(17) 0.67435(15) 0.0130(3) Uani d 1
N N5 0.7889(2) 0.20436(17) 0.60358(15) 0.0204(3) Uani d 1
H H5A 0.752(3) 0.133(3) 0.569(2) 0.024 Uiso d 1
H H5B 0.899(3) 0.199(3) 0.603(2) 0.024 Uiso d 1
C C11 0.2272(2) -0.11904(19) 0.97915(17) 0.0211(3) Uani d 1
H H11A 0.0966 -0.1093 0.9764 0.032 Uiso calc 1
H H11B 0.2264 -0.1420 1.0767 0.032 Uiso calc 1
H H11C 0.2960 -0.2034 0.9299 0.032 Uiso calc 1
C C41 0.7511(2) 0.41881(16) 0.73531(15) 0.0124(3) Uani d 1
N N42 0.94248(18) 0.40172(16) 0.70950(15) 0.0190(3) Uani d 1
C C43 1.0231(2) 0.4971(2) 0.76351(19) 0.0229(4) Uani d 1
H H43 1.1560 0.4864 0.7470 0.027 Uiso calc 1
C C44 0.9187(2) 0.6113(2) 0.84294(18) 0.0220(3) Uani d 1
H H44 0.9803 0.6756 0.8784 0.026 Uiso calc 1
C C45 0.7210(2) 0.6273(2) 0.86809(18) 0.0219(3) Uani d 1
H H45 0.6473 0.7030 0.9206 0.026 Uiso calc 1
C C46 0.6342(2) 0.52893(19) 0.81397(16) 0.0177(3) Uani d 1
H H46 0.5015 0.5365 0.8299 0.021 Uiso calc 1
loop_
_atom_site_aniso_label
_atom_site_aniso_U_11
_atom_site_aniso_U_22
_atom_site_aniso_U_33
_atom_site_aniso_U_12
_atom_site_aniso_U_13
_atom_site_aniso_U_23
C1 0.0091(6) 0.0145(7) 0.0155(7) 0.0010(5) -0.0050(5) -0.0071(5)
S1 0.0181(2) 0.0174(2) 0.0156(2) -0.00557(14) -0.00900(15) -0.00283(15)
C2 0.0170(7) 0.0195(8) 0.0162(7) -0.0027(6) -0.0067(5) -0.0029(6)
N2 0.0131(6) 0.0136(6) 0.0166(6) -0.0027(4) -0.0067(5) -0.0046(5)
S2 0.0159(2) 0.0162(2) 0.0195(2) -0.00468(14) -0.00815(15) -0.00725(15)
N3 0.0127(6) 0.0137(6) 0.0200(6) -0.0032(4) -0.0065(5) -0.0065(5)
C4 0.0146(7) 0.0122(7) 0.0135(6) -0.0019(5) -0.0060(5) -0.0020(5)
N5 0.0130(6) 0.0253(7) 0.0298(7) 0.0014(5) -0.0091(5) -0.0181(6)
C11 0.0237(8) 0.0178(8) 0.0230(8) -0.0058(6) -0.0106(6) 0.0021(6)
C41 0.0139(7) 0.0108(7) 0.0138(6) -0.0030(5) -0.0059(5) -0.0010(5)
N42 0.0140(6) 0.0181(6) 0.0277(7) -0.0016(5) -0.0070(5) -0.0094(5)
C43 0.0152(7) 0.0233(8) 0.0354(9) -0.0039(6) -0.0101(6) -0.0116(7)
C44 0.0227(8) 0.0208(8) 0.0286(8) -0.0064(6) -0.0114(6) -0.0100(6)
C45 0.0222(8) 0.0211(8) 0.0268(8) -0.0008(6) -0.0081(6) -0.0136(6)
C46 0.0147(7) 0.0203(8) 0.0207(7) -0.0011(6) -0.0060(5) -0.0088(6)
loop_
_atom_type_symbol
_atom_type_description
_atom_type_scat_dispersion_real
_atom_type_scat_dispersion_imag
_atom_type_scat_source
C C 0.0181 0.0091 'International Tables Vol C Tables 4.2.6.8 and 6.1.1.4'
H H 0.0000 0.0000 'International Tables Vol C Tables 4.2.6.8 and 6.1.1.4'
N N 0.0311 0.0180 'International Tables Vol C Tables 4.2.6.8 and 6.1.1.4'
S S 0.3331 0.5567 'International Tables Vol C Tables 4.2.6.8 and 6.1.1.4'
loop_
_geom_angle_atom_site_label_1
_geom_angle_atom_site_label_2
_geom_angle_atom_site_label_3
_geom_angle
N2 C1 S2 124.23(11)
N2 C1 S1 112.10(10)
S2 C1 S1 123.67(9)
C1 S1 C11 102.69(7)
N2 C2 H2A 109.5
N2 C2 H2B 109.5
H2A C2 H2B 109.5
N2 C2 H2C 109.5
H2A C2 H2C 109.5
H2B C2 H2C 109.5
C1 N2 N3 118.75(12)
C1 N2 C2 123.12(12)
N3 N2 C2 115.15(12)
C4 N3 N2 112.75(11)
N3 C4 N5 127.57(14)
N3 C4 C41 115.85(12)
N5 C4 C41 116.57(13)
C4 N5 H5A 122.6(14)
C4 N5 H5B 118.5(15)
H5A N5 H5B 118(2)
S1 C11 H11A 109.5
S1 C11 H11B 109.5
H11A C11 H11B 109.5
S1 C11 H11C 109.5
H11A C11 H11C 109.5
H11B C11 H11C 109.5
N42 C41 C46 123.67(13)
N42 C41 C4 115.47(12)
C46 C41 C4 120.85(13)
C41 N42 C43 117.22(13)
N42 C43 C44 123.42(15)
N42 C43 H43 118.3
C44 C43 H43 118.3
C45 C44 C43 118.43(14)
C45 C44 H44 120.8
C43 C44 H44 120.8
C44 C45 C46 119.14(14)
C44 C45 H45 120.4
C46 C45 H45 120.4
C45 C46 C41 118.12(14)
C45 C46 H46 120.9
C41 C46 H46 120.9
loop_
_geom_bond_atom_site_label_1
_geom_bond_atom_site_label_2
_geom_bond_distance
C1 N2 1.331(2)
C1 S2 1.6767(14)
C1 S1 1.7663(14)
S1 C11 1.7947(16)
C2 N2 1.4626(19)
C2 H2A 0.9600
C2 H2B 0.9600
C2 H2C 0.9600
N2 N3 1.4273(17)
N3 C4 1.3073(19)
C4 N5 1.3292(19)
C4 C41 1.4991(19)
N5 H5A 0.86(2)
N5 H5B 0.80(2)
C11 H11A 0.9600
C11 H11B 0.9600
C11 H11C 0.9600
C41 N42 1.3373(19)
C41 C46 1.388(2)
N42 C43 1.338(2)
C43 C44 1.388(2)
C43 H43 0.9300
C44 C45 1.383(2)
C44 H44 0.9300
C45 C46 1.387(2)
C45 H45 0.9300
C46 H46 0.9300
loop_
_geom_hbond_atom_site_label_D
_geom_hbond_atom_site_label_H
_geom_hbond_atom_site_label_A
_geom_hbond_site_symmetry_A
_geom_hbond_distance_DH
_geom_hbond_distance_HA
_geom_hbond_distance_DA
_geom_hbond_angle_DHA
N5 H5B S2 1_655 0.80(2) 2.88(2) 3.5431(14) 141.3(19)
N5 H5A S2 2_656 0.86(2) 2.66(2) 3.3798(14) 141.5(18)

_cod_database_fobs_code 2021048
