#------------------------------------------------------------------------------
#$Date: 2018-12-04 13:11:15 +0200 (Tue, 04 Dec 2018) $
#$Revision: 212337 $
#$URL: file:///home/coder/svn-repositories/cod/cif/2/02/13/2021399.cif $
#------------------------------------------------------------------------------
#
# This file is available in the Crystallography Open Database (COD),
# http://www.crystallography.net/. The original data for this entry
# were provided by IUCr Journals, http://journals.iucr.org/.
#
# The file may be used within the scientific community so long as
# proper attribution is given to the journal article from which the
# data were obtained.
#
data_2021399
loop_
_publ_author_name
'Dutkiewicz, Grzegorz'
'Dutkiewicz, Edward'
'Kubicki, Maciej'
_publ_section_title
;
 Cocrystals of pyrazine and benzene polycarboxylic acids
;
_journal_issue                   11
_journal_name_full               'Acta Crystallographica Section C'
_journal_page_first              1420
_journal_page_last               1426
_journal_paper_doi               10.1107/S2053229618013669
_journal_volume                  74
_journal_year                    2018
_chemical_formula_iupac          'C4 H4 N2, 2C9 H6 O6, 2H2 O'
_chemical_formula_moiety         'C4 H4 N2, 2(C9 H6 O6), 2(H2 O)'
_chemical_formula_sum            'C22 H20 N2 O14'
_chemical_formula_weight         536.40
_chemical_name_common
;
Pyrazine--hemimellitic acid--water (1/2/2)
;
_chemical_name_systematic
;
Pyrazine--benzene-1,2,3-tricarboxylic acid--water (1/2/2)
;
_space_group_crystal_system      triclinic
_space_group_IT_number           2
_space_group_name_Hall           '-P 1'
_space_group_name_H-M_alt        'P -1'
_symmetry_space_group_name_Hall  '-P 1'
_symmetry_space_group_name_H-M   'P -1'
_atom_sites_solution_hydrogens   difmap
_audit_creation_method           SHELXL-2014/7
_cell_angle_alpha                73.100(12)
_cell_angle_beta                 75.565(11)
_cell_angle_gamma                73.001(11)
_cell_formula_units_Z            1
_cell_length_a                   6.6537(8)
_cell_length_b                   8.3316(11)
_cell_length_c                   11.5433(15)
_cell_measurement_reflns_used    1276
_cell_measurement_temperature    295(2)
_cell_measurement_theta_max      26.3940
_cell_measurement_theta_min      4.2860
_cell_volume                     576.01(14)
_computing_cell_refinement
;
CrysAlis PRO (Rigaku OD, 2015)
;
_computing_data_collection
;
CrysAlis PRO (Rigaku OD, 2015)
;
_computing_data_reduction
;
CrysAlis PRO (Rigaku OD, 2015)
;
_computing_molecular_graphics
;
Mercury (Macrae <i>et al.</i>,  2008)
;
_computing_publication_material
;
SHELXL2014 (Sheldrick, 2015b)
;
_computing_structure_refinement
;
SHELXL2014 (Sheldrick, 2015b)
;
_computing_structure_solution
;
SHELXT (Sheldrick, 2015a)
;
_diffrn_ambient_temperature      295(2)
_diffrn_detector                 'CCD plate'
_diffrn_detector_area_resol_mean 16.2413
_diffrn_detector_type            Eos
_diffrn_measured_fraction_theta_full 0.994
_diffrn_measured_fraction_theta_max 0.916
_diffrn_measurement_device       'four-circle diffractometer'
_diffrn_measurement_device_type  'Rigaku Xcalibur Eos'
_diffrn_measurement_method       '\w scans'
_diffrn_radiation_monochromator  graphite
_diffrn_radiation_probe          x-ray
_diffrn_radiation_type           'Mo K\a'
_diffrn_radiation_wavelength     0.71073
_diffrn_reflns_av_R_equivalents  0.0172
_diffrn_reflns_av_unetI/netI     0.0311
_diffrn_reflns_Laue_measured_fraction_full 0.994
_diffrn_reflns_Laue_measured_fraction_max 0.916
_diffrn_reflns_limit_h_max       8
_diffrn_reflns_limit_h_min       -8
_diffrn_reflns_limit_k_max       10
_diffrn_reflns_limit_k_min       -10
_diffrn_reflns_limit_l_max       14
_diffrn_reflns_limit_l_min       -13
_diffrn_reflns_number            3622
_diffrn_reflns_point_group_measured_fraction_full 0.994
_diffrn_reflns_point_group_measured_fraction_max 0.916
_diffrn_reflns_theta_full        25.000
_diffrn_reflns_theta_max         26.456
_diffrn_reflns_theta_min         3.452
_diffrn_source                   'fine-focus sealed X-ray tube'
_diffrn_source_type              'Enhance (Mo) X-ray Source'
_exptl_absorpt_coefficient_mu    0.132
_exptl_absorpt_correction_T_max  1.00000
_exptl_absorpt_correction_T_min  0.90527
_exptl_absorpt_correction_type   multi-scan
_exptl_absorpt_process_details
;
(CrysAlis PRO; Rigaku OD, 2015)
;
_exptl_crystal_colour            colourless
_exptl_crystal_density_diffrn    1.546
_exptl_crystal_description       block
_exptl_crystal_F_000             278
_exptl_crystal_size_max          0.3
_exptl_crystal_size_mid          0.3
_exptl_crystal_size_min          0.2
_refine_diff_density_max         0.383
_refine_diff_density_min         -0.209
_refine_diff_density_rms         0.061
_refine_ls_extinction_coef       0.080(15)
_refine_ls_extinction_expression Fc^*^=kFc[1+0.001xFc^2^\l^3^/sin(2\q)]^-1/4^
_refine_ls_extinction_method
;
SHELXL2014 (Sheldrick, 2015b)
;
_refine_ls_goodness_of_fit_ref   1.036
_refine_ls_hydrogen_treatment    refall
_refine_ls_matrix_type           full
_refine_ls_number_parameters     213
_refine_ls_number_reflns         2179
_refine_ls_number_restraints     0
_refine_ls_restrained_S_all      1.036
_refine_ls_R_factor_all          0.0642
_refine_ls_R_factor_gt           0.0526
_refine_ls_shift/su_max          0.000
_refine_ls_shift/su_mean         0.000
_refine_ls_structure_factor_coef Fsqd
_refine_ls_weighting_details
'w=1/[\s^2^(Fo^2^)+(0.0997P)^2^+0.0693P] where P=(Fo^2^+2Fc^2^)/3'
_refine_ls_weighting_scheme      calc
_refine_ls_wR_factor_gt          0.1448
_refine_ls_wR_factor_ref         0.1601
_reflns_Friedel_coverage         0.000
_reflns_number_gt                1736
_reflns_number_total             2179
_reflns_threshold_expression     'I > 2\s(I)'
_cod_data_source_file            yp3167sup1.cif
_cod_data_source_block           2a
_cod_database_code               2021399
_shelx_shelxl_version_number     2014/7
_shelx_space_group_comment
;
The symmetry employed for this shelxl refinement is uniquely defined
by the following loop, which should always be used as a source of
symmetry information in preference to the above space-group names.
They are only intended as comments.
;
_exptl_absorpt_special_details
;
CrysAlisPro 1.171.38.43 (Rigaku Oxford Diffraction, 2015)
Empirical absorption correction using spherical harmonics,
 implemented in SCALE3 ABSPACK scaling algorithm.
;
_shelx_res_file
;

    shelx.res created by SHELXL-2014/7


TITL shelxt_a.res in P-1
CELL 0.71073 6.6537 8.3316 11.5433 73.100 75.565 73.001
ZERR 2       0.0008 0.0011  0.0015  0.012  0.011  0.011
LATT 1
SFAC C H N O
UNIT 22 20 2 14

L.S. 10
PLAN -10
BOND $H

acta 50.0

WGHT    0.099700    0.069300
EXTI    0.079818
FVAR       9.53360
C1A   1    0.804696    0.669743    0.220309    11.00000    0.03674    0.03258 =
         0.03008   -0.00888   -0.00240   -0.00595
C2A   1    0.743016    0.700009    0.338454    11.00000    0.03298    0.02692 =
         0.03150   -0.00882   -0.00271   -0.00624
C3A   1    0.753005    0.559451    0.441077    11.00000    0.03220    0.02931 =
         0.03058   -0.00752   -0.00323   -0.00700
C4A   1    0.821174    0.392347    0.423817    11.00000    0.04655    0.02515 =
         0.03599   -0.00359   -0.00417   -0.00652
rem afix  43
H4A   2    0.828470    0.297237    0.489041    11.00000    0.04970
rem afix   0
C5A   1    0.884839    0.362939    0.306788    11.00000    0.05643    0.02738 =
         0.04381   -0.01398   -0.00321   -0.00604
rem afix  43
H5A   2    0.938189    0.245414    0.292422    11.00000    0.06076
rem afix   0
C6A   1    0.876890    0.500511    0.205904    11.00000    0.04814    0.03448 =
         0.03303   -0.01359   -0.00153   -0.00730
rem afix  43
H6A   2    0.922736    0.484500    0.125322    11.00000    0.04133
rem afix   0
C7A   1    0.783307    0.816905    0.110648    11.00000    0.05286    0.03538 =
         0.03079   -0.00791   -0.00187   -0.00704
O71A  4    0.871006    0.774335    0.005745    11.00000    0.08094    0.04540 =
         0.02836   -0.00893    0.00122   -0.00441
rem afix 147
H71A  2    0.838421    0.861844   -0.052103    11.00000    0.09426
rem afix   0
O72A  4    0.689456    0.961045    0.117592    11.00000    0.16376    0.03793 =
         0.03531   -0.00452   -0.00333    0.01567
C8A   1    0.679004    0.882363    0.355427    11.00000    0.04807    0.02865 =
         0.02451   -0.00471   -0.00131   -0.00813
O81A  4    0.470310    0.946405    0.373523    11.00000    0.05091    0.03151 =
         0.04928   -0.01669   -0.01172    0.00514
rem afix 147
H81A  2    0.441458    1.049127    0.383757    11.00000    0.05382
rem afix   0
O82A  4    0.807938    0.958636    0.353544    11.00000    0.06073    0.03920 =
         0.06140   -0.02040    0.00858   -0.02212
C9A   1    0.693304    0.586544    0.568519    11.00000    0.03392    0.03212 =
         0.03191   -0.00738   -0.00412   -0.00487
O91A  4    0.704538    0.442506    0.653578    11.00000    0.06807    0.03433 =
         0.02843   -0.00455   -0.00471   -0.00868
rem afix 147
H91A  2    0.657774    0.469875    0.733546    11.00000    0.09447
rem afix   0
O92A  4    0.640698    0.728080    0.590976    11.00000    0.06406    0.03245 =
         0.03676   -0.01318   -0.00655   -0.00132
N1B   3    0.579461    0.485195    0.880376    11.00000    0.05658    0.04245 =
         0.02978   -0.00816   -0.00525   -0.00837
C2B   1    0.481079    0.636783    0.906886    11.00000    0.06964    0.03595 =
         0.03268   -0.00104   -0.00872   -0.00945
rem afix  43
H2B   2    0.468612    0.732334    0.839716    11.00000    0.06453
rem afix   0
C3B   1    0.401378    0.652539    1.025646    11.00000    0.06174    0.03624 =
         0.03556   -0.00773   -0.00796   -0.00551
rem afix  43
H3B   2    0.340208    0.759863    1.044596    11.00000    0.05919
rem afix   0
O1W   4    0.194241    0.968336    0.187948    11.00000    0.05899    0.06077 =
         0.03918   -0.00384   -0.00309   -0.00935
H1W1  2    0.082878    0.947587    0.246676    11.00000    0.08477
H1W2  2    0.311874    0.949239    0.215127    11.00000    0.11561

HKLF 4

REM  shelxt_a.res in P-1
REM R1 =  0.0526 for    1736 Fo > 4sig(Fo)  and  0.0642 for all    2179 data
REM    213 parameters refined using      0 restraints

END

WGHT      0.0996      0.0696

REM Highest difference peak  0.383,  deepest hole -0.209,  1-sigma level  0.061
Q1    1   1.1544  0.9537  0.3651  11.00000  0.05    0.38
Q2    1   1.0454  0.9490  0.3657  11.00000  0.05    0.37
Q3    1   0.8383  0.9435  0.1114  11.00000  0.05    0.34
Q4    1   0.6656  0.9699  0.1847  11.00000  0.05    0.26
Q5    1   0.8667  1.0392 -0.1209  11.00000  0.05    0.26
Q6    1   0.6799  0.4877  0.8019  11.00000  0.05    0.25
Q7    1   0.2633  0.7687  1.0225  11.00000  0.05    0.24
Q8    1   0.8378  0.4996  0.1122  11.00000  0.05    0.23
Q9    1   1.0051  0.4103  0.4206  11.00000  0.05    0.23
Q10   1   0.5354  0.4091  0.4235  11.00000  0.05    0.22
;
_shelx_res_checksum              54305
_shelx_hkl_file
;
   0   0   2 1224.47 78.3416   6
   0   0   3 76723.3 762.773   6
   0   0   4 252133. 1466.01   5
   0   0  -4 252537. 1694.16   4
   0   0   4 242591. 1582.56   6
   0   0   4 241779. 1533.30   7
   0   0   5 52418.7 793.439   7
   0   0  -5 53132.3 881.755   4
   0   0   5 52777.3 829.335   6
   0   0   5 52151.0 762.879   5
   0   0   6 5665.72 278.805   5
   0   0  -6 5415.16 312.136   4
   0   0   6 5337.74 279.472   7
   0   0   7 829.524 120.804   7
   0   0   7 698.676 107.885   5
   0   0  -7 827.767 137.081   4
   0   0   8 4377.20 298.006   7
   0   0   8 3923.69 275.425   5
   0   0  -8 4199.54 326.934   4
   0   0   9 68209.9 1257.87   7
   0   0   9 70140.4 1235.24   5
   0   0  -9 69368.7 1411.99   4
   0   0  10 3320.30 299.197   7
   0   0 -10 3874.18 352.593   4
   0   0  11 2040.51 256.091   7
   0   0 -11 2046.30 277.005   4
   0   0 -12-15.5799 105.224   4
   0   0 -13 12522.0 747.092   4
   0   1 -13 719.103 190.138   4
   0  -1  12 6821.53 497.152   7
   0   1 -12 6368.35 526.115   4
   0   1 -11 1017.73 195.511   4
   0  -1  11 822.837 170.881   7
   0  -1  10 530.348 138.082   7
   0   1 -10 503.185 127.355   4
   0  -1   9 68700.5 1327.38   7
   0   1  -9 69564.8 1435.65   4
   0  -1   8 63472.2 1197.83   7
   0   1  -8 63869.5 1275.61   4
   0  -1   7 29969.6 768.083   7
   0   1  -7 31851.8 845.799   4
   0  -1   6 218.450 53.0328   5
   0   1  -6 202.613 59.3941   4
   0  -1   6 149.243 52.2487   7
   0  -1   5 36886.8 603.769   5
   0   1  -5 35986.9 767.389   4
   0  -1   5 35226.2 712.495   7
   0  -1   4 105369. 1103.01   6
   0   1  -4 103093. 1114.06   6
   0  -1   4 103131. 1096.92   7
   0   1  -3 16871.0 396.596   6
   0  -1   3 15905.6 377.551   6
   0  -1   3 17311.9 396.224   7
   0   1  -2 58514.2 638.314   6
   0  -1   2 59253.4 635.198   6
   0  -1  -2 635.791 56.8711   9
   0   1   2 634.278 57.3852   9
   0   1   3 31.3912 18.4659   5
   0  -1  -3 33.1743 21.0598   9
   0   1   4 146.763 32.2802   7
   0  -1  -4 132.140 38.0651   4
   0  -1  -4 110.502 36.3940   9
   0   1   4 151.711 37.3852   5
   0   1   5 14109.2 414.337   5
   0   1   5 14304.8 375.051   7
   0   1   6 94597.5 1167.38   5
   0   1   6 93220.4 1087.62   7
   0  -1  -7 3578.06 271.076   4
   0   1   7 3445.92 229.784   7
   0   1   7 3058.65 228.839   5
   0   1   8 30.3963 39.6097   7
   0   1   8 12.8449 32.2443   5
   0  -1  -8 93.8606 60.7109   4
   0   1   9 3086.03 273.473   5
   0  -1  -9 3144.80 291.010   4
   0   1   9 3428.22 266.832   7
   0   1  10 1776.80 217.462   5
   0  -1 -10 1342.03 211.518   4
   0  -1 -11 9335.83 570.456   4
   0   1  11 10397.8 560.421   5
   0  -1 -12 1066.07 202.684   4
   0  -1 -13-190.948 130.998   4
   0  -2  12 9798.89 623.369   7
   0  -2  11 532.542 152.177   7
   0   2 -11 685.595 140.251   4
   0   2 -10 406.494 110.621   4
   0  -2  10 490.027 133.073   7
   0  -2   9 9517.92 521.510   7
   0   2  -9 10149.9 570.711   4
   0  -2   8 266.113 95.5049   7
   0   2  -8 364.329 97.8006   4
   0   2  -7-35.9827 63.8661   4
   0  -2   7-262.650 82.3753   7
   0  -2   6 7608.66 382.482   7
   0  -2   5 1116.75 140.520   7
   0  -2   4 77465.4 1045.85   7
   0   2  -3 209541. 1576.48   6
   0  -2   3 209425. 1565.22   7
   0  -2   2 32002.7 554.962   7
   0   2  -2 30639.3 544.801   6
   0  -2   1 163374. 1116.34   7
   0   2   0 148290. 1006.86   9
   0  -2  -1 21071.1 373.278   9
   0   2   1 20896.3 369.326   9
   0   2   2 127644. 955.368   9
   0  -2  -2 133878. 946.743   9
   0   2   3 5574.46 213.911   1
   0   2   3 5731.94 226.680   5
   0  -2  -3 5804.33 217.677   9
   0   2   3 6121.61 226.256   9
   0   2   4 138168. 1198.11   9
   0   2   4 140512. 1173.11   1
   0   2   5 20551.7 530.298   5
   0  -2  -5 21671.8 519.616   9
   0   2   5 22379.0 525.135   1
   0   2   5 20468.5 421.637   7
   0   2   6 4181.84 211.978   7
   0   2   6 3823.29 247.321   5
   0   2   7 76214.4 1187.25   5
   0   2   7 74352.5 1002.51   7
   0   2   8 90.7250 46.0605   5
   0   2   9 1396.96 192.066   5
   0   2  10 9129.57 507.315   5
   0   2  11 6153.67 441.399   5
   0   2  12 2398.44 291.522   5
   0   2  13 4623.24 421.696   5
   0  -3  11 1038.67 209.302   7
   0   3 -10 2781.70 325.435   4
   0  -3  10 2703.28 303.310   7
   0  -3   9 9249.20 539.630   7
   0   3  -9 8407.80 539.499   4
   0  -3   8-50.3035 61.4982   7
   0   3  -8 23.8651 37.8681   4
   0  -3   7 132.147 68.7515   7
   0  -3   6 8933.85 444.936   7
   0  -3   5 50584.7 994.732   7
   0  -3   4 45.2969 28.3501   7
   0  -3   3 665.279 98.7852   7
   0  -3   2 7031.84 296.237   7
   0  -3   2 7443.55 313.711  10
   0  -3   2 7221.89 316.358  11
   0  -3   1 137944. 1227.80   7
   0  -3   1 138474. 1270.54  11
   0   3   0 90296.4 968.810   9
   0  -3   0 88996.1 908.940  11
   0  -3   0 91928.2 912.433   7
   0  -3  -1 38141.5 641.318   2
   0  -3  -1 38000.2 614.727   9
   0   3   1 39491.2 625.685   9
   0  -3  -1 38059.2 544.092   7
   0  -3  -1 37943.1 539.222  11
   0   3   1 38268.7 633.940   1
   0   3   2 79947.6 924.206   1
   0   3   2 78581.4 884.873   9
   0  -3  -2 82054.8 937.756   2
   0   3   2 81221.4 843.278   5
   0  -3  -2 82410.3 907.974   9
   0  -3  -3 64495.2 834.530   2
   0  -3  -3 62689.1 801.464   9
   0   3   3 62946.8 838.233   1
   0   3   3 62682.5 819.480   5
   0   3   3 63215.3 827.722   9
   0   3   4 7019.38 293.713   9
   0  -3  -4 6472.80 264.922   2
   0   3   4 6125.32 218.520   7
   0   3   4 6120.00 272.256   1
   0  -3  -4 6495.59 271.884   9
   0   3   4 6289.97 284.919   5
   0  -3  -5 27588.1 553.843   2
   0   3   5 26401.9 625.293   5
   0   3   5 26924.3 606.025   1
   0   3   5 26099.9 479.737   7
   0  -3  -5 26295.7 600.707   9
   0   3   6 19806.5 591.112   5
   0   3   6 19271.4 550.962   1
   0  -3  -6 21090.7 490.857   2
   0   3   7 11106.6 479.424   5
   0   3   8 14157.6 565.771   5
   0   3   9 2036.05 231.657   5
   0   3  10 696.595 141.559   5
   0   3  11 405.528 121.194   5
   0   3  12 2970.59 333.515   5
   0   3  13 85.3087 91.8735   5
   0  -4  10 837.024 175.249   7
   0  -4   9 31.2814 47.6030   7
   0  -4   8 2944.83 310.432   7
   0  -4   7 68.4645 73.3879   7
   0  -4   6 1041.18 167.233   7
   0  -4   5 10415.3 484.029   7
   0  -4   4 203.126 66.5396   7
   0  -4   3 1858.67 187.660  10
   0  -4   3 1745.08 177.728   7
   0  -4   2 109.806 44.0150  11
   0  -4   2 118.699 53.6298  10
   0  -4   2 19.1288 25.6755   7
   0  -4   1 3025.93 204.765   7
   0  -4   1 2911.13 210.385  11
   0  -4   1 2814.98 197.605  10
   0   4   0 29906.5 665.171   1
   0  -4   0 30569.2 608.424   7
   0  -4   0 29831.4 613.398  11
   0   4   1 65210.0 964.760   1
   0   4   1 64376.1 738.389   5
   0   4   1 66754.9 943.966   9
   0  -4  -1 64760.3 830.890   7
   0  -4  -1 62924.5 832.155  11
   0  -4  -2 7981.63 343.490   2
   0   4   2 8107.31 291.035   5
   0  -4  -2 8060.87 328.051   9
   0   4   2 8036.37 325.974   9
   0  -4  -2 7834.75 284.682  11
   0   4   2 8070.60 340.178   1
   0   4   3 15033.6 452.985   9
   0  -4  -3 14752.3 464.143   2
   0  -4  -3 14244.2 441.710   9
   0   4   3 14862.7 468.845   1
   0   4   3 14434.4 428.670   5
   0   4   4 12660.2 347.600   7
   0   4   4 13104.2 447.759   1
   0  -4  -4 13389.0 444.362   2
   0   4   4 12910.2 436.305   5
   0   4   5 1544.17 157.479   1
   0  -4  -5 1255.87 137.895   2
   0   4   5 1320.32 148.709   5
   0  -4  -6 52780.8 888.379   2
   0   4   6 51749.2 999.417   5
   0   4   6 50464.4 959.212   1
   0   4   7 518.710 102.815   1
   0   4   7 440.358 100.664   5
   0   4   8 3292.64 277.051   1
   0   4   8 3047.46 276.324   5
   0   4   9 4001.62 337.554   5
   0   4  10 2358.87 270.937   5
   0   4  11 112.156 71.1330   5
   0   4  12 172.694 72.3833   5
   0   4  13 2429.64 329.699   5
   0  -5   9 229.226 106.605   7
   0  -5   8 921.052 190.628   7
   0  -5   7 4703.20 388.861   7
   0  -5   6-23.6976 64.9686   7
   0  -5   5 9163.48 495.071   7
   0  -5   4 1792.43 204.339   7
   0  -5   3 6625.79 382.694   7
   0  -5   3 6490.70 378.767  10
   0  -5   2 18381.4 621.431  11
   0  -5   2 18955.8 608.765   7
   0  -5   1 22839.9 663.547  11
   0   5  -1 23776.4 680.655   1
   0  -5   1 23455.6 637.813   7
   0  -5   1 24707.8 664.884  10
   0  -5   0 807.498 115.178  11
   0   5   0 761.931 120.867   1
   0  -5   0 783.104 112.930   7
   0  -5  -1 57805.2 918.781  11
   0  -5  -1 56328.5 892.839   7
   0   5   2 4655.65 292.561   1
   0  -5  -2 4729.91 251.675  11
   0   5   3 11800.7 469.499   1
   0   5   3 11779.9 409.829   5
   0  -5  -3 11598.3 392.259  11
   0  -5  -4 17055.4 572.625   2
   0   5   4 18189.2 547.952   5
   0   5   4 18002.6 584.906   1
   0   5   5 32787.4 778.612   5
   0   5   5 33282.0 807.826   1
   0  -5  -5 32991.5 791.391   2
   0  -5  -6 2876.29 234.970   2
   0   5   6 2878.94 246.495   1
   0   5   6 2750.47 242.124   5
   0   5   7 21614.4 717.971   5
   0   5   7 21710.5 698.824   1
   0   5   8 17851.3 655.691   1
   0   5   8 19028.0 720.737   5
   0   5   9 1622.36 215.251   5
   0   5   9 2288.47 253.959   1
   0   5  10 276.566 91.3174   5
   0   5  11 1712.30 251.921   5
   0   5  12 9183.92 624.274   5
   0  -6   8 748.292 163.462   7
   0  -6   7 202.436 51.0221   7
   0  -6   6 501.456 138.438   7
   0  -6   5 2805.59 292.375   7
   0  -6   4 4817.20 370.591   7
   0  -6   3 6347.38 405.344   7
   0  -6   2 29584.6 828.394   7
   0   6  -2 30296.5 875.808   1
   0  -6   2 31300.2 882.757  11
   0  -6   1 27542.4 793.912  11
   0   6  -1 27543.1 821.476   1
   0  -6   1 27491.9 763.421   7
   0  -6   0 55.2795 22.4048  11
   0  -6   0 25.9121 31.7228   7
   0   6   0-30.4924 55.5884   1
   0   6   1 31631.3 850.852   1
   0   6   2 756.403 129.344   1
   0   6   3 3006.88 261.308   1
   0   6   4 379.843 90.1433   1
   0   6   5 11289.7 487.936   5
   0   6   5 11658.0 523.083   1
   0   6   6 11767.7 536.375   1
   0   6   6 11567.6 523.929   5
   0   6   7 22163.8 766.690   5
   0   6   7 22212.1 759.304   1
   0   6   8 7185.97 461.182   5
   0   6   8 7376.07 451.890   1
   0   6   9 4561.06 384.640   5
   0   6   9 4968.89 378.172   1
   0   6  10 998.784 186.297   5
   0   6  10 752.636 166.609   1
   0   6  11 2716.26 332.171   5
   0   6  12 6776.86 550.510   5
   0  -7   6 25.5436 64.1398   7
   0  -7   5 393.276 126.206   7
   0   7  -4 31.0491 64.1227   1
   0  -7   4-241.865 93.3630   7
   0  -7   3 8355.60 503.233   7
   0   7  -3 7485.23 489.378   1
   0  -7   2 419.420 96.1777   7
   0   7  -2 695.272 142.157   1
   0  -7   1 93479.7 1526.92   7
   0   7  -1 94329.6 1685.01   1
   0  -7   0 2637.92 248.169   7
   0   7   0 2406.04 263.290   1
   0   7   1 1236.27 184.316   1
   0   7   2 486.980 129.500   1
   0   7   3 11422.0 565.999   1
   0   7   4 6406.07 423.915   1
   0   7   5 513.284 129.659   1
   0   7   6 1242.16 189.717   1
   0   7   7 689.166 155.259   1
   0   7   7 552.803 138.088   5
   0   7   8 10812.0 585.910   5
   0   7   8 11153.7 600.037   1
   0   7   9 749.484 150.432   1
   0   7   9 706.965 165.269   5
   0   7  10 333.672 113.758   5
   0   7  10 277.740 111.749   1
   0   7  11 189.775 94.9415   5
   0  -8   5 4694.10 437.218   7
   0   8  -5 4753.59 447.106   1
   0  -8   4 757.072 169.788   7
   0   8  -4 796.334 178.799   1
   0  -8   3 301.130 98.5138   7
   0   8  -3 205.663 77.3296   1
   0  -8   2 676.375 156.948   7
   0   8  -2 948.471 186.945   1
   0   8  -1 791.737 170.348   1
   0   8   0 490.981 129.471   1
   0   8   1 3872.75 358.285   1
   0   8   2 1160.57 189.934   1
   0   8   3 2840.85 303.086   1
   0   8   4 13175.4 657.361   1
   0   8   5 8113.78 514.346   1
   0   8   6 989.642 183.337   1
   0   8   7 2285.45 282.841   1
   0   8   8 8008.48 533.991   1
   0   8   9 361.967 124.119   1
   0   8   9 386.327 133.858   5
   0   8  10-22.3026 74.7333   5
   0   8  10-21.5389 74.7422   1
   0   9  -1 581.358 157.789   1
   0   9   0 710.920 179.334   1
   0   9   1 145.779 86.1396   1
   0   9   2 361.181 109.608   1
   0   9   3 3860.29 383.436   1
   0   9   4 1353.06 232.985   1
   0   9   5 84.0665 82.9681   1
   0   9   6 5182.96 448.545   1
   0   9   7 198.712 92.0150   1
   0   9   8 188.835 76.5206   1
  -1   9   5 20.5240 74.9568   1
  -1   9   4 120.802 83.3279   1
  -1   9   3 207.326 103.266   1
  -1   9   2 1284.07 240.212   1
  -1   9   1-21.7100 48.6087   1
  -1   9   0 611.087 159.357   1
  -1   8   8 82.5936 83.9553   1
  -1   8   7-28.5565 76.9272   1
  -1   8   6 405.844 134.535   1
  -1   8   5 15.5184 68.9686   1
  -1   8   4 3608.66 357.273   1
  -1   8   3 6001.28 461.029   1
  -1   8   2 249.375 112.848   1
  -1   8   1 849.690 175.068   1
  -1   8   0 3143.80 330.623   1
  -1   8  -1 2011.60 272.575   1
  -1   8  -2 493.389 144.803   1
   1  -8   3 162.604 85.8210   7
  -1   8  -3 310.526 87.3810   1
   1  -8   4 928.767 194.873   7
  -1   8  -4 760.654 166.751   1
  -1   7  10-67.2432 74.0947   5
  -1   7  10-317.239 120.604   1
  -1   7   9 384.153 130.702   1
  -1   7   9 568.364 142.213   5
  -1   7   8 652.301 163.050   1
  -1   7   8 1112.75 208.352   5
  -1   7   7 161.291 81.7590   1
  -1   7   6 927.474 173.075   1
  -1   7   5 4696.66 382.049   1
  -1   7   4 6276.25 437.185   1
  -1   7   3 6260.73 431.798   1
  -1   7   2 15.4557 45.0990   1
  -1   7   1 5757.68 418.007   1
   1  -7   0 499.234 128.792  11
  -1   7   0 267.994 90.3568   1
  -1   7  -1 65.6743 76.8915   1
   1  -7   1 69.5143 54.5638  11
  -1   7  -2 726.427 158.153   1
   1  -7   2 845.676 163.573  11
   1  -7   2 906.755 180.580   7
   1  -7   3-26.2358 76.4378  11
   1  -7   3 118.895 74.5557   7
  -1   7  -3-52.1744 64.7604   1
  -1   7  -4 564.765 133.935   1
   1  -7   4 351.222 116.464   7
   1  -7   5 4683.04 420.864   7
  -1   7  -5 4728.55 415.702   1
  -1   7  -6 3608.36 368.192   1
   1  -7   6 3641.16 379.767   7
  -1   6  11 215.313 88.8501   5
  -1   6  10 438.377 147.619   5
  -1   6   9 3091.24 330.438   1
  -1   6   9 3540.73 355.255   5
  -1   6   8 2897.93 305.883   5
  -1   6   8 3302.86 321.908   1
  -1   6   7 384.480 114.037   1
  -1   6   7 405.916 123.278   5
  -1   6   6 280.803 93.8386   1
  -1   6   6 307.264 91.2277   5
  -1   6   5 566.450 126.995   1
  -1   6   4 374.194 92.8451   1
  -1   6   3 268.390 73.9761   1
   1  -6  -3 279.330 79.0764  11
   1  -6  -2 1694.31 185.558  11
  -1   6   2 1797.21 215.236   1
  -1   6   1 3397.96 291.269   1
   1  -6  -1 3881.69 289.692  11
   1  -6   0 39.5495 21.9144  11
  -1   6   0 82.7021 65.1203   1
   1  -6   1 6900.94 407.708   7
   1  -6   1 7946.05 449.152  11
  -1   6  -1 6841.00 425.857   1
   1  -6   2 11067.3 535.435   7
   1  -6   2 10540.9 548.361  11
  -1   6  -2 10357.3 526.111   1
   1  -6   3 88.1784 54.1339   7
   1  -6   3 38.0249 50.3830  11
  -1   6  -3 47.2384 45.2880   1
  -1   6  -4 2818.91 284.807   1
   1  -6   4 2697.92 284.465   7
  -1   6  -5 596.479 143.813   1
   1  -6   5 504.827 134.401   7
   1  -6   6 483.288 137.955   7
  -1   6  -6 166.239 99.7991   1
   1  -6   7 1608.62 242.376   7
  -1   5  12 522.422 150.161   5
  -1   5  11 2688.89 323.797   5
  -1   5  10 1168.24 206.025   5
  -1   5   9 97.1086 52.4823   5
  -1   5   8 455.354 111.149   1
  -1   5   8 436.775 124.777   5
  -1   5   7 97335.4 1584.37   1
  -1   5   7 94930.7 1597.16   5
  -1   5   6 5600.01 370.606   1
  -1   5   6 5252.67 352.793   5
  -1   5   5 1044.48 151.012   5
  -1   5   5 899.265 144.141   1
  -1   5   4 6100.77 336.572   5
  -1   5   4 6271.42 373.099   1
  -1   5   3 2159.05 213.398   1
  -1   5   2 6633.94 372.476   1
   1  -5  -2 6482.14 337.946  11
   1  -5  -1 378.366 80.4501  11
  -1   5   1 403.205 93.4109   1
  -1   5   0 17023.3 594.165   1
   1  -5   0 16410.4 566.928  11
   1  -5   1 1567.65 178.133   7
   1  -5   1 1503.74 174.937  11
  -1   5  -1 1472.14 178.225   1
  -1   5  -2 47129.1 1012.82   1
   1  -5   2 45709.6 1051.31  11
   1  -5   2 47635.2 1011.03   7
  -1   5  -3 29224.5 809.683   1
   1  -5   3 30774.7 846.854   7
   1  -5   3 29840.1 884.992  11
   1  -5   4-2.35395 57.3423   7
   1  -5   4-57.9219 61.8402  11
  -1   5  -4 11.0931 48.4759   1
   1  -5   5-15.0810 45.4432   7
   1  -5   6 9532.40 533.360   7
   1  -5   7 114.754 41.6360   7
   1  -5   8 139.942 59.3116   7
   1  -5   9 59.6893 78.1781   7
  -1   4  12 97.2561 78.0215   5
  -1   4  11 243.052 109.341   5
  -1   4  10 1946.66 252.035   5
  -1   4   9 529.569 121.679   5
  -1   4   8 2659.15 268.754   5
  -1   4   7 37675.1 944.079   1
  -1   4   7 34182.5 924.675   5
  -1   4   6 8277.97 421.898   5
  -1   4   6 8127.67 413.568   1
  -1   4   5 67.9385 46.0121   7
  -1   4   5 28.1861 33.2813   5
  -1   4   5 25.8643 28.4480   1
  -1   4   4 15296.1 465.162   7
  -1   4   4 14601.2 490.588   5
  -1   4   4 15344.5 529.930   1
  -1   4   3 17836.6 504.533   5
  -1   4   3 20013.2 585.133   1
  -1   4   2 17044.2 453.833   5
  -1   4   2 18277.0 554.215   1
  -1   4   1 11934.6 439.650   1
   1  -4  -1 12072.6 418.197  11
   1  -4   0 8110.99 357.051  11
  -1   4   0 7853.65 355.046   1
   1  -4   1 3085.88 231.040  11
   1  -4   1 3310.23 231.920   7
  -1   4  -1 3219.41 232.287   1
  -1   4  -2 2128.39 190.742   1
   1  -4   2 1932.31 196.342  11
   1  -4   2 1940.34 186.201   7
  -1   4  -3 18526.9 580.080   1
   1  -4   3 19820.2 659.822  11
   1  -4   3 18998.5 611.115   7
   1  -4   4 319.269 89.9194   7
   1  -4   4 253.125 82.1394  11
   1  -4   5 229.714 75.5982   7
   1  -4   6 4241.37 331.318   7
   1  -4   7 8826.61 503.553   7
   1  -4   8 2255.81 268.851   7
   1  -4   9 7090.07 497.245   7
  -1   4 -10 170.892 85.2255   4
   1  -4  10 221.228 99.0009   7
  -1   4 -11 697.862 192.459   4
  -1   3  12 396.753 135.755   5
  -1   3  11 34.1044 53.1341   5
  -1   3  10 19389.0 788.070   5
  -1   3   9 2106.68 239.722   5
  -1   3   8 8.38491 45.9295   5
  -1   3   7 2230.47 225.739   5
  -1   3   7 2402.17 200.073   7
  -1   3   6 108.591 50.3947   5
  -1   3   6 112.358 47.7939   7
  -1   3   6 76.4150 37.0970   1
  -1   3   5 767.477 112.105   1
  -1   3   5 695.888 111.754   5
  -1   3   5 751.447 103.103   7
  -1   3   4 32615.3 705.898   1
  -1   3   4 33082.6 634.266   7
  -1   3   3 56208.5 887.294   1
  -1   3   3 55531.6 840.166   5
  -1   3   2 15955.3 408.685   5
   1  -3  -2 17415.6 479.479   9
  -1   3   2 17698.8 477.518   9
  -1   3   2 16134.6 459.715   1
  -1   3   1 102152. 1126.44   9
  -1   3   1 105149. 1146.50   1
   1  -3  -1 104733. 1161.37   9
   1  -3   0 35230.3 406.231   8
   1  -3   0 35421.4 680.214   9
   1  -3   0 36254.3 660.227  11
  -1   3   0 37385.6 689.916   9
  -1   3   0 36709.3 668.733   1
   1  -3   1 4484.42 245.911  11
  -1   3  -1 4358.61 233.500   1
  -1   3  -1 4556.43 247.220   9
   1  -3   1 4802.59 247.691   7
   1  -3   2 65677.5 1015.07  11
  -1   3  -2 66131.6 720.158   8
   1  -3   2 63056.9 957.904   7
  -1   3  -2 66323.7 935.744   1
  -1   3  -3 2072.75 150.376   8
   1  -3   3 2018.78 193.509  11
   1  -3   3 2024.10 178.899   7
  -1   3  -4 8498.79 337.744   8
   1  -3   4 7843.30 399.963  11
   1  -3   4 7934.01 371.733   7
   1  -3   5 55833.2 1051.07   7
   1  -3   6 1692.62 192.894   7
   1  -3   7 1426.63 184.736   7
   1  -3   8 1650.79 213.717   7
   1  -3   9 2714.36 290.204   7
  -1   3  -9 2975.51 331.832   4
  -1   3 -10 229.173 119.441   4
   1  -3  10 132.362 83.8687   7
  -1   3 -11 434.778 145.070   4
   1  -3  11 126.897 78.6708   7
  -1   2  13 86.7381 88.5539   5
  -1   2  12 707.754 170.214   5
  -1   2  11 83.5714 68.0421   5
  -1   2  10 549.006 122.163   5
  -1   2   9-16.5893 30.7857   7
  -1   2   9-40.5189 70.5103   5
  -1   2   8 321.518 77.3216   7
  -1   2   8 329.140 102.064   5
  -1   2   7 9536.92 455.714   5
  -1   2   7 10379.3 414.321   7
  -1   2   6 2211.35 179.351   7
  -1   2   6 2067.78 193.785   5
  -1   2   5 11145.0 423.700   5
  -1   2   5 10940.5 372.478   7
   1  -2  -4 243.534 55.0415   9
  -1   2   4 272.020 56.6127   1
  -1   2   4 291.292 63.6428   9
  -1   2   4 216.953 59.5675   5
  -1   2   4 189.249 44.7219   7
  -1   2   3 13410.5 391.682   1
  -1   2   3 12739.8 380.811   5
  -1   2   3 13750.8 362.523   7
   1  -2  -3 14079.6 407.240   9
  -1   2   3 14147.9 411.657   9
  -1   2   2 1734.00 127.423   5
   1  -2  -2 1956.68 139.620   9
  -1   2   2 1805.12 134.068   1
  -1   2   2 2184.30 149.796   9
  -1   2   1 7702.47 268.135   9
   1  -2  -1 7784.41 271.563   9
  -1   2   1 7383.18 257.420   1
  -1   2   0 7780.43 267.255   9
  -1   2   0 7440.26 253.179   1
   1  -2   0 6752.83 251.800   9
   1  -2   0 7444.62 258.751  11
  -1   2  -1 2651.12 151.196   1
  -1   2  -1 2641.00 118.201   8
   1  -2   1 2973.82 171.908  11
  -1   2  -1 2613.59 158.462   9
   1  -2   1 2688.28 161.027   7
   1  -2   1 2337.91 115.598   8
   1  -2   2 5107.36 235.624   7
   1  -2   2 5736.96 261.790  11
  -1   2  -2 5719.49 205.129   8
   1  -2   3 91469.7 1067.58   7
  -1   2  -3 90973.5 948.686   8
   1  -2   3 88803.6 1147.14  11
   1  -2   4 25929.2 609.117   7
   1  -2   5 449.926 87.4601   7
   1  -2   6 625.707 115.523   7
   1  -2   7 28622.4 776.956   7
  -1   2  -8 155.431 68.5895   4
   1  -2   8 238.274 85.8909   7
  -1   2  -9 1743.47 246.730   4
   1  -2   9 1764.79 227.400   7
  -1   2 -10 289.282 106.943   4
   1  -2  10 488.164 128.487   7
  -1   2 -11 40.3462 52.1744   4
   1  -2  11 28.1057 70.9299   7
  -1   2 -12 22.0502 84.7004   4
   1  -2  12 2.68444 75.0144   7
  -1   1  12 64.6773 63.6133   5
  -1   1  11 490.222 129.504   5
  -1   1  10 424.213 108.640   7
  -1   1  10 279.636 92.2742   5
  -1   1   9 1581.15 197.395   7
  -1   1   9 1429.70 185.099   5
  -1   1   8 9168.00 437.676   7
  -1   1   8 9643.32 472.226   5
  -1   1   7 6082.40 348.242   5
  -1   1   7 6471.38 337.665   7
  -1   1   6 1266.56 145.237   5
  -1   1   6 1170.60 133.641   7
  -1   1   5 65058.4 905.835   7
  -1   1   5 63303.9 968.866   5
  -1   1   4 185603. 1401.56   7
  -1   1   4 189490. 1532.90   5
  -1   1   3 29639.7 547.763   5
   1  -1  -3 30557.3 561.968   9
  -1   1   3 30154.2 567.104   9
  -1   1   3 30265.1 516.492   7
  -1   1   2 100917. 906.018   5
   1  -1  -2 101543. 921.647   9
   1  -1  -1 15676.6 318.852   9
  -1   1   1 15887.9 326.567   9
   1  -1   0 114943. 840.834   9
  -1   1   0 115804. 820.807   9
  -1   1  -1 41806.1 505.513   9
   1  -1   1 42400.5 461.789   8
  -1   1  -1 41397.6 453.374   8
  -1   1  -2 273.421 41.9833   8
   1  -1   2 376.594 56.9776  11
   1  -1   2 286.554 48.3531   7
   1  -1   3 34506.9 569.733   7
  -1   1  -3 34344.3 562.379   8
   1  -1   3 34629.3 629.203  11
   1  -1   4 85756.4 979.948   7
  -1   1  -4 84209.2 965.761   6
   1  -1   5 50400.9 625.878   5
   1  -1   5 53043.6 839.594   7
  -1   1  -5 52921.2 852.884   6
   1  -1   6 5710.49 299.733   7
   1  -1   7 487.512 94.6552   7
  -1   1  -7 296.533 103.607   4
  -1   1  -8 120.276 57.5469   4
   1  -1   8 157.002 59.9099   7
   1  -1   9 73558.5 1330.31   7
  -1   1  -9 70294.4 1486.88   4
  -1   1 -10 1799.12 259.714   4
   1  -1  10 1436.61 200.675   7
  -1   1 -11 54.6216 70.8391   4
   1  -1  11 72.1896 53.1348   7
  -1   1 -12 4252.81 440.752   4
  -1   1 -13 1715.06 285.076   4
  -1   0  12 45.0264 51.6275   7
  -1   0  11 387.893 114.217   7
  -1   0  10 796.925 153.787   7
  -1   0  10 818.974 150.144   5
   1   0 -10 975.175 160.130   4
  -1   0   9 224.511 76.8535   5
   1   0  -9 312.890 75.2174   4
  -1   0   9 235.811 71.6619   7
   1   0  -8 1690.64 199.517   4
  -1   0   8 1953.21 206.833   5
  -1   0   8 1997.48 209.879   7
   1   0  -7 3134.63 249.877   4
  -1   0   7 3290.15 252.007   5
  -1   0   7 3399.79 256.681   7
  -1   0   6 34097.5 749.018   5
  -1   0   6 34362.4 758.847   7
   1   0  -6 33124.1 745.761   4
  -1   0   5 11895.1 409.566   5
  -1   0   5 12404.6 412.880   7
   1   0  -5 11863.4 404.969   4
   1   0  -4 39854.8 664.402   4
  -1   0   4 41340.3 682.321   7
  -1   0   4 40351.0 696.884   5
  -1   0   3 7056.47 258.939   5
  -1   0   3 6865.24 247.844   7
   1   0  -1 45311.8 492.709   9
   1   0   1 73461.8 575.780   8
  -1   0  -1 72287.0 439.746   9
  -1   0  -2 45114.9 527.833   8
  -1   0  -2 45022.9 420.604   6
  -1   0  -3 68.0422 22.6026   8
   1   0   3 115.799 24.7205   6
  -1   0  -3 62.6190 19.2111   6
   1   0   4 190812. 1264.39   7
  -1   0  -4 192667. 1303.86   6
   1   0   4 194627. 1260.64   6
  -1   0  -5 95.8472 34.5770   6
  -1   0  -5 136.677 44.1873   3
  -1   0  -5 142.481 44.5524   4
   1   0   5 85.0830 26.4209   7
   1   0   5 88.3969 36.2367   6
   1   0   5 143.483 41.2355   5
   1   0   6 217.286 55.1906   6
   1   0   6 105.295 34.6254   7
  -1   0  -6 99.7295 33.5872   3
  -1   0  -6 250.035 74.4289   4
   1   0   6 117.048 36.7600   5
   1   0   7 172.634 54.3547   7
   1   0   7 219.001 57.5738   5
   1   0   8 51448.0 971.227   7
  -1   0  -8 48596.1 1113.37   4
  -1   0  -9 1939.91 245.571   4
   1   0   9 2511.95 232.672   7
   1   0  10 8288.72 447.956   7
  -1   0 -10 7591.22 507.727   4
  -1   0 -11 321.630 124.682   4
  -1   0 -12 624.652 166.042   4
  -1   0 -13 108.023 100.576   4
  -1  -1  12 469.762 154.979   7
  -1  -1  11 86.6411 71.5664   7
  -1  -1  10 2061.92 258.771   7
  -1  -1   9 17280.1 693.231   7
   1   1  -9 15730.9 660.308   4
   1   1  -8 43.1850 50.6082   4
  -1  -1   8-135.672 88.0763   7
  -1  -1   7 25967.4 753.795   7
  -1  -1   7 24570.9 674.809   5
  -1  -1   6 6176.69 314.457   5
  -1  -1   6 6076.60 339.046   7
   1   1  -6 6048.52 326.543   4
   1   1  -5 98.9896 46.6847   4
  -1  -1   5 110.792 44.1557   5
  -1  -1   5 60.6718 33.6239   7
  -1  -1   4 9846.69 367.814   6
  -1  -1   4 9513.29 353.961   7
   1   1  -4 8642.55 313.022   4
  -1  -1   3 134275. 1185.00   7
  -1  -1   3 131145. 1208.96   6
  -1  -1   2 2492.68 145.206   6
  -1  -1   2 2424.65 155.338  10
  -1  -1   2 2357.79 137.730   7
  -1  -1   1 33870.8 443.781   6
  -1  -1   0 100998. 565.597   6
  -1  -1  -2 3628.51 141.766   8
   1   1   2 3490.75 141.217   8
  -1  -1  -3 56576.2 666.021   8
   1   1   4 94948.3 944.682   5
   1   1   4 92952.4 800.889   6
  -1  -1  -4 92586.0 1046.68   4
   1   1   5 127615. 1105.76   6
   1   1   5 124587. 1004.38   7
   1   1   5 125984. 1201.29   5
  -1  -1  -5 123952. 1376.10   4
  -1  -1  -5 125377. 1039.15   3
   1   1   6 1387.85 122.277   7
   1   1   6 1613.10 139.291   6
   1   1   6 1383.16 137.196   5
  -1  -1  -6 1367.62 155.748   4
  -1  -1  -6 1244.55 109.459   3
   1   1   7 17326.8 524.186   5
   1   1   7 18642.5 495.211   7
  -1  -1  -7 17399.2 611.689   4
  -1  -1  -8 17031.3 653.648   4
   1   1   8 16307.8 549.377   5
  -1  -1  -9 732.898 143.381   4
   1   1   9 548.770 100.490   5
  -1  -1 -10 381.195 112.434   4
   1   1  10 224.753 73.0000   5
  -1  -1 -11 188.202 94.2298   4
  -1  -1 -12 1988.28 280.904   4
  -1  -1 -13 145.330 98.0536   4
  -1  -2  12 900.366 195.035   7
  -1  -2  11 1833.02 260.123   7
  -1  -2  10 1202.52 204.019   7
  -1  -2   9 3037.63 303.092   7
  -1  -2   8 61602.6 1290.36   7
   1   2  -7 1155.99 166.157   4
  -1  -2   7 1209.21 173.258   7
  -1  -2   6 2757.67 242.912   7
   1   2  -6 2574.58 225.007   4
  -1  -2   5 6963.29 354.080   7
   1   2  -5 6850.94 332.517   4
  -1  -2   4 41261.3 795.136   7
   1   2  -3 106463. 1168.54   6
  -1  -2   3 104963. 1149.25   7
  -1  -2   3 103141. 1136.46   6
   1   2  -2 710.082 85.6600   6
  -1  -2   2 695.820 92.5592  10
  -1  -2   2 842.789 90.4852   6
  -1  -2   2 793.363 90.3192   7
  -1  -2   1 2303.18 135.032   7
  -1  -2   1 2050.69 124.559   6
   1   2  -1 2251.31 133.391   6
  -1  -2   1 2339.62 153.514  10
   1   2   0 90320.6 724.564   6
   1   2   1 84491.8 592.028   9
   1   2   2 61446.7 558.629   8
  -1  -2  -2 61044.0 542.196   8
   1   2   2 58468.7 474.685   9
  -1  -2  -2 58563.7 478.617   9
   1   2   3 84617.5 655.744   9
  -1  -2  -3 83489.7 763.124   8
   1   2   3 86048.9 892.793   5
  -1  -2  -4 48410.9 575.552   9
   1   2   4 46901.6 724.117   5
  -1  -2  -4 47081.4 749.871   4
   1   2   5 123903. 1276.42   5
  -1  -2  -5 126890. 1369.38   4
  -1  -2  -5 125168. 1082.48   9
   1   2   6 47257.0 850.262   5
  -1  -2  -6 49705.4 766.990   9
  -1  -2  -6 47584.1 920.212   4
   1   2   6 50427.7 649.928   7
  -1  -2  -7-8.49905 51.0624   4
   1   2   7 23.6480 36.7288   5
  -1  -2  -8 10786.5 513.886   4
   1   2   8 10729.7 457.678   5
  -1  -2  -9 6481.77 426.795   4
   1   2   9 6810.45 393.878   5
   1   2  10 2706.66 259.966   5
  -1  -2 -10 2520.93 284.512   4
  -1  -2 -11 854.226 172.900   4
   1   2  11 1057.53 182.450   5
   1   2  12 31.4625 65.5510   5
  -1  -2 -12-49.7315 58.0526   4
  -1  -2 -13 197.511 109.601   4
  -1  -3  11 62.3323 97.7276   7
  -1  -3  10 9.34206 46.1426   7
  -1  -3   9 57.8744 44.9883   7
  -1  -3   8 3329.50 316.265   7
  -1  -3   7 22.3296 46.6766   7
  -1  -3   6 20308.3 688.523   7
   1   3  -6 20653.7 666.616   4
  -1  -3   5 1724.86 191.554   7
  -1  -3   4 13984.1 496.576   7
  -1  -3   3 24275.7 664.467  10
  -1  -3   3 25962.9 628.994   7
  -1  -3   2 28018.4 665.981  10
   1   3  -2 28715.6 608.295   6
  -1  -3   2 28308.2 595.172   7
   1   3  -1 320.257 56.6664   6
  -1  -3   1 301.663 57.1228   7
  -1  -3   1 244.291 57.4386  10
  -1  -3   1 248.266 45.4464   2
  -1  -3   0 4357.75 213.031   2
  -1  -3   0 4361.31 185.774   7
   1   3   1 6582.48 236.876   5
   1   3   1 6852.47 228.156   9
  -1  -3  -1 6379.95 261.035   2
   1   3   2 31459.6 528.599   1
   1   3   2 31306.3 480.071   9
   1   3   2 30529.7 547.427   5
   1   3   2 31726.6 378.265   8
  -1  -3  -2 32039.3 474.904   9
   1   3   3 2887.66 159.151   1
  -1  -3  -3 2892.33 145.134   9
  -1  -3  -3 2808.58 132.729   8
   1   3   3 3208.79 156.140   9
   1   3   3 2825.76 178.816   5
   1   3   4 35035.6 549.406   9
  -1  -3  -4 34251.4 522.656   9
   1   3   4 33810.9 664.144   5
   1   3   4 34933.4 566.724   1
  -1  -3  -4 32799.9 538.039   8
   1   3   5 949.141 118.282   5
   1   3   5 913.955 96.6512   1
   1   3   5 797.887 93.2012   9
  -1  -3  -5 892.503 92.4366   9
  -1  -3  -6 21.9149 15.7187   9
   1   3   6 12.2987 16.2793   1
   1   3   6-11.3419 32.8634   5
   1   3   7 850.408 126.941   5
   1   3   8 18745.3 642.103   5
   1   3   9 61.3701 60.1920   5
   1   3  10 2369.04 257.600   5
   1   3  11 9162.28 533.404   5
   1   3  12 61.3939 75.9799   5
   1   3  13 260.370 102.944   5
   1   3  14 372.541 147.386   5
  -1  -4  10 735.309 174.192   7
  -1  -4   9 96.1851 51.6434   7
  -1  -4   8 169.284 81.4272   7
  -1  -4   7 760.145 149.701   7
  -1  -4   6 213.352 67.7105   7
  -1  -4   5 3585.69 288.952   7
  -1  -4   4 31410.7 802.641   7
  -1  -4   3 1588.97 166.963   7
  -1  -4   3 1671.83 189.660  10
  -1  -4   2 6402.03 354.183  10
  -1  -4   2 6307.84 309.918   7
  -1  -4   1 62094.0 1021.23  10
  -1  -4   1 62825.2 898.468   7
   1   4  -1 62889.2 728.461   5
  -1  -4   0 5351.30 236.804  11
  -1  -4   0 5225.34 237.348   7
   1   4   0 5199.18 217.579   5
  -1  -4   0 4670.29 257.013   2
  -1  -4  -1 23471.9 449.957   7
   1   4   1 23520.7 491.932   5
   1   4   1 21950.7 536.413   1
   1   4   1 23177.5 511.475   9
  -1  -4  -1 22069.4 560.952   2
   1   4   2 90043.6 1072.04   1
   1   4   2 91806.3 1035.47   5
  -1  -4  -2 90756.3 1152.65   2
  -1  -4  -3 36941.8 744.689   2
  -1  -4  -3 37093.0 434.222   8
  -1  -4  -3 36981.3 625.131   9
   1   4   3 37190.4 635.110   9
   1   4   3 36895.2 676.718   1
   1   4   3 36104.0 691.980   5
  -1  -4  -4 97943.3 1026.13   9
  -1  -4  -4 96392.8 869.830   8
   1   4   4 95740.2 1054.23   9
   1   4   4 93709.2 1102.16   1
   1   4   4 94502.7 1198.37   5
  -1  -4  -4 97067.5 1212.45   2
   1   4   5 17518.4 547.144   5
  -1  -4  -5 17464.2 430.653   8
  -1  -4  -5 17718.0 452.130   9
   1   4   5 17205.1 480.489   1
   1   4   5 19115.5 495.067   9
   1   4   6 193.482 55.7128   1
   1   4   6 185.099 55.3816   9
   1   4   6 142.967 68.1961   5
  -1  -4  -6 32.2353 17.2755   9
   1   4   7 11787.1 429.668   1
   1   4   7 11731.1 504.658   5
   1   4   8 11234.4 520.692   5
   1   4   9 33.9369 45.6704   5
   1   4  10 5303.89 401.686   5
   1   4  11 7339.54 486.409   5
   1   4  12 27.2954 46.0487   5
   1   4  13 631.917 168.332   5
  -1  -5   9 199.799 100.387   7
  -1  -5   8 2967.73 331.841   7
  -1  -5   7 2829.39 299.405   7
  -1  -5   6 9529.09 530.445   7
  -1  -5   5 2998.11 279.276   7
  -1  -5   4 458.670 112.211  10
  -1  -5   4 762.281 131.602   7
  -1  -5   3 1991.74 223.854  10
  -1  -5   3 2318.63 217.421   7
  -1  -5   2 6508.17 388.987  10
  -1  -5   2 6707.39 348.993   7
  -1  -5   1 7038.32 336.401   7
  -1  -5   1 6513.77 368.428  10
  -1  -5   0 59.7608 27.5369  11
  -1  -5   0 83.8358 34.2176   7
   1   5   1 1074.83 137.727   1
  -1  -5  -1 1170.58 116.844   7
  -1  -5  -1 919.715 131.082   2
   1   5   2 16643.4 472.708   5
  -1  -5  -2 17012.0 556.387   2
   1   5   2 16460.8 521.412   1
   1   5   3 7333.64 333.739   5
  -1  -5  -3 7856.95 380.851   2
   1   5   3 7247.72 343.669   1
   1   5   4 2958.16 226.137   5
   1   5   4 3306.33 233.552   1
  -1  -5  -4 3051.47 238.467   2
   1   5   5 8981.74 390.016   1
  -1  -5  -5 9246.74 421.401   2
   1   5   5 8485.84 404.394   5
   1   5   6 806.945 130.927   5
  -1  -5  -6 742.107 120.849   2
   1   5   6 713.644 116.682   1
   1   5   7 5723.03 369.034   5
   1   5   7 6174.34 340.507   1
  -1  -5  -7 6398.64 357.146   2
   1   5   8 39520.8 1016.49   5
   1   5   9 2369.02 262.255   5
   1   5  10 1687.28 228.315   5
   1   5  11 1373.28 219.095   5
   1   5  12 84.0565 63.4322   5
   1   5  13 528.966 169.382   5
  -1  -6   8 168.281 69.1150   7
  -1  -6   7 52.1982 74.5674   7
  -1  -6   6 935.047 173.634   7
  -1  -6   5 10426.5 557.371   7
  -1  -6   4 221.398 87.4227  10
  -1  -6   4 176.195 72.5930   7
  -1  -6   3 54.2376 42.5336  10
  -1  -6   3-29.7522 60.0170   7
  -1  -6   2 10453.9 475.584   7
  -1  -6   2 9419.22 505.062  10
  -1  -6   1 52604.6 1012.90   7
  -1  -6   1 49835.5 1102.91  10
  -1  -6   0 3053.76 229.819   7
   1   6   0 2995.87 258.152   1
   1   6   1 8998.72 443.666   1
  -1  -6  -1 9440.14 458.370   2
   1   6   2 1011.45 145.994   1
  -1  -6  -2 1065.44 154.296   2
  -1  -6  -3 1925.96 212.201   2
   1   6   3 1954.12 200.097   1
  -1  -6  -4 725.039 124.761   2
   1   6   4 731.935 121.373   5
   1   6   4 736.564 123.201   1
   1   6   5 8939.80 432.705   1
   1   6   5 8340.79 420.899   5
  -1  -6  -5 8612.01 449.350   2
   1   6   6 1500.44 183.538   1
   1   6   6 1352.56 183.270   5
  -1  -6  -6 1467.05 187.372   2
   1   6   7 2406.72 247.295   5
   1   6   7 2632.22 244.144   1
  -1  -6  -7 2381.91 242.468   2
   1   6   8 62738.3 1327.98   5
  -1  -6  -8 63454.3 1240.25   2
   1   6   9 4046.15 351.665   5
   1   6  10 766.182 168.181   5
   1   6  11 1678.47 248.710   5
   1   6  12 647.813 178.597   5
  -1  -7   6 561.680 146.449   7
  -1  -7   5-19.1699 35.0995   7
  -1  -7   4 201.220 78.7511   7
  -1  -7   3 901.980 177.613  10
  -1  -7   3 1404.42 201.091   7
  -1  -7   2 1195.14 201.618  10
  -1  -7   2 785.261 141.192   7
  -1  -7   1 5336.77 398.069  10
   1   7  -1 6280.59 425.876   1
   1   7   0 2460.06 263.887   1
  -1  -7   0 2438.76 266.380  10
   1   7   1 430.976 105.929   1
   1   7   2 2707.05 266.480   1
  -1  -7  -3 1410.11 198.111   2
   1   7   3 1196.13 178.001   1
   1   7   4-2.12335 37.2584   1
  -1  -7  -4-11.8313 54.8969   2
   1   7   5 492.266 110.685   1
  -1  -7  -5 671.479 142.033   2
   1   7   6-10.6373 42.3456   5
   1   7   6-71.2412 62.1090   1
  -1  -7  -6 62.7059 69.4080   2
   1   7   7 535.668 126.268   5
   1   7   7 514.735 119.522   1
  -1  -7  -7 606.483 134.327   2
   1   7   8 279.310 94.1505   5
   1   7   8 265.349 87.7146   1
  -1  -7  -8 378.521 107.693   2
   1   7   9 1510.66 232.454   5
   1   7  10 1371.72 222.078   5
   1   7  11 29.6238 74.0836   5
  -1  -8   5 5926.70 475.049   7
  -1  -8   4 2056.04 268.657   7
  -1  -8   3-14.2692 60.4699   7
   1   8  -3 65.9250 68.4630   1
   1   8  -2 590.505 151.131   1
   1   8  -1 764.621 157.613   1
   1   8   0 1028.32 185.340   1
   1   8   1 121.408 78.9869   1
   1   8   2 6986.21 462.180   1
   1   8   3 657.374 141.462   1
   1   8   4 7875.98 484.560   1
   1   8   5 2687.74 290.122   1
   1   8   6 3126.66 308.312   1
  -1  -8  -6 3242.99 329.454   2
  -1  -8  -7 553.974 146.778   2
   1   8   7 1037.39 177.584   1
   1   8   8 194.942 98.0461   5
   1   8   8 82.4907 69.4819   1
  -1  -8  -8 251.236 102.650   2
   1   8   9 861.779 182.159   5
   1   8  10 339.248 107.580   5
   1   8  11 384.008 140.994   5
   1   9  -2 88.4687 94.6154   1
   1   9  -1 463.757 140.876   1
   1   9   0 1987.35 271.971   1
   1   9   1 387.242 127.386   1
   1   9   2-28.2258 65.3723   1
   1   9   3 96.2290 73.2681   1
   1   9   4 3366.82 346.692   1
   1   9   5 762.769 159.798   1
   1   9   6 9.16231 80.2475   1
   1   9   7 59.0255 52.2677   1
   1   9   8-33.9945 65.8913   1
  -2   8   6 3066.55 362.605   1
  -2   8   5 5209.50 473.374   1
  -2   8   4 283.778 92.5182   1
  -2   8   3 291.236 104.324   1
  -2   8   2 8434.82 571.642   1
  -2   8   1 102.985 64.1602   1
  -2   8   0 105.246 71.7869   1
  -2   8  -1 94.6601 83.1269   1
  -2   8  -2-6.44016 80.1539   1
   2  -8   2 129.695 85.9132  11
  -2   8  -3 191.123 107.607   1
   2  -8   3 323.353 131.303  11
  -2   7   8 458.312 134.733   1
  -2   7   7 211.081 82.5188   1
  -2   7   6 212.499 76.8932   1
  -2   7   5 19.7558 52.2057   1
  -2   7   4 3618.15 348.375   1
   2  -7  -4 3755.07 332.594  11
  -2   7   3 2760.22 300.160   1
   2  -7  -3 2490.17 271.967  11
  -2   7   2-13.4574 78.5793   1
   2  -7  -2 12.2940 46.9404  11
   2  -7  -1 1347.57 207.399  11
  -2   7   1 1489.03 220.309   1
   2  -7   0 546.403 142.839  11
  -2   7   0 377.014 110.920   1
   2  -7   1 108.765 79.5381  11
  -2   7  -1-28.1284 76.1290   1
  -2   7  -2 1124.66 199.514   1
   2  -7   2 1293.72 221.550  11
  -2   7  -3 1566.08 228.507   1
   2  -7   3 1872.99 275.249  11
   2  -7   4 1165.30 226.124  11
  -2   7  -4 1314.28 217.972   1
   2  -7   4 1316.59 225.392   7
   2  -7   5 1325.93 233.564   7
  -2   6  10 1413.74 243.732   5
  -2   6   9 275.138 94.4885   5
  -2   6   9 224.338 110.399   1
  -2   6   8 2301.94 292.242   5
  -2   6   8 2224.83 287.022   1
  -2   6   7 2119.97 269.552   5
  -2   6   7 2074.45 263.746   1
  -2   6   6 651.877 147.452   1
  -2   6   5 3927.99 343.314   1
  -2   6   4 1444.99 208.909   1
  -2   6   3 18394.3 719.033   1
   2  -6  -3 16625.3 657.068  11
  -2   6   2 8596.68 490.552   1
   2  -6  -2 10382.5 518.496  11
   2  -6  -1 2090.29 234.989  11
  -2   6   1 2039.21 234.933   1
   2  -6   0 1497.00 208.016  11
  -2   6   0 1360.13 191.323   1
   2  -6   1 646.590 134.749  11
  -2   6  -1 885.613 151.654   1
  -2   6  -2 73539.3 1445.40   1
   2  -6   2 76990.5 1560.63  11
   2  -6   3 115.139 51.3998  11
  -2   6  -3 129.166 48.6522   1
   2  -6   3 248.862 104.535   7
  -2   6  -4 485.662 121.605   1
   2  -6   4 674.032 155.877  11
   2  -6   4 726.213 159.369   7
   2  -6   5 2000.23 284.288  11
   2  -6   5 1677.77 241.437   7
   2  -6   6 918.911 190.030   7
   2  -6   7-15.6797 93.7902   7
  -2   5  11 10511.9 685.314   5
  -2   5  10 2707.86 330.432   5
  -2   5   9 882.162 186.018   5
  -2   5   8 122.447 78.7690   1
  -2   5   8 219.306 86.9052   5
  -2   5   7 30019.5 954.262   5
  -2   5   7 31434.0 976.442   1
  -2   5   6 25409.8 834.568   5
  -2   5   6 25060.8 836.594   1
  -2   5   5 512.960 118.123   5
  -2   5   5 405.477 111.499   1
  -2   5   5 732.789 128.862   7
  -2   5   4 816.435 145.252   1
  -2   5   4 789.179 126.447   7
  -2   5   3 19263.1 681.096   1
  -2   5   2 695.718 131.784   1
   2  -5  -2 657.182 117.639  11
   2  -5  -1 2033.84 215.143  11
  -2   5   1 1611.56 190.247   1
   2  -5   0 1943.93 212.678  11
  -2   5   0 1450.45 180.302   1
   2  -5   1 3677.46 304.924  11
  -2   5  -1 3649.11 289.468   1
  -2   5  -2 20082.4 682.775   1
   2  -5   2 20747.9 751.969  11
   2  -5   3 25898.6 829.272   7
   2  -5   3 27163.9 898.631  11
  -2   5  -3 27125.9 801.473   1
  -2   5  -4 750.119 134.432   1
   2  -5   4 707.633 145.474   7
   2  -5   5 1449.61 226.933  11
   2  -5   5 961.099 170.652   7
   2  -5   6 2931.39 308.890   7
   2  -5   7 90.5746 60.8214   7
   2  -5   8 738.549 174.500   7
  -2   4  11 290.305 93.2226   5
  -2   4  10 4355.23 408.903   5
  -2   4   9 60.5876 46.9330   5
  -2   4   8 2149.28 259.043   5
  -2   4   7 246.642 87.4035   5
  -2   4   7 205.500 87.7085   1
  -2   4   6 10252.6 509.458   5
  -2   4   6 10573.4 516.502   1
  -2   4   6 10671.5 484.512   7
  -2   4   5 12977.3 545.842   5
  -2   4   5 13767.3 528.104   7
  -2   4   5 12138.6 532.146   1
  -2   4   4 2829.90 247.377   1
  -2   4   4 2683.06 236.813   5
  -2   4   4 2869.38 230.156   7
  -2   4   3 151.222 51.0239   5
  -2   4   3 83.0848 45.7901   1
  -2   4   2 2045.02 199.821   1
   2  -4  -1 33966.7 804.558  11
  -2   4   1 33820.2 798.992   1
   2  -4   0 7202.16 372.834  11
  -2   4   0 6602.03 350.625   1
   2  -4   1 1347.89 166.363  11
  -2   4  -1 1393.57 159.792   1
  -2   4  -2 2900.65 229.993   1
   2  -4   2 2412.92 235.310  11
  -2   4  -3 59.0408 40.7825   1
   2  -4   3-64.5440 55.2794  11
   2  -4   3 56.7434 41.3998   7
  -2   4  -4 281.799 72.3117   1
   2  -4   4 197.743 70.8116   7
   2  -4   5 328.287 104.708   7
   2  -4   5 346.353 99.1130  11
   2  -4   6 44.8295 47.4413   7
   2  -4   7 557.510 129.338   7
   2  -4   8 1668.91 238.976   7
   2  -4   9 318.163 93.0832   7
   2  -4  10 913.139 186.864   7
  -2   3  12-39.9809 91.4732   5
  -2   3  11 2276.65 299.668   5
  -2   3  10 94.8568 52.4959   5
  -2   3   9 6313.34 452.486   5
  -2   3   8 1060.68 187.193   5
  -2   3   8 1072.36 161.368   7
  -2   3   7 12101.5 571.203   5
  -2   3   7 13053.4 535.760   7
  -2   3   6 10743.7 505.290   5
  -2   3   6 11606.7 488.363   7
  -2   3   5 1788.74 198.956   5
  -2   3   5 1741.86 194.380   1
  -2   3   5 1930.97 188.905   7
  -2   3   4 26079.6 705.214   5
  -2   3   4 26378.6 700.261   1
  -2   3   4 27225.3 681.619   7
  -2   3   3 8043.61 363.071   5
  -2   3   3 7713.32 349.366   7
  -2   3   3 8181.38 376.468   1
  -2   3   2 56476.2 886.533   5
  -2   3   2 56961.4 954.998   1
  -2   3   1 17512.2 513.790   1
   2  -3   0 5792.19 308.006  11
   2  -3   0 6112.10 239.141   8
  -2   3   0 6365.85 304.975   1
   2  -3   1 4571.57 210.681   8
  -2   3  -1 5005.94 266.639   1
   2  -3   1 4899.16 286.835  11
   2  -3   2 13464.8 501.756  11
  -2   3  -2 13758.9 442.286   1
   2  -3   3 9595.67 422.221   7
   2  -3   3 8886.17 429.472  11
  -2   3  -3 9464.56 375.254   1
   2  -3   4 484.804 110.359  11
   2  -3   4 695.145 123.811   7
  -2   3  -4 657.686 97.9312   1
   2  -3   5 1208.79 160.007   7
   2  -3   5 880.864 149.366  11
   2  -3   6-24.1895 43.9773   7
   2  -3   7 132.173 65.6969   7
   2  -3   8 435.630 99.7479   7
   2  -3   9 668.828 145.558   7
  -2   3 -10 665.715 175.910   4
   2  -3  10 573.356 144.588   7
  -2   3 -11 83.3032 62.6582   4
   2  -3  11-61.0355 85.0614   7
  -2   2  12 735.486 183.711   5
  -2   2  11 1199.22 215.223   5
  -2   2  10 2301.04 283.183   5
  -2   2  10 2334.98 263.384   7
  -2   2   9 1858.94 243.629   5
  -2   2   9 2173.80 237.382   7
  -2   2   8 1751.10 223.816   5
  -2   2   8 2073.86 221.704   7
  -2   2   7 5793.06 383.026   5
  -2   2   7 5175.09 332.858   7
  -2   2   6 1455.32 179.314   5
  -2   2   6 1643.04 179.194   7
  -2   2   5 2597.57 227.666   5
  -2   2   5 2733.49 218.170   7
  -2   2   4 97.2139 46.4067   5
  -2   2   4 8.47889 25.6542   1
  -2   2   4 76.9522 39.9667   7
  -2   2   3 1973.04 173.826   5
  -2   2   3 2232.60 176.022   7
  -2   2   3 2014.11 173.385   1
  -2   2   2 3198.13 204.062   5
  -2   2   2 2924.07 196.276   1
   2  -2  -2 2943.45 198.384   9
  -2   2   2 2954.23 194.337   7
  -2   2   2 3143.47 210.816   9
   2  -2  -1 11954.6 388.937   9
  -2   2   1 11326.1 368.562   1
  -2   2   1 11992.9 391.956   9
  -2   2   0 1607.53 139.301   9
   2  -2   0 1651.29 143.350   9
  -2   2   0 1534.89 128.485   1
   2  -2   1 12511.5 408.882  11
   2  -2   1 12080.7 336.771   8
  -2   2  -1 12573.8 391.514   9
   2  -2   1 12931.0 400.104   9
  -2   2  -1 12959.2 369.135   1
   2  -2   2 2668.43 197.266  11
  -2   2  -2 2721.53 186.445   9
   2  -2   2 2471.48 160.267   8
  -2   2  -2 2753.50 169.074   1
  -2   2  -3 8822.97 307.968   1
  -2   2  -3 8836.99 347.953   9
  -2   2  -3 8920.97 322.422   8
   2  -2   3 8291.78 353.340   7
   2  -2   3 9006.34 386.572  11
   2  -2   4 2048.14 184.615   7
  -2   2  -4 1908.00 162.587   8
  -2   2  -4 1717.48 141.762   1
   2  -2   4 2147.09 204.062  11
   2  -2   5 5704.71 320.229   7
   2  -2   5 5710.14 352.019  11
   2  -2   6 11579.0 479.850   7
   2  -2   7 2862.81 249.582   7
   2  -2   8 25.3355 30.7930   7
   2  -2   9 65.7457 65.1082   7
   2  -2  10 3544.16 333.083   7
  -2   2 -10 3490.31 379.180   4
  -2   2 -11 2395.67 328.404   4
   2  -2  11 1967.86 259.411   7
  -2   2 -12 1260.55 250.841   4
   2  -2  12 1214.11 215.623   7
  -2   1  11 2012.93 263.290   7
  -2   1  11 2068.79 284.785   5
  -2   1  10 4.83963 61.7631   5
  -2   1  10 65.8432 70.1366   7
  -2   1   9 109.558 60.0040   5
  -2   1   9 33.6138 53.9769   7
  -2   1   8 14042.7 616.085   5
  -2   1   8 13856.3 572.244   7
  -2   1   7 236.801 78.2741   5
  -2   1   7 308.351 88.7774   7
  -2   1   6 1136.55 148.461   7
  -2   1   6 879.191 137.452   5
  -2   1   5 54434.8 1014.67   5
  -2   1   5 52366.7 936.233   7
  -2   1   4 102.190 48.1083   5
  -2   1   4 56.0567 29.1489   7
  -2   1   3 45999.7 809.994   5
  -2   1   3 46059.0 775.549   7
  -2   1   3 46376.8 810.332   9
  -2   1   2 37414.6 668.820   1
  -2   1   2 39236.1 683.174   9
   2  -1  -2 39972.5 677.329   9
  -2   1   2 36571.1 652.162   7
  -2   1   1 3422.56 188.595   9
   2  -1  -1 3400.96 182.317   9
  -2   1   1 3366.33 187.138   7
  -2   1   1 3073.71 170.228   1
  -2   1   0 11.8784 17.4219   9
   2  -1   0-16.2789 19.9612   9
  -2   1   0 9.71055 11.6134   1
   2  -1   1 14679.4 362.435   9
   2  -1   1 13852.3 356.336   8
  -2   1  -1 13576.7 336.871   9
   2  -1   1 14020.8 380.627  11
  -2   1  -2 10326.0 305.793   9
   2  -1   2 9982.49 312.801   8
   2  -1   2 10199.9 340.324  11
   2  -1   3 25759.7 547.562   7
  -2   1  -3 24279.7 495.705   9
  -2   1  -3 25756.4 533.062   8
   2  -1   3 24750.3 535.994   8
   2  -1   3 26468.9 586.740  11
  -2   1  -4 124141. 1285.01   8
   2  -1   4 124386. 1275.78   7
   2  -1   4 124952. 1417.66  11
  -2   1  -4 127094. 1184.07   6
   2  -1   5 3523.50 227.209   7
  -2   1  -5 3820.83 224.563   6
   2  -1   5 3724.89 258.237  11
   2  -1   6 4747.65 278.632   7
  -2   1  -7 1782.75 189.824   3
   2  -1   7 1603.62 174.752   7
   2  -1   8 3491.73 271.737   7
  -2   1  -8 3556.36 332.256   4
   2  -1   9 8007.12 433.358   7
  -2   1  -9 8413.38 536.827   4
   2  -1  10 13677.6 599.764   7
  -2   1 -10 13172.0 709.337   4
  -2   1 -11-357.612 130.043   4
  -2   1 -12-6.09341 69.2951   4
  -2   0  12 1114.96 218.210   7
  -2   0  11 1486.75 235.601   7
  -2   0  10 1687.02 241.933   7
  -2   0   9 8468.07 493.320   7
  -2   0   8 932.745 153.683   7
  -2   0   7 1081.72 161.006   5
  -2   0   7 856.211 135.795   7
  -2   0   6 8438.04 403.396   7
  -2   0   5 13537.3 481.352   7
  -2   0   4 10533.2 393.989   7
   2   0  -3 27522.8 591.116   9
  -2   0   3 26279.6 578.324   7
   2   0  -2 90893.6 973.468   9
  -2   0   2 89469.1 987.197   7
  -2   0   1 12757.7 343.312   7
  -2   0   1 12827.3 333.984   9
   2   0  -1 13342.5 335.572   9
   2   0   0 206616. 1163.97   9
  -2   0   0 206570. 1279.51   7
   2   0   1 258008. 1217.50   9
  -2   0  -1 270077. 1181.54   9
   2   0   2 30341.8 495.102  11
  -2   0  -2 29657.4 544.676   3
   2   0   2 28751.8 512.740   8
  -2   0  -2 28968.4 392.593   9
  -2   0  -3 37894.5 626.617   8
   2   0   3 39578.2 622.849  11
  -2   0  -3 39322.1 668.128   3
   2   0   3 39054.1 580.150   7
  -2   0  -4 3471.45 166.625   6
   2   0   4 3711.94 214.502  11
  -2   0  -4 3279.65 202.885   3
  -2   0  -4 3770.55 217.741   8
   2   0   4 3737.72 191.025   7
   2   0   4 3524.51 178.300   5
  -2   0  -5 37.2730 20.6057   6
  -2   0  -5 8.92041 22.7958   3
   2   0   5 0.92676 26.0875   7
   2   0   5 22.5225 17.5729   5
  -2   0  -6 139.791 47.3550   6
  -2   0  -6 132.586 42.0030   3
  -2   0  -6 163.941 60.3321   4
   2   0   6 145.793 41.5905   5
   2   0   6 168.414 48.1300   7
  -2   0  -7 118.984 59.4869   4
   2   0   7 124.142 42.0609   7
  -2   0  -7 155.924 53.4602   3
   2   0   8 14321.4 498.037   7
  -2   0  -8 14522.5 636.665   4
  -2   0  -9 20767.2 821.043   4
  -2   0 -10 27262.8 981.690   4
  -2   0 -11 1047.77 217.385   4
  -2   0 -12 319.851 150.773   4
  -2   0 -13 4541.56 471.707   4
  -2  -1  12 5817.23 493.834   7
  -2  -1  11 419.601 127.739   7
  -2  -1  10 234.788 69.1980   7
  -2  -1   9 3125.56 318.016   7
  -2  -1   8 51900.4 1201.35   7
  -2  -1   7 4063.45 318.901   7
  -2  -1   6 18753.5 633.255   7
  -2  -1   5 15.8783 21.9535   7
  -2  -1   4 5534.39 292.087   7
   2   1  -4 5067.74 230.790   4
  -2  -1   3 8643.96 336.711   7
  -2  -1   2 23812.0 512.814   7
  -2  -1   2 24013.5 545.973  10
  -2  -1   1 27329.8 513.109  10
  -2  -1   1 27490.8 500.139   7
   2   1   0 267.141 41.2524   9
   2   1   1 999999. 2967.14   5
  -2  -1  -1 978159. 2922.38   3
   2   1   2 46835.8 642.238   8
  -2  -1  -2 48273.7 678.698   3
   2   1   2 46031.7 641.083   5
  -2  -1  -3 169.452 23.4369   6
  -2  -1  -3 148.535 35.8690   4
  -2  -1  -3 153.862 41.0277   8
   2   1   3 226.561 50.4178   8
  -2  -1  -3 164.766 43.7382   3
   2   1   3 192.174 45.9566   5
  -2  -1  -4 12726.0 260.869   6
   2   1   4 12722.3 396.336   8
  -2  -1  -4 12949.5 389.125   3
  -2  -1  -4 12599.1 385.416   8
   2   1   4 12478.6 369.524   5
  -2  -1  -4 12864.8 404.522   4
   2   1   5 37627.7 551.601   7
  -2  -1  -5 36175.9 683.046   3
  -2  -1  -5 37461.4 723.810   8
   2   1   5 36014.8 663.126   5
  -2  -1  -5 35407.4 757.007   4
   2   1   5 36075.7 514.891   6
   2   1   6 15759.3 389.835   6
  -2  -1  -6 15913.7 472.229   3
   2   1   6 16020.0 396.080   7
   2   1   6 15709.7 469.947   5
  -2  -1  -6 14741.6 533.199   4
   2   1   7 139.999 43.6505   6
  -2  -1  -7 121.678 62.9456   4
  -2  -1  -7 149.359 50.9117   3
   2   1   7 85.1599 46.1512   5
  -2  -1  -8 142.076 73.6872   4
   2   1   8 66.0364 40.8031   5
  -2  -1  -9 903.930 167.088   4
  -2  -1 -10 28569.7 987.733   4
  -2  -1 -11 5130.94 448.027   4
  -2  -1 -12 998.812 207.390   4
  -2  -1 -13 29.1174 70.0374   4
  -2  -2  11 178.257 103.861   7
  -2  -2  10 279.767 112.015   7
  -2  -2   9 335.981 121.116   7
  -2  -2   8 43476.1 1143.47   7
  -2  -2   7 8751.38 488.870   7
  -2  -2   6 159.904 54.5837   7
  -2  -2   5 2174.97 210.941   7
  -2  -2   4 6592.49 343.257   7
  -2  -2   3 3103.65 214.404   7
  -2  -2   3 2969.52 230.498  10
  -2  -2   2 3988.56 217.451   6
  -2  -2   2 3678.07 211.160   7
  -2  -2   2 3856.34 241.735  10
  -2  -2   1 13528.2 349.877   6
  -2  -2   1 13808.5 367.059   7
  -2  -2   1 13472.9 410.043  10
  -2  -2   0 14992.7 309.384   6
   2   2   0 14815.9 393.538   5
   2   2   1 97006.8 976.713   5
  -2  -2  -1 95943.9 602.770   6
  -2  -2  -2 33534.6 580.374   3
   2   2   2 32222.2 526.347   8
   2   2   2 32777.4 579.753   5
  -2  -2  -3 5136.62 236.591   3
  -2  -2  -3 5212.95 223.519   8
   2   2   3 5323.66 243.884   5
   2   2   3 5187.52 225.551   8
   2   2   4 16156.9 236.775   6
   2   2   4 16274.7 436.664   8
  -2  -2  -4 17473.7 245.191   9
  -2  -2  -4 16559.2 431.212   8
   2   2   4 16550.1 454.766   5
  -2  -2  -4 16993.8 447.824   3
  -2  -2  -4 16345.3 448.359   4
   2   2   5 22145.0 363.990   6
  -2  -2  -5 21492.5 526.824   3
  -2  -2  -5 21934.5 542.622   8
   2   2   5 21582.2 551.989   5
  -2  -2  -5 22516.9 371.607   9
  -2  -2  -5 21456.6 575.816   4
   2   2   6 4617.19 199.241   6
  -2  -2  -6 4445.46 287.795   4
  -2  -2  -6 4857.40 257.486   3
   2   2   6 4689.61 273.907   5
  -2  -2  -6 4566.87 201.144   9
   2   2   7 15280.4 522.572   5
  -2  -2  -7 15662.0 480.546   3
  -2  -2  -7 15312.6 583.547   4
  -2  -2  -8 834.810 147.169   4
  -2  -2  -8 852.874 118.627   3
   2   2   8 1002.16 141.738   5
   2   2   9 1902.62 208.458   5
  -2  -2  -9 1956.80 239.088   4
  -2  -2 -10 1835.99 242.484   4
   2   2  10 1765.76 214.033   5
  -2  -2 -11 2095.39 266.460   4
   2   2  11 2513.93 262.224   5
  -2  -2 -12 1812.48 267.324   4
  -2  -2 -13 1389.15 254.832   4
  -2  -3  10-223.221 104.152   7
  -2  -3   9 315.100 111.099   7
  -2  -3   8 5741.19 433.155   7
  -2  -3   7 3354.51 314.961   7
  -2  -3   6 2744.35 264.122   7
  -2  -3   5 8808.99 445.104   7
  -2  -3   4 1216.01 152.525   7
  -2  -3   3 1026.69 150.977  10
  -2  -3   3 1015.70 130.561   7
  -2  -3   2 140388. 1428.89   7
  -2  -3   2 140308. 1201.58   2
  -2  -3   2 143233. 1399.10   6
   2   3  -1 37299.7 643.565   6
  -2  -3   1 37676.9 662.740   7
   2   3  -1 37943.2 680.806   5
  -2  -3   1 36277.7 759.710  10
  -2  -3   1 37996.5 642.728   6
   2   3   0 61.6343 21.9642   6
   2   3   0 65.1347 38.5010   5
  -2  -3   0 45.0966 23.3033   7
   2   3   1 717.817 69.2554   6
   2   3   1 732.803 90.1319   5
   2   3   2 17581.6 379.452   8
   2   3   2 17763.0 292.931   9
   2   3   2 16923.8 448.528   5
   2   3   3 4167.56 132.247   9
   2   3   3 3706.54 184.669   8
   2   3   3 3754.61 221.801   5
   2   3   4 18552.8 516.815   5
  -2  -3  -4 19638.0 302.433   9
  -2  -3  -4 18612.8 441.213   8
   2   3   4 19520.3 466.731   8
   2   3   4 19500.1 302.203   9
  -2  -3  -5 5688.18 184.063   9
  -2  -3  -5 5735.42 271.055   8
   2   3   5 5995.63 307.686   5
   2   3   6 4102.15 272.407   5
  -2  -3  -6 4773.95 298.557   4
   2   3   7 10728.5 459.748   5
  -2  -3  -7 10899.0 485.880   4
   2   3   8 19305.8 653.674   5
  -2  -3  -8 18804.8 684.364   4
  -2  -3  -9 1374.58 205.662   4
   2   3   9 1473.67 191.846   5
  -2  -3 -10 816.883 169.460   4
   2   3  10 993.228 161.286   5
   2   3  11 2702.25 279.549   5
  -2  -3 -11 2550.88 307.834   4
   2   3  12 2559.50 292.220   5
  -2  -3 -12 2499.44 319.549   4
   2   3  13 758.610 167.573   5
  -2  -3 -13 840.957 202.608   4
  -2  -4   9 686.704 172.207   7
  -2  -4   8 2010.29 263.683   7
  -2  -4   7 7372.46 486.114   7
  -2  -4   6 421.207 103.204   7
  -2  -4   5 982.594 160.933   7
  -2  -4   4 2051.73 235.047  10
  -2  -4   4 2472.32 233.626   7
  -2  -4   3 13253.1 504.183   7
  -2  -4   3 12391.4 551.701  10
   2   4  -2 6489.06 298.900   5
  -2  -4   2 5955.13 361.821  10
  -2  -4   2 6431.39 322.664   7
  -2  -4   2 6064.01 286.763   2
  -2  -4   1 12.5645 32.2914  10
   2   4  -1 62.1227 34.6651   5
  -2  -4   1-23.4010 26.4492   7
   2   4   0 1418.83 128.929   6
   2   4   0 1266.32 129.206   5
  -2  -4   0 1045.39 108.247   7
  -2  -4   0 1319.82 138.956   2
   2   4   1-5.15938 18.6690   6
   2   4   1-0.87201 30.8550   5
  -2  -4  -1 36.0996 23.5381   7
   2   4   2 7585.31 255.736   9
   2   4   2 7521.40 240.258   8
   2   4   2 7580.97 324.493   5
   2   4   3 12065.6 365.489   1
   2   4   3 12430.2 311.956   9
   2   4   3 11620.6 318.457   8
   2   4   3 11698.8 421.633   5
   2   4   4 551.517 68.3944   9
  -2  -4  -4 336.955 50.3328   9
  -2  -4  -4 449.881 68.1557   8
   2   4   4 269.746 71.1628   5
   2   4   4 372.367 64.6588   1
  -2  -4  -5 5144.58 246.687   8
   2   4   5 5404.65 243.259   1
   2   4   5 5326.94 307.675   5
   2   4   6 3390.47 256.497   5
   2   4   7 660.483 118.336   5
   2   4   8 359.148 92.7326   5
   2   4   9 8635.11 482.548   5
   2   4  10 404.996 107.945   5
   2   4  11 88.9689 62.4122   5
   2   4  12 479.999 132.671   5
   2   4  13 670.939 154.337   5
   2   4  14 1.36210 78.5335   5
  -2  -5   8 23.0522 57.8054   7
  -2  -5   7-5.28838 64.5253   7
  -2  -5   6 222.374 91.3385   7
  -2  -5   5-17.9757 30.6094   7
  -2  -5   4 60.4451 51.5870  10
  -2  -5   4 60.7946 40.3369   7
  -2  -5   3 6201.47 421.700  10
  -2  -5   3 6638.10 381.027   7
  -2  -5   2 1928.23 192.440   7
  -2  -5   2 1818.44 219.800  10
  -2  -5   2 1824.45 180.592   2
  -2  -5   1 8424.46 451.022  10
  -2  -5   1 8620.64 375.625   7
  -2  -5   1 7924.73 375.348   2
   2   5   0 8494.00 345.072   5
  -2  -5   0 8265.28 339.803   7
  -2  -5   0 7910.13 383.279   2
  -2  -5  -1 201.838 64.0619   2
   2   5   1 142.180 45.3047   9
   2   5   1 150.595 52.9970   5
   2   5   2 10321.5 403.611   1
   2   5   2 10867.3 367.911   9
   2   5   2 10802.4 415.011   5
  -2  -5  -2 10222.1 444.979   2
   2   5   3 619.074 99.0931   1
   2   5   3 563.276 101.197   5
   2   5   4 28130.4 717.421   5
   2   5   4 28141.2 639.775   1
   2   5   5 4199.99 292.849   5
   2   5   5 4631.19 263.021   1
   2   5   6 5952.10 367.859   5
   2   5   7 11763.9 534.158   5
   2   5   8 479.642 107.051   5
   2   5   9 1067.83 183.860   5
   2   5  10 39.4972 50.6407   5
   2   5  11 4130.56 379.892   5
   2   5  12 81.6590 56.9486   5
   2   5  13 201.032 91.8359   5
  -2  -6   7 279.407 120.231   7
  -2  -6   6 3221.74 335.424   7
  -2  -6   5 876.278 157.448   7
  -2  -6   4 949.209 184.361  10
  -2  -6   4 804.606 149.465   7
  -2  -6   3 70.5479 50.7846  10
  -2  -6   3 244.510 87.0922   7
  -2  -6   2 3109.12 314.868  10
  -2  -6   2 2832.86 250.044   7
  -2  -6   1 4631.53 360.108  10
  -2  -6   1 4549.80 293.065   7
  -2  -6   1 4500.07 310.486   2
  -2  -6   0 117.300 61.4434   2
  -2  -6  -1 37.4973 33.6754   2
   2   6   2 3273.30 253.874   1
   2   6   2 3832.36 265.041   5
  -2  -6  -2 3741.16 290.607   2
   2   6   3 19238.8 606.454   5
  -2  -6  -3 20347.4 684.984   2
   2   6   3 19856.8 614.400   1
  -2  -6  -4 621.492 130.442   2
   2   6   4 400.527 86.0670   1
   2   6   4 419.826 94.3030   5
   2   6   5 9907.20 473.778   5
   2   6   5 9206.58 416.952   1
  -2  -6  -5 9316.96 473.845   2
  -2  -6  -6 218.967 84.1397   2
   2   6   6 283.498 82.1265   5
   2   6   7 21207.9 754.213   5
  -2  -6  -7 21051.7 729.524   2
   2   6   8 26726.4 878.288   5
  -2  -6  -8 26824.2 829.009   2
   2   6   9 7718.34 493.664   5
  -2  -6  -9 8486.25 476.372   2
   2   6  10 102.491 94.5985   5
   2   6  11 280.294 92.6586   5
   2   6  12 34.0872 52.5305   5
   2   6  13 6172.36 527.042   5
  -2  -7   6 359.584 112.151   7
  -2  -7   5 253.562 99.4375   7
  -2  -7   4 5572.78 411.532   7
  -2  -7   4 4858.04 442.781  10
  -2  -7   3 4262.05 345.436   7
  -2  -7   3 4438.83 409.204  10
  -2  -7   2-40.9431 69.8831  10
  -2  -7   1 46947.6 1257.12  10
  -2  -7   0 45153.6 1098.64   2
  -2  -7   0 43415.9 1182.23  10
   2   7   1 31.0663 54.0459   1
  -2  -7  -1 17.5447 38.6438   2
   2   7   2 2000.93 220.467   1
  -2  -7  -2 2037.25 232.866   2
  -2  -7  -3 6132.19 408.255   2
   2   7   3 6473.49 390.206   1
  -2  -7  -4 16115.9 665.200   2
   2   7   4 15922.2 603.532   1
  -2  -7  -5-14.4174 40.5039   2
   2   7   5 5.75561 33.7063   5
   2   7   5 17.1816 32.0874   1
  -2  -7  -6 120.905 62.2568   2
   2   7   6 430.844 104.825   5
   2   7   6 280.516 81.9625   1
  -2  -7  -7 686.179 140.144   2
   2   7   7 595.763 138.738   5
   2   7   8 4594.38 381.684   5
  -2  -7  -8 4154.76 352.419   2
   2   7   9 3824.72 363.741   5
  -2  -7  -9 3382.24 322.637   2
   2   7  10 554.834 137.331   5
   2   7  11 1924.07 280.409   5
   2   7  12 1995.86 301.367   5
  -2  -8   5 1615.26 249.853   7
  -2  -8   4 918.918 199.120  10
  -2  -8   3 606.722 164.235  10
  -2  -8   2 1525.12 252.915  10
  -2  -8   1 822.019 179.723  10
   2   8  -1 928.084 177.465   1
   2   8   0 21113.5 823.738   1
  -2  -8   0 22598.9 907.494  10
   2   8   1 1355.45 212.007   1
   2   8   2 2155.96 255.495   1
  -2  -8  -2 1874.25 246.885   2
   2   8   3 1042.29 175.129   1
  -2  -8  -3 1079.62 186.196   2
  -2  -8  -4 3665.71 338.848   2
   2   8   4 3246.08 301.560   1
   2   8   5 8939.15 500.739   1
  -2  -8  -5 8417.22 527.380   2
   2   8   6 2952.80 292.899   1
  -2  -8  -6 3086.90 319.552   2
   2   8   7 1961.10 253.358   5
  -2  -8  -7 2013.61 261.036   2
   2   8   8 1194.92 207.660   5
  -2  -8  -8 1108.34 191.513   2
  -2  -8  -9 749.331 156.222   2
   2   8   9 1091.79 206.720   5
   2   8  10 2522.25 314.441   5
   2   8  11-4.94080 60.8025   5
   2   9  -2 1428.02 251.492   1
   2   9  -1 2072.42 292.323   1
   2   9   0 521.740 139.330   1
   2   9   1 550.133 137.702   1
   2   9   2 278.782 101.276   1
   2   9   3 3932.98 367.110   1
  -2  -9  -4 2003.60 284.685   2
   2   9   4 2201.66 276.393   1
   2   9   5 692.059 154.449   1
  -2  -9  -5 633.495 173.443   2
   2   9   6 289.607 102.337   1
  -2  -9  -6 212.571 83.4902   2
  -2  -9  -7 4210.66 402.754   2
  -2  -9  -8 1283.16 229.611   2
   2   9   9 379.745 116.260   5
  -2  -9  -9 229.034 112.430   2
   2   9  10 3279.15 373.675   5
   2  10   2 2976.95 347.546   1
   2  10   3 1825.54 266.138   1
   2  10   4 1586.07 249.867   1
   2  10   5 43.7699 66.9902   1
   2  10   6 1591.49 259.178   1
   3  -8  -2 1160.87 219.153  11
  -3   8   1 2463.44 324.523   1
   3  -8  -1 2516.28 333.999  11
  -3   8   0 209.832 81.4923   1
   3  -8   0 211.700 108.393  11
  -3   8  -1 2671.27 337.262   1
  -3   7   6 2539.50 325.480   1
   3  -7  -5 2861.08 322.537  11
  -3   7   5 3234.01 362.774   1
  -3   7   4 157.440 86.9368   1
   3  -7  -4 215.903 89.6381  11
   3  -7  -3 215.570 97.6552  11
  -3   7   3 173.330 76.0509   1
   3  -7  -2 354.891 121.184  11
  -3   7   2 77.2883 78.1538   1
  -3   7   1 3346.40 349.384   1
   3  -7  -1 3014.40 338.500  11
  -3   7   0 1288.16 225.446   1
   3  -7   0 1035.54 196.988  11
  -3   7  -1 312.187 110.761   1
   3  -7   1 190.316 106.931  11
   3  -7   2 153.565 91.9694  11
   3  -7   3 964.233 222.732  11
   3  -7   4 192.161 108.520  11
  -3   6   9 321.930 127.087   5
  -3   6   8 1698.28 276.979   1
  -3   6   8 1573.70 260.252   5
  -3   6   7-23.6561 57.9728   1
  -3   6   6 1220.29 212.326   1
  -3   6   5 3785.69 370.149   1
  -3   6   4 2139.79 267.544   1
  -3   6   4 2219.88 252.266   7
   3  -6  -3 780.850 164.809  11
  -3   6   3 858.331 161.387   1
   3  -6  -2 13343.8 643.052  11
  -3   6   2 12100.4 618.144   1
   3  -6  -1-2.04829 67.8632  11
  -3   6   1 99.2090 60.5820   1
  -3   6   0 4812.85 380.374   1
   3  -6   0 4657.02 396.968  11
  -3   6  -1 699.297 157.211   1
   3  -6   1 760.598 165.573  11
  -3   6  -2 1089.87 184.058   1
   3  -6   2 940.168 191.366  11
   3  -6   3 716.255 170.571  11
   3  -6   4 364.712 105.227  11
   3  -6   5 668.197 169.042  11
   3  -6   6 5526.73 504.710  11
  -3   5   9 127.578 68.0602   5
  -3   5   8 1369.33 235.645   5
  -3   5   7 1653.73 248.465   1
  -3   5   7 1681.35 246.518   5
  -3   5   6 199.904 70.6182   5
  -3   5   6 359.171 119.723   1
  -3   5   5 1492.31 216.948   1
  -3   5   5 1694.58 224.949   7
  -3   5   4 3125.51 308.115   1
  -3   5   4 2930.19 278.028   7
  -3   5   3 5626.09 396.944   1
   3  -5  -2 5495.24 387.122  11
  -3   5   2 5736.99 393.158   1
   3  -5  -1 551.179 121.090  11
  -3   5   1 665.791 138.083   1
  -3   5   0 434.261 113.461   1
   3  -5   0 242.297 94.0271  11
  -3   5  -1 16076.7 635.083   1
   3  -5   1 18240.9 736.219  11
  -3   5  -2 17774.3 667.607   1
   3  -5   2 19825.4 794.983  11
   3  -5   3 4130.87 374.243  11
   3  -5   4 5224.55 437.029  11
   3  -5   5 318.792 107.899  11
   3  -5   6 3044.18 331.290   7
   3  -5   6 3006.47 351.402  11
   3  -5   7 183.815 103.276   7
   3  -5   8 209.823 80.9557   7
  -3   4  10 5026.85 472.036   5
  -3   4   9 1053.43 204.460   5
  -3   4   8 1632.50 245.382   5
  -3   4   8 1231.70 204.317   7
  -3   4   7 3843.17 362.991   5
  -3   4   7 4454.22 364.917   7
  -3   4   6 100599. 1762.98   5
  -3   4   6 100905. 1774.46   1
  -3   4   6 103780. 1697.04   7
  -3   4   5 3174.76 296.185   5
  -3   4   5 2466.87 265.099   1
  -3   4   5 3072.43 287.627   7
  -3   4   4 1149.80 175.719   1
  -3   4   4 1164.05 166.201   7
  -3   4   3 6016.39 371.920   7
  -3   4   3 6063.35 385.144   1
  -3   4   2 15263.4 592.722   1
   3  -4  -1 3647.43 296.387  11
  -3   4   1 3310.77 272.354   1
  -3   4   0 2815.09 242.857   1
   3  -4   0 3022.85 270.598  11
  -3   4  -1 738.057 116.885   1
   3  -4   1 602.940 134.932  11
   3  -4   2 35.2396 42.0977  11
  -3   4  -2 113.551 61.0877   1
   3  -4   3 38763.4 1065.22  11
   3  -4   4 5443.03 417.151  11
   3  -4   5 3733.18 357.097  11
   3  -4   5 4153.76 349.265   7
   3  -4   6-147.836 80.8419  11
   3  -4   6 12.1921 57.2499   7
   3  -4   7 12716.2 649.070   7
   3  -4   8 2014.86 271.497   7
   3  -4   9 65.7636 66.0070   7
  -3   3   9 251.068 115.155   5
  -3   3   9 196.274 83.8297   7
  -3   3   8-90.6173 68.9308   5
  -3   3   8-90.0461 67.4609   7
  -3   3   7 304.314 100.150   5
  -3   3   7 311.024 94.5158   7
  -3   3   6 7162.22 457.838   5
  -3   3   6 7010.46 427.780   7
  -3   3   5 2308.15 236.065   7
  -3   3   4 4867.20 338.444   1
  -3   3   4 5094.85 336.406   7
  -3   3   3 1480.75 181.839   1
  -3   3   3 1327.99 170.961   7
  -3   3   2 7178.88 373.197   1
  -3   3   1 24801.6 677.172   1
   3  -3   0 35694.3 863.976  11
  -3   3   0 34548.6 770.127   1
   3  -3   1 1295.86 166.449  11
  -3   3  -1 1276.78 147.017   1
   3  -3   2 4695.78 333.467  11
  -3   3  -2 5127.26 288.078   1
   3  -3   3 5138.38 356.564  11
   3  -3   4 164.510 68.6408  11
   3  -3   5 2125.60 244.417  11
   3  -3   5 1942.53 222.542   7
   3  -3   6 2946.10 281.084   7
   3  -3   6 2929.94 306.453  11
   3  -3   7 18.7690 34.5935   7
   3  -3   8 193.212 84.9436   7
   3  -3   9 705.617 159.873   7
   3  -3  10 1523.70 239.854   7
   3  -3  11 261.541 126.253   7
  -3   2  11 98.3918 76.8283   7
  -3   2  10-76.6293 96.8778   7
  -3   2   9 13919.8 671.473   7
  -3   2   8-18.6287 70.5595   7
  -3   2   7 1570.01 209.084   7
  -3   2   6 1818.32 212.764   7
  -3   2   5 1074.06 157.370   7
  -3   2   4 11345.8 485.794   7
  -3   2   3 237.341 78.4077   1
  -3   2   3 309.914 71.5743   7
  -3   2   2 10120.7 412.391   1
  -3   2   2 10402.9 427.668   7
  -3   2   1 2085.56 178.629   1
  -3   2   0 729.566 101.713   1
   3  -2   1 55523.7 896.071   8
  -3   2  -1 56966.0 859.240   1
   3  -2   1 55793.8 998.891  11
  -3   2  -2 1930.56 154.816   1
   3  -2   2 2147.38 200.585  11
   3  -2   3 8.80493 30.7739  11
   3  -2   4 31731.9 839.524  11
   3  -2   5 14480.8 603.541  11
   3  -2   5 14828.6 553.665   7
   3  -2   6 7247.38 442.986  11
   3  -2   6 7527.44 410.018   7
   3  -2   7 13521.3 573.943   7
   3  -2   8 1111.38 172.102   7
   3  -2   9 1591.16 213.375   7
  -3   2 -10-14.2185 96.8769   4
   3  -2  10 136.045 66.5566   7
  -3   2 -11 112.787 89.5724   4
  -3   1  11 967.212 199.244   7
  -3   1  10 30.9570 63.2933   7
  -3   1   9 2.14513 57.8077   7
  -3   1   8 1917.81 237.167   7
  -3   1   7 4249.73 337.262   7
  -3   1   6 3161.63 277.359   7
  -3   1   5 10159.2 471.046   7
  -3   1   4 67189.2 1149.22   7
  -3   1   3 15612.8 524.782   7
  -3   1   2 983.922 124.114   7
  -3   1   1 17874.0 493.971   1
  -3   1   1 18314.4 504.057   9
   3  -1  -1 19369.9 508.514   9
  -3   1   1 18916.5 527.543   7
  -3   1   0 49556.8 787.588   9
   3  -1   0 50797.5 796.209   9
  -3   1  -1 3769.37 206.193   9
   3  -1   1 4096.65 225.201   9
  -3   1  -1 3369.51 186.761   1
   3  -1   2 20564.4 552.960  11
  -3   1  -2 19457.3 413.719   1
  -3   1  -2 20806.4 482.707   9
   3  -1   2 20900.9 499.569   9
   3  -1   2 19940.9 531.947   8
   3  -1   2 19085.0 458.288   5
   3  -1   3 11971.1 442.557  11
  -3   1  -3 11807.8 374.014   9
  -3   1  -4 5961.11 278.932   9
   3  -1   4 6079.90 331.391  11
   3  -1   5 11731.6 492.332  11
   3  -1   5 11789.6 454.842   7
   3  -1   6 8231.66 393.069   7
   3  -1   6 7860.05 423.485  11
  -3   1  -7 1693.35 200.637   3
   3  -1   7 1555.78 178.743   7
  -3   1  -8 5285.53 365.992   3
   3  -1   8 5349.30 346.521   7
  -3   1  -9 534.034 144.395   4
   3  -1   9 573.303 121.445   7
  -3   1 -10 7352.57 554.805   4
  -3   1 -11-9.94570 68.7024   4
  -3   1 -12-592.923 180.506   4
  -3   0  11 550.151 172.736   7
  -3   0  10 489.386 134.270   7
  -3   0   9 1283.18 205.391   7
  -3   0   8 54.6764 44.7943   7
  -3   0   7 420.305 103.587   7
  -3   0   6 1847.71 213.378   7
  -3   0   5 5929.60 356.550   7
  -3   0   4 1617.95 176.252   7
  -3   0   3 45657.8 888.235   7
   3   0  -2 404.591 74.6193   9
  -3   0   2 603.371 80.0748   3
  -3   0   2 412.667 79.4014   7
  -3   0   1 378.847 73.4377   9
   3   0  -1 385.656 68.3813   9
  -3   0   1 609.719 84.0295   3
  -3   0   1 466.473 83.8476   7
  -3   0   0 38032.4 681.429   3
  -3   0   0 39180.2 630.023   9
   3   0   0 37465.8 611.206   9
  -3   0   0 38182.1 679.817   7
  -3   0  -1 42231.8 743.876   3
  -3   0  -1 44071.7 625.334   9
   3   0   1 43480.3 628.410   9
   3   0   2 16845.5 443.974  11
   3   0   2 15335.7 425.368   5
  -3   0  -2 14972.1 465.693   3
  -3   0  -2 14843.9 339.846   9
   3   0   2 16154.9 370.745   9
   3   0   2 16254.5 473.941   8
   3   0   3 24814.9 567.348  11
  -3   0  -3 24709.2 618.574   3
   3   0   3 25121.8 540.175   5
  -3   0  -3 25335.2 448.968   9
   3   0   4 4862.20 265.078  11
   3   0   4 4837.15 240.172   5
  -3   0  -4 4587.14 279.876   3
  -3   0  -4 4808.48 208.153   9
   3   0   5 3084.75 230.842  11
  -3   0  -5 2952.96 233.684   3
   3   0   5 2924.92 203.329   7
   3   0   5 3224.24 201.859   5
  -3   0  -6-5.61868 35.1079   3
   3   0   6 56.3771 38.5196   7
  -3   0  -7 19478.2 643.378   3
   3   0   7 19623.5 574.492   7
  -3   0  -8 56.5092 61.6412   4
  -3   0  -8 68.7645 42.7075   3
  -3   0  -9 6794.40 485.683   4
  -3   0 -10 18471.4 844.341   4
  -3   0 -11 2182.13 305.506   4
  -3   0 -12 19.1728 54.3969   4
  -3  -1  11 157.797 102.744   7
  -3  -1  10 12.3837 88.0231   7
  -3  -1   9 2381.45 292.323   7
  -3  -1   8 530.260 122.772   7
  -3  -1   7 2035.25 239.609   7
  -3  -1   6 60.6400 37.6607   7
  -3  -1   5 26035.0 755.845   7
  -3  -1   4 149.773 58.4866   7
  -3  -1   3 7102.73 348.137   7
  -3  -1   2 27594.4 641.047  10
   3   1  -2 27684.3 601.289   9
  -3  -1   2 26746.8 638.545   7
  -3  -1   1 36490.9 681.212  10
  -3  -1   1 37596.8 623.681   3
   3   1  -1 35446.5 613.511   9
  -3  -1   1 35782.8 690.961   7
   3   1   0 2756.36 154.793   9
  -3  -1   0 2840.57 181.426   3
  -3  -1   0 2690.39 173.148   7
  -3  -1  -1 66.3491 21.6180   9
   3   1   1 94.6468 20.3250   9
  -3  -1  -1 10.5482 34.3430   3
   3   1   1 86.4786 31.8495   5
  -3  -1  -1 91.5841 34.8342   7
   3   1   2 10183.9 303.048  11
   3   1   2 9586.23 351.967   5
  -3  -1  -2 9751.22 221.262   9
   3   1   2 10120.4 228.469   9
  -3  -1  -2 9767.64 367.679   3
  -3  -1  -3 8242.95 350.655   3
  -3  -1  -3 7856.33 181.689   9
   3   1   3 8314.43 340.470   8
   3   1   3 8325.15 281.621  11
   3   1   3 8099.75 325.395   5
  -3  -1  -4 3635.85 240.983   3
   3   1   4 3395.32 196.154  11
   3   1   4 3585.04 221.858   5
   3   1   5 17931.4 494.583  11
   3   1   5 17189.1 500.286   5
  -3  -1  -5 17592.9 546.767   3
  -3  -1  -5 17543.9 557.375   4
   3   1   6 32287.3 719.463   5
  -3  -1  -6 32780.9 777.883   3
  -3  -1  -6 32586.1 826.856   4
   3   1   7 5747.16 311.872   5
  -3  -1  -7 5440.42 331.321   3
  -3  -1  -7 4764.02 340.367   4
  -3  -1  -8 97.6542 57.2372   4
  -3  -1  -8 76.0837 40.5032   3
  -3  -1  -9 9760.62 555.906   4
  -3  -1 -10 582.791 157.562   4
  -3  -1 -11 4515.65 430.334   4
  -3  -1 -12-41.4728 126.007   4
  -3  -1 -13-21.5547 68.0017   4
  -3  -2  10 736.183 184.166   7
  -3  -2   9 1183.65 210.765   7
  -3  -2   8 9814.98 570.610   7
  -3  -2   7 440.883 124.543   7
  -3  -2   6 4705.84 354.813   7
  -3  -2   5 15513.8 605.779   7
  -3  -2   4 3073.04 251.201   7
  -3  -2   3 12296.8 505.753  10
  -3  -2   3 13497.5 493.306   7
  -3  -2   2 430.046 77.3371   6
  -3  -2   2 296.652 73.8841  10
  -3  -2   2 543.904 95.0831   7
  -3  -2   1 11922.1 372.493   6
  -3  -2   1 11746.3 394.244   7
  -3  -2   1 10780.5 403.682  10
  -3  -2   0 31359.8 526.623   6
  -3  -2   0 32625.1 616.807   3
  -3  -2   0 32347.7 607.438   7
  -3  -2  -1 4718.20 168.662   6
   3   2   1 4492.32 160.023   9
  -3  -2  -1 4958.44 251.172   3
   3   2   1 4631.08 258.043   5
  -3  -2  -1 5020.45 220.050   7
  -3  -2  -2 3981.74 110.938   6
  -3  -2  -2 4107.45 238.907   3
   3   2   2 3883.55 235.729   5
   3   2   2 4003.81 108.245   9
  -3  -2  -2 4163.89 180.478   7
  -3  -2  -3 23459.6 590.235   3
   3   2   3 23488.9 577.741   5
   3   2   3 22788.3 553.343   8
  -3  -2  -3 22982.5 470.208   4
  -3  -2  -4 21550.1 583.795   3
   3   2   4 21097.9 564.876   5
  -3  -2  -4 20886.9 516.629   4
   3   2   5 10039.2 400.613   5
  -3  -2  -5 9684.96 407.026   3
  -3  -2  -5 9687.48 394.662   4
  -3  -2  -6 11164.6 448.117   3
   3   2   6 11390.1 446.744   5
  -3  -2  -6 10894.2 458.308   4
   3   2   7 2113.42 205.068   5
  -3  -2  -7 2210.15 204.181   3
  -3  -2  -7 2370.33 236.573   4
   3   2   8 9116.50 443.039   5
  -3  -2  -8 8952.88 428.628   3
  -3  -2  -8 8850.90 486.849   4
  -3  -2  -9 215.935 82.8747   4
  -3  -2  -9 52.5632 42.9451   3
   3   2   9 242.392 67.3253   5
  -3  -2 -10 69.4746 65.0886   4
   3   2  10 13.9987 56.6031   5
  -3  -2 -11 219.066 104.612   4
  -3  -2 -12 28.5188 59.1170   4
  -3  -2 -13-14.8269 89.5008   4
  -3  -3   9 1621.47 255.381   7
  -3  -3   8 328.637 112.791   7
  -3  -3   7 29754.4 990.313   7
  -3  -3   6 3377.89 316.570   7
  -3  -3   5 384.088 102.096   7
  -3  -3   4 327.915 86.0525   7
  -3  -3   3 12256.6 489.162   7
  -3  -3   3 12077.3 538.025  10
  -3  -3   2 7650.44 410.616  10
  -3  -3   2 7412.35 354.539   7
  -3  -3   1 4373.47 235.177   6
  -3  -3   1 4021.17 273.711  10
  -3  -3   1 4389.88 248.393   7
  -3  -3   0 102.850 36.2408   6
   3   3   0 64.0078 43.5865   5
  -3  -3   0 82.8556 37.7631   7
   3   3   1 6283.39 312.236   5
  -3  -3  -1 6024.43 240.945   7
  -3  -3  -1 6615.76 213.812   6
   3   3   2 109798. 1320.92   5
   3   3   3 4009.98 227.210   8
   3   3   3 3541.68 238.806   5
   3   3   4 10775.8 424.318   5
  -3  -3  -4 11227.0 370.615   4
   3   3   5 2950.21 232.667   5
  -3  -3  -5 3020.20 216.492   4
  -3  -3  -6 90601.8 1294.27   3
   3   3   6 93871.2 1348.76   5
  -3  -3  -6 93307.2 1323.11   4
   3   3   7 11775.3 497.902   5
  -3  -3  -7 11550.5 505.425   4
   3   3   8 3155.60 271.067   5
  -3  -3  -8 3315.39 295.263   4
  -3  -3  -9 1407.41 198.734   4
   3   3   9 1367.69 184.212   5
   3   3  10 6128.97 413.840   5
  -3  -3 -10 6729.94 473.713   4
  -3  -3 -11 65.4700 49.3466   4
   3   3  11 183.146 73.7236   5
  -3  -3 -12 283.558 110.067   4
   3   3  12-48.6536 77.2981   5
  -3  -3 -13 971.394 197.388   4
  -3  -4   9 31.6161 84.4050   7
  -3  -4   8 162.981 104.059   7
  -3  -4   7 1907.67 260.810   7
  -3  -4   6 157.353 76.6130   7
  -3  -4   5 12132.6 587.235   7
  -3  -4   4-1.64959 68.9538  10
  -3  -4   4 81.9935 43.0588   7
  -3  -4   3 21830.2 693.356   7
  -3  -4   3 19150.7 732.789  10
  -3  -4   2 29393.9 869.138  10
   3   4  -2 29085.8 747.690   5
  -3  -4   2 30846.4 774.302   7
   3   4  -1 10529.2 435.537   5
  -3  -4   1 10924.0 500.606  10
  -3  -4   1 10568.2 416.273   7
   3   4   0 2044.00 189.695   5
  -3  -4   0 2236.15 176.614   7
   3   4   1 28929.3 712.833   5
  -3  -4  -1 30931.8 584.034   7
   3   4   2 28106.8 703.225   5
   3   4   3 9495.05 408.437   5
   3   4   3 9613.74 344.590   8
   3   4   4 4317.80 283.956   5
   3   4   4 4737.83 255.259   8
   3   4   5 5005.31 313.587   5
   3   4   6 3790.45 286.335   5
   3   4   7 128.076 47.8069   5
   3   4   8 2945.85 272.207   5
   3   4   9 1.02464 45.1011   5
   3   4  10 810.788 157.421   5
   3   4  11 1001.79 184.621   5
   3   4  12 3899.03 374.484   5
   3   4  13 532.190 142.315   5
   3   4  14 16.3038 55.8377   5
  -3  -5   8 146.344 110.709   7
  -3  -5   7-25.2718 76.4071   7
  -3  -5   6 414.193 131.310   7
  -3  -5   5-4.30165 71.1927   7
  -3  -5   4 595.464 143.349  10
  -3  -5   4 640.883 133.158   7
  -3  -5   3 1633.61 226.816  10
  -3  -5   3 1641.15 197.968   7
  -3  -5   2 2809.54 292.285  10
  -3  -5   2 3165.26 259.716   7
  -3  -5   1 870.132 128.539   2
   3   5  -1 881.837 136.281   5
  -3  -5   1 897.029 129.096   7
  -3  -5   1 735.995 140.883  10
   3   5   0 13724.3 509.004   5
  -3  -5   0 13421.8 520.602   2
   3   5   1 7684.08 377.244   5
   3   5   2 1752.06 186.508   5
   3   5   3 41165.7 897.196   5
   3   5   3 40423.4 770.882   1
   3   5   4 2025.64 207.424   5
   3   5   5 2120.63 214.690   5
   3   5   6 13407.0 566.089   5
   3   5   7-3.39139 49.6872   5
   3   5   8 1956.07 235.645   5
   3   5   9 920.211 163.998   5
   3   5  10-40.6957 79.4825   5
   3   5  11 689.762 163.658   5
   3   5  12 5276.59 454.272   5
   3   5  13 124.886 71.0735   5
  -3  -6   7 810.560 189.648   7
  -3  -6   6 2939.71 330.065   7
  -3  -6   5 8922.68 542.302   7
  -3  -6   4 2054.74 277.848  10
  -3  -6   4 2312.57 268.043   7
  -3  -6   3 3106.54 339.783  10
  -3  -6   3 3406.88 303.286   7
  -3  -6   2 51.0239 53.6121  10
  -3  -6   2 25.8070 48.1590   7
  -3  -6   1 5144.54 403.418  10
  -3  -6   1 5145.54 337.840   2
  -3  -6   0 4854.11 332.628   2
   3   6   1 3562.98 271.296   5
  -3  -6  -1 3543.76 290.367   2
   3   6   2 3811.00 286.632   5
  -3  -6  -2 3758.22 302.126   2
   3   6   3 6402.58 341.877   1
   3   6   3 6219.01 371.570   5
   3   6   4 12173.2 528.139   5
   3   6   5 10058.2 494.858   5
   3   6   6 3250.74 288.314   5
   3   6   7 352.867 96.9139   5
   3   6   8 19747.5 772.320   5
   3   6   9 42699.8 1179.13   5
   3   6  10 11.4738 76.3842   5
   3   6  11 78.9194 79.5360   5
   3   6  12 5067.81 456.763   5
   3   6  13 1195.52 235.048   5
  -3  -7   6 114.776 60.6628   7
  -3  -7   5-26.7795 54.8841   7
  -3  -7   4 3751.93 410.399  10
  -3  -7   4 3836.48 356.809   7
  -3  -7   3 1130.83 226.504  10
  -3  -7   2 468.527 136.629  10
  -3  -7   1 2921.71 328.777  10
  -3  -7   0 36884.8 993.018   2
  -3  -7   0 37062.6 1149.72  10
  -3  -7  -1 11538.3 561.972   2
   3   7   2 4798.52 342.489   1
  -3  -7  -2 4907.76 369.980   2
   3   7   3 4415.80 321.225   1
  -3  -7  -3 4413.53 357.477   2
   3   7   4 4324.71 333.951   5
  -3  -7  -4 4165.13 352.050   2
   3   7   5 3172.25 292.286   5
  -3  -7  -5 3595.46 329.727   2
   3   7   6 2691.98 283.101   5
   3   7   7 1396.95 216.489   5
   3   7   8 9870.16 570.148   5
   3   7   9 14920.9 724.716   5
   3   7  10 1361.22 222.002   5
   3   7  11 200.128 111.536   5
   3   7  12-75.8974 124.113   5
  -3  -8   4-4.64869 54.1636  10
  -3  -8   3 2335.64 328.688  10
  -3  -8   2 1096.02 236.376  10
  -3  -8   1 1138.81 223.040  10
  -3  -8   0 108.543 72.7490  10
  -3  -8   0 40.0593 69.6240   2
   3   8   1 962.875 167.193   1
  -3  -8  -1 859.113 171.795   2
   3   8   2 852.433 162.720   1
  -3  -8  -2 955.027 180.721   2
  -3  -8  -3 14.6470 56.5888   2
   3   8   3-5.37716 57.8113   1
  -3  -8  -4 3051.50 317.616   2
   3   8   4 3564.00 310.088   1
  -3  -8  -5 2929.15 312.867   2
  -3  -8  -6 151.801 73.4346   2
   3   8   6 99.0524 73.6856   5
  -3  -8  -7 1589.41 235.921   2
   3   8   7 1633.18 238.107   5
  -3  -8  -8 634.601 170.020   2
   3   8   8 1000.75 193.007   5
  -3  -8  -9 358.735 115.584   2
   3   8   9 340.335 138.957   5
  -3  -8 -10 414.136 119.837   2
   3   8  10 233.613 100.532   5
   3   8  11 1970.85 294.123   5
  -3  -9   2 18.8082 72.6044  10
  -3  -9   1 625.949 172.269  10
   3   9  -1 781.698 184.474   1
   3   9   0 2075.50 286.528   1
  -3  -9   0 2220.49 320.175  10
   3   9   1 11.5716 43.7557   1
  -3  -9  -1 49.1614 49.1284  10
  -3  -9  -1 93.6590 78.4950   2
   3   9   2 165.233 84.3238   1
  -3  -9  -2 176.908 84.3555   2
  -3  -9  -3 7522.52 529.705   2
   3   9   3 7602.10 507.034   1
   3   9   4 30.8721 59.0205   1
  -3  -9  -4 43.3474 51.3428   2
  -3  -9  -5 2185.54 284.498   2
  -3  -9  -6-3.26892 69.7529   2
  -3  -9  -7 5885.30 482.148   2
  -3  -9  -8 350.986 128.577   2
   3   9   8 206.429 76.9087   5
  -3  -9  -9-19.2367 82.4347   2
   3   9   9 82.7146 72.8951   5
  -3  -9 -10-56.1486 63.3511   2
   3   9  10 160.273 49.2073   5
  -3 -10  -1 2836.28 375.439  10
   3  10   2-17.4980 104.487   1
   3  10   3 1201.88 217.675   1
  -3 -10  -3 1270.89 237.018   2
  -3 -10  -4 1404.32 240.933   2
   3  10   4 1640.96 257.139   1
  -4   7   4 1163.19 208.544   7
  -4   7   3 1015.84 211.140   1
  -4   7   3 812.298 185.195   7
   4  -7  -2 1036.57 210.451  11
  -4   7   2 1224.01 230.462   1
   4  -7  -1 5043.82 470.493  11
  -4   7   1 5322.43 464.760   1
  -4   6   5 183.808 99.8736   1
  -4   6   5 130.672 64.3686   7
  -4   6   4 351.456 113.343   1
  -4   6   4 369.955 116.312   7
   4  -6  -3 4384.72 405.796  11
  -4   6   3 3860.07 384.248   1
  -4   6   3 4702.47 408.028   7
  -4   6   2 1880.04 263.686   1
   4  -6  -2 1731.90 250.193  11
   4  -6  -1-65.2131 81.3822  11
  -4   6   1-126.940 66.3427   1
   4  -6   0-16.0274 64.5725  11
   4  -6   1 338.707 135.815  11
   4  -6   2 155.341 95.5145  11
   4  -6   3 1540.48 257.822  11
   4  -6   4 644.773 179.757  11
  -4   5   7 4.12105 97.5814   7
  -4   5   6 3921.76 403.052   1
  -4   5   6 4219.15 393.212   7
  -4   5   5 360.674 120.700   1
  -4   5   5 230.062 105.439   7
  -4   5   4 1240.97 210.543   1
  -4   5   4 1227.87 200.883   7
  -4   5   3 48.7323 61.1973   1
  -4   5   3 14.4336 51.4277   7
   4  -5  -2 6516.94 463.098  11
  -4   5   2 6498.89 450.858   1
   4  -5  -1 4282.69 376.616  11
  -4   5   1 3762.88 334.996   1
   4  -5   0 1535.60 227.159  11
  -4   5   0 1567.17 210.631   1
   4  -5   1 976.084 190.697  11
   4  -5   2 2331.02 295.192  11
   4  -5   3 41719.2 1291.95  11
   4  -5   4 246.252 102.179  11
   4  -5   5 247.348 102.928  11
   4  -5   6 3299.07 391.409  11
  -4   4   9-18.1943 67.6717   7
  -4   4   8 137.991 90.3251   7
  -4   4   7-9.94565 79.1726   7
  -4   4   6 16628.4 748.527   7
  -4   4   5 12866.8 667.948   1
  -4   4   5 12138.2 622.975   7
  -4   4   4 277.857 96.0988   1
  -4   4   4 387.788 117.140   7
  -4   4   3 396.931 109.805   1
  -4   4   3 492.945 122.182   7
  -4   4   2 10843.0 542.984   1
   4  -4  -1-22.8838 52.1116  11
  -4   4   1 18.6928 50.1558   1
   4  -4   0 50.2874 42.2309  11
  -4   4   0 22.7626 41.3481   1
   4  -4   1-5.80209 50.4167  11
   4  -4   2 5439.82 418.877  11
   4  -4   3 8626.31 549.521  11
   4  -4   4 9979.97 597.998  11
   4  -4   5 19.2112 78.6253  11
   4  -4   6 78.3602 80.5773  11
   4  -4   7 1416.50 248.288  11
  -4   3   9 1770.61 272.192   7
  -4   3   8 203.343 79.2778   7
  -4   3   7 273.793 93.1451   7
  -4   3   6 7.72372 48.4567   7
  -4   3   5 4174.63 351.157   7
  -4   3   4 2209.10 248.004   7
  -4   3   3 2532.77 259.493   1
  -4   3   3 2539.97 258.905   7
  -4   3   2 2598.99 252.010   1
  -4   3   2 2312.12 240.821   7
  -4   3   1 1591.40 184.995   1
   4  -3   0 9831.28 506.254  11
  -4   3   0 9570.46 445.196   1
   4  -3   1 59.1816 35.7388  11
   4  -3   2 1750.32 219.358  11
   4  -3   3 1081.04 183.462  11
   4  -3   4 205.416 89.5514  11
   4  -3   5 377.028 116.183  11
   4  -3   6 150.724 88.7456  11
   4  -3   7 606.401 166.392  11
   4  -3   8 654.451 141.045   7
   4  -3   9 69.9139 62.8169   7
   4  -3  10-15.7409 65.6539   7
  -4   2  10 717.495 176.890   7
  -4   2   9 67.1423 52.5759   7
  -4   2   8 905.720 170.178   7
  -4   2   7 193.300 98.3641   7
  -4   2   6 5292.42 405.821   7
  -4   2   5 6580.57 434.259   7
  -4   2   4 3821.42 318.307   7
  -4   2   3 7786.49 437.406   7
  -4   2   2 1605.42 194.039   1
  -4   2   2 1427.60 183.421   7
  -4   2   1 15316.9 544.142   1
  -4   2   1 14744.1 569.846   7
  -4   2   0 2404.29 205.141   1
   4  -2   1 608.761 117.837  11
   4  -2   2 628.687 111.667  11
   4  -2   3 5694.20 375.053  11
   4  -2   4 3022.07 284.844  11
   4  -2   5 3254.66 306.210  11
   4  -2   6 958.643 172.213  11
   4  -2   7 1262.22 201.770  11
  -4   2  -8 661.417 152.635   3
   4  -2   8 758.035 155.708   7
  -4   2  -9 2254.06 286.156   3
   4  -2   9 2101.04 254.284   7
  -4   1  10 1699.51 267.007   7
  -4   1   9 627.938 145.271   7
  -4   1   8 36.9483 67.0500   7
  -4   1   7 23.0679 45.8369   7
  -4   1   6 2488.89 272.032   7
  -4   1   5 228.672 90.8398   7
  -4   1   4 366.644 99.2669   7
  -4   1   3 7.40370 37.5848   7
  -4   1   2 585.596 114.783   7
  -4   1   1 801.378 127.720   7
  -4   1   0 7309.91 368.827   7
   4  -1   2 1865.71 190.207  11
   4  -1   3 528.675 103.859  11
   4  -1   4 11709.0 509.072  11
   4  -1   5 9930.54 490.548  11
  -4   1  -5 9998.81 499.341   3
   4  -1   6 4030.86 328.493  11
  -4   1  -6 3789.92 319.405   3
   4  -1   7 1267.98 192.197  11
  -4   1  -7 1654.78 219.888   3
  -4   1  -8-124.267 93.8978   3
   4  -1   8-24.4447 36.2818   7
  -4   1  -9 1626.27 230.356   3
  -4   1 -10 263.366 127.296   4
  -4   1 -11 271.286 116.955   4
  -4   0  10 123.907 73.1465   7
  -4   0   9 79.0684 79.1377   7
  -4   0   8 1048.00 200.848   7
  -4   0   7 4727.55 392.028   7
  -4   0   6 418.219 119.194   7
  -4   0   5 121.695 56.9074   7
  -4   0   4 14715.0 605.669   7
  -4   0   3 177.522 58.0085   7
  -4   0   2 16800.4 579.953   7
  -4   0   1 4274.20 256.952   3
  -4   0   1 3967.74 270.218   7
  -4   0   0 1.40904 18.6600   9
  -4   0   0 7.06754 40.2460   3
  -4   0  -1 10592.2 434.974   3
  -4   0  -1 9764.10 394.638   7
   4   0   2 7919.09 363.403  11
   4   0   2 6893.28 344.639   5
  -4   0  -2 7531.48 377.960   3
   4   0   3 2632.81 212.883  11
   4   0   3 2817.95 214.749   5
  -4   0  -3 2577.35 232.247   3
   4   0   4 5727.09 322.849  11
   4   0   4 5207.28 290.271   5
  -4   0  -4 5386.24 339.124   3
   4   0   5 25693.2 718.168  11
  -4   0  -5 25276.2 764.236   3
   4   0   6 28.4692 35.1511  11
  -4   0  -6-18.9166 58.7288   3
   4   0   7 2907.85 269.431  11
  -4   0  -7 2850.80 278.593   3
  -4   0  -8 304.341 102.747   4
  -4   0  -8 471.989 111.379   3
  -4   0  -9 4869.81 379.788   3
  -4   0  -9 4384.13 410.378   4
  -4   0 -10 11638.6 707.942   4
  -4   0 -11 9741.16 669.910   4
  -4   0 -12-2.85482 127.862   4
  -4  -1   9 1434.08 235.353   7
  -4  -1   8 2279.87 285.695   7
  -4  -1   7 2632.45 301.705   7
  -4  -1   6 16.2895 47.1909   7
  -4  -1   5 161.024 58.6244   7
  -4  -1   4 12833.4 562.264   7
  -4  -1   3 5160.61 338.121   7
  -4  -1   2 3082.52 248.727   7
  -4  -1   1 9437.88 412.776   7
  -4  -1   0 67.1142 43.7901   3
  -4  -1   0 125.655 54.5069   7
  -4  -1  -1 72774.4 1118.58   3
   4   1   1 75622.7 1161.07   5
  -4  -1  -1 73373.4 1035.97   7
  -4  -1  -2 103632. 1354.79   3
   4   1   2 104612. 1359.53   5
  -4  -1  -2 102942. 1170.80   7
   4   1   3 3919.07 229.273  11
  -4  -1  -3 3383.91 258.452   3
   4   1   3 3903.68 260.082   5
   4   1   4 9093.96 364.149  11
   4   1   4 7710.82 364.860   5
  -4  -1  -4 8572.25 416.064   3
   4   1   5 1687.76 175.788   5
  -4  -1  -5 2165.98 220.244   3
   4   1   5 1713.19 167.228  11
   4   1   6 6501.04 350.465   5
  -4  -1  -6 5771.24 369.222   3
  -4  -1  -6 5860.87 370.941   4
  -4  -1  -7 1756.97 207.610   3
  -4  -1  -7 2065.61 239.288   4
  -4  -1  -8 309.810 106.670   4
  -4  -1  -8 196.336 92.6305   3
  -4  -1  -9 5337.47 384.697   3
  -4  -1  -9 5165.95 422.979   4
  -4  -1 -10 3589.20 378.235   4
  -4  -1 -11 5857.76 498.918   4
  -4  -1 -12 1237.38 252.832   4
  -4  -2   9 10.6709 61.4053   7
  -4  -2   8 330.897 102.666   7
  -4  -2   7 32050.8 1058.37   7
  -4  -2   6 3854.58 349.538   7
  -4  -2   5 2025.59 240.178   7
  -4  -2   4 2782.15 263.852   7
  -4  -2   3 70.0391 50.9671  10
  -4  -2   3 43.7208 42.6312   7
  -4  -2   2 1035.45 146.016  10
  -4  -2   2 1122.74 151.655   7
  -4  -2   1 4928.72 300.487  10
  -4  -2   1 5154.15 305.410   7
  -4  -2   0 5784.33 300.989   3
  -4  -2   0 6188.44 313.957   7
  -4  -2  -1 2012.80 188.719   3
   4   2   1 1965.98 195.517   5
  -4  -2  -1 1900.95 164.675   7
  -4  -2  -2 236370. 2044.15   3
   4   2   2 236995. 2126.04   5
  -4  -2  -2 238235. 1708.56   7
  -4  -2  -3 15109.3 535.207   3
   4   2   3 15106.1 527.480   5
  -4  -2  -3 15011.4 408.467   7
   4   2   4 1971.93 195.277   5
  -4  -2  -4 2220.02 210.037   3
  -4  -2  -5 5499.12 341.031   3
   4   2   5 6091.53 345.756   5
  -4  -2  -6 3983.09 295.954   3
   4   2   6 3898.65 284.762   5
  -4  -2  -6 4326.99 297.951   4
   4   2   7 2876.84 246.179   5
  -4  -2  -7 2455.57 243.215   3
  -4  -2  -7 2426.85 244.545   4
  -4  -2  -8-22.5045 46.0161   4
  -4  -2  -8 12.6730 42.5462   3
   4   2   8 54.3985 56.3217   5
  -4  -2  -9 297.169 95.6868   4
  -4  -2  -9 271.651 94.2754   3
  -4  -2 -10 45.0343 72.4350   4
  -4  -2 -10 70.7217 58.0216   3
  -4  -2 -11 11270.6 681.658   4
  -4  -2 -12 2443.65 332.797   4
  -4  -2 -13 199.068 110.188   4
  -4  -3   8-41.0596 64.0100   7
  -4  -3   7 17411.4 802.373   7
  -4  -3   6 4245.88 380.728   7
  -4  -3   5 0.66271 69.4337   7
  -4  -3   4-34.3398 34.4642   7
  -4  -3   3 3013.83 289.835  10
  -4  -3   3 3869.11 299.229   7
  -4  -3   2 4863.94 352.454  10
  -4  -3   2 4915.12 317.111   7
  -4  -3   1 1044.24 150.233  10
  -4  -3   1 1093.77 146.227   7
   4   3   0 667.883 120.263   5
  -4  -3   0 738.614 106.114   7
   4   3   1 8.71232 32.4406   5
  -4  -3  -1 33.0555 34.0137   7
  -4  -3  -2 12278.1 483.450   3
   4   3   2 11863.1 491.221   5
   4   3   3 1358.99 172.154   5
  -4  -3  -3 891.103 139.872   3
  -4  -3  -4 34.1700 52.1825   3
   4   3   4 9.28207 43.0426   5
  -4  -3  -5 712.814 131.848   3
   4   3   5 564.068 118.084   5
  -4  -3  -6 7973.41 425.911   3
   4   3   6 7964.36 423.410   5
   4   3   7 1737.52 204.709   5
  -4  -3  -7 1407.34 184.172   3
  -4  -3  -7 1524.07 194.922   4
  -4  -3  -8 5023.65 362.016   3
   4   3   8 5168.14 360.384   5
  -4  -3  -8 4621.20 356.034   4
  -4  -3  -9 802.331 163.869   4
  -4  -3  -9 1053.65 165.517   3
   4   3   9 715.171 138.047   5
  -4  -3 -10 2675.66 271.864   3
   4   3  10 2184.03 254.318   5
  -4  -3 -10 2549.60 296.347   4
  -4  -3 -11 391.988 131.915   4
   4   3  11 431.719 111.842   5
  -4  -3 -12 1433.14 251.684   4
  -4  -3 -13 106.841 126.641   4
  -4  -4   8 1405.05 252.538   7
  -4  -4   7 783.520 186.695   7
  -4  -4   6 98.9987 60.2392   7
  -4  -4   5 157.896 87.7245   7
  -4  -4   4 6006.26 449.331  10
  -4  -4   4 6265.97 424.523   7
  -4  -4   3 563.593 134.168  10
  -4  -4   3 513.154 107.058   7
  -4  -4   2 2436.81 264.964  10
   4   4  -2 2685.21 259.202   5
  -4  -4   2 2516.44 242.452   7
  -4  -4   1 18109.4 679.053  10
   4   4  -1 19515.9 682.826   5
  -4  -4   1 19370.6 614.530   7
   4   4   0 4905.06 338.084   5
  -4  -4   0 4909.59 290.322   7
   4   4   1 201.518 68.5792   5
   4   4   2 124.972 40.1514   5
   4   4   3 1980.23 213.006   5
   4   4   4 345.691 90.9157   5
   4   4   5 2832.78 259.304   5
   4   4   6 20.3867 55.3366   5
   4   4   7 528.040 110.839   5
   4   4   8 2285.62 249.334   5
  -4  -4  -8 2416.89 253.085   4
   4   4   9 3210.96 306.669   5
  -4  -4  -9 3335.56 313.770   4
  -4  -4 -10 1983.43 261.768   4
   4   4  10 1434.68 213.736   5
   4   4  11 468.773 118.464   5
  -4  -4 -11 715.655 175.792   4
   4   4  12 684.035 162.078   5
  -4  -4 -12 951.701 183.405   4
   4   4  13 522.055 162.513   5
  -4  -4 -13 379.557 118.577   4
  -4  -5   7 1300.87 235.147   7
  -4  -5   6 1870.78 274.425   7
  -4  -5   5 995.843 188.428   7
  -4  -5   4-42.3423 72.8163  10
  -4  -5   4 68.5382 45.4361   7
  -4  -5   3 1775.34 253.467  10
  -4  -5   3 2166.37 248.150   7
  -4  -5   2 135.395 78.4824  10
   4   5  -2 188.854 79.9137   5
  -4  -5   2 324.667 82.2954   7
  -4  -5   1 42.4880 47.3722  10
   4   5  -1 105.891 63.8751   5
   4   5   0 1022.64 158.843   5
   4   5   1 1762.22 208.414   5
   4   5   2 80.5634 55.1220   5
   4   5   3 440.180 104.460   5
   4   5   4 8672.36 460.687   5
   4   5   5 392.397 99.9718   5
   4   5   6 7218.17 434.213   5
   4   5   7 867.540 165.224   5
   4   5   8 430.805 117.481   5
   4   5   9 143.739 75.8341   5
   4   5  10 4537.72 397.572   5
   4   5  11 839.465 179.371   5
   4   5  12 125.595 104.556   5
   4   5  13 486.045 148.466   5
  -4  -6   6 659.636 166.534   7
  -4  -6   5 563.233 138.881   7
  -4  -6   4 354.381 141.009  10
  -4  -6   4 437.154 121.437   7
  -4  -6   3 683.658 168.881  10
  -4  -6   2 78.2578 74.4397  10
  -4  -6   1 31.5449 46.7123  10
  -4  -6   0 395.587 105.723   2
   4   6   0 327.307 97.1662   5
   4   6   1 89.0994 58.0714   5
   4   6   2 35.1791 38.9395   5
   4   6   3 4743.49 350.313   5
   4   6   4 2652.16 267.205   5
   4   6   5 4473.78 351.022   5
   4   6   6 765.038 152.387   5
   4   6   7-16.8857 64.3388   5
   4   6   8 11449.6 602.286   5
   4   6   9-66.1936 77.7805   5
   4   6  10 77.1297 68.8388   5
   4   6  11 7.11141 60.4485   5
   4   6  12 1820.14 284.447   5
  -4  -7   4 138.084 71.7736  10
  -4  -7   3 3111.46 384.658  10
  -4  -7   2 106.559 55.0616  10
  -4  -7   1 3489.67 375.876  10
  -4  -7   0 15881.0 790.767  10
  -4  -7  -1 1685.72 229.426   2
  -4  -7  -2 26.0442 40.5718   2
   4   7   2-9.63080 36.7182   5
   4   7   3 1617.21 216.894   5
   4   7   4 625.537 144.322   5
   4   7   5 23.3681 55.7649   5
   4   7   6 3458.98 331.647   5
   4   7   7-25.7779 50.0005   5
   4   7   8 11940.5 641.874   5
   4   7   9 14736.3 736.404   5
   4   7  10 3825.44 388.396   5
   4   7  11 378.713 137.046   5
  -4  -8   3 206.422 113.766  10
  -4  -8   2 647.257 199.258  10
  -4  -8   1-7.37991 98.4540  10
  -4  -8   0 12168.8 738.169  10
  -4  -8  -1 14523.7 695.608   2
  -4  -8  -2 15.5157 45.3550   2
  -4  -8  -3 2236.85 278.996   2
  -4  -8  -4 1217.37 216.382   2
   4   8   5 10019.5 568.662   5
  -4  -8  -5 10778.3 628.302   2
  -4  -8  -6 1871.70 256.181   2
   4   8   6 2062.88 264.213   5
   4   8   7 685.087 151.756   5
   4   8   8 225.015 108.495   5
   4   8   9-85.8300 128.959   5
   4   8  10 225.039 103.683   5
  -4  -9   0-137.143 156.099  10
   4   9   1 6047.17 477.026   1
  -4  -9  -1 5941.04 545.740  10
  -4  -9  -1 5207.58 447.962   2
  -4  -9  -2 1930.95 274.244   2
  -4  -9  -3-13.9955 108.596   2
  -4  -9  -4-197.921 100.436   2
  -4  -9  -5 705.339 170.879   2
  -4  -9  -6 1414.04 240.610   2
  -4  -9  -7 475.196 155.505   2
   4   9   7 379.523 134.629   5
  -4  -9  -8 220.380 69.4783   2
   4   9   8 366.111 120.774   5
  -4  -9  -9 114.753 81.0155   2
   4   9   9 263.422 127.644   5
  -5   5   4 15.0645 57.4529   1
  -5   5   4-7.02096 77.3267   7
  -5   5   3 426.349 138.387   1
  -5   5   3 211.931 87.4529   7
   5  -5  -2 2079.33 280.219  11
  -5   5   2 2486.35 306.131   7
   5  -5  -1 1034.84 207.704  11
   5  -5   0 547.029 152.469  11
   5  -5   1 514.836 165.883  11
   5  -5   2 293.861 115.895  11
   5  -5   3 412.782 133.331  11
   5  -5   4 973.636 223.954  11
  -5   4   6 6286.66 509.252   7
  -5   4   5 2614.18 324.867   7
  -5   4   4-48.9518 66.1610   7
  -5   4   3 635.753 155.450   1
  -5   4   3 416.828 122.679   7
  -5   4   2 194.936 69.2703   1
  -5   4   2 223.386 102.992   7
   5  -4  -1 145.974 83.4526  11
  -5   4   1 225.077 97.5796   7
   5  -4   0 186.278 96.1354  11
   5  -4   1 8.32245 51.0559  11
   5  -4   2 5712.69 464.662  11
   5  -4   3 3468.69 374.327  11
   5  -4   4 771.639 170.016  11
   5  -4   5 2382.24 332.813  11
   5  -4   6-2.25689 63.3357  11
  -5   3   7 264.043 121.085   7
  -5   3   6 671.771 151.626   7
  -5   3   5 23534.8 926.934   7
  -5   3   4 3617.91 358.148   7
  -5   3   3 121.057 79.8755   7
  -5   3   2 361.684 112.097   1
  -5   3   2 161.782 58.1493   7
  -5   3   1 827.706 149.133   7
   5  -3   0 1239.84 200.016  11
   5  -3   1 39.6804 51.5569  11
   5  -3   2-26.5306 47.7130  11
   5  -3   3 262.520 98.3424  11
   5  -3   4 11204.5 654.024  11
   5  -3   5 3383.25 363.701  11
   5  -3   6 796.245 183.909  11
   5  -3   7 73.3228 80.1059  11
   5  -3   8 4736.98 462.028  11
  -5   3  -8 5509.87 484.551   3
  -5   3  -9 493.469 164.736   3
  -5   2   8 235.865 108.163   7
  -5   2   7 326.374 117.127   7
  -5   2   6 428.626 126.762   7
  -5   2   5 8022.30 529.267   7
  -5   2   4 350.312 100.843   7
  -5   2   3-22.3764 50.6195   7
  -5   2   2 243.650 93.9015   7
  -5   2   1 9066.09 499.619   7
  -5   2   0 4127.76 327.618   7
   5  -2   1 1649.81 215.800  11
   5  -2   2 541.293 130.386  11
   5  -2   3 4765.81 377.098  11
   5  -2   4 175.868 96.5714  11
   5  -2   5 2056.05 264.202  11
   5  -2   6 11.1687 59.3786  11
  -5   2  -6 28.9214 79.7971   3
   5  -2   7 2419.00 307.989  11
  -5   2  -7 2356.60 294.661   3
   5  -2   8 166.341 73.8818  11
  -5   2  -8 117.115 71.5640   3
  -5   2  -9 197.911 110.400   3
  -5   1   8 6181.86 514.608   7
  -5   1   7 953.141 197.387   7
  -5   1   6 720.958 154.621   7
  -5   1   5 336.660 103.674   7
  -5   1   4-40.1411 67.2841   7
  -5   1   3 607.535 132.194   7
  -5   1   2 4744.29 354.844   7
  -5   1   1 21.2620 32.7285   7
  -5   1   0 483.423 112.613   3
  -5   1   0 314.704 84.4151   7
   5  -1   1 5571.54 365.474  11
  -5   1  -1 5292.29 362.404   3
  -5   1  -1 4733.79 331.313   7
   5  -1   2 2814.56 264.299  11
  -5   1  -2 3184.04 284.913   3
   5  -1   3 2939.89 272.210  11
  -5   1  -3 2742.96 274.827   3
   5  -1   4 79.3798 43.7345  11
  -5   1  -4 103.499 52.5771   3
   5  -1   5 4340.31 355.712  11
  -5   1  -5 4452.35 368.724   3
   5  -1   6 2228.58 264.705  11
  -5   1  -6 1886.15 245.862   3
   5  -1   7 290.406 101.936  11
  -5   1  -7 480.342 134.357   3
   5  -1   8 3669.20 362.893  11
  -5   1  -8 4072.90 387.262   3
  -5   1  -9 270.094 109.189   3
  -5   1 -10 220.622 111.911   4
  -5   1 -10 410.832 127.956   3
  -5   0   8 135.908 98.8200   7
  -5   0   7 3.43788 59.9307   7
  -5   0   6 202.229 83.0286   7
  -5   0   5 155.706 66.7021   7
  -5   0   4 662.228 141.214   7
  -5   0   3 8612.61 492.271   7
  -5   0   2 28.0052 35.8253   7
  -5   0   1 3996.74 307.386   7
  -5   0   0 103.973 71.1026   3
  -5   0   0-11.6571 58.4434   7
  -5   0  -1 1623.66 194.193   3
  -5   0  -1 1335.30 168.190   7
   5   0   2 57.7165 46.9428  11
  -5   0  -2 50.4220 47.0249   3
   5   0   2 71.0666 51.9007   5
  -5   0  -2 109.232 48.7162   7
   5   0   3 2869.07 250.789  11
  -5   0  -3 2854.87 266.655   3
   5   0   3 2772.32 243.023   5
   5   0   4-27.5799 37.8648  11
  -5   0  -4-30.0450 54.3156   3
   5   0   5 4278.12 325.798  11
  -5   0  -5 4051.17 336.782   3
   5   0   6 4520.42 345.588  11
  -5   0  -6 4127.54 362.812   3
  -5   0  -7 933.643 173.896   3
  -5   0  -8 136.723 76.5315   3
  -5   0  -9 1324.81 245.698   4
  -5   0  -9 1359.03 224.252   3
  -5   0 -10 1305.09 247.987   4
  -5   0 -10 1503.12 243.942   3
  -5   0 -11 3334.41 409.631   4
  -5  -1   8 30.3300 58.9567   7
  -5  -1   7 411.357 135.516   7
  -5  -1   6 892.775 177.362   7
  -5  -1   5 125.632 82.7300   7
  -5  -1   4 48.7790 49.1123   7
  -5  -1   3 3666.26 317.649   7
  -5  -1   2 19577.7 706.564   7
  -5  -1   1 778.627 138.910   7
  -5  -1   0 4753.59 306.665   3
  -5  -1   0 4614.81 310.906   7
  -5  -1  -1 9.29864 57.0733   3
   5   1   1 97.0474 56.9908   5
  -5  -1  -1 107.803 57.7509   7
  -5  -1  -2 14376.0 571.302   3
   5   1   2 13335.3 559.734   5
  -5  -1  -2 13901.9 502.880   7
  -5  -1  -3 2554.37 244.561   3
   5   1   3 2618.91 241.690   5
  -5  -1  -3 2508.14 208.622   7
  -5  -1  -4 101.231 44.3750   3
   5   1   4 227.850 69.4158   5
   5   1   5 7927.00 425.933   5
  -5  -1  -5 7743.93 451.835   3
  -5  -1  -6 217.870 94.9822   3
  -5  -1  -7 255.446 87.5829   3
  -5  -1  -8 1261.65 215.753   4
  -5  -1  -8 969.722 173.794   3
  -5  -1  -9 2794.78 309.219   3
  -5  -1  -9 2553.60 313.276   4
  -5  -1 -10 4943.42 421.151   3
  -5  -1 -10 5481.98 485.342   4
  -5  -1 -11 6617.78 551.042   4
  -5  -1 -12 6.37154 85.3896   4
  -5  -2   7 58.8127 58.0634   7
  -5  -2   6 5116.96 428.150   7
  -5  -2   5 53.5925 61.4967   7
  -5  -2   4-329.429 105.010   7
  -5  -2   3 5695.29 394.347   7
  -5  -2   2 51.5123 63.5233   7
  -5  -2   1 3803.47 298.255   7
  -5  -2   0 2234.23 219.510   7
  -5  -2  -1 17205.7 602.894   3
   5   2   1 16787.5 646.579   5
  -5  -2  -1 17527.2 573.185   7
  -5  -2  -2 1314.06 170.693   3
   5   2   2 1030.98 161.516   5
  -5  -2  -2 885.970 126.127   7
  -5  -2  -3-50.0848 65.5560   3
   5   2   3-1.68401 59.3629   5
  -5  -2  -4 1801.74 210.552   3
   5   2   4 1858.28 209.923   5
  -5  -2  -5 455.943 108.964   3
   5   2   5 270.833 72.1061   5
  -5  -2  -6 335.233 96.5095   3
   5   2   6 404.427 108.190   5
  -5  -2  -7 3468.27 319.932   3
   5   2   7 3666.54 308.657   5
  -5  -2  -8 41.4747 46.9242   3
  -5  -2  -9-35.2027 60.0182   4
  -5  -2  -9-229.538 95.2803   3
  -5  -2 -10 2380.96 304.078   4
  -5  -2 -10 2329.80 284.468   3
  -5  -2 -11 177.229 101.530   4
  -5  -2 -11 31.3455 63.2303   3
  -5  -2 -12 160.003 82.5014   4
  -5  -3   7 10124.0 663.715   7
  -5  -3   6 2220.40 290.430   7
  -5  -3   5 2670.40 307.028   7
  -5  -3   4-48.8373 53.6078   7
  -5  -3   3 1183.07 191.336  10
  -5  -3   3 1525.05 207.681   7
  -5  -3   2 8472.14 483.950  10
  -5  -3   2 7556.55 452.681   7
  -5  -3   1 1091.76 163.937  10
  -5  -3   1 813.890 141.340   7
  -5  -3   0 2628.60 242.997  10
   5   3   0 2652.17 273.882   5
  -5  -3   0 2946.12 252.075   7
  -5  -3  -1 669.658 121.757   3
   5   3   1 601.758 125.844   5
   5   3   2 1665.74 215.236   5
  -5  -3  -2 1277.95 172.598   3
  -5  -3  -3 1717.54 203.942   3
   5   3   3 1803.73 218.626   5
  -5  -3  -4 101.035 52.1486   3
   5   3   4 71.1843 39.9221   5
  -5  -3  -5 7457.13 443.741   3
   5   3   5 7654.90 440.376   5
  -5  -3  -6 6625.89 431.130   3
   5   3   6 6555.90 413.897   5
  -5  -3  -7 10870.2 558.300   3
   5   3   7 11456.9 554.041   5
  -5  -3  -8 332.185 107.168   3
   5   3   8 89.2748 55.4171   5
  -5  -3  -9 1332.40 208.541   3
   5   3   9 1421.73 204.269   5
  -5  -3 -10-21.6769 95.7606   3
   5   3  10 247.350 100.554   5
  -5  -3 -11 373.137 139.824   4
  -5  -3 -11 515.981 152.292   3
  -5  -3 -12 93.5762 81.1524   4
  -5  -3 -13-157.592 104.057   4
  -5  -4   7 1415.01 258.267   7
  -5  -4   6 6319.48 514.825   7
  -5  -4   5 22.0728 62.4964   7
  -5  -4   4 5253.84 423.056   7
  -5  -4   3 110.346 71.6861  10
  -5  -4   3 56.2217 54.2207   7
  -5  -4   2 5209.99 411.975  10
   5   4  -2 5027.72 401.074   5
  -5  -4   2 5282.39 379.804   7
  -5  -4   1 10189.9 551.137  10
   5   4  -1 9896.44 543.988   5
  -5  -4   1 10953.8 509.741   7
  -5  -4   0 4893.73 363.564  10
   5   4   0 4721.88 369.810   5
   5   4   1 57.4784 39.6604   5
   5   4   2 5822.19 401.695   5
   5   4   3 3329.70 301.388   5
   5   4   4 7929.41 463.935   5
   5   4   5 1680.36 216.705   5
   5   4   6 95.2384 60.9500   5
   5   4   7 4927.32 379.212   5
   5   4   8-76.1019 68.0882   5
   5   4   9 257.093 91.6663   5
   5   4  10 105.399 69.8294   5
   5   4  11-87.2208 72.3467   5
   5   4  12 725.991 173.581   5
  -5  -4 -13 30.5892 68.3872   4
  -5  -5   6 360.005 122.939   7
  -5  -5   5 656.963 160.040   7
  -5  -5   4 4.88081 57.9289  10
  -5  -5   4-5.28909 52.9461   7
  -5  -5   3 639.509 151.108  10
   5   5  -3 591.540 129.959   5
  -5  -5   3 323.804 113.992   7
  -5  -5   2 2790.78 321.606  10
   5   5  -2 2456.00 285.843   5
  -5  -5   1-31.3838 51.2146  10
   5   5  -1-60.3392 55.4804   5
  -5  -5   0 1104.56 187.128  10
   5   5   0 1356.08 207.628   5
   5   5   1 619.207 133.129   5
   5   5   2 246.685 92.8538   5
   5   5   3 1204.11 198.126   5
   5   5   4 12651.3 610.504   5
   5   5   5 570.203 128.439   5
   5   5   6 179.546 92.6944   5
   5   5   7 1106.70 187.597   5
   5   5   8 271.831 111.730   5
   5   5   9 623.446 146.525   5
   5   5  10-153.977 109.617   5
   5   5  11-66.0854 75.2403   5
   5   5  12 509.331 147.714   5
   5   5  13 2432.53 335.053   5
  -5  -6   5 3710.40 394.992   7
  -5  -6   4 2584.64 351.564  10
  -5  -6   3-30.5575 56.2670  10
  -5  -6   2 1795.09 273.213  10
  -5  -6   1 1292.10 229.766  10
   5   6  -1 1378.77 220.720   5
  -5  -6   0 4882.73 425.552  10
   5   6   0 5185.27 412.097   5
   5   6   1 3542.57 338.094   5
   5   6   2 58.5370 55.2971   5
   5   6   3 902.127 173.532   5
   5   6   4 6308.12 448.833   5
   5   6   5 4185.85 361.602   5
   5   6   6 3286.41 335.759   5
   5   6   7 136.212 96.3261   5
   5   6   8 146.414 60.3178   5
   5   6   9 6657.31 494.916   5
   5   6  10 3056.25 351.662   5
   5   6  11 283.086 115.221   5
   5   6  12 557.372 173.772   5
  -5  -7   3 1321.71 244.932  10
  -5  -7   2 65.5206 62.8276  10
  -5  -7   1 3818.11 418.782  10
  -5  -7   0 808.265 190.811  10
   5   7   1 9932.73 580.624   5
   5   7   2 2164.25 269.070   5
   5   7   3 202.736 68.5876   5
   5   7   4 439.317 133.276   5
   5   7   5 166.064 47.4484   5
   5   7   6-25.8800 73.2406   5
   5   7   7-13.2516 50.5107   5
   5   7   8 207.319 94.4200   5
   5   7   9 2145.74 297.200   5
   5   7  10 8299.27 582.675   5
   5   7  11 83.7450 67.0892   5
  -5  -8   1-343.473 142.450  10
  -5  -8   0 824.395 212.106  10
  -5  -8  -1 4035.60 433.762  10
  -5  -8  -2 173.475 81.9258   2
  -5  -8  -3-59.5407 56.5571   2
   5   8   4 202.693 101.114   5
   5   8   5 121.757 62.2847   5
   5   8   6 76.5448 50.0164   5
   5   8   7 287.012 114.389   5
   5   8   8 1471.75 249.142   5
   5   8   9 650.615 170.563   5
   5   8  10 5056.61 474.690   5
  -5  -9  -2-3.55290 76.2682   2
  -5  -9  -3 96.4895 92.1169   2
  -5  -9  -4 479.673 140.628   2
  -5  -9  -5 110.646 48.0394   2
  -5  -9  -6 194.760 97.1239   2
   5   9   6 42.8326 64.7148   5
  -5  -9  -7-494.575 160.175   2
   5   9   7 85.7749 48.7889   5
   5   9   8 262.536 124.848   5
   6  -4  -1 188.200 95.0091  11
  -6   4   1 268.029 107.408   7
   6  -4   0-71.0716 101.950  11
  -6   4   0-38.0989 72.0673   7
   6  -4   1 1265.08 232.186  11
   6  -4   2 0.33018 44.1467  11
   6  -4   3 38.8489 58.0060  11
  -6   3   4 1655.78 274.237   7
  -6   3   3-48.7608 86.3230   7
  -6   3   2-18.8785 51.7098   7
   6  -3  -1 360.871 121.600  11
  -6   3   1 362.990 120.053   7
   6  -3   0 816.677 174.195  11
  -6   3   0 824.089 171.664   7
   6  -3   1 68.7166 71.5570  11
   6  -3   2 131.636 71.4054  11
   6  -3   3 13.2919 57.3985  11
   6  -3   4 5792.37 503.681  11
   6  -3   5 1797.90 285.317  11
  -6   3  -5 1349.06 233.323   3
   6  -3   6-427.227 152.882  11
  -6   2   5 384.147 153.878   7
  -6   2   4 3102.52 350.619   7
  -6   2   3 945.912 187.083   7
  -6   2   2 1757.08 250.151   7
  -6   2   1 83.9943 68.9261   7
   6  -2   0 99.5203 46.8524  11
  -6   2   0 120.240 87.3970   7
   6  -2   1 1846.64 254.777  11
  -6   2  -1 1844.11 253.663   3
  -6   2  -1 1341.68 208.585   7
   6  -2   2 124.807 56.8559  11
  -6   2  -2 200.154 95.5458   3
   6  -2   3 250.428 81.7847  11
  -6   2  -3 235.666 104.329   3
   6  -2   4 115.123 75.7659  11
  -6   2  -4-80.4806 90.0309   3
   6  -2   5-52.1693 77.3347  11
  -6   2  -5-21.8036 82.4314   3
   6  -2   6 124.728 97.3623  11
  -6   2  -6 241.690 109.871   3
   6  -2   7 143.961 51.3350  11
  -6   2  -7 273.652 90.2703   3
   6  -2   8 113.019 68.3789  11
  -6   1   5 493.495 148.687   7
  -6   1   4 5007.22 436.196   7
  -6   1   3 1385.21 223.052   7
  -6   1   2 392.873 112.533   7
  -6   1   1 723.888 148.058   7
  -6   1   0 4995.31 384.022   7
   6  -1   1 87.4415 63.1154  11
  -6   1  -1-5.66397 55.6032   7
   6  -1   2 1930.69 239.567  11
  -6   1  -2 1873.41 248.632   3
  -6   1  -2 2050.55 242.279   7
   6  -1   3 2021.96 251.920  11
  -6   1  -3 1554.15 231.528   3
   6  -1   4 926.411 173.910  11
  -6   1  -4 435.098 128.208   3
   6  -1   5 182.374 77.1949  11
  -6   1  -5 178.480 75.0810   3
   6  -1   6 86.2882 82.2474  11
  -6   1  -6-30.4412 63.7118   3
  -6   1  -7 1764.43 269.614   3
  -6   1  -8 622.062 150.663   3
  -6   1  -9-12.6167 70.6797   3
  -6   0   6 8.05556 70.3998   7
  -6   0   5 1586.21 256.910   7
  -6   0   4 232.493 116.129   7
  -6   0   3 985.911 180.822   7
  -6   0   2 631.660 137.823   7
  -6   0   1 1295.78 194.195   7
  -6   0   0 402.630 115.499   7
   6   0   1 112.712 44.1457   5
  -6   0  -1 189.915 63.9045   7
  -6   0  -2 2286.50 259.417   3
   6   0   2 1915.64 228.357   5
  -6   0  -2 1832.55 222.969   7
  -6   0  -3 1174.04 191.223   3
  -6   0  -3 1101.25 169.897   7
  -6   0  -4 798.344 166.083   3
  -6   0  -5 1275.48 208.611   3
  -6   0  -6 908.204 179.873   3
  -6   0  -7 3166.78 342.904   3
  -6   0  -8 483.811 160.852   3
  -6   0  -9-41.5828 60.0606   3
  -6   0 -10 634.002 170.262   3
  -6  -1   6 607.485 174.221   7
  -6  -1   5 1667.98 262.365   7
  -6  -1   4 1067.74 190.951   7
  -6  -1   3 3053.39 326.223   7
  -6  -1   2 145.322 82.6079   7
  -6  -1   1 180.110 88.0169   7
  -6  -1   0 561.118 126.424   7
  -6  -1  -1 1.86876 58.4246   3
   6   1   1-21.8806 68.7821   5
  -6  -1  -1 0.68103 59.8562   7
  -6  -1  -2 1461.93 203.844   3
   6   1   2 1327.65 194.953   5
  -6  -1  -2 1331.61 179.567   7
  -6  -1  -3 376.848 97.8388   3
   6   1   3 234.385 101.090   5
  -6  -1  -4 1830.04 238.863   3
   6   1   4 1876.58 234.384   5
  -6  -1  -5 386.096 91.5100   3
  -6  -1  -6 7459.99 497.997   3
  -6  -1  -7 234.512 110.816   3
  -6  -1  -8 9.71550 56.9193   3
  -6  -1  -9 1003.82 199.636   3
  -6  -1 -10 5376.18 464.418   3
  -6  -1 -11 5991.77 507.419   3
  -6  -2   6 1647.48 272.400   7
  -6  -2   5 299.307 124.826   7
  -6  -2   4 311.883 120.248   7
  -6  -2   3 4633.95 392.659   7
  -6  -2   2 4002.89 349.793   7
  -6  -2   1 1719.86 223.533   7
   6   2   0 266.084 102.684   5
  -6  -2   0 347.809 89.2849   7
   6   2   1 2774.33 298.593   5
  -6  -2  -1 2902.35 268.881   7
  -6  -2  -2 38907.2 1023.67   3
   6   2   2 37623.7 1044.89   5
  -6  -2  -3 30756.5 918.104   3
   6   2   3 28988.5 924.367   5
  -6  -2  -4 567.017 139.299   3
   6   2   4 735.030 152.185   5
  -6  -2  -5 576.107 130.802   3
   6   2   5 703.650 138.015   5
  -6  -2  -6 4058.04 357.842   3
   6   2   6 4009.13 352.908   5
  -6  -2  -7 3169.21 330.401   3
  -6  -2  -8-29.4645 92.0771   3
  -6  -2  -9 534.090 136.947   3
  -6  -2 -10 308.777 129.326   3
  -6  -2 -11 1189.58 228.097   3
  -6  -3   5 3666.95 385.371   7
  -6  -3   4 452.888 139.062   7
  -6  -3   3 1713.57 244.417   7
  -6  -3   2 2018.85 249.274   7
   6   3  -1 697.086 157.198   5
  -6  -3   1 780.328 158.043   7
   6   3   0 444.224 143.204   5
   6   3   1 453.815 136.803   5
  -6  -3  -2 397.199 117.809   3
   6   3   2 598.141 145.680   5
  -6  -3  -3 27438.9 884.828   3
   6   3   3 28819.3 943.620   5
  -6  -3  -4 33.8302 67.9986   3
   6   3   4-40.3412 67.3448   5
  -6  -3  -5 720.978 143.710   3
   6   3   5 982.000 166.403   5
  -6  -3  -6-46.8313 70.1735   3
   6   3   6 33.4833 52.4855   5
  -6  -3  -7 1017.50 185.059   3
   6   3   7 1263.55 202.726   5
  -6  -3  -8 3813.59 363.336   3
   6   3   8 3981.12 366.653   5
  -6  -3  -9 2148.61 278.528   3
  -6  -3 -10-10.7924 54.4210   3
  -6  -3 -11 254.057 115.997   3
  -6  -3 -12 770.018 189.461   3
  -6  -4   5 126.415 85.7876   7
  -6  -4   4-117.734 80.2600   7
  -6  -4   3 783.521 171.223   7
   6   4  -2 73.7310 56.7795   5
   6   4  -1 614.453 147.107   5
   6   4   0 2963.10 322.247   5
   6   4   1 3020.55 320.738   5
   6   4   2 1060.77 200.513   5
   6   4   3 972.733 192.622   5
   6   4   4 2601.74 297.124   5
  -6  -4  -5 1141.69 201.998   3
   6   4   5 1577.41 228.893   5
  -6  -4  -6 134.426 54.3313   3
   6   4   6 280.376 99.1777   5
  -6  -4  -7 33.2551 70.3618   3
   6   4   7 119.496 73.1287   5
  -6  -4  -8 616.605 149.531   3
   6   4   8 547.896 132.630   5
  -6  -4  -9-36.9337 79.6343   3
   6   4   9-30.0477 83.9550   5
  -6  -4 -10 105.885 84.1414   3
   6   4  10 215.203 102.788   5
   6   4  11 73.9669 51.9011   5
  -6  -5   5 102.958 87.3239   7
   6   5  -4-94.2169 79.4721   5
  -6  -5   3 3433.73 386.557  10
   6   5  -3 3930.05 398.967   5
  -6  -5   2 10.0957 83.3890  10
   6   5  -2-58.8508 78.7827   5
  -6  -5   1 66.6854 60.7867  10
   6   5  -1 173.903 105.911   5
  -6  -5   0 321.029 113.450  10
   6   5   0 400.459 120.635   5
   6   5   1 4060.12 379.921   5
   6   5   2 393.918 120.158   5
   6   5   3 45.1240 59.6535   5
   6   5   4 1963.62 263.176   5
   6   5   5 1908.78 263.049   5
   6   5   6 391.797 133.714   5
   6   5   7 874.677 195.764   5
   6   5   8 1983.12 279.280   5
   6   5   9 1983.20 281.286   5
   6   5  10 758.098 184.493   5
   6   5  11 61.5054 74.8872   5
   6   5  12 1679.11 273.251   5
  -6  -6   3 619.560 179.892  10
  -6  -6   2-287.760 125.896  10
   6   6  -2 51.5143 82.8949   5
  -6  -6   1 58.1264 89.3735  10
   6   6  -1 36.0545 78.4453   5
  -6  -6   0 1141.66 219.266  10
   6   6   0 1677.17 265.887   5
  -6  -6  -1 471.412 142.513  10
   6   6   1 266.155 108.377   5
   6   6   2 205.774 92.4715   5
   6   6   3 2234.43 296.475   5
   6   6   4 3939.87 388.674   5
   6   6   5 158.121 61.8061   5
   6   6   6 366.033 119.106   5
   6   6   7 135.869 97.6974   5
   6   6   8 1409.90 244.135   5
   6   6   9-12.9408 55.5836   5
   6   6  10 251.934 133.996   5
   6   6  11 108.104 82.5127   5
  -6  -7   2 85.2257 86.5469  10
  -6  -7   1 9.59604 81.9067  10
  -6  -7   0 1794.06 289.281  10
   6   7   0 1967.27 287.503   5
  -6  -7  -1 1856.06 297.052  10
   6   7   1 1767.34 267.409   5
   6   7   2-117.606 84.7280   5
   6   7   3 472.782 141.010   5
   6   7   4-93.8271 63.5195   5
   6   7   5 402.013 116.253   5
   6   7   6-43.0697 119.501   5
   6   7   7 2310.13 315.698   5
   6   7   8-36.9784 59.7077   5
   6   7   9 5953.11 514.645   5
  -6  -8  -1 5406.17 532.308  10
   6   8   3 750.427 176.330   5
   6   8   4 53.3076 57.3895   5
   6   8   5-394.260 138.240   5
   6   8   6 929.692 214.202   5
   6   8   7 217.207 120.242   5
   6   8   8 426.867 124.184   5
  -6  -9  -3 984.643 211.098   2
   6   9   5 189.883 56.9541   5
   7  -2   0 598.975 158.024  11
  -7   2   0 316.027 123.170   7
   7  -2   1 660.750 161.881  11
  -7   2  -1 574.340 159.445   7
   7  -2   2 94.6631 80.6981  11
  -7   2  -2 114.721 75.4276   3
  -7   2  -2 109.831 71.7705   7
   7  -2   3-5.67114 40.3644  11
  -7   2  -3 6.22068 56.2693   3
  -7   2  -3 5.46709 47.4270   7
   7  -2   4 123.144 73.8608  11
   7  -2   5 2140.32 320.896  11
  -7   1   2 153.847 78.9220   7
  -7   1   1-70.8867 72.8288   7
   7  -1   0 1828.83 256.180  11
  -7   1   0 1965.19 268.100   7
   7  -1   1 296.326 131.477  11
  -7   1  -1 259.160 101.252   7
  -7   1  -2 158.037 69.3861   3
  -7   1  -2 190.696 84.7104   7
  -7   1  -3 142.635 99.9517   3
  -7   1  -3-45.4486 98.8726   7
  -7   1  -4 630.389 173.686   3
  -7   1  -5 278.757 139.944   3
  -7   0   3 119.045 69.6980   7
  -7   0   2 213.343 97.2218   7
  -7   0   1 251.102 103.030   7
   7   0   0-101.311 102.070   5
  -7   0   0 43.0460 67.8544   7
  -7   0  -1 427.934 140.041   7
  -7   0  -2 1447.94 237.778   3
  -7   0  -2 871.948 158.097   7
  -7   0  -3 96.2460 76.0144   3
  -7   0  -3 97.9559 44.2059   7
  -7   0  -4 709.810 169.341   3
  -7   0  -5 158.881 93.6291   3
  -7   0  -6 988.210 213.385   3
  -7   0  -7 152.155 101.420   3
  -7  -1   3 33.9271 53.2772   7
  -7  -1   2 3544.42 355.284   7
  -7  -1   1 105.448 46.3757   7
   7   1   0 1588.09 242.686   5
  -7  -1   0 1197.55 189.750   7
   7   1   1 66.1508 49.6533   5
  -7  -1  -1-25.7229 54.9271   7
  -7  -1  -2 713.383 151.666   3
   7   1   2 974.028 194.006   5
  -7  -1  -3 165.764 75.2642   3
   7   1   3 162.943 84.4441   5
  -7  -1  -4 373.024 143.237   3
  -7  -1  -5 77.7549 65.3213   3
  -7  -1  -6 540.521 135.979   3
  -7  -1  -7 1690.54 281.558   3
  -7  -1  -8 91.2844 90.8948   3
  -7  -2   4 46.5045 54.8772   7
  -7  -2   3-1.07624 58.7149   7
  -7  -2   2-318.620 113.965   7
   7   2  -1 1758.91 273.526   5
  -7  -2   1 1714.72 246.303   7
   7   2   0 119.953 94.9467   5
   7   2   1 69.6523 90.9943   5
   7   2   2 705.902 163.621   5
  -7  -2  -3 1903.90 254.908   3
   7   2   3 2055.06 271.789   5
  -7  -2  -4 1684.32 254.077   3
   7   2   4 1626.71 271.898   5
  -7  -2  -5 39.2293 69.1254   3
   7   2   5 220.098 94.8923   5
  -7  -2  -6 1689.78 254.770   3
  -7  -2  -7 116.551 91.5604   3
  -7  -2  -8 9.63612 67.0297   3
  -7  -2  -9-38.7571 94.6957   3
  -7  -3   3 90.7969 55.2235   7
   7   3  -2 102.936 91.2141   5
  -7  -3   2 57.5559 54.7085   7
   7   3  -1 126.217 64.7466   5
   7   3   0 1547.24 256.157   5
   7   3   1 275.360 124.572   5
   7   3   2 4375.41 424.586   5
  -7  -3  -3 604.489 164.773   3
   7   3   3 988.480 206.649   5
  -7  -3  -4-78.1031 55.8995   3
   7   3   4-32.7837 75.1699   5
  -7  -3  -5 590.396 144.057   3
   7   3   5 356.587 106.689   5
  -7  -3  -6 212.868 95.6460   3
   7   3   6 455.226 169.287   5
  -7  -3  -7 350.829 142.834   3
   7   3   7 284.198 133.664   5
  -7  -3  -8 736.487 193.339   3
  -7  -3  -9 178.575 84.1925   3
   7   4  -2 166.092 89.4850   5
   7   4  -1 2792.05 358.301   5
   7   4   0-7.40473 62.1515   5
   7   4   1 56.1960 69.0749   5
   7   4   2 287.023 113.535   5
   7   4   3 19.4120 65.1692   5
  -7  -4  -4-1.04998 69.1979   3
   7   4   4 93.7457 98.8023   5
  -7  -4  -5-13.9433 81.3650   3
   7   4   5 22.8346 58.3696   5
  -7  -4  -6 2269.42 293.676   3
   7   4   6 2218.20 303.871   5
  -7  -4  -7 1114.95 204.016   3
   7   4   7 859.301 186.173   5
  -7  -4  -8 2703.31 361.960   3
   7   4   8 3186.52 389.307   5
  -7  -4  -9 193.124 108.713   3
   7   4   9 118.140 70.5252   5
   7   5  -2-25.5348 109.394   5
   7   5  -1 886.427 207.777   5
   7   5   0 888.569 195.173   5
   7   5   1 259.915 91.1049   5
   7   5   2-19.5870 77.6688   5
   7   5   3 145.962 93.7199   5
   7   5   4 1596.96 260.274   5
   7   5   5 691.992 195.807   5
   7   5   6-108.542 103.256   5
   7   5   7-62.3605 93.6222   5
   7   5   8 323.319 128.443   5
   7   5   9 186.666 108.470   5
   7   5  10 79.5089 97.2253   5
   7   6  -1 1368.54 259.315   5
   7   6   0 218.614 107.207   5
   7   6   1-5.17392 61.5094   5
   7   6   2 197.906 108.205   5
   7   6   3 116.402 90.1569   5
   7   6   4 765.767 184.833   5
   7   6   5 3970.57 414.402   5
   7   6   6 504.278 150.694   5
   7   6   7 44.1103 54.4427   5
   7   6   8 1035.97 233.708   5
  -7  -7  -1 1103.54 229.710  10
   7   7   1 1351.30 299.039   5
  -7  -7  -2-79.8958 143.166  10
   7   7   2 107.119 99.8175   5
   7   7   3 92.2600 86.9487   5
   7   7   4 26.4572 66.8732   5
   7   7   5 753.618 219.618   5
   7   7   6 121.883 86.0967   5
  -8  -1   0 131.657 86.5275   7
   8   1   1 116.879 99.2534   5
  -8  -1  -3-145.856 134.877   3
  -8  -1  -4 134.382 74.2669   3
   8   2   1 28.7798 70.4934   5
   8   2   2 802.546 197.870   5
   8   2   3 2442.01 325.966   5
  -8  -2  -4 1204.68 229.292   3
   8   2   4 893.972 204.175   5
  -8  -2  -5 193.149 108.169   3
   8   3   2-332.403 133.684   5
   8   3   3 4049.31 424.154   5
  -8  -3  -4 3436.17 388.306   3
   8   3   4 3228.89 385.740   5
  -8  -3  -5 185.018 90.0325   3
   8   3   5 57.9806 69.9594   5
   8   3   6 10.2948 80.8632   5
  -8  -4  -4 3608.61 393.501   3
   8   4   4 3960.10 425.413   5
  -8  -4  -5 104.895 91.0932   3
   8   4   5 136.316 72.6320   5
   8   4   6-76.8083 65.5438   5
   0   0   0    0.00    0.00   0

TITL TAT_Ia in P-1
REM P-1 (#2 in standard setting)
CELL 0.71073   6.654117   8.330416  11.540441  73.1188  75.4872  72.9749
ZERR    2.00   0.000740   0.000895   0.001414   0.0102   0.0101   0.0097
LATT  1
SFAC C H N O
UNIT 22.00 20.00 2.00 14.00
TREF
HKLF 4
END
;
_shelx_hkl_checksum              8321
loop_
_space_group_symop_operation_xyz
'x, y, z'
'-x, -y, -z'
loop_
_atom_site_label
_atom_site_type_symbol
_atom_site_fract_x
_atom_site_fract_y
_atom_site_fract_z
_atom_site_U_iso_or_equiv
_atom_site_adp_type
_atom_site_occupancy
_atom_site_site_symmetry_order
_atom_site_calc_flag
C1A C 0.8047(3) 0.6697(3) 0.22031(18) 0.0340(5) Uani 1 1 d
C2A C 0.7430(3) 0.7000(2) 0.33845(17) 0.0308(5) Uani 1 1 d
C3A C 0.7530(3) 0.5595(2) 0.44108(17) 0.0311(5) Uani 1 1 d
C4A C 0.8212(3) 0.3923(3) 0.4238(2) 0.0377(5) Uani 1 1 d
H4A H 0.828(4) 0.297(3) 0.489(2) 0.050(7) Uiso 1 1 d
C5A C 0.8848(4) 0.3629(3) 0.3068(2) 0.0433(5) Uani 1 1 d
H5A H 0.938(4) 0.245(4) 0.292(2) 0.061(7) Uiso 1 1 d
C6A C 0.8769(3) 0.5005(3) 0.2059(2) 0.0389(5) Uani 1 1 d
H6A H 0.923(3) 0.485(3) 0.125(2) 0.041(6) Uiso 1 1 d
C7A C 0.7833(4) 0.8169(3) 0.11065(18) 0.0415(5) Uani 1 1 d
O71A O 0.8710(3) 0.7743(2) 0.00575(14) 0.0559(5) Uani 1 1 d
H71A H 0.838(6) 0.862(5) -0.052(3) 0.094(12) Uiso 1 1 d
O72A O 0.6895(4) 0.9610(2) 0.11759(16) 0.0915(9) Uani 1 1 d
C8A C 0.6790(3) 0.8824(2) 0.35543(17) 0.0353(5) Uani 1 1 d
O81A O 0.4703(2) 0.94641(19) 0.37352(14) 0.0451(4) Uani 1 1 d
H81A H 0.441(4) 1.049(4) 0.384(2) 0.054(7) Uiso 1 1 d
O82A O 0.8079(3) 0.95864(19) 0.35354(16) 0.0533(5) Uani 1 1 d
C9A C 0.6933(3) 0.5865(2) 0.56852(18) 0.0337(5) Uani 1 1 d
O91A O 0.7045(3) 0.44251(19) 0.65358(13) 0.0458(5) Uani 1 1 d
H91A H 0.658(5) 0.470(4) 0.734(3) 0.094(11) Uiso 1 1 d
O92A O 0.6407(3) 0.72808(18) 0.59098(13) 0.0460(5) Uani 1 1 d
N1B N 0.5795(3) 0.4852(2) 0.88038(15) 0.0442(5) Uani 1 1 d
C2B C 0.4811(4) 0.6368(3) 0.9069(2) 0.0484(6) Uani 1 1 d
H2B H 0.469(4) 0.732(4) 0.840(3) 0.065(8) Uiso 1 1 d
C3B C 0.4014(4) 0.6525(3) 1.0256(2) 0.0462(6) Uani 1 1 d
H3B H 0.340(4) 0.760(4) 1.045(2) 0.059(7) Uiso 1 1 d
O1W O 0.1942(4) 0.9683(2) 0.18795(16) 0.0569(5) Uani 1 1 d
H1W1 H 0.083(6) 0.948(4) 0.247(3) 0.085(11) Uiso 1 1 d
H1W2 H 0.312(7) 0.949(5) 0.215(4) 0.116(15) Uiso 1 1 d
loop_
_atom_site_aniso_label
_atom_site_aniso_U_11
_atom_site_aniso_U_22
_atom_site_aniso_U_33
_atom_site_aniso_U_23
_atom_site_aniso_U_13
_atom_site_aniso_U_12
C1A 0.0367(10) 0.0326(10) 0.0301(10) -0.0089(8) -0.0024(8) -0.0060(8)
C2A 0.0330(10) 0.0269(10) 0.0315(10) -0.0088(8) -0.0027(8) -0.0062(7)
C3A 0.0322(9) 0.0293(10) 0.0306(10) -0.0075(8) -0.0032(8) -0.0070(7)
C4A 0.0466(12) 0.0252(10) 0.0360(11) -0.0036(8) -0.0042(9) -0.0065(8)
C5A 0.0564(13) 0.0274(10) 0.0438(12) -0.0140(9) -0.0032(10) -0.0060(9)
C6A 0.0481(12) 0.0345(11) 0.0330(11) -0.0136(9) -0.0015(9) -0.0073(9)
C7A 0.0529(13) 0.0354(11) 0.0308(11) -0.0079(8) -0.0019(9) -0.0070(9)
O71A 0.0809(13) 0.0454(10) 0.0284(9) -0.0089(7) 0.0012(8) -0.0044(8)
O72A 0.164(2) 0.0379(10) 0.0353(10) -0.0045(8) -0.0033(11) 0.0157(11)
C8A 0.0481(12) 0.0287(10) 0.0245(10) -0.0047(7) -0.0013(8) -0.0081(9)
O81A 0.0509(9) 0.0315(8) 0.0493(9) -0.0167(7) -0.0117(7) 0.0051(7)
O82A 0.0607(10) 0.0392(9) 0.0614(11) -0.0204(8) 0.0086(8) -0.0221(8)
C9A 0.0339(10) 0.0321(10) 0.0319(10) -0.0074(8) -0.0041(8) -0.0049(8)
O91A 0.0681(11) 0.0343(8) 0.0284(8) -0.0046(6) -0.0047(7) -0.0087(7)
O92A 0.0641(10) 0.0325(8) 0.0368(8) -0.0132(6) -0.0065(7) -0.0013(7)
N1B 0.0566(12) 0.0425(10) 0.0298(9) -0.0082(8) -0.0053(8) -0.0084(9)
C2B 0.0696(16) 0.0360(12) 0.0327(12) -0.0010(9) -0.0087(11) -0.0095(11)
C3B 0.0617(14) 0.0362(12) 0.0356(12) -0.0077(9) -0.0080(10) -0.0055(10)
O1W 0.0590(12) 0.0608(12) 0.0392(10) -0.0038(8) -0.0031(9) -0.0093(9)
loop_
_atom_type_symbol
_atom_type_description
_atom_type_scat_dispersion_real
_atom_type_scat_dispersion_imag
_atom_type_scat_source
C C 0.0033 0.0016 'International Tables Vol C Tables 4.2.6.8 and 6.1.1.4'
H H 0.0000 0.0000 'International Tables Vol C Tables 4.2.6.8 and 6.1.1.4'
N N 0.0061 0.0033 'International Tables Vol C Tables 4.2.6.8 and 6.1.1.4'
O O 0.0106 0.0060 'International Tables Vol C Tables 4.2.6.8 and 6.1.1.4'
loop_
_geom_angle_atom_site_label_1
_geom_angle_atom_site_label_2
_geom_angle_atom_site_label_3
_geom_angle
_geom_angle_site_symmetry_1
_geom_angle_site_symmetry_3
C6A C1A C2A 119.69(18) . .
C6A C1A C7A 120.14(18) . .
C2A C1A C7A 120.10(17) . .
C1A C2A C3A 119.42(17) . .
C1A C2A C8A 120.25(17) . .
C3A C2A C8A 120.22(17) . .
C4A C3A C2A 119.56(18) . .
C4A C3A C9A 119.45(18) . .
C2A C3A C9A 120.99(17) . .
C5A C4A C3A 120.84(19) . .
C5A C4A H4A 117.3(15) . .
C3A C4A H4A 121.8(15) . .
C6A C5A C4A 119.74(19) . .
C6A C5A H5A 118.1(15) . .
C4A C5A H5A 122.2(15) . .
C5A C6A C1A 120.72(19) . .
C5A C6A H6A 121.6(14) . .
C1A C6A H6A 117.7(14) . .
O72A C7A O71A 122.9(2) . .
O72A C7A C1A 122.92(19) . .
O71A C7A C1A 114.19(18) . .
C7A O71A H71A 108(2) . .
O82A C8A O81A 124.30(19) . .
O82A C8A C2A 122.28(19) . .
O81A C8A C2A 113.41(18) . .
C8A O81A H81A 110.2(17) . .
O92A C9A O91A 123.40(18) . .
O92A C9A C3A 123.34(18) . .
O91A C9A C3A 113.26(17) . .
C9A O91A H91A 109(2) . .
C2B N1B C3B 117.16(19) . 2_667
N1B C2B C3B 122.0(2) . .
N1B C2B H2B 116.1(17) . .
C3B C2B H2B 122.0(17) . .
N1B C3B C2B 120.9(2) 2_667 .
N1B C3B H3B 117.1(17) 2_667 .
C2B C3B H3B 121.9(17) . .
H1W1 O1W H1W2 114(3) . .
loop_
_geom_bond_atom_site_label_1
_geom_bond_atom_site_label_2
_geom_bond_distance
_geom_bond_site_symmetry_2
C1A C6A 1.395(3) .
C1A C2A 1.397(3) .
C1A C7A 1.487(3) .
C2A C3A 1.402(3) .
C2A C8A 1.510(3) .
C3A C4A 1.390(3) .
C3A C9A 1.491(3) .
C4A C5A 1.382(3) .
C4A H4A 0.92(3) .
C5A C6A 1.375(3) .
C5A H5A 0.99(3) .
C6A H6A 0.94(2) .
C7A O72A 1.196(3) .
C7A O71A 1.307(2) .
O71A H71A 0.85(4) .
C8A O82A 1.201(3) .
C8A O81A 1.320(3) .
O81A H81A 0.86(3) .
C9A O92A 1.213(2) .
C9A O91A 1.307(2) .
O91A H91A 0.97(4) .
N1B C2B 1.326(3) .
N1B C3B 1.330(3) 2_667
C2B C3B 1.371(3) .
C2B H2B 0.94(3) .
C3B N1B 1.330(3) 2_667
C3B H3B 0.93(3) .
O1W H1W1 0.89(4) .
O1W H1W2 0.87(4) .

_cod_database_fobs_code 2021399
