#------------------------------------------------------------------------------
#$Date: 2018-12-04 13:11:15 +0200 (Tue, 04 Dec 2018) $
#$Revision: 212337 $
#$URL: file:///home/coder/svn-repositories/cod/cif/2/02/13/2021398.cif $
#------------------------------------------------------------------------------
#
# This file is available in the Crystallography Open Database (COD),
# http://www.crystallography.net/. The original data for this entry
# were provided by IUCr Journals, http://journals.iucr.org/.
#
# The file may be used within the scientific community so long as
# proper attribution is given to the journal article from which the
# data were obtained.
#
data_2021398
loop_
_publ_author_name
'Dutkiewicz, Grzegorz'
'Dutkiewicz, Edward'
'Kubicki, Maciej'
_publ_section_title
;
 Cocrystals of pyrazine and benzene polycarboxylic acids
;
_journal_issue                   11
_journal_name_full               'Acta Crystallographica Section C'
_journal_page_first              1420
_journal_page_last               1426
_journal_paper_doi               10.1107/S2053229618013669
_journal_volume                  74
_journal_year                    2018
_chemical_formula_iupac          'C4 H4 N2, C9 H6 O6'
_chemical_formula_moiety         'C4 H4 N2, C9 H6 O6'
_chemical_formula_sum            'C13 H10 N2 O6'
_chemical_formula_weight         290.23
_chemical_name_common
;
Pyrazine--hemimellitic acid (1/1)
;
_chemical_name_systematic
;
Pyrazine--benzene-1,2,3-tricarboxylic acid (1/1)
;
_space_group_crystal_system      triclinic
_space_group_IT_number           2
_space_group_name_Hall           '-P 1'
_space_group_name_H-M_alt        'P -1'
_symmetry_space_group_name_Hall  '-P 1'
_symmetry_space_group_name_H-M   'P -1'
_atom_sites_solution_hydrogens   difmap
_audit_creation_method           SHELXL-2014/7
_cell_angle_alpha                115.029(10)
_cell_angle_beta                 112.471(10)
_cell_angle_gamma                92.672(9)
_cell_formula_units_Z            2
_cell_length_a                   7.7184(9)
_cell_length_b                   9.9393(10)
_cell_length_c                   10.0300(10)
_cell_measurement_reflns_used    1758
_cell_measurement_temperature    100(1)
_cell_measurement_theta_max      26.3940
_cell_measurement_theta_min      4.5280
_cell_volume                     624.00(15)
_computing_cell_refinement
;
CrysAlis PRO (Rigaku OD, 2015)
;
_computing_data_collection
;
CrysAlis PRO (Rigaku OD, 2015)
;
_computing_data_reduction
;
CrysAlis PRO (Rigaku OD, 2015)
;
_computing_molecular_graphics
;
Mercury (Macrae <i>et al.</i>,  2008)
;
_computing_publication_material
;
SHELXL2014 (Sheldrick, 2015b)
;
_computing_structure_refinement
;
SHELXL2014 (Sheldrick, 2015b)
;
_computing_structure_solution
;
SHELXT (Sheldrick, 2015a)
;
_diffrn_ambient_temperature      100(1)
_diffrn_detector                 'CCD plate'
_diffrn_detector_area_resol_mean 16.2413
_diffrn_detector_type            Eos
_diffrn_measured_fraction_theta_full 0.997
_diffrn_measured_fraction_theta_max 0.910
_diffrn_measurement_device       'four-circle diffractometer'
_diffrn_measurement_device_type  'Rigaku Xcalibur Eos'
_diffrn_measurement_method       '\w scans'
_diffrn_radiation_monochromator  graphite
_diffrn_radiation_probe          x-ray
_diffrn_radiation_type           'Mo K\a'
_diffrn_radiation_wavelength     0.71073
_diffrn_reflns_av_R_equivalents  0.0163
_diffrn_reflns_av_unetI/netI     0.0307
_diffrn_reflns_Laue_measured_fraction_full 0.997
_diffrn_reflns_Laue_measured_fraction_max 0.910
_diffrn_reflns_limit_h_max       9
_diffrn_reflns_limit_h_min       -9
_diffrn_reflns_limit_k_max       12
_diffrn_reflns_limit_k_min       -12
_diffrn_reflns_limit_l_max       11
_diffrn_reflns_limit_l_min       -12
_diffrn_reflns_number            4116
_diffrn_reflns_point_group_measured_fraction_full 0.997
_diffrn_reflns_point_group_measured_fraction_max 0.910
_diffrn_reflns_theta_full        25.000
_diffrn_reflns_theta_max         26.618
_diffrn_reflns_theta_min         3.275
_diffrn_source                   'fine-focus sealed X-ray tube'
_diffrn_source_type              'Enhance (Mo) X-ray Source'
_exptl_absorpt_coefficient_mu    0.125
_exptl_absorpt_correction_T_max  1.00000
_exptl_absorpt_correction_T_min  0.99224
_exptl_absorpt_correction_type   multi-scan
_exptl_absorpt_process_details
;
(CrysAlis PRO; Rigaku OD, 2015)
;
_exptl_crystal_colour            colourless
_exptl_crystal_density_diffrn    1.545
_exptl_crystal_description       block
_exptl_crystal_F_000             300
_exptl_crystal_size_max          0.25
_exptl_crystal_size_mid          0.2
_exptl_crystal_size_min          0.1
_refine_diff_density_max         0.249
_refine_diff_density_min         -0.240
_refine_diff_density_rms         0.048
_refine_ls_extinction_method     none
_refine_ls_goodness_of_fit_ref   1.041
_refine_ls_hydrogen_treatment    refall
_refine_ls_matrix_type           full
_refine_ls_number_parameters     230
_refine_ls_number_reflns         2396
_refine_ls_number_restraints     0
_refine_ls_restrained_S_all      1.041
_refine_ls_R_factor_all          0.0410
_refine_ls_R_factor_gt           0.0346
_refine_ls_shift/su_max          0.000
_refine_ls_shift/su_mean         0.000
_refine_ls_structure_factor_coef Fsqd
_refine_ls_weighting_details
'w=1/[\s^2^(Fo^2^)+(0.0457P)^2^+0.1205P] where P=(Fo^2^+2Fc^2^)/3'
_refine_ls_weighting_scheme      calc
_refine_ls_wR_factor_gt          0.0862
_refine_ls_wR_factor_ref         0.0920
_reflns_Friedel_coverage         0.000
_reflns_number_gt                2083
_reflns_number_total             2396
_reflns_threshold_expression     'I > 2\s(I)'
_cod_data_source_file            yp3167sup1.cif
_cod_data_source_block           2
_cod_database_code               2021398
_shelx_shelxl_version_number     2014/7
_shelx_space_group_comment
;
The symmetry employed for this shelxl refinement is uniquely defined
by the following loop, which should always be used as a source of
symmetry information in preference to the above space-group names.
They are only intended as comments.
;
_exptl_absorpt_special_details
;
CrysAlisPro 1.171.38.43c (Rigaku Oxford Diffraction, 2015)
Empirical absorption correction using spherical harmonics,
implemented in SCALE3 ABSPACK scaling algorithm.
;
_shelx_res_file
;

    shelx.res created by SHELXL-2014/7


TITL mp_1_a.res in P-1
CELL 0.71073 7.7184 9.9393 10.0300 115.029 112.471 92.672
ZERR 2       0.0009 0.0010  0.0010   0.010   0.010  0.009
LATT 1
SFAC C H N O
UNIT 26 20 4 12

L.S. 10
PLAN -10
BOND $H
conf
acta 50

temp -173

WGHT    0.045700    0.120500
FVAR       0.75885
C1A   1    0.778825    0.803439    0.275068    11.00000    0.01309    0.01509 =
         0.01223    0.00643    0.00494    0.00359
C2A   1    0.630091    0.707927    0.266114    11.00000    0.01206    0.01537 =
         0.01154    0.00699    0.00436    0.00422
C3A   1    0.621510    0.550804    0.204685    11.00000    0.01173    0.01603 =
         0.01135    0.00680    0.00379    0.00310
C4A   1    0.757780    0.491599    0.152904    11.00000    0.01622    0.01456 =
         0.01357    0.00583    0.00547    0.00462
rem afix  43
H4A   2    0.749769    0.382794    0.107634    11.00000    0.01617
rem afix   0
C5A   1    0.908478    0.587511    0.168451    11.00000    0.01514    0.01989 =
         0.01648    0.00949    0.00942    0.00795
rem afix  43
H5A   2    1.003898    0.548710    0.139772    11.00000    0.02338
rem afix   0
C6A   1    0.919038    0.742820    0.230137    11.00000    0.01339    0.01830 =
         0.01515    0.00930    0.00692    0.00387
rem afix  43
H6A   2    1.023560    0.809348    0.243596    11.00000    0.01713
rem afix   0
C7A   1    0.789113    0.970304    0.330813    11.00000    0.01481    0.01565 =
         0.01261    0.00676    0.00582    0.00316
O71A  4    0.935723    1.041765    0.329282    11.00000    0.01992    0.01346 =
         0.03151    0.00950    0.01624    0.00300
rem afix 147
H71A  2    0.938356    1.151936    0.367799    11.00000    0.07132
rem afix   0
O72A  4    0.672848    1.033870    0.370845    11.00000    0.02483    0.01754 =
         0.03522    0.01163    0.02152    0.00975
C8A   1    0.480579    0.773283    0.319331    11.00000    0.01582    0.01184 =
         0.02011    0.00861    0.00955    0.00277
O81A  4    0.542453    0.825797    0.480018    11.00000    0.02135    0.02431 =
         0.02000    0.00984    0.01356    0.00932
rem afix 147
H81A  2    0.449633    0.869148    0.509774    11.00000    0.05258
rem afix   0
O82A  4    0.328575    0.778178    0.227634    11.00000    0.01455    0.02342 =
         0.02696    0.01395    0.01020    0.00784
C9A   1    0.468215    0.445799    0.197624    11.00000    0.01366    0.01543 =
         0.01488    0.00771    0.00457    0.00388
O91A  4    0.475843    0.300721    0.130411    11.00000    0.01846    0.01417 =
         0.03236    0.00889    0.01283    0.00214
rem afix 147
H91A  2    0.372504    0.243507    0.126025    11.00000    0.06855
rem afix   0
O92A  4    0.352512    0.489038    0.250170    11.00000    0.02364    0.02098 =
         0.03525    0.01378    0.01995    0.00659
N1B   3    0.170758    0.110545    0.074625    11.00000    0.01969    0.01770 =
         0.02167    0.01047    0.00877    0.00288
C2B   1   -0.001607    0.141907    0.022346    11.00000    0.02419    0.01448 =
         0.02141    0.00986    0.01172    0.00505
rem afix  43
H2B   2   -0.004579    0.245678    0.035855    11.00000    0.02275
rem afix   0
C3B   1   -0.172227    0.031896   -0.052251    11.00000    0.01930    0.02147 =
         0.02547    0.01472    0.01023    0.00669
rem afix  43
H3B   2   -0.295422    0.057929   -0.089020    11.00000    0.02675
rem afix   0
N1C   3    0.966577    1.341420    0.432126    11.00000    0.01983    0.01640 =
         0.01529    0.00833    0.00599    0.00366
C2C   1    1.116809    1.425721    0.442576    11.00000    0.01922    0.01880 =
         0.01576    0.00918    0.00672    0.00456
rem afix  43
H2C   2    1.199514    1.371107    0.401460    11.00000    0.02227
rem afix   0
C3C   1    1.149324    1.583545    0.509726    11.00000    0.01739    0.01905 =
         0.01735    0.01037    0.00638    0.00205
rem afix  43
H3C   2    1.260377    1.642811    0.515690    11.00000    0.01577

rem afix   0
HKLF 4

REM  mp_1_a.res in P-1
REM R1 =  0.0346 for    2083 Fo > 4sig(Fo)  and  0.0410 for all    2396 data
REM    230 parameters refined using      0 restraints

END

WGHT      0.0459      0.1190

REM Highest difference peak  0.249,  deepest hole -0.240,  1-sigma level  0.048
Q1    1   0.6528  0.6379  0.2764  11.00000  0.05    0.25
Q2    1   0.5536  0.5059  0.1970  11.00000  0.05    0.23
Q3    1   0.6969  0.7623  0.2615  11.00000  0.05    0.22
Q4    1   0.7968  0.8815  0.3173  11.00000  0.05    0.22
Q5    1   0.5594  0.7334  0.2812  11.00000  0.05    0.19
Q6    1   0.5962  0.6239  0.2037  11.00000  0.05    0.18
Q7    1   0.9720  1.2552  0.4053  11.00000  0.05    0.18
Q8    1   0.8785  0.7846  0.2926  11.00000  0.05    0.17
Q9    1   0.6575  0.5182  0.1330  11.00000  0.05    0.17
Q10   1   0.8225  0.7632  0.2170  11.00000  0.05    0.17
;
_shelx_res_checksum              94743
_shelx_hkl_file
;
   0   0  -2  615.56    9.08
   0   0  -3  177.70    4.00
   0   0  -3  166.82    3.52
   0   0  -3  169.49    3.71
   0   0  -3  170.48    5.86
   0   0  -4  230.33    5.02
   0   0  -4  230.29    7.93
   0   0  -4  223.83    4.70
   0   0  -4  220.92    5.21
   0   0  -5   13.07    1.45
   0   0  -5   12.71    1.28
   0   0  -5   12.11    1.32
   0   0  -6   10.40    1.35
   0   0  -6    9.48    1.42
   0   0  -6    9.47    1.23
   0   0  -7   23.11    2.18
   0   0  -7   25.42    2.47
   0   0  -8    1.23    0.69
   0   0  -9    3.47    1.18
   0   0 -10   12.49    2.16
   0   1 -10    6.46    1.60
   0   1  -9    1.16    0.69
   0   1  -9    1.53    0.74
   0   1  -8    6.67    1.30
   0   1  -8    7.43    1.36
   0   1  -7   67.88    3.73
   0   1  -7   65.20    3.73
   0   1  -6    6.23    1.09
   0   1  -6    6.36    0.94
   0   1  -6    6.81    1.07
   0   1  -5  497.30    7.24
   0   1  -5  491.29    8.23
   0   1  -5  495.76    7.24
   0   1  -4  125.55    3.63
   0   1  -4  126.22    5.85
   0   1  -4  131.38    3.34
   0   1  -4  129.95    3.21
   0   1  -3 9970.38   45.16
   0  -1   3 9999.00   45.52
   0  -1   2  680.60    9.78
   0   1  -2  666.18    9.67
   0  -1  -1  495.74    6.63
   0   1   1  489.32    6.61
   0  -1  -2  111.88    2.86
   0  -1  -2  106.60    2.91
   0   1   2  107.39    3.96
   0  -1  -3   61.40    2.44
   0  -1  -3   66.46    2.72
   0  -1  -3   62.04    2.25
   0   1   3   59.16    3.52
   0   1   4   64.36    4.24
   0  -1  -4   56.26    2.84
   0  -1  -4   60.61    2.74
   0  -1  -4   57.04    2.50
   0  -1  -4   62.80    4.25
   0  -1  -5    7.20    1.08
   0  -1  -5    7.46    1.17
   0  -1  -5    9.54    1.18
   0  -1  -6   17.48    1.79
   0  -1  -6   13.05    1.66
   0  -1  -7   90.61    4.85
   0  -1  -7   87.33    4.34
   0  -1  -8    6.41    1.44
   0  -1  -9    5.05    1.31
   0   2 -11    0.77    0.90
   0   2 -10   17.66    2.39
   0   2 -10   16.11    2.37
   0   2  -9   11.64    1.80
   0   2  -9   13.39    1.96
   0   2  -8   17.83    2.06
   0   2  -8   17.12    2.01
   0   2  -7   79.86    3.92
   0   2  -7   80.32    4.06
   0   2  -6  712.45    9.83
   0   2  -6  676.48   10.26
   0   2  -5   10.95    0.99
   0   2  -5   11.52    1.20
   0   2  -5    8.73    0.99
   0   2  -4    0.60    0.31
   0  -2   4    1.04    0.74
   0   2  -4    1.25    0.69
   0   2  -4    0.52    0.25
   0  -2   3    8.44    1.40
   0   2  -1   40.22    1.67
   0  -2   0  251.72    5.28
   0   2   1   14.56    1.41
   0  -2  -1   13.56    1.36
   0  -2  -1   16.30    1.07
   0  -2  -1   14.74    1.02
   0  -2  -2   49.59    2.17
   0  -2  -2   49.09    2.96
   0  -2  -2   50.74    2.08
   0   2   2   50.55    3.04
   0  -2  -3   90.60    3.41
   0  -2  -3   84.77    2.65
   0  -2  -3   85.57    2.94
   0   2   3   85.25    4.53
   0  -2  -3   79.65    3.15
   0  -2  -4  584.15    8.05
   0  -2  -4  588.99    9.48
   0  -2  -5  161.31    5.41
   0  -2  -5  158.10    5.64
   0  -2  -6    1.45    0.51
   0  -2  -6    1.33    0.59
   0  -2  -7   23.03    2.41
   0  -2  -7   19.71    2.34
   0  -2  -8   67.92    4.69
   0   3 -11    2.63    1.00
   0   3 -10    8.59    1.66
   0   3  -9   26.83    2.76
   0   3  -9   23.53    2.49
   0   3  -8  124.52    5.18
   0   3  -7    0.31    0.33
   0   3  -7    0.89    0.40
   0   3  -6    0.04    0.30
   0   3  -6    0.98    0.38
   0   3  -5  301.39    5.68
   0   3  -5  290.28    4.68
   0   3  -4  816.71    8.32
   0   3  -4  821.61    8.23
   0  -3   4  829.43   15.98
   0   3  -3  140.13    3.29
   0  -3   3  140.71    3.64
   0  -3   3  146.21    6.24
   0  -3   2  235.50    4.05
   0  -3   1  428.43    5.97
   0  -3   0   69.90    3.41
   0  -3   0   70.66    2.62
   0   3   1 1243.39   15.13
   0  -3  -1 1241.07   10.80
   0  -3  -1 1264.54    9.20
   0  -3  -1 1265.29   15.34
   0   3   2  504.89   10.68
   0  -3  -2  491.55    7.71
   0  -3  -2  507.84   10.56
   0  -3  -3  358.49    7.40
   0  -3  -3  367.84    7.55
   0  -3  -4  381.76    8.44
   0  -3  -4  400.38    8.54
   0  -3  -5  161.51    5.89
   0  -3  -5  150.86    5.81
   0  -3  -6   -0.18    0.47
   0  -3  -6    0.07    0.44
   0  -3  -7    7.06    1.44
   0  -3  -7    6.99    1.49
   0  -3  -8    2.52    1.08
   0   4 -11   13.89    2.31
   0   4 -10   20.12    2.60
   0   4  -9   14.75    2.15
   0   4  -8    3.65    0.93
   0   4  -7   25.03    2.04
   0   4  -6   30.05    1.90
   0   4  -6   30.33    1.99
   0   4  -5   77.84    2.96
   0  -4   5   78.71    3.54
   0   4  -5   85.88    2.98
   0  -4   4    4.37    0.80
   0  -4   4    6.73    1.60
   0   4  -4    4.60    0.71
   0   4  -4    5.05    0.61
   0  -4   4    6.81    0.79
   0  -4   3  197.67    4.48
   0  -4   3  202.81    4.06
   0  -4   2 2552.87   15.56
   0  -4   2 2568.22   14.85
   0   4  -2 2549.53   18.24
   0  -4   1  577.65    8.15
   0  -4   1  596.24    6.73
   0  -4   0  611.92    6.88
   0  -4   0  625.72   11.90
   0  -4  -1  249.50    6.08
   0  -4  -1  263.76    7.99
   0  -4  -1  260.79    4.75
   0  -4  -2  778.59   10.76
   0  -4  -2  793.85    8.94
   0  -4  -3   13.44    1.58
   0  -4  -3   14.97    1.70
   0  -4  -3   13.24    1.59
   0  -4  -4    3.59    0.97
   0  -4  -4    4.26    1.04
   0  -4  -5   34.00    2.93
   0  -4  -5   35.18    3.00
   0  -4  -6    4.23    1.15
   0  -4  -6    4.15    1.13
   0  -4  -7    2.55    0.95
   0  -4  -7    1.96    0.95
   0   5 -11    1.51    0.80
   0  -5  11    3.18    1.21
   0  -5  10   26.11    2.99
   0   5 -10   24.25    2.84
   0   5  -9   15.71    1.96
   0  -5   9   18.85    2.39
   0  -5   8   49.79    3.59
   0  -5   7   74.15    4.11
   0   5  -6   36.60    2.28
   0  -5   6   30.76    2.41
   0   5  -5  129.57    4.18
   0  -5   5  136.13    4.66
   0   5  -4   29.19    1.94
   0  -5   4   30.64    2.02
   0  -5   4   32.05    1.76
   0   5  -3   40.70    2.89
   0  -5   3   40.12    2.18
   0  -5   3   41.74    2.15
   0  -5   2   81.37    3.22
   0  -5   2   83.13    2.94
   0  -5   1  804.14    8.75
   0   5  -1  820.88    8.11
   0  -5   0   53.78    2.99
   0  -5   0   52.63    3.90
   0  -5   0   51.88    2.25
   0  -5  -1  142.54    5.06
   0  -5  -2   90.32    4.14
   0  -5  -3    0.29    0.46
   0  -5  -3   -0.28    0.68
   0  -5  -4   33.70    2.90
   0  -5  -4   31.16    2.85
   0  -5  -5   23.19    2.56
   0  -5  -5   20.64    2.49
   0  -5  -6  104.36    5.86
   0  -5  -6   93.52    5.57
   0  -5  -7    9.86    1.93
   0   6 -11    2.56    1.16
   0  -6  11    4.44    1.47
   0  -6  10   46.03    3.97
   0   6  -9   16.09    2.05
   0  -6   9   16.74    2.37
   0  -6   8   27.22    2.74
   0  -6   7   17.64    2.04
   0   6  -6    2.98    0.75
   0  -6   6    2.27    0.79
   0  -6   5  165.26    4.39
   0  -6   5  165.61    5.25
   0   6  -5  156.10    5.04
   0  -6   4   35.34    2.12
   0  -6   4   33.18    2.24
   0  -6   3   10.55    1.20
   0  -6   3   10.11    1.23
   0  -6   2  153.13    4.32
   0  -6   2  160.57    5.02
   0  -6   1  161.25    5.28
   0  -6   1  153.94    4.21
   0  -6   0   11.92    1.64
   0  -6  -1   24.35    2.32
   0  -6  -2  209.25    6.83
   0  -6  -3   26.30    2.60
   0  -6  -3   20.84    2.41
   0  -6  -4    2.12    0.92
   0  -6  -5    2.83    1.12
   0  -6  -6    2.84    1.21
   0  -7  11    1.09    0.98
   0   7 -11    1.13    0.95
   0   7 -10  117.60    6.01
   0  -7  10  113.37    6.25
   0  -7   9    0.35    0.59
   0  -7   8    1.39    0.59
   0  -7   7   39.25    3.05
   0  -7   6  100.44    4.59
   0   7  -6   93.75    4.27
   0   7  -5  130.55    5.03
   0  -7   5  138.69    5.04
   0  -7   5  135.03    4.44
   0  -7   4   78.43    3.57
   0  -7   4   77.21    3.56
   0  -7   3  165.07    4.96
   0  -7   3  159.62    5.27
   0  -7   2   26.81    2.36
   0  -7   1  174.97    5.96
   0  -7   0   13.92    1.92
   0  -7  -1   19.28    2.20
   0  -7  -2  101.52    5.03
   0  -7  -3    1.73    0.89
   0  -7  -3    4.60    1.31
   0  -7  -4   33.93    3.39
   0   8 -11   13.08    2.19
   0  -8  10    2.84    1.21
   0  -8   9   11.36    1.95
   0  -8   8    5.83    1.39
   0  -8   7    5.11    1.19
   0   8  -7    6.30    1.23
   0  -8   6    7.26    1.28
   0   8  -6    7.55    1.31
   0  -8   5   26.05    2.30
   0  -8   5   30.93    2.39
   0  -8   4   13.42    1.61
   0  -8   4    9.15    1.49
   0  -8   3   24.61    2.35
   0  -8   2   51.24    3.42
   0  -8   1   88.61    4.61
   0  -8   0   27.07    2.67
   0  -8  -1   20.04    2.43
   0  -8  -2   21.39    2.48
   0  -8  -2   14.26    2.22
   0  -8  -3   25.53    3.02
   0  -9  10    2.03    1.13
   0  -9   9  107.70    5.87
   0  -9   8   13.39    1.99
   0  -9   7   31.86    2.90
   0   9  -7   29.78    2.84
   0  -9   6   16.71    2.05
   0   9  -6   14.22    1.95
   0  -9   5   42.58    3.06
   0  -9   5   43.53    3.10
   0  -9   4    4.36    1.34
   0  -9   3   24.38    2.45
   0  -9   2   26.34    2.69
   0  -9   1   30.90    2.92
   0  -9   0   -0.40    0.79
   0  -9  -1    5.54    1.58
   0  -9  -2    3.94    1.22
   0  -9  -2    3.42    1.21
   0 -10  10   82.33    5.53
   0 -10   9   56.92    4.42
   0 -10   8   38.33    3.46
   0 -10   7   56.20    4.00
   0  10  -7   49.57    3.84
   0  10  -6   49.11    3.84
   0 -10   5   28.86    2.75
   0 -10   4   15.17    2.20
   0 -10   3    1.69    1.14
   0 -10   2   49.39    3.83
   0 -10   1    1.15    0.92
   0 -10   0    1.00    0.79
   0 -10  -1   12.17    2.25
   0 -10  -1   18.12    2.54
   0 -11   9    2.88    1.20
   0  11  -8   20.75    2.67
   0  11  -7   38.08    3.60
   0  11  -6   17.06    2.46
   0 -11   5   25.32    2.79
   0 -11   4   11.09    1.98
   0 -11   3   20.43    2.63
   0 -11   2   36.23    3.58
   0  12  -8    4.78    1.52
   0  12  -7   15.16    2.43
   0  12  -6    2.39    1.15
   0 -12   5    2.05    1.17
   1 -12   4   29.66    3.23
   1 -12   5   17.15    2.48
  -1  12  -7    0.98    0.69
   1 -11   0   11.58    2.10
   1 -11   1    1.24    1.39
   1 -11   2    7.91    1.78
   1 -11   3   31.38    3.20
   1 -11   4    1.71    0.85
   1 -11   5   -0.81    0.82
   1 -11   6   12.05    1.90
   1 -11   7    4.86    1.40
   1 -11   8    0.45    0.63
   1 -10  -1    4.38    1.48
   1 -10  -1    0.19    0.47
   1 -10   0   72.00    4.81
   1 -10   0   63.37    4.56
   1 -10   1   13.45    2.17
   1 -10   2    1.59    1.12
   1 -10   3   59.75    4.06
   1 -10   4   29.27    2.79
   1 -10   5   15.47    2.03
   1 -10   5   14.92    2.05
   1 -10   6    0.00    0.53
  -1  10  -6   -0.01    0.41
   1 -10   7   -0.85    0.86
   1 -10   8   22.61    2.74
   1 -10   9    5.41    1.48
   1  -9  -3   13.03    2.24
   1  -9  -2   21.42    2.66
   1  -9  -2   18.33    2.51
   1  -9  -1    1.16    0.98
   1  -9  -1    1.02    0.62
   1  -9   0   38.41    3.31
   1  -9   1   56.30    3.92
   1  -9   2  115.37    5.37
   1  -9   3   19.17    2.16
   1  -9   3   18.44    1.99
   1  -9   4   32.93    2.74
   1  -9   4   33.54    2.78
   1  -9   5  136.53    5.56
   1  -9   5  140.26    5.86
  -1   9  -6   42.47    3.27
   1  -9   6   49.06    3.65
   1  -9   7   12.07    1.89
   1  -9   8  150.22    6.87
   1  -9   9    1.99    1.02
   1  -8  -4    9.62    1.91
   1  -8  -3   52.65    4.17
   1  -8  -3   53.04    3.89
   1  -8  -2    6.35    1.54
   1  -8  -2    5.20    1.29
   1  -8  -1  138.84    5.91
   1  -8  -1  132.86    5.96
   1  -8   0   20.67    2.37
   1  -8   1   16.64    2.16
   1  -8   2   23.69    2.37
   1  -8   2   23.21    2.08
   1  -8   3  112.25    4.65
   1  -8   3  112.55    4.74
   1  -8   4    1.39    0.66
   1  -8   4    1.99    0.72
   1  -8   5    9.13    1.32
   1  -8   5    8.09    1.45
   1  -8   6    1.13    0.62
  -1   8  -6    1.16    0.62
   1  -8   7   29.04    2.83
   1  -8   8    4.32    1.28
   1  -8   9  115.50    6.18
   1  -8  10    2.78    1.20
   1  -7  -5   24.16    2.97
   1  -7  -4  154.09    7.03
   1  -7  -3   84.02    4.90
   1  -7  -3   91.45    4.71
   1  -7  -2    2.30    0.98
   1  -7  -2    0.24    0.42
   1  -7  -1   50.14    3.38
   1  -7  -1   42.20    3.17
   1  -7   0    5.56    1.31
   1  -7   1    1.24    0.49
   1  -7   1    7.33    1.45
   1  -7   2  134.95    4.94
   1  -7   2  136.79    4.72
   1  -7   3  168.33    5.31
   1  -7   3  163.16    5.29
   1  -7   4   95.45    3.94
   1  -7   4   92.80    4.19
   1  -7   5   21.07    2.11
   1  -7   5   17.72    1.74
   1  -7   6   60.01    3.71
   1  -7   7    0.29    0.58
   1  -7   8   17.86    2.33
   1  -7   9   30.33    3.14
   1  -7  10   19.02    2.58
   1  -6  -6   85.14    5.51
   1  -6  -5   38.80    3.49
   1  -6  -4    4.76    1.31
   1  -6  -3   27.18    2.42
   1  -6  -3   23.05    2.40
   1  -6  -2    5.14    1.08
   1  -6  -2    5.03    1.10
   1  -6  -1   90.12    3.67
   1  -6  -1   87.93    3.99
   1  -6   0  591.53    9.10
   1  -6   0  579.62    9.82
   1  -6   1  110.75    3.91
   1  -6   1  111.05    4.20
   1  -6   2    6.37    0.96
   1  -6   2    7.26    1.16
   1  -6   3  292.74    6.33
   1  -6   3  283.07    6.61
   1  -6   4  102.89    4.15
   1  -6   4  118.16    4.06
   1  -6   5   80.80    3.87
  -1   6  -5   82.34    3.53
   1  -6   6   10.24    1.58
   1  -6   7  274.94    8.07
   1  -6   8  126.51    5.87
   1  -6   9   -0.17    0.57
   1  -6  10   73.72    5.13
   1  -5  -7   38.33    3.68
   1  -5  -6    7.45    1.60
   1  -5  -5   34.15    3.09
   1  -5  -4  108.48    5.12
   1  -5  -3   12.15    1.51
   1  -5  -3   13.50    1.69
   1  -5  -2   12.79    1.58
   1  -5  -2   14.17    1.41
   1  -5  -2   14.06    1.55
   1  -5  -1    1.06    0.57
   1  -5  -1    0.85    0.39
   1  -5   0    8.41    1.20
   1  -5   0    7.61    0.98
   1  -5   1   61.90    2.82
   1  -5   1   54.85    2.57
   1  -5   2  606.70    8.65
   1  -5   2  625.40    8.55
   1  -5   3  335.11    6.77
   1  -5   3  348.77    6.34
   1  -5   4  380.30    7.05
   1  -5   4  411.54    7.83
   1  -5   5   80.05    3.76
  -1   5  -5   72.33    2.97
   1  -5   6   61.67    3.56
  -1   5  -6   65.25    3.25
  -1   5  -7  122.65    4.83
   1  -5   7  122.21    5.37
  -1   5  -8   23.61    2.31
   1  -5   8   19.80    2.37
   1  -5   9    0.98    0.84
   1  -5  10   34.26    3.51
   1  -4  -8   -0.24    0.80
   1  -4  -7   21.34    2.61
   1  -4  -6    0.81    0.59
   1  -4  -5    0.73    0.53
   1  -4  -4   14.64    1.78
   1  -4  -3   -0.04    0.31
   1  -4  -3   -0.19    0.55
   1  -4  -3    0.08    0.33
   1  -4  -2   53.31    2.53
   1  -4  -2   55.24    2.65
   1  -4  -2   51.84    2.79
   1  -4  -1   23.54    1.96
   1  -4  -1   22.56    1.64
   1  -4  -1   24.11    1.62
   1  -4   0 1051.20   10.58
   1  -4   0 1060.27   10.09
   1  -4   1   57.30    2.39
   1  -4   1   59.41    2.45
   1  -4   2   66.83    2.66
   1  -4   2   69.18    2.57
   1  -4   3   16.06    1.42
   1  -4   3   16.31    2.27
   1  -4   3   11.94    1.17
  -1   4  -4  105.14    3.11
   1  -4   4   98.76    3.72
   1  -4   5  465.21    8.75
  -1   4  -5  460.77    8.00
   1  -4   6   21.56    2.12
  -1   4  -6   20.47    1.88
  -1   4  -7   36.83    2.71
   1  -4   7   33.72    2.83
  -1   4  -8   91.48    4.59
   1  -4   8   98.69    5.10
   1  -4   9   25.53    2.86
  -1   4  -9   32.27    2.98
  -1   4 -10   11.97    2.03
   1  -4  10    7.80    1.77
   1  -3  -8   15.40    2.31
   1  -3  -8   13.55    2.13
   1  -3  -7    2.95    1.01
   1  -3  -7    2.82    1.00
   1  -3  -6    1.87    0.66
   1  -3  -6    0.62    0.40
   1  -3  -5    0.18    0.36
   1  -3  -5   -0.21    0.39
   1  -3  -4   16.49    1.43
   1  -3  -4   14.92    1.61
   1  -3  -4   18.21    1.86
   1  -3  -3  210.04    4.80
   1  -3  -3  202.56    6.97
   1  -3  -3  198.26    5.38
   1  -3  -2   29.02    1.87
   1  -3  -2   28.06    1.67
   1  -3  -2   31.73    2.22
   1  -3  -2   29.08    1.72
   1  -3  -2   28.33    1.85
   1  -3  -1  647.90    7.86
   1  -3  -1  655.52    7.50
   1  -3  -1  659.06    7.63
   1  -3  -1  665.66    8.43
   1  -3   0  315.85    5.04
   1  -3   0  317.19    4.91
   1  -3   1   13.81    1.06
   1  -3   1   15.26    1.64
   1  -3   1   13.20    1.02
   1  -3   2  715.13    8.07
   1  -3   2  711.58   12.75
  -1   3  -3   81.83    4.95
   1  -3   3   77.84    4.79
   1  -3   3   83.78    2.98
  -1   3  -4  243.65    5.33
   1  -3   4  237.09    5.63
  -1   3  -4  233.32    3.96
   1  -3   5  192.27    5.55
  -1   3  -5  206.14    5.46
  -1   3  -6    0.48    0.40
  -1   3  -7  202.25    6.50
  -1   3  -8  548.66   11.66
  -1   3  -9  110.93    5.67
  -1   3 -10   56.88    4.37
  -1   3 -10   51.12    4.21
   1  -3  10   55.14    4.35
   1  -2  -9   19.89    2.66
   1  -2  -8   17.90    2.23
   1  -2  -8   19.07    2.44
   1  -2  -7   50.44    3.52
   1  -2  -7   49.67    3.57
   1  -2  -6   10.14    1.55
   1  -2  -6    8.58    1.41
   1  -2  -5    1.07    0.46
   1  -2  -5    1.07    0.56
   1  -2  -5    1.10    0.45
   1  -2  -4   25.19    2.98
   1  -2  -4   21.15    1.40
   1  -2  -4   20.91    1.78
   1  -2  -4   24.03    1.89
   1  -2  -3   26.15    2.54
   1  -2  -3   21.62    1.62
   1  -2  -3   23.74    1.68
   1  -2  -3   21.52    1.34
  -1   2   3   22.06    1.72
   1  -2  -2   46.67    2.74
   1  -2  -2   46.10    2.08
   1  -2  -2   45.31    1.80
  -1   2   2   44.30    1.86
   1  -2  -2   44.10    1.93
   1  -2  -1  717.96    6.12
  -1   2   1  721.22    8.03
   1  -2  -1  729.03    6.94
   1  -2   0  178.85    4.00
  -1   2  -1  209.68    5.55
   1  -2   1  205.58    5.52
   1  -2   2 1455.89   17.64
  -1   2  -2 1486.59   17.64
   1  -2   2 1503.52   10.58
  -1   2  -3   37.15    3.21
  -1   2  -3   35.42    1.87
   1  -2   3   37.14    3.27
   1  -2   3   37.54    1.94
  -1   2  -4   11.35    1.19
  -1   2  -5 3866.60   24.25
  -1   2  -6  269.79    7.09
  -1   2  -7  140.38    5.64
  -1   2  -8   27.11    2.72
  -1   2  -9    1.41    0.60
  -1   2  -9    0.96    0.66
  -1   2 -10    4.17    1.08
   1  -1 -10    3.70    1.14
   1  -1  -9    1.39    0.93
   1  -1  -8    5.27    1.25
   1  -1  -8    3.99    1.08
   1  -1  -7   17.69    1.96
   1  -1  -7   17.39    1.86
   1  -1  -7   16.97    1.99
   1  -1  -6    0.44    0.43
   1  -1  -6   -0.51    0.44
   1  -1  -6    0.29    0.46
   1  -1  -5  169.22    4.85
   1  -1  -5  166.56    5.08
   1  -1  -4    3.93    0.73
   1  -1  -4    4.74    0.97
   1  -1  -4    3.90    0.76
   1  -1  -4    3.48    0.65
   1  -1  -3  325.05    8.76
   1  -1  -3  348.70    6.53
   1  -1  -3  331.69    5.29
   1  -1  -3  328.36    5.56
   1  -1  -3  307.51    5.37
   1  -1  -2 1106.74    8.71
   1  -1  -2 1101.91    8.50
   1  -1  -2 1085.80    7.89
   1  -1  -2 1104.22    8.61
   1  -1  -2 1086.56   13.08
  -1   1   1  451.03    6.74
  -1   1   0  681.45    7.11
  -1   1  -1 1977.84   16.66
  -1   1  -2 7911.66   40.69
  -1   1  -2 8007.88   24.40
  -1   1  -3  206.31    4.56
  -1   1  -3  211.42    7.67
  -1   1  -4  182.94    3.71
  -1   1  -4  172.13    3.70
  -1   1  -4  173.22    4.81
  -1   1  -5   25.64    2.07
  -1   1  -6   70.68    3.81
  -1   1  -7   11.48    1.72
  -1   1  -7   12.48    1.66
  -1   1  -8   46.33    3.67
  -1   1  -9   -0.23    0.64
   1   0 -10    2.26    0.95
   1   0  -9    1.48    0.65
   1   0  -8  117.21    5.34
   1   0  -8  116.15    5.07
   1   0  -8  115.90    5.20
   1   0  -7    0.41    0.39
   1   0  -7    0.34    0.43
   1   0  -7    0.40    0.32
   1   0  -6   19.76    1.87
   1   0  -6   21.45    1.86
   1   0  -6   19.63    1.84
   1   0  -5  623.62    9.23
   1   0  -5  614.46    9.13
   1   0  -5  613.16    8.89
   1   0  -4    0.83    0.37
   1   0  -4    0.23    0.26
   1   0  -4    0.50    0.41
  -1   0   4    0.19    0.27
   1   0  -4    0.34    0.26
   1   0  -3  633.89   12.09
  -1   0   3  613.28    9.16
   1   0  -3  609.18    9.25
   1   0  -3  640.29    7.02
   1   0  -3  630.74    7.13
  -1   0   2 2444.42   19.59
   1   0  -2 2540.28   19.89
   1   0   1  400.19    7.78
   1   0   2   28.35    2.45
  -1   0  -2   27.03    1.52
  -1   0  -3  100.58    2.82
  -1   0  -3  101.19    3.39
   1   0   3  101.18    5.36
  -1   0  -4   22.79    1.83
  -1   0  -4   24.26    1.60
  -1   0  -5  119.07    3.95
  -1   0  -5  120.67    4.73
  -1   0  -6   34.07    2.48
  -1   0  -6   32.63    2.73
  -1   0  -7   60.78    4.03
  -1   0  -8   11.68    1.97
  -1   0  -9   15.08    2.29
   1   1 -11   18.34    2.58
   1   1 -10    0.08    0.44
   1   1 -10   -0.22    0.63
   1   1  -9    7.53    1.44
   1   1  -9   10.19    1.70
   1   1  -8   -0.42    0.42
   1   1  -8    0.51    0.53
   1   1  -7    6.00    1.04
   1   1  -7    5.63    1.06
   1   1  -7    6.32    1.06
   1   1  -6    4.72    0.87
   1   1  -6    5.16    0.93
   1   1  -6    6.54    0.95
   1   1  -5  778.94    9.30
   1   1  -5  774.28    9.36
   1   1  -5  778.18   10.15
  -1  -1   5  765.38   14.69
   1   1  -5  761.50    9.35
   1   1  -4    2.73    0.54
   1   1  -4    2.73    0.59
   1   1  -4    3.93    1.25
   1   1  -4    2.03    0.45
  -1  -1   4    1.83    0.72
   1   1  -4    1.61    0.46
   1   1  -3 1222.85    9.61
   1   1  -3 1218.76    9.50
  -1  -1   3 1211.87   14.47
   1   1  -2    4.03    0.84
  -1  -1   2    5.52    1.07
  -1  -1   1  485.08    7.36
   1   1   0    2.42    0.62
  -1  -1   0    2.69    0.62
   1   1   1  502.80    9.69
  -1  -1  -1  499.83    9.63
  -1  -1  -1  515.77    5.88
   1   1   2  588.21   11.92
  -1  -1  -2  606.07    7.81
  -1  -1  -3    0.08    0.24
   1   1   3    0.37    0.50
  -1  -1  -4    4.77    0.82
  -1  -1  -4    4.68    0.76
  -1  -1  -4    5.62    1.01
  -1  -1  -5   54.42    2.96
  -1  -1  -5   50.50    3.23
  -1  -1  -6   13.77    1.89
  -1  -1  -7  210.19    7.82
  -1  -1  -8    5.69    1.48
   1   2 -11    0.18    0.65
   1   2 -10   80.84    5.00
   1   2  -9   30.02    2.83
   1   2  -9   37.38    3.02
   1   2  -8    4.08    1.04
   1   2  -8    2.41    0.76
   1   2  -7   33.52    2.60
   1   2  -7   33.33    2.35
   1   2  -7   36.76    2.36
   1   2  -7   33.64    2.37
   1   2  -6   61.17    2.82
   1   2  -6   63.16    3.21
   1   2  -6   67.65    2.89
   1   2  -6   57.54    2.92
   1   2  -5  105.95    3.18
  -1  -2   5  101.90    5.56
   1   2  -5   95.95    3.09
   1   2  -5   94.52    3.39
   1   2  -5   96.28    3.58
   1   2  -4    9.63    0.88
  -1  -2   4    7.59    1.40
   1   2  -4    9.33    0.99
   1   2  -4    8.39    0.93
   1   2  -4   12.19    2.11
   1   2  -3   21.56    1.28
   1   2  -3   21.47    1.28
   1   2  -3   20.57    2.17
   1   2  -2  352.32    7.63
  -1  -2   2  325.20    7.19
  -1  -2   1    2.22    0.69
  -1  -2   0  422.03    5.50
  -1  -2   0  413.58    8.80
   1   2   0  404.51    8.72
  -1  -2  -1   33.17    2.76
   1   2   1   30.63    2.65
  -1  -2  -1   34.31    1.72
  -1  -2  -1   32.84    1.66
  -1  -2  -2  432.28    6.51
  -1  -2  -2  421.85   10.87
  -1  -2  -2  420.03    7.07
   1   2   2  421.11   10.91
  -1  -2  -3   37.36    2.39
  -1  -2  -3   40.63    2.15
  -1  -2  -4  231.75    6.63
  -1  -2  -4  225.54    6.10
  -1  -2  -5  225.18    7.16
  -1  -2  -5  211.47    6.36
  -1  -2  -6   53.21    3.80
  -1  -2  -7   17.96    2.37
  -1  -2  -8   17.13    2.48
   1   3 -11    0.52    0.51
   1   3 -10    6.20    1.42
   1   3  -9    1.51    0.75
   1   3  -8   17.27    1.87
   1   3  -8   17.22    2.03
   1   3  -7    5.57    0.93
   1   3  -7    5.53    1.12
   1   3  -7    5.19    1.04
   1   3  -6   13.03    1.23
   1   3  -6   15.02    1.29
   1   3  -6   13.70    1.45
   1   3  -6   12.51    1.43
   1   3  -5   58.45    2.13
   1   3  -5   53.65    2.47
   1   3  -5   55.86    2.31
   1   3  -5   59.05    2.79
  -1  -3   5   59.17    4.56
   1   3  -4   87.56    2.72
   1   3  -4   87.30    5.06
   1   3  -4   89.39    3.01
   1   3  -3  306.46    4.92
   1   3  -3  305.93    8.30
  -1  -3   2  432.92    8.35
  -1  -3   2  435.78    5.63
   1   3  -2  442.97    6.17
  -1  -3   1 2246.67   13.86
  -1  -3   1 2285.85   22.65
   1   3  -1 2254.30   12.54
  -1  -3   0  219.10    7.29
   1   3   0  218.46    7.27
  -1  -3   0  207.07    3.93
  -1  -3   0  222.50    4.72
   1   3   1  167.28    6.80
  -1  -3  -1  172.58    6.93
  -1  -3  -1  167.96    4.34
  -1  -3  -1  164.95    4.21
   1   3   2  101.72    5.71
  -1  -3  -2  100.44    3.75
  -1  -3  -2  103.30    5.80
  -1  -3  -2  108.00    3.69
  -1  -3  -3   96.17    3.71
  -1  -3  -3   82.75    3.80
  -1  -3  -4  108.32    4.82
  -1  -3  -4  111.05    4.65
  -1  -3  -5   46.06    3.23
  -1  -3  -5   45.86    3.40
  -1  -3  -6   36.08    3.09
  -1  -3  -6   36.25    3.24
  -1  -3  -7    9.84    1.90
   1   4 -11    2.17    1.03
   1   4 -10    2.41    0.94
   1   4  -9   55.57    3.85
   1   4  -9   54.37    3.63
   1   4  -8    2.11    0.69
   1   4  -8    2.51    0.79
   1   4  -7   37.46    2.63
   1   4  -6   29.93    2.05
   1   4  -6   30.86    1.87
   1   4  -5  128.06    3.62
   1   4  -5  135.28    2.99
   1   4  -5  129.97    6.88
   1   4  -5  118.60    3.90
  -1  -4   4   61.80    2.36
   1   4  -4   61.00    2.43
   1   4  -4   58.87    2.63
  -1  -4   3  313.39    5.15
  -1  -4   3  316.68    5.52
   1   4  -3  303.57    8.32
   1   4  -3  303.58    5.90
  -1  -4   2   13.17    1.48
  -1  -4   2   13.18    1.28
  -1  -4   1  100.94    3.45
   1   4  -1  105.98    3.10
  -1  -4   1   97.71    5.28
  -1  -4   0   83.29    2.86
  -1  -4   0   86.08    3.36
  -1  -4   0   80.24    4.90
   1   4   1    2.94    1.05
  -1  -4  -1    5.37    1.06
  -1  -4  -1    3.83    1.25
  -1  -4  -1    2.99    0.63
  -1  -4  -2    1.70    0.85
  -1  -4  -2    0.20    0.28
  -1  -4  -3  127.40    5.00
  -1  -4  -3  138.75    5.06
  -1  -4  -4    1.00    0.62
  -1  -4  -4   -0.24    0.36
  -1  -4  -5    4.07    1.12
  -1  -4  -5    5.68    1.34
  -1  -4  -6    2.63    0.91
  -1  -4  -6    3.76    1.17
   1   5 -11    3.65    1.10
   1   5 -10    6.23    1.36
   1   5 -10    5.81    1.41
   1   5  -9  144.50    6.01
   1   5  -9  143.20    6.22
   1   5  -8   55.91    3.54
   1   5  -7   26.00    2.10
   1   5  -6   13.49    1.29
   1   5  -6   12.87    1.44
   1   5  -5  252.20    9.68
  -1  -5   5  261.97    5.08
   1   5  -5  237.91    5.93
  -1  -5   5  255.23    6.06
   1   5  -5  241.10    5.27
  -1  -5   4   47.83    2.49
   1   5  -4   47.46    2.62
  -1  -5   4   44.04    2.30
   1   5  -4   50.49    3.87
  -1  -5   3  106.68    3.77
  -1  -5   3  107.81    3.22
  -1  -5   2    7.55    1.23
  -1  -5   2    7.35    0.78
   1   5  -2    7.00    0.85
  -1  -5   1    7.32    1.29
   1   5  -1    2.80    0.60
  -1  -5   0   99.01    4.12
  -1  -5  -1   79.02    3.52
  -1  -5  -1   76.79    3.74
  -1  -5  -2    0.79    0.63
  -1  -5  -2    1.72    0.67
  -1  -5  -3   15.70    1.98
  -1  -5  -3   17.64    1.99
  -1  -5  -4    7.79    1.54
  -1  -5  -4    7.50    1.44
  -1  -5  -5   -0.03    0.44
  -1  -5  -5    0.43    0.62
  -1  -5  -6    5.65    1.49
  -1  -5  -6    7.55    1.72
   1   6 -11    0.47    0.68
  -1  -6  11    0.59    0.71
   1   6 -11    1.14    0.83
   1   6 -10   46.26    3.85
   1   6 -10   47.96    3.75
   1   6  -9   27.76    2.79
  -1  -6   9   27.53    2.94
   1   6  -9   27.09    2.75
  -1  -6   8  176.34    6.67
   1   6  -7   38.40    2.70
  -1  -6   7   43.53    3.05
   1   6  -6  199.26    5.98
  -1  -6   6  198.20    5.98
  -1  -6   5   37.01    2.21
   1   6  -5   36.74    2.57
  -1  -6   5   37.14    2.38
  -1  -6   4   42.31    2.36
   1   6  -4   38.70    2.60
  -1  -6   4   41.86    2.60
  -1  -6   3    2.73    0.90
  -1  -6   3    4.10    0.70
   1   6  -2    5.09    0.79
  -1  -6   2    3.91    1.00
   1   6  -1  142.94    4.37
  -1  -6   1  130.66    5.09
  -1  -6   0   67.53    3.88
   1   6   0   67.63    3.27
  -1  -6  -1    2.15    0.98
  -1  -6  -2   17.77    2.22
  -1  -6  -3  121.48    5.88
  -1  -6  -3  129.22    5.71
  -1  -6  -4   -0.29    0.73
  -1  -6  -4    0.59    0.46
  -1  -6  -5   59.63    4.57
  -1  -6  -5   64.31    4.70
   1   7 -11   12.22    2.08
   1   7 -11   16.11    2.48
  -1  -7  11   14.60    2.45
  -1  -7  10   29.15    3.11
   1   7 -10   28.61    3.06
   1   7 -10   30.08    3.06
  -1  -7   9   19.80    2.43
  -1  -7   8    0.33    0.48
   1   7  -8    0.43    0.37
  -1  -7   7   10.66    1.56
   1   7  -7   13.21    1.66
   1   7  -6   75.37    3.99
  -1  -7   6   87.05    4.00
  -1  -7   5    1.76    0.77
  -1  -7   5    1.59    0.60
   1   7  -5    1.67    0.68
  -1  -7   4   78.87    3.89
  -1  -7   3  248.30    7.21
  -1  -7   2   11.57    1.91
  -1  -7   1    1.11    1.07
   1   7   0    9.86    1.36
  -1  -7   0   10.16    1.86
  -1  -7  -1   54.73    4.00
  -1  -7  -2   72.07    4.70
  -1  -7  -3    2.06    0.98
  -1  -7  -4    4.22    1.40
   1   8 -11   30.56    3.31
  -1  -8  11   33.37    3.55
   1   8 -11   31.38    3.43
  -1  -8  10    2.39    0.93
   1   8 -10    2.48    0.90
  -1  -8   9    3.07    1.11
  -1  -8   8   10.59    1.73
   1   8  -8   10.09    1.60
   1   8  -7  134.39    5.71
  -1  -8   7  140.70    5.68
  -1  -8   6    5.56    1.05
   1   8  -6    5.56    1.17
   1   8  -5  123.36    5.38
  -1  -8   5  126.99    5.02
  -1  -8   4   62.98    3.73
  -1  -8   3  100.75    4.99
  -1  -8   2    4.57    1.48
  -1  -8   1   47.83    3.81
  -1  -8   0   41.91    3.60
  -1  -8  -1   28.99    3.04
  -1  -8  -2   46.89    4.03
  -1  -8  -3    9.65    1.96
  -1  -9  11   41.92    4.03
   1   9 -11   39.97    3.87
   1   9 -11   44.71    4.10
  -1  -9  10   34.10    3.37
  -1  -9   9  126.25    6.14
   1   9  -8   40.56    3.37
  -1  -9   8   42.87    3.40
   1   9  -7  247.03    8.23
  -1  -9   7  256.57    7.81
   1   9  -6  133.31    6.04
   1   9  -5  151.15    6.41
  -1  -9   5  157.62    5.99
  -1  -9   4   -0.18    0.99
  -1  -9   3   18.80    2.40
  -1  -9   2  198.42    7.68
  -1  -9   1   11.75    2.08
  -1  -9   0   18.67    2.57
  -1  -9  -1   43.52    4.00
  -1  -9  -2    4.66    1.55
   1  10 -11    0.73    0.74
  -1 -10  10  328.38   10.63
   1  10  -9  146.38    6.84
  -1 -10   9  145.44    6.73
   1  10  -8   61.58    4.37
   1  10  -7  159.79    7.08
   1  10  -6   15.92    2.27
  -1 -10   5   56.37    3.88
   1  10  -5   57.68    4.26
  -1 -10   4   53.10    3.89
  -1 -10   3   13.44    2.22
  -1 -10   2   43.51    3.78
  -1 -10   1    3.53    1.36
  -1 -10   0    0.73    0.90
   1  11  -9   -0.20    0.73
   1  11  -8    3.19    1.16
   1  11  -7    5.51    1.45
   1  11  -6    3.03    1.22
  -1 -11   6    4.10    1.28
  -1 -11   5   29.63    3.01
   1  11  -5   28.69    3.22
  -1 -11   4   10.26    1.89
  -1 -11   3    4.43    1.45
  -1 -11   2   -1.12    1.16
  -1 -12   6   72.93    4.91
  -1 -12   5   52.86    4.23
   2 -12   4   -1.99    1.28
   2 -12   5   -1.32    1.29
   2 -12   6   29.13    3.26
   2 -11   1   40.45    3.80
   2 -11   2    3.20    0.95
   2 -11   3   27.64    3.07
   2 -11   4   10.31    1.88
   2 -11   4    5.80    1.52
   2 -11   5   -0.09    0.68
   2 -11   5    2.38    1.04
   2 -11   6    0.76    0.76
   2 -11   7  136.88    6.99
   2 -10  -2   11.38    2.11
   2 -10  -2   13.28    2.21
   2 -10  -1   15.78    2.27
   2 -10  -1   16.85    2.38
   2 -10   0   -0.16    0.85
   2 -10   1    1.69    0.97
   2 -10   2    1.25    0.64
   2 -10   3    3.39    0.81
   2 -10   3    4.15    1.03
   2 -10   4  143.14    6.31
   2 -10   4  145.09    6.62
   2 -10   5    0.01    0.75
   2 -10   5    3.14    0.99
   2 -10   6    1.44    0.74
   2 -10   7    7.82    1.69
   2 -10   8    7.48    1.69
   2  -9  -3    3.45    1.22
   2  -9  -3    2.85    1.31
   2  -9  -2    5.73    1.31
   2  -9  -2    5.56    1.50
   2  -9  -1    0.51    0.69
   2  -9  -1   -0.41    0.38
   2  -9   0    1.45    0.84
   2  -9   0    1.29    0.83
   2  -9   1   62.88    4.08
   2  -9   1   57.14    3.66
   2  -9   2   52.40    3.49
   2  -9   2   51.89    3.65
   2  -9   3    4.18    0.90
   2  -9   3    3.49    0.97
   2  -9   4    4.46    1.10
   2  -9   4    5.38    1.23
   2  -9   5   15.44    2.14
   2  -9   6   31.72    3.10
   2  -9   7   64.17    4.49
   2  -9   8   12.53    2.15
   2  -9   9    1.74    1.09
   2  -8  -4   28.74    3.19
   2  -8  -3   64.39    4.49
   2  -8  -3   68.61    4.40
   2  -8  -2    3.75    1.11
   2  -8  -2    1.98    0.79
   2  -8  -1   81.81    4.53
   2  -8  -1   73.54    4.26
   2  -8   0   71.18    4.15
   2  -8   0   79.81    4.11
   2  -8   0   71.77    3.96
   2  -8   1   11.96    1.60
   2  -8   1   10.33    1.53
   2  -8   2    3.93    1.01
   2  -8   2    5.13    1.11
   2  -8   3   13.68    1.76
   2  -8   3   14.58    1.85
   2  -8   4   27.28    2.75
   2  -8   4   36.47    2.97
   2  -8   5  121.92    5.55
   2  -8   6    4.07    1.18
   2  -8   7   51.88    3.95
   2  -8   8    6.11    1.35
   2  -8   9   37.61    3.66
   2  -7  -5   85.13    5.40
   2  -7  -4   49.07    3.93
   2  -7  -3   30.12    2.85
   2  -7  -3   33.18    2.86
   2  -7  -2   16.71    1.87
   2  -7  -2   17.29    2.01
   2  -7  -1    9.78    1.38
   2  -7  -1    8.98    1.41
   2  -7  -1   11.77    1.80
   2  -7   0   19.80    2.00
   2  -7   0   20.98    1.99
   2  -7   0   19.37    1.91
   2  -7   1   13.50    1.61
   2  -7   1   13.72    1.60
   2  -7   2   36.74    2.68
   2  -7   2   36.22    2.62
   2  -7   3    9.26    1.31
   2  -7   3    9.19    1.41
   2  -7   4   10.89    1.58
   2  -7   5   82.15    4.33
   2  -7   6   23.15    2.47
   2  -7   7  167.75    6.79
   2  -7   8  115.11    5.92
   2  -7   9   83.80    5.35
   2  -6  -6    1.82    0.87
   2  -6  -5    7.41    1.51
   2  -6  -4    0.30    0.46
   2  -6  -3    7.41    1.32
   2  -6  -3    9.50    1.38
   2  -6  -3   12.02    1.65
   2  -6  -2   20.22    2.05
   2  -6  -2   26.98    2.29
   2  -6  -2   23.24    2.08
   2  -6  -1   58.07    3.24
   2  -6  -1   61.56    3.23
   2  -6  -1   57.08    3.18
   2  -6   0   76.81    3.66
   2  -6   0   79.14    3.42
   2  -6   0   75.74    3.52
   2  -6   1   26.60    2.08
   2  -6   1   28.97    1.91
   2  -6   1   25.47    2.11
   2  -6   2   84.70    3.81
   2  -6   2   86.51    3.80
   2  -6   3   99.79    4.21
   2  -6   4  275.47    7.25
   2  -6   5  206.10    6.60
  -2   6  -6   77.14    3.95
   2  -6   6   77.80    4.26
  -2   6  -7   15.92    1.95
   2  -6   7   15.70    2.05
  -2   6  -8   67.42    4.20
   2  -6   8   65.62    4.44
   2  -6   9    3.90    1.31
   2  -6  10   22.58    2.94
   2  -5  -7    6.49    1.65
   2  -5  -6    1.67    0.87
   2  -5  -5   15.16    2.02
   2  -5  -4   46.08    3.31
   2  -5  -3    9.15    1.30
   2  -5  -3    8.33    1.35
   2  -5  -3    9.50    1.34
   2  -5  -2    6.99    1.11
   2  -5  -2    5.89    1.01
   2  -5  -2    7.19    1.09
   2  -5  -1  255.59    6.13
   2  -5  -1  255.91    6.20
   2  -5  -1  253.32    6.00
   2  -5   0    1.69    0.47
   2  -5   0    1.38    0.52
   2  -5   0    1.78    0.60
   2  -5   1   26.76    1.96
   2  -5   1   24.53    2.57
   2  -5   1   27.37    1.59
   2  -5   1   25.23    1.87
   2  -5   2  159.04    7.19
   2  -5   2  157.73    4.76
   2  -5   3  208.11    5.76
   2  -5   4   30.13    2.33
   2  -5   5    1.76    0.71
  -2   5  -6   11.52    1.53
   2  -5   6   12.86    1.67
   2  -5   7   33.97    2.93
  -2   5  -7   34.11    2.85
  -2   5  -8   55.27    3.82
   2  -5   8   49.09    3.82
  -2   5  -9    6.08    1.43
   2  -5   9    4.50    1.32
   2  -5  10   79.88    5.38
   2  -4  -8   58.08    4.50
   2  -4  -7  224.34    8.29
   2  -4  -6  103.96    5.28
   2  -4  -5   17.03    2.02
   2  -4  -4   18.00    1.88
   2  -4  -4   20.30    1.77
   2  -4  -3   23.34    1.82
   2  -4  -3   21.24    1.93
   2  -4  -3   23.10    1.88
   2  -4  -2    0.43    0.38
   2  -4  -2    0.11    0.30
   2  -4  -2    0.12    0.26
   2  -4  -1  422.73    6.97
   2  -4  -1  436.66    7.46
   2  -4  -1  428.10    7.35
   2  -4   0  249.83    6.63
   2  -4   0  236.37    5.23
   2  -4   0  236.30    4.54
   2  -4   0  241.39    5.64
   2  -4   1  281.14    8.22
   2  -4   1  272.28    5.71
  -2   4  -2   27.80    2.97
   2  -4   2   27.15    1.90
   2  -4   2   32.72    3.16
   2  -4   3   -0.18    0.33
   2  -4   4    2.77    0.75
  -2   4  -5   23.28    2.02
   2  -4   5   22.43    2.02
  -2   4  -6   44.08    3.02
   2  -4   6   41.61    2.98
  -2   4  -7  154.84    6.03
   2  -4   7  149.06    5.99
  -2   4  -8   37.85    3.24
   2  -4   8   36.85    3.23
   2  -4   9    8.11    1.68
  -2   4  -9    8.09    1.61
  -2   4 -10  273.96    9.99
   2  -3  -9    6.97    1.58
   2  -3  -8   32.30    3.20
   2  -3  -7    7.14    1.50
   2  -3  -6   47.17    3.35
   2  -3  -5    1.82    0.75
   2  -3  -4  424.35    8.48
   2  -3  -4  435.07    7.36
   2  -3  -3  146.12    4.58
   2  -3  -3  154.98    4.21
   2  -3  -3  148.00    4.48
  -2   3   2   63.37    3.42
   2  -3  -2   63.77    2.69
   2  -3  -2   62.22    2.73
   2  -3  -2   60.28    2.65
   2  -3  -1  278.23    5.38
   2  -3  -1  271.63    4.96
   2  -3  -1  265.51    5.53
   2  -3   0    8.46    1.17
  -2   3   0    6.75    1.06
   2  -3   0    7.36    0.89
  -2   3  -1    2.76    0.78
   2  -3   1    2.68    0.84
   2  -3   1    3.15    0.61
   2  -3   2  175.05    7.12
   2  -3   2  171.21    4.35
  -2   3  -2  165.19    6.85
   2  -3   3    5.90    0.89
  -2   3  -4  437.98    8.16
   2  -3   4  427.28    7.89
  -2   3  -5  106.31    4.41
   2  -3   5  103.84    4.26
  -2   3  -6  133.49    5.30
   2  -3   6  117.65    4.96
  -2   3  -7 1012.38   15.82
   2  -3   7 1023.34   15.52
  -2   3  -8   81.11    4.79
   2  -3   8   77.23    4.71
  -2   3  -9   91.28    5.53
   2  -2 -10   72.51    5.12
   2  -2  -9   34.01    3.34
   2  -2  -8   33.83    3.09
   2  -2  -8   33.31    3.09
   2  -2  -7   83.23    4.49
   2  -2  -7   83.34    4.53
   2  -2  -6   22.51    2.19
   2  -2  -5   68.17    3.49
   2  -2  -4   23.73    1.54
   2  -2  -4   21.18    1.77
   2  -2  -4   20.98    2.62
   2  -2  -3  474.79    7.46
  -2   2   3  479.74   10.97
   2  -2  -3  455.73   11.08
   2  -2  -3  469.76    7.46
  -2   2   2  160.92    5.63
   2  -2  -2  161.98    3.99
   2  -2  -2  158.93    3.85
   2  -2  -1   67.71    2.40
   2  -2  -1   68.55    2.15
  -2   2   1   66.02    2.23
  -2   2   0  193.47    5.35
   2  -2   0  189.39    3.87
  -2   2  -1    0.76    0.53
   2  -2   1    0.12    0.26
  -2   2  -2  475.32   11.68
   2  -2   2  470.54    6.67
  -2   2  -3  314.19    6.33
   2  -2   3  303.15    5.86
  -2   2  -3  308.30    5.12
  -2   2  -4  667.12   10.30
   2  -2   4  665.69    9.57
   2  -2   5    5.63    1.06
  -2   2  -5    4.35    0.97
  -2   2  -6  191.32    6.58
   2  -2   6  190.89    6.20
  -2   2  -7    7.30    1.42
  -2   2  -8   48.01    3.88
  -2   2  -9    7.39    1.59
   2  -1 -10  126.54    6.57
   2  -1  -9   30.50    3.00
   2  -1  -9   30.71    2.99
   2  -1  -8   -0.23    0.43
   2  -1  -8   -0.47    0.43
   2  -1  -8    0.29    0.54
   2  -1  -7    0.10    0.34
   2  -1  -7    0.97    0.61
   2  -1  -7    0.65    0.61
   2  -1  -6   42.11    2.76
   2  -1  -6   46.41    2.95
   2  -1  -6   47.53    2.88
   2  -1  -5   20.30    1.78
   2  -1  -5   21.15    1.77
   2  -1  -4   98.90    3.53
   2  -1  -4  101.03    5.73
   2  -1  -3   54.81    2.34
  -2   1   3   53.80    3.67
  -2   1   3   52.72    1.86
   2  -1  -3   54.69    3.74
   2  -1  -3   52.43    2.27
  -2   1   2    1.29    0.30
   2  -1  -2    1.33    0.39
   2  -1  -1    1.10    0.40
  -2   1   1    0.30    0.18
   2  -1   0   29.56    2.19
   2  -1   1   63.17    3.76
  -2   1  -2  109.30    3.41
   2  -1   2  104.31    2.91
  -2   1  -2  111.03    2.99
  -2   1  -3   28.92    1.61
  -2   1  -3   25.56    1.87
   2  -1   3   26.67    1.67
   2  -1   4    8.62    1.08
  -2   1  -4    6.77    1.03
   2  -1   5    0.00    0.32
  -2   1  -5    0.34    0.39
  -2   1  -6    4.70    1.09
  -2   1  -7    0.09    0.50
  -2   1  -8   20.09    2.60
  -2   1  -9   -0.22    0.71
   2   0 -11   -0.99    0.98
   2   0 -10    9.62    1.74
   2   0 -10    6.69    1.53
   2   0  -9   35.61    3.08
   2   0  -9   32.55    2.96
   2   0  -9   30.95    2.87
   2   0  -8    4.04    1.00
   2   0  -8    4.11    0.97
   2   0  -8    4.77    1.08
   2   0  -7   28.62    2.32
   2   0  -7   25.47    2.22
   2   0  -7   24.47    2.21
   2   0  -6  191.96    5.59
   2   0  -6  195.26    5.72
   2   0  -6  180.43    5.23
  -2   0   5   80.98    4.14
   2   0  -5   82.92    3.35
   2   0  -5   78.64    3.31
  -2   0   4   57.87    4.33
   2   0  -4   55.58    2.54
   2   0  -4   55.54    2.48
   2   0  -4   58.45    4.33
  -2   0   4   56.54    2.96
  -2   0   3  321.62    9.06
   2   0  -3  321.07    5.34
  -2   0   2   71.77    2.84
   2   0  -2   74.98    2.25
   2   0  -1  834.46   10.86
  -2   0   1  828.79   10.84
  -2   0   0  221.22    6.47
  -2   0   0  221.77    3.89
   2   0   0  230.05    6.62
  -2   0  -1  162.99    3.75
   2   0   1  163.63    6.30
  -2   0  -1  163.27    3.58
   2   0   2  152.01    6.91
   2   0   2  148.27    3.26
  -2   0  -2  147.17    3.61
  -2   0  -2  145.94    4.07
  -2   0  -3  635.83    9.56
   2   0   3  660.24    8.19
  -2   0  -4    5.09    1.00
  -2   0  -5    5.86    1.16
  -2   0  -6   17.11    2.11
  -2   0  -7    7.11    1.49
  -2   0  -8   14.58    2.35
   2   1 -11    6.40    1.53
   2   1 -10    3.39    1.10
   2   1  -9    1.03    0.47
   2   1  -9    0.96    0.67
   2   1  -9    1.65    0.75
   2   1  -8  353.14    9.00
   2   1  -8  357.09    8.35
   2   1  -8  372.90    8.80
   2   1  -7    1.07    0.52
   2   1  -7    0.49    0.48
   2   1  -7    1.00    0.59
   2   1  -6  337.92    7.44
   2   1  -6  368.19    6.80
  -2  -1   6  346.81   10.23
   2   1  -6  353.96    7.27
  -2  -1   5   48.86    3.45
   2   1  -5   52.92    2.26
   2   1  -5   48.55    2.56
   2   1  -5   47.86    2.46
  -2  -1   4   97.44    5.54
   2   1  -4   89.59    5.36
   2   1  -4   90.34    3.13
   2   1  -4   93.70    3.07
  -2  -1   3   34.70    2.99
   2   1  -3   33.16    1.66
   2   1  -3   34.75    1.70
   2   1  -2 1354.55    9.61
  -2  -1   2 1339.24   15.05
   2   1  -2 1344.26    9.79
   2   1  -1   20.39    1.17
  -2  -1   1   21.20    2.04
   2   1  -1   20.56    1.99
  -2  -1   1   21.48    1.23
   2   1   0  127.79    3.18
  -2  -1   0  130.03    5.50
   2   1   0  118.90    5.27
  -2  -1   0  123.61    2.89
  -2  -1   0  126.98    3.17
  -2  -1  -1  610.41    7.55
  -2  -1  -1  594.18    7.32
  -2  -1  -1  595.05   12.99
   2   1   1  602.71   13.04
  -2  -1  -2    2.92    0.59
  -2  -1  -2    3.07    0.67
  -2  -1  -3   80.37    3.05
  -2  -1  -3   80.89    3.59
  -2  -1  -4   40.88    2.85
  -2  -1  -4   39.22    2.40
  -2  -1  -5  141.12    5.75
  -2  -1  -6   25.94    2.72
  -2  -1  -7   70.95    4.80
  -2  -1  -8    0.28    0.93
   2   2 -11   71.03    4.91
   2   2 -10   37.01    3.37
   2   2  -9    1.47    0.62
   2   2  -8   33.52    2.77
   2   2  -8   29.94    2.38
   2   2  -7   11.04    1.46
   2   2  -7   11.32    1.24
   2   2  -7   11.78    1.40
  -2  -2   6  397.48   11.53
   2   2  -6  394.17    7.75
   2   2  -6  391.89    6.28
   2   2  -6  399.74    7.39
   2   2  -6  402.36    7.97
   2   2  -5  124.61    3.80
   2   2  -5  121.81    3.96
   2   2  -5  129.92    4.10
  -2  -2   4   81.40    4.99
   2   2  -4   81.73    5.13
   2   2  -4   80.69    2.89
   2   2  -4   80.77    2.84
   2   2  -4   83.84    2.94
   2   2  -4   83.46    3.04
   2   2  -3    0.23    0.18
   2   2  -3    0.54    0.29
  -2  -2   3    0.13    0.58
   2   2  -3    0.59    0.32
   2   2  -3    0.54    0.27
  -2  -2   2    1.30    0.66
  -2  -2   2    1.67    0.36
   2   2  -2    2.24    0.46
   2   2  -2    1.34    0.39
   2   2  -1    0.31    0.22
   2   2  -1    0.88    0.31
  -2  -2   1    0.41    0.28
   2   2  -1    0.07    0.52
  -2  -2   1    0.63    0.33
   2   2   0 1204.55   18.39
  -2  -2   0 1210.35    9.65
  -2  -2   0 1213.16   18.43
   2   2   0 1179.71   10.97
   2   2   0 1197.52    9.14
  -2  -2   0 1203.28   10.79
   2   2   1   28.93    3.09
  -2  -2  -1   30.85    1.85
  -2  -2  -1   30.27    3.14
  -2  -2  -1   29.84    1.85
  -2  -2  -2   50.90    2.56
  -2  -2  -2   50.08    2.69
  -2  -2  -3    3.41    0.64
  -2  -2  -3    3.98    0.89
  -2  -2  -4    1.22    0.60
  -2  -2  -4    0.14    0.35
  -2  -2  -5    6.73    1.41
  -2  -2  -6   61.50    4.30
  -2  -2  -7    7.01    1.56
   2   3 -11   74.61    5.06
   2   3 -10    7.10    1.45
   2   3  -9   56.23    3.83
   2   3  -8   17.07    1.76
   2   3  -8   16.33    1.92
   2   3  -8   16.80    1.86
   2   3  -7    2.39    0.70
   2   3  -7    2.43    0.68
   2   3  -7    1.39    0.51
   2   3  -6    2.25    0.51
   2   3  -6    2.91    0.74
   2   3  -6    2.56    0.66
   2   3  -5  105.69    3.70
   2   3  -5  107.68    3.55
   2   3  -5  107.56    3.68
   2   3  -5  108.65    3.85
  -2  -3   4  414.03   11.33
   2   3  -4  419.89   11.92
  -2  -3   4  403.78    5.41
   2   3  -4  434.56    6.49
   2   3  -4  419.03    7.06
   2   3  -4  420.51    6.74
   2   3  -4  420.55    7.00
  -2  -3   3 1099.74    9.67
   2   3  -3 1152.53   11.12
  -2  -3   3 1091.09   17.22
   2   3  -3 1148.65    8.99
   2   3  -3 1154.64   10.32
   2   3  -3 1164.16   10.96
  -2  -3   2 1930.00   13.73
  -2  -3   2 1895.19   23.25
   2   3  -2 1915.78   13.89
  -2  -3   1  184.13    7.45
   2   3  -1  188.87    7.50
   2   3  -1  186.37    4.24
  -2  -3   1  193.04    4.63
   2   3  -1  187.82    4.44
  -2  -3   0   48.42    4.03
   2   3   0   47.82    3.98
  -2  -3   0   45.89    2.40
   2   3   0   44.54    2.32
  -2  -3   0   48.30    2.15
  -2  -3  -1    9.01    1.09
  -2  -3  -1    9.45    1.12
  -2  -3  -2   70.94    3.40
  -2  -3  -2   72.71    3.30
  -2  -3  -3    2.62    0.66
  -2  -3  -3    2.78    0.81
  -2  -3  -4    0.18    0.49
  -2  -3  -4    0.45    0.43
  -2  -3  -5    3.38    0.90
  -2  -3  -6   52.74    4.15
   2   4 -11   -0.02    0.49
   2   4 -10   16.24    2.11
   2   4 -10   15.12    2.18
   2   4  -9   34.77    3.05
   2   4  -9   42.35    3.25
   2   4  -8   12.87    1.49
   2   4  -8   11.62    1.65
   2   4  -8   12.18    1.67
   2   4  -7  529.94    8.95
   2   4  -7  509.56    9.78
   2   4  -7  511.07    9.96
   2   4  -7  525.16    9.39
   2   4  -6  465.48    8.59
   2   4  -6  485.73    8.19
   2   4  -6  477.34    8.65
   2   4  -6  455.13    8.78
   2   4  -5  847.44   10.41
   2   4  -5  845.79   11.10
   2   4  -5  853.55   10.35
  -2  -4   5  862.13    8.46
   2   4  -5  857.56   11.15
   2   4  -4   60.75    2.74
  -2  -4   4   60.51    2.42
   2   4  -4   60.36    2.86
   2   4  -4   59.17    2.39
  -2  -4   4   60.65    4.39
  -2  -4   3 1075.72   10.90
   2   4  -3 1064.28    8.45
  -2  -4   3 1068.65    8.75
   2   4  -2  187.92    4.85
  -2  -4   2  181.72    4.70
   2   4  -1    1.98    0.51
  -2  -4   1    2.15    0.54
  -2  -4   1    1.66    0.40
  -2  -4   0   24.60    1.68
  -2  -4   0   23.39    1.87
   2   4   0   22.91    1.82
  -2  -4  -1   62.53    3.20
  -2  -4  -1   59.15    3.00
  -2  -4  -2   11.29    1.51
  -2  -4  -2    9.60    1.34
  -2  -4  -3   51.68    3.41
  -2  -4  -3   57.64    3.42
  -2  -4  -4    0.50    0.71
  -2  -4  -4    1.06    0.55
  -2  -4  -5    4.65    1.31
  -2  -4  -5    4.25    1.14
  -2  -4  -6   -0.78    0.71
   2   5 -11    3.91    1.16
   2   5 -11    4.09    1.32
   2   5 -10   15.81    2.18
   2   5 -10   18.18    2.27
   2   5  -9   32.31    2.89
   2   5  -9   30.07    2.80
   2   5  -8  299.78    7.67
   2   5  -8  315.56    8.44
   2   5  -8  307.74    8.38
   2   5  -7   12.06    1.51
   2   5  -7   14.48    1.51
   2   5  -7   11.23    1.55
   2   5  -7   12.78    1.58
   2   5  -6   84.26    3.87
   2   5  -6   86.93    3.61
   2   5  -6   80.95    3.84
   2   5  -6   86.89    3.68
   2   5  -5   35.48    2.42
   2   5  -5   36.69    2.30
  -2  -5   5   39.80    2.16
   2   5  -5   36.95    2.14
   2   5  -4    6.66    1.05
  -2  -5   4    9.89    1.19
  -2  -5   4    8.14    0.96
  -2  -5   4    8.41    1.74
   2   5  -4    7.98    0.87
  -2  -5   3    1.20    0.57
  -2  -5   3    1.02    0.53
   2   5  -3    0.42    0.38
   2   5  -2    1.44    0.46
  -2  -5   2    2.20    0.63
   2   5  -1   18.21    1.65
  -2  -5   1   18.89    1.80
   2   5   0   15.46    1.64
  -2  -5   0   16.26    1.78
  -2  -5   0   16.44    1.50
  -2  -5  -1   56.67    3.39
   2   5   1   50.83    3.13
  -2  -5  -1   55.69    3.06
  -2  -5  -2    1.82    1.05
  -2  -5  -2   -0.12    0.34
  -2  -5  -3    6.92    1.34
  -2  -5  -4    2.91    1.02
  -2  -5  -4    4.93    1.34
  -2  -5  -5    0.71    0.78
  -2  -5  -5   -0.62    0.71
   2   6 -12   27.90    3.13
   2   6 -11   30.15    3.23
   2   6 -11   26.56    2.97
   2   6 -10    6.64    1.39
   2   6 -10    4.81    1.27
   2   6  -9    3.51    0.98
   2   6  -9    3.80    1.08
   2   6  -9    3.77    1.07
   2   6  -8  107.45    4.85
   2   6  -8  101.76    4.79
   2   6  -8  107.20    5.13
   2   6  -7   13.34    1.53
   2   6  -7   13.15    1.68
   2   6  -7   12.02    1.51
  -2  -6   6    7.30    1.12
   2   6  -6    8.14    1.32
   2   6  -6    7.91    1.16
   2   6  -6    8.93    1.21
   2   6  -5   69.72    3.62
  -2  -6   5   76.89    3.26
  -2  -6   4   32.39    2.35
   2   6  -4   27.22    2.27
  -2  -6   3   63.84    3.36
   2   6  -3   61.75    3.38
   2   6  -2  750.83   10.66
  -2  -6   2  764.62   11.99
  -2  -6   1    2.15    1.19
   2   6  -1    0.12    0.38
  -2  -6   0   72.43    4.07
   2   6   0   59.11    3.43
  -2  -6  -1   17.66    2.23
   2   6   1   13.09    1.69
  -2  -6  -2  382.60   10.15
  -2  -6  -2  391.93    9.50
  -2  -6  -3   19.17    2.30
  -2  -6  -4    4.01    1.32
  -2  -6  -4    4.20    1.24
   2   7 -12    6.29    1.62
  -2  -7  11   87.84    5.67
   2   7 -11   86.68    5.45
   2   7 -11   81.73    5.32
  -2  -7  10   19.41    2.53
   2   7 -10   19.69    2.50
   2   7 -10   25.41    2.83
   2   7  -9   33.19    2.87
  -2  -7   9   31.36    2.96
   2   7  -9   29.80    2.83
   2   7  -9   32.40    3.02
  -2  -7   8    0.14    0.48
   2   7  -8    2.12    0.72
   2   7  -8    1.50    0.72
   2   7  -8    1.71    0.80
  -2  -7   7    1.66    0.67
   2   7  -7    4.00    1.04
   2   7  -7    2.80    0.68
   2   7  -6   32.12    2.66
   2   7  -5  224.15    7.03
  -2  -7   5  232.45    6.75
   2   7  -4  260.07    7.49
  -2  -7   4  254.82    7.22
  -2  -7   3  339.80    8.54
  -2  -7   2  134.52    5.63
   2   7  -2  115.34    4.49
   2   7  -1 1001.30   13.90
  -2  -7   1  961.53   15.50
  -2  -7   0  362.04   10.00
   2   7   0  367.50    8.99
   2   7   1    5.88    1.24
  -2  -7  -1    4.73    1.38
  -2  -7  -2    6.89    1.78
   2   7   2    5.94    1.39
   2   7   3   19.33    2.56
  -2  -8  11   21.82    2.88
   2   8 -11   26.86    3.05
   2   8 -11   24.14    2.96
  -2  -8  10   23.23    2.80
   2   8 -10   26.17    2.85
   2   8 -10   32.20    3.29
  -2  -8   9   51.37    3.80
   2   8  -9   52.15    3.81
   2   8  -9   52.22    3.74
   2   8  -9   52.62    3.97
   2   8  -8   32.20    2.94
  -2  -8   8   36.00    2.95
   2   8  -7   42.17    3.31
   2   8  -6   44.55    3.38
  -2  -8   5  462.78   10.56
   2   8  -5  509.36   11.29
   2   8  -4  966.50   15.42
  -2  -8   4  917.38   15.29
  -2  -8   3  347.14    9.62
  -2  -8   2   32.24    3.19
  -2  -8   1   -1.02    1.22
  -2  -8   0   10.50    2.04
   2   8   1    3.73    1.14
  -2  -8  -1    5.11    1.64
   2   8   2    1.31    0.73
  -2  -8  -2    0.97    1.04
  -2  -9  11   -0.06    0.75
   2   9 -11    0.76    0.86
   2   9 -11    0.36    0.57
   2   9 -10    0.56    0.81
   2   9 -10    0.72    0.45
  -2  -9  10    0.57    0.56
   2   9  -9   11.48    1.95
   2   9  -8  325.55    9.84
   2   9  -7  401.50   10.78
  -2  -9   6   15.65    2.01
   2   9  -6   14.02    2.06
  -2  -9   5   66.07    4.35
   2   9  -5   70.54    4.49
  -2  -9   4    0.16    0.82
   2   9  -4    0.92    0.63
  -2  -9   3   12.27    2.22
  -2  -9   2   11.38    2.38
  -2  -9   1    1.41    1.43
  -2  -9   0    7.02    2.01
  -2  -9  -1    4.54    1.55
  -2 -10  11   79.61    5.38
   2  10 -10   74.82    5.14
   2  10 -10   74.77    5.25
   2  10  -9    4.35    1.26
   2  10  -8    1.35    0.92
   2  10  -7    1.98    0.67
  -2 -10   6    5.68    1.32
   2  10  -6    5.41    1.40
  -2 -10   5    1.54    1.18
   2  10  -5    1.72    0.84
  -2 -10   4   19.04    2.73
   2  10  -4   19.52    2.55
  -2 -10   3    0.01    1.13
  -2 -10   2   15.49    2.44
  -2 -10   1   15.42    2.69
   2  11  -9    4.31    1.24
   2  11  -8    0.08    0.47
   2  11  -7    2.25    1.20
  -2 -11   6   91.60    5.35
   2  11  -6   94.51    5.90
  -2 -11   5    1.56    0.96
   2  11  -5    0.54    0.67
  -2 -11   4   49.13    4.23
   2  11  -4   48.97    4.26
   3 -12   4   14.30    2.29
   3 -11   1    3.58    1.10
   3 -11   2   -2.00    1.50
   3 -11   2    0.81    0.85
   3 -11   3    3.28    1.66
   3 -11   3   21.84    2.65
   3 -11   4   44.22    3.85
   3 -11   5   19.49    2.69
   3 -11   6   16.52    2.43
   3 -10  -2    0.33    0.59
   3 -10  -2    0.95    0.66
   3 -10  -1   29.20    3.26
   3 -10   0  107.92    6.21
   3 -10   1    5.09    1.42
   3 -10   1    3.74    1.17
   3 -10   2   58.61    4.72
   3 -10   2   73.40    4.63
   3 -10   3    7.07    1.54
   3 -10   4   97.20    5.50
   3 -10   5    4.14    1.20
   3 -10   6    2.80    1.02
   3 -10   7   24.77    3.06
   3  -9  -3  142.19    7.06
   3  -9  -3  145.95    7.10
   3  -9  -2    2.87    0.90
   3  -9  -2   -1.44    1.09
   3  -9  -1   23.25    2.58
   3  -9  -1   19.35    2.44
   3  -9   0   31.14    3.17
   3  -9   0   31.29    2.89
   3  -9   1   52.91    4.08
   3  -9   1   57.94    3.90
   3  -9   2    0.06    0.83
   3  -9   2    5.06    1.20
   3  -9   3    0.48    0.59
   3  -9   4   51.80    3.87
   3  -9   5   30.14    3.04
   3  -9   6    3.11    1.18
   3  -9   7    3.67    1.12
   3  -9   8   65.39    4.93
   3  -8  -4   10.97    1.96
   3  -8  -3   75.19    4.80
   3  -8  -3   76.18    4.82
   3  -8  -2    3.39    1.08
   3  -8  -2    3.59    1.08
   3  -8  -2    4.69    1.20
   3  -8  -1    9.18    1.47
   3  -8  -1    8.96    1.65
   3  -8  -1    9.46    1.56
   3  -8   0   79.78    4.39
   3  -8   0   73.50    4.53
   3  -8   1   -0.66    1.02
   3  -8   1    2.64    0.91
   3  -8   2   30.41    2.74
   3  -8   3   66.17    4.04
   3  -8   4   94.48    4.91
   3  -8   5   21.30    2.53
   3  -8   6   99.73    5.44
   3  -8   7   44.10    3.79
   3  -8   8    1.29    1.04
   3  -7  -5   10.04    1.81
   3  -7  -4   15.39    2.17
   3  -7  -3    8.59    1.50
   3  -7  -3    7.98    1.49
   3  -7  -3    9.72    1.56
   3  -7  -2   60.82    3.93
   3  -7  -2   57.42    3.62
   3  -7  -2   59.39    3.71
   3  -7  -1   32.54    2.84
   3  -7  -1   33.61    2.75
   3  -7  -1   36.42    2.69
   3  -7   0  121.18    5.50
   3  -7   0  116.15    4.98
   3  -7   1  151.09    6.96
   3  -7   1  243.20    7.10
   3  -7   2    8.75    1.39
   3  -7   3   12.30    1.73
   3  -7   4   41.99    3.18
   3  -7   5   26.55    2.66
   3  -7   6   30.66    2.94
  -3   7  -7    1.73    0.69
   3  -7   7    2.31    1.04
   3  -7   8    8.66    1.77
   3  -7   9    1.09    0.85
   3  -6  -6    1.33    0.84
   3  -6  -5    4.96    1.28
   3  -6  -4   15.39    1.93
   3  -6  -4   12.82    1.77
   3  -6  -4   16.74    2.11
   3  -6  -3  189.72    6.67
   3  -6  -3  186.84    6.40
   3  -6  -3  185.64    6.51
   3  -6  -2  491.36   10.48
   3  -6  -2  469.04    9.85
   3  -6  -2  475.89    9.65
   3  -6  -1   49.33    3.33
   3  -6  -1   56.29    3.33
   3  -6  -1   55.11    3.07
   3  -6   0   52.91    3.86
   3  -6   0   62.98    3.40
   3  -6   1   14.96    1.70
   3  -6   2   17.46    1.83
   3  -6   3  245.25    7.00
   3  -6   4   37.51    2.86
   3  -6   5   15.06    1.93
  -3   6  -6   57.44    3.74
   3  -6   6   61.74    4.03
   3  -6   7   29.68    2.96
  -3   6  -7   33.59    3.05
  -3   6  -8   10.62    1.85
   3  -6   8   10.61    1.85
  -3   6  -9   45.20    3.96
   3  -6   9   48.11    4.12
   3  -5  -7    4.08    1.32
   3  -5  -6   83.86    5.00
   3  -5  -5  732.26   13.82
   3  -5  -4  303.12    7.99
   3  -5  -4  292.26    8.11
   3  -5  -4  285.68    7.86
   3  -5  -3  310.04    7.72
   3  -5  -3  288.51    7.83
   3  -5  -3  304.80    7.71
   3  -5  -2   44.65    3.03
   3  -5  -2   48.23    3.02
   3  -5  -2   45.92    2.77
   3  -5  -1  223.01    5.48
   3  -5  -1  225.58    6.17
   3  -5   0    0.26    0.19
   3  -5   0    0.08    0.39
   3  -5   1  333.70    7.35
   3  -5   2    7.02    1.15
   3  -5   3   28.85    2.31
   3  -5   4    0.41    0.48
   3  -5   5    0.75    0.40
  -3   5  -6   76.26    4.36
   3  -5   6   83.82    4.53
  -3   5  -7    0.21    0.50
   3  -5   7    1.16    0.84
  -3   5  -8   -0.74    0.83
   3  -5   8   -0.04    0.60
  -3   5  -9   36.88    3.63
   3  -5   9   33.43    3.40
   3  -4  -8  406.43   11.87
   3  -4  -7   12.01    1.95
   3  -4  -6  673.45   13.35
   3  -4  -5   89.85    4.56
   3  -4  -4  110.22    4.66
   3  -4  -4  120.14    4.87
   3  -4  -4  120.73    4.82
   3  -4  -3    6.12    1.00
   3  -4  -3    6.16    1.05
   3  -4  -2    0.14    0.35
   3  -4  -2    0.50    0.48
   3  -4  -1    5.20    0.78
   3  -4  -1    3.37    0.80
  -3   4   0    5.87    1.15
   3  -4   0    5.38    0.67
   3  -4   0    6.37    0.97
  -3   4  -1   23.11    2.59
   3  -4   1   23.62    1.85
   3  -4   2  417.01    7.93
   3  -4   3   17.08    1.70
   3  -4   4    3.02    0.84
  -3   4  -5    0.21    0.35
   3  -4   5    0.44    0.55
  -3   4  -6    0.16    0.51
   3  -4   6   -0.48    0.72
  -3   4  -7   10.06    1.66
   3  -4   7   12.77    1.95
  -3   4  -8   12.91    2.01
  -3   4  -9  100.05    5.98
   3  -3  -9  127.41    6.72
   3  -3  -8  257.72    8.98
   3  -3  -7   87.22    4.88
   3  -3  -6    0.15    0.48
   3  -3  -5    4.24    0.98
   3  -3  -4   85.25    3.85
   3  -3  -4   87.38    3.86
  -3   3   3    5.29    1.25
   3  -3  -3    4.61    0.86
   3  -3  -3    3.63    0.84
   3  -3  -2  177.58    4.57
   3  -3  -2  177.58    4.94
   3  -3  -1 1364.02   14.02
   3  -3  -1 1353.30   11.22
  -3   3   1 1385.69   14.14
  -3   3   0    0.90    0.48
   3  -3   0    1.39    0.48
   3  -3   0    1.82    0.36
  -3   3  -1    0.07    0.30
   3  -3   1   -0.04    0.29
   3  -3   2    9.80    1.20
   3  -3   3  282.97    6.46
   3  -3   4   10.83    1.36
  -3   3  -4   10.07    1.38
  -3   3  -5    6.69    1.24
   3  -3   5    6.32    1.13
  -3   3  -6    1.54    0.79
   3  -3   6    2.01    0.81
  -3   3  -7    3.85    1.10
  -3   3  -8    0.53    0.49
   3  -2 -10    9.69    1.95
   3  -2  -9    2.72    0.99
   3  -2  -8   47.61    3.69
   3  -2  -7   70.94    4.23
   3  -2  -6    8.69    1.35
   3  -2  -5   19.42    1.87
   3  -2  -4  278.56    6.49
   3  -2  -4  274.91    6.48
  -3   2   3    4.24    1.14
   3  -2  -3    4.89    0.83
   3  -2  -3    5.02    0.82
   3  -2  -2  184.97    4.30
   3  -2  -2  187.01    4.26
   3  -2  -2  180.63    4.60
   3  -2  -1  497.11    9.03
   3  -2  -1  486.48    7.20
   3  -2   0  205.34    4.54
   3  -2   0  199.32    6.79
   3  -2   1   90.79    2.53
   3  -2   1   83.31    2.95
   3  -2   1   79.67    4.87
   3  -2   2   29.61    1.60
   3  -2   2   27.50    1.79
  -3   2  -3   12.62    1.26
  -3   2  -3   11.00    1.35
   3  -2   3    9.72    1.16
  -3   2  -4    3.25    0.85
   3  -2   4    1.91    0.56
  -3   2  -5  160.39    5.98
  -3   2  -6    0.64    0.40
  -3   2  -7   38.32    3.42
  -3   2  -8   47.21    4.08
   3  -1 -10    0.18    0.48
   3  -1  -9    2.42    0.99
   3  -1  -8   44.20    3.39
   3  -1  -7  184.59    6.41
   3  -1  -6  313.13    7.74
   3  -1  -5  130.31    4.59
  -3   1   4  180.76    8.06
   3  -1  -4  189.13    5.06
  -3   1   3 1107.23   18.75
   3  -1  -3 1106.21   11.21
  -3   1   3 1094.99   10.78
   3  -1  -3 1092.44   11.11
   3  -1  -2  543.07    8.92
   3  -1  -2  543.65    7.27
  -3   1   2  549.87    8.89
   3  -1  -2  549.96    7.00
  -3   1   1   -0.22    0.41
   3  -1  -1    0.24    0.32
   3  -1  -1    0.36    0.23
   3  -1  -1    0.54    0.30
   3  -1   0   95.06    4.92
   3  -1   0   91.09    2.71
   3  -1   1   64.63    4.53
   3  -1   1   65.72    2.40
   3  -1   1   63.62    2.35
  -3   1  -1   64.21    2.66
   3  -1   2  179.92    4.41
  -3   1  -2  168.32    4.48
  -3   1  -2  173.07    4.94
   3  -1   2  175.61    4.20
  -3   1  -3   24.60    1.79
  -3   1  -3   24.30    2.05
   3  -1   3   24.97    1.73
  -3   1  -4    4.96    1.02
  -3   1  -5   28.02    2.58
  -3   1  -6    4.69    1.19
  -3   1  -7   25.91    2.89
  -3   1  -8   55.98    4.56
   3   0 -10    5.41    1.38
   3   0  -9   31.07    2.92
   3   0  -9   27.73    2.76
   3   0  -8  223.06    7.29
   3   0  -8  228.19    7.34
   3   0  -7    1.64    0.61
   3   0  -6  435.54    8.72
   3   0  -5  360.98    7.34
  -3   0   4  217.20    8.87
   3   0  -4  214.33    5.15
  -3   0   3  338.60    7.58
   3   0  -3  336.47    5.89
   3   0  -3  332.31    5.68
   3   0  -2  424.70    5.72
  -3   0   2  417.37    9.04
   3   0  -2  432.19    9.17
  -3   0   2  418.82    6.05
   3   0  -2  422.97    6.06
  -3   0   1   35.42    2.90
   3   0  -1   36.68    1.70
   3   0  -1   34.87    2.89
  -3   0   1   34.70    1.87
   3   0   0    2.50    0.50
  -3   0   0    2.37    0.90
  -3   0   0    2.62    0.58
   3   0   0    1.61    0.83
   3   0   0    2.17    0.42
   3   0   1    0.18    0.24
  -3   0  -1    0.74    0.38
   3   0   1    0.34    0.18
  -3   0  -2  381.59    7.50
  -3   0  -2  388.35    6.97
  -3   0  -3   37.69    2.58
  -3   0  -3   39.05    2.31
  -3   0  -4    4.42    1.05
  -3   0  -5  284.37    8.43
  -3   0  -6    6.37    1.40
  -3   0  -7    8.33    1.70
   3   1 -11   19.55    2.59
   3   1 -10   12.69    1.93
   3   1 -10   14.19    2.11
   3   1  -9   12.43    1.78
   3   1  -9   11.55    1.79
   3   1  -8   32.30    2.77
   3   1  -8   35.53    2.81
   3   1  -7  173.67    5.88
   3   1  -7  182.93    5.85
   3   1  -6  225.26    6.18
   3   1  -6  222.76    5.97
   3   1  -5   21.72    1.74
  -3  -1   4  152.69    7.53
  -3  -1   4  162.62    3.54
   3   1  -4  154.87    4.30
  -3  -1   3  408.34    9.64
  -3  -1   3  415.57    5.98
   3   1  -3  421.93    6.64
   3   1  -2  204.37    7.14
  -3  -1   2  212.57    4.51
  -3  -1   2  204.98    7.14
   3   1  -2  202.39    4.41
   3   1  -1  713.79   14.25
  -3  -1   1  701.44    8.62
   3   1  -1  714.89    8.22
   3   1  -1  710.73    7.23
  -3  -1   1  704.57   14.18
  -3  -1   0  153.00    4.22
   3   1   0  155.77    7.15
  -3  -1   0  149.57    3.85
  -3  -1   0  143.56    6.89
   3   1   0  151.76    4.13
   3   1   1    0.42    0.36
  -3  -1  -1    0.27    0.29
  -3  -1  -2  331.79    6.79
  -3  -1  -2  332.13    7.23
  -3  -1  -3   36.92    2.34
  -3  -1  -3   33.08    2.52
  -3  -1  -4   98.68    4.77
  -3  -1  -5    4.58    1.18
  -3  -1  -6   24.24    2.80
  -3  -1  -7    3.28    1.13
   3   2 -11   46.82    3.99
   3   2 -10    0.09    0.46
   3   2 -10    1.69    0.80
   3   2  -9  145.12    5.82
   3   2  -9  132.87    5.90
   3   2  -8   10.95    1.50
   3   2  -8    8.19    1.40
   3   2  -7   99.26    4.19
   3   2  -7   95.50    4.32
   3   2  -6   56.25    2.96
   3   2  -6   58.45    3.08
  -3  -2   5    2.27    0.44
   3   2  -5    2.02    0.50
   3   2  -5    2.63    0.62
  -3  -2   4  807.06   17.41
  -3  -2   4  803.21    8.22
   3   2  -4  796.58    9.91
  -3  -2   3   23.12    1.50
  -3  -2   3   25.16    2.70
   3   2  -3   25.77    1.69
   3   2  -3   23.63    1.64
  -3  -2   2  898.66   16.49
   3   2  -2  908.00   16.58
   3   2  -2  892.60    9.47
   3   2  -2  895.79    9.97
  -3  -2   2  868.41    9.70
   3   2  -1  189.50    4.74
   3   2  -1  194.44    8.08
  -3  -2   1  177.66    4.59
   3   2  -1  188.73    4.11
  -3  -2   1  186.78    3.82
  -3  -2   1  188.48    7.98
   3   2   0  245.86    5.68
   3   2   0  246.03    4.46
  -3  -2   0  254.94    5.24
  -3  -2   0  239.71    5.59
  -3  -2  -1  110.10    3.98
   3   2   1  107.35    4.07
  -3  -2  -1  113.79    3.95
  -3  -2  -2  164.02    5.07
  -3  -2  -2  159.71    5.22
  -3  -2  -3   20.83    1.96
  -3  -2  -3   20.61    2.11
  -3  -2  -4    2.70    0.86
  -3  -2  -5   18.46    2.34
  -3  -2  -6   14.88    2.30
   3   3 -11   13.04    2.13
   3   3 -10   27.02    2.81
   3   3  -9   92.99    4.53
   3   3  -9   87.24    4.75
   3   3  -8    5.32    1.04
   3   3  -8    5.09    1.09
   3   3  -7  140.09    4.92
   3   3  -7  134.27    5.05
   3   3  -7  143.05    5.26
   3   3  -6   92.87    3.79
   3   3  -6  100.04    3.99
   3   3  -6   98.27    4.09
   3   3  -5  372.77    7.41
  -3  -3   5  383.25    5.77
   3   3  -5  371.91    7.30
   3   3  -5  372.25    6.91
   3   3  -5  363.17    7.29
  -3  -3   4   15.42    1.24
  -3  -3   4   15.99    2.48
   3   3  -4   12.84    1.33
   3   3  -4   14.48    1.42
   3   3  -4   15.35    1.27
   3   3  -4   14.33    1.37
   3   3  -3  125.00    4.04
   3   3  -3  129.72    4.05
  -3  -3   3  124.08    3.72
   3   3  -3  128.70    3.67
   3   3  -2   55.21    2.55
  -3  -3   2   54.83    2.61
   3   3  -2   52.77    2.10
   3   3  -1  774.29    9.17
   3   3  -1  766.53   10.32
  -3  -3   1  796.35    8.44
  -3  -3   1  786.50   10.36
   3   3   0    0.74    0.40
  -3  -3   0    0.17    0.27
   3   3   0    0.82    0.35
  -3  -3   0    0.12    0.22
   3   3   1  152.33    5.23
  -3  -3  -1  148.66    4.99
  -3  -3  -1  139.26    4.65
  -3  -3  -2    9.45    1.31
  -3  -3  -2   10.04    1.42
  -3  -3  -3   10.80    1.60
  -3  -3  -3   10.38    1.45
  -3  -3  -4    3.64    1.10
  -3  -3  -5   10.98    1.94
  -3  -3  -6   19.08    2.67
   3   4 -11    1.23    0.70
   3   4 -10   -0.04    0.54
   3   4  -9    1.08    0.64
   3   4  -9    0.87    0.62
   3   4  -9    1.77    0.82
   3   4  -8   12.83    1.58
   3   4  -8   12.97    1.67
   3   4  -8   12.55    1.71
   3   4  -7   51.84    3.02
   3   4  -7   50.19    3.06
   3   4  -7   55.92    3.37
   3   4  -6   82.67    3.85
   3   4  -6   82.92    3.68
   3   4  -6   82.26    3.57
   3   4  -6   86.59    3.92
  -3  -4   5   -0.68    0.42
   3   4  -5   -0.03    0.43
   3   4  -5    0.41    0.33
   3   4  -5    0.08    0.23
   3   4  -5   -0.33    0.31
   3   4  -4   77.34    3.45
   3   4  -4   80.75    3.49
  -3  -4   4   82.76    3.27
   3   4  -4   80.44    2.76
   3   4  -4   74.30    3.17
  -3  -4   3   27.71    1.98
   3   4  -3   29.83    2.07
   3   4  -3   28.50    1.78
  -3  -4   2  161.41    4.97
   3   4  -2  151.67    4.62
   3   4  -1    5.88    1.01
  -3  -4   1    6.66    1.03
   3   4  -1    6.95    0.98
   3   4   0  270.60    6.95
  -3  -4   0  282.26    7.18
  -3  -4   0  281.32    6.28
   3   4   1  172.67    5.97
  -3  -4  -1  170.89    5.83
  -3  -4  -1  165.98    5.37
   3   4   2    0.39    0.56
  -3  -4  -2   -0.32    0.67
  -3  -4  -2    0.13    0.45
  -3  -4  -3  137.04    5.93
  -3  -4  -4   59.06    4.21
  -3  -4  -5   41.45    3.78
   3   5 -12    2.04    0.85
   3   5 -11   72.14    4.91
   3   5 -10    0.14    0.46
   3   5 -10    0.63    0.40
   3   5  -9    1.06    0.57
   3   5  -9    0.21    0.40
   3   5  -9    0.30    0.58
   3   5  -8    3.24    0.95
   3   5  -8    3.52    0.99
   3   5  -8    2.20    0.73
   3   5  -8    2.58    0.82
   3   5  -7  159.82    5.75
   3   5  -7  162.10    5.50
   3   5  -7  166.03    5.52
   3   5  -7  163.46    5.88
   3   5  -6  134.14    5.11
   3   5  -6  144.68    5.08
   3   5  -6  137.18    4.56
   3   5  -6  134.22    4.99
  -3  -5   5  160.81    4.72
   3   5  -5  176.89    5.70
   3   5  -5  170.59    5.43
   3   5  -5  172.97    5.35
   3   5  -4   29.57    2.27
  -3  -5   4   28.34    2.05
   3   5  -4   26.41    1.95
  -3  -5   3   59.55    3.12
   3   5  -3   60.10    3.18
   3   5  -3   62.18    2.73
  -3  -5   2  129.03    4.80
   3   5  -2  122.64    4.51
   3   5  -2  125.49    4.58
  -3  -5   1   19.15    1.92
   3   5  -1   23.29    2.08
   3   5  -1   20.08    1.82
   3   5   0   87.41    4.22
  -3  -5   0   88.96    4.32
   3   5   1   23.51    2.34
  -3  -5  -1   22.73    2.27
  -3  -5  -2  177.42    6.59
   3   5   2  174.98    6.79
  -3  -5  -2  166.27    6.19
   3   5   3   31.18    3.07
  -3  -5  -3   30.52    2.90
  -3  -5  -4  422.01   11.45
   3   6 -12    2.63    0.96
   3   6 -12    3.15    1.20
   3   6 -11    7.23    1.59
   3   6 -11    8.83    1.69
   3   6 -10   41.56    3.51
   3   6 -10   40.27    3.53
   3   6  -9   22.67    2.47
   3   6  -9   24.89    2.52
   3   6  -9   22.46    2.48
   3   6  -8   15.79    2.02
   3   6  -8   13.66    1.68
   3   6  -8   14.42    1.77
   3   6  -8   15.87    2.03
   3   6  -7   38.83    2.95
   3   6  -7   34.82    2.65
   3   6  -7   40.03    2.69
   3   6  -7   36.28    2.87
   3   6  -6    0.37    0.46
   3   6  -6    0.07    0.40
  -3  -6   5  173.09    5.40
   3   6  -5  165.78    5.83
   3   6  -5  169.08    5.47
   3   6  -4  105.64    4.58
  -3  -6   4  103.42    4.33
  -3  -6   3   49.75    3.15
   3   6  -3   53.11    3.26
   3   6  -2    6.15    1.15
  -3  -6   2    7.27    1.25
   3   6  -2    9.77    1.38
   3   6  -1  199.97    6.43
  -3  -6   1  202.96    6.77
   3   6  -1  215.90    6.51
   3   6   0  353.97    9.03
  -3  -6   0  347.77    9.21
   3   6   1  400.76   10.21
  -3  -6  -1  396.17   10.30
   3   6   2   86.94    5.06
  -3  -6  -2   95.50    5.27
   3   6   3   12.62    2.07
  -3  -6  -4   -0.51    0.58
   3   7 -12    5.32    1.49
   3   7 -12    5.65    1.54
   3   7 -11    3.06    1.09
   3   7 -11    1.93    0.84
   3   7 -10   -0.12    0.52
   3   7 -10   -0.01    0.54
   3   7 -10    0.32    0.65
   3   7  -9    1.13    0.75
   3   7  -9    1.47    0.73
   3   7  -9    1.21    0.69
   3   7  -8  200.57    6.71
   3   7  -8  199.06    7.20
   3   7  -8  194.80    7.18
   3   7  -7   63.70    3.74
   3   7  -7   63.71    4.01
   3   7  -7   62.48    3.85
   3   7  -6   72.71    4.17
   3   7  -6   71.48    3.90
  -3  -7   5   50.28    3.23
   3   7  -5   44.12    3.19
  -3  -7   4    3.93    1.12
   3   7  -4    3.66    0.99
  -3  -7   3 1032.79   15.33
   3   7  -3 1017.92   15.26
  -3  -7   2  231.38    7.57
   3   7  -2  238.61    7.40
   3   7  -2  229.03    7.00
   3   7  -1    0.66    0.59
  -3  -7   1    2.24    1.13
  -3  -7   0   17.38    2.40
   3   7   0   15.67    2.09
   3   7   1    3.55    1.05
  -3  -7  -1    8.49    1.90
  -3  -7  -2    8.84    1.91
   3   7   2    6.33    1.51
   3   8 -12   35.19    3.69
   3   8 -11    6.60    1.55
  -3  -8  11    4.90    1.49
   3   8 -11    7.03    1.50
  -3  -8  10    2.25    0.96
   3   8 -10    2.76    0.97
   3   8 -10    3.11    1.04
   3   8  -9   38.93    3.41
   3   8  -9   43.19    3.68
   3   8  -8   -0.04    0.45
   3   8  -8    0.42    0.39
   3   8  -7   28.96    2.84
   3   8  -7   29.27    2.74
  -3  -8   6  399.18    9.68
   3   8  -6  413.21   10.52
  -3  -8   5   43.30    3.34
   3   8  -5   30.71    2.85
  -3  -8   4   70.38    4.31
   3   8  -4   66.39    4.22
  -3  -8   3    6.76    1.71
   3   8  -3    5.94    1.33
   3   8  -2    0.33    0.50
   3   8  -2    0.95    0.54
   3   8  -1    6.68    1.39
  -3  -8   1   12.63    2.31
  -3  -8   0    7.85    1.94
   3   8   0    4.15    1.16
   3   8   1    4.96    1.31
  -3  -8  -1    4.37    1.61
   3   9 -11    9.89    1.95
   3   9 -11   10.87    2.06
   3   9 -10    0.31    0.62
   3   9 -10    1.83    0.96
   3   9  -9  134.70    6.64
   3   9  -9  137.04    6.70
   3   9  -8   39.85    3.58
   3   9  -8   36.69    3.34
   3   9  -7   68.67    4.59
  -3  -9   6   35.85    3.25
   3   9  -6   35.27    3.28
  -3  -9   5   11.49    1.94
   3   9  -5   14.02    2.14
  -3  -9   4    6.11    1.52
   3   9  -4    6.98    1.46
  -3  -9   3    0.67    0.95
   3   9  -3    1.97    0.84
  -3  -9   2   -0.43    1.30
   3   9  -2   -0.06    0.45
  -3  -9   1   10.46    2.17
  -3  -9   0    0.83    1.02
   3  10 -10   36.43    3.69
   3  10 -10   36.01    3.71
   3  10  -9    0.07    0.57
   3  10  -9    0.85    0.51
   3  10  -8   27.36    3.11
   3  10  -7    1.26    0.80
  -3 -10   6    1.22    1.15
   3  10  -6    0.06    0.59
  -3 -10   5   77.71    5.31
   3  10  -5   82.69    5.30
  -3 -10   4  137.96    7.20
   3  10  -4  136.76    6.87
  -3 -10   3   14.27    2.52
   3  10  -3   19.58    2.60
  -3 -10   2   95.12    6.39
   3  11  -9    0.92    0.75
   3  11  -8   54.70    4.56
   3  11  -7    3.57    1.25
  -3 -11   6   72.86    5.27
   3  11  -6   68.89    5.14
  -3 -11   5   55.88    4.77
   3  11  -5   50.72    4.44
   3  11  -4    7.16    1.71
   4 -11   1   46.80    4.07
   4 -11   2   90.70    5.63
   4 -11   3   53.82    4.39
   4 -11   4    0.15    0.59
   4 -10  -1   81.52    5.26
   4 -10   0   22.57    2.75
   4 -10   1   28.11    3.05
   4 -10   2  152.62    6.96
   4 -10   3   23.12    2.79
   4 -10   4   13.71    2.23
   4 -10   5   17.59    2.51
   4 -10   6   29.81    3.36
   4  -9  -3    5.57    1.43
   4  -9  -2   22.31    2.67
   4  -9  -1   32.02    3.10
   4  -9   0    1.88    0.95
   4  -9   1   -0.26    0.65
   4  -9   2   15.44    2.09
   4  -9   3   68.16    4.56
   4  -9   4   15.93    2.23
   4  -9   5   48.85    4.06
   4  -9   6   95.37    5.74
   4  -9   7   55.75    4.61
   4  -8  -4    6.92    1.54
   4  -8  -4    8.17    1.65
   4  -8  -3   17.76    2.30
   4  -8  -3   14.23    2.08
   4  -8  -2    1.92    0.90
   4  -8  -1   24.70    2.63
   4  -8   0    2.18    0.87
   4  -8   1   30.09    2.80
   4  -8   2   62.46    4.09
   4  -8   3   93.34    5.06
   4  -8   4  220.22    7.99
   4  -8   5  165.52    7.09
   4  -8   6   27.53    3.06
  -4   8  -7    1.41    0.84
   4  -8   7    1.92    0.96
   4  -7  -5    4.43    1.24
   4  -7  -5    6.31    1.43
   4  -7  -4   29.17    2.95
   4  -7  -4   33.55    3.07
   4  -7  -3   23.13    2.48
   4  -7  -3   25.02    2.59
   4  -7  -2   42.97    3.08
   4  -7  -2   41.09    3.30
   4  -7  -1  105.84    5.11
   4  -7   0  377.09    9.48
   4  -7   1  688.49   12.67
   4  -7   2  323.86    8.84
   4  -7   3    1.36    0.79
   4  -7   4    6.61    1.44
   4  -7   5   24.13    2.70
   4  -7   6   15.50    2.22
   4  -7   7   21.83    2.73
  -4   7  -7   18.50    2.48
  -4   7  -8   10.24    1.98
   4  -7   8   10.24    2.05
   4  -6  -6    0.98    0.92
   4  -6  -5    8.91    1.75
   4  -6  -5    7.80    1.48
   4  -6  -4    1.28    0.51
   4  -6  -4    1.15    0.58
   4  -6  -3  530.42   10.93
   4  -6  -3  518.64   11.19
   4  -6  -2  285.72    8.11
   4  -6  -2  271.70    7.24
   4  -6  -1  656.37   11.94
   4  -6   0   21.86    2.23
   4  -6   1   47.48    3.16
   4  -6   2  130.46    5.29
   4  -6   3   32.71    2.71
   4  -6   4    8.19    1.48
   4  -6   5   18.58    2.30
  -4   6  -6    7.34    1.45
   4  -6   6    8.08    1.61
  -4   6  -7   -0.89    0.89
   4  -6   7    1.29    1.01
  -4   6  -8   12.83    2.19
   4  -6   8   16.48    2.47
   4  -5  -7   -0.41    0.70
   4  -5  -6  344.21   10.14
   4  -5  -5    2.48    0.88
   4  -5  -5    2.63    0.88
   4  -5  -4  394.25    9.65
   4  -5  -4  408.08    9.62
   4  -5  -3  106.91    4.57
   4  -5  -3  105.38    4.80
   4  -5  -2   32.37    2.34
   4  -5  -2   30.70    2.51
   4  -5  -1    1.69    0.67
   4  -5   0    0.75    0.47
   4  -5   1   11.29    1.50
   4  -5   2   82.31    4.02
   4  -5   3   27.74    2.43
   4  -5   4   98.48    4.72
  -4   5  -5  145.80    6.15
   4  -5   5  140.47    5.88
  -4   5  -6    3.02    1.00
   4  -5   6    2.06    0.84
  -4   5  -7    0.67    0.47
   4  -5   7    1.59    0.78
  -4   5  -8    3.95    1.34
   4  -4  -8   11.77    2.05
   4  -4  -7    5.48    1.33
   4  -4  -6  197.64    7.32
   4  -4  -5   54.18    3.50
   4  -4  -5   57.63    3.66
   4  -4  -4   -0.07    0.49
   4  -4  -4    0.24    0.49
   4  -4  -3  249.76    6.57
   4  -4  -3  257.26    7.03
   4  -4  -2  139.96    5.04
   4  -4  -2  144.80    4.54
   4  -4  -1   21.13    1.92
   4  -4   0  114.45    4.32
   4  -4   1   23.92    2.03
   4  -4   2  102.55    4.25
   4  -4   3   17.36    1.84
   4  -4   4   43.81    3.04
  -4   4  -5    4.01    1.05
   4  -4   5    3.73    1.02
  -4   4  -6   59.16    4.16
  -4   4  -7    7.31    1.59
  -4   4  -8    0.79    0.59
   4  -3  -9    0.89    0.81
   4  -3  -8    1.97    0.89
   4  -3  -7    3.51    0.95
   4  -3  -6   85.42    4.58
   4  -3  -5    1.93    0.72
   4  -3  -5    2.84    0.87
   4  -3  -4   66.55    3.45
   4  -3  -4   66.07    3.54
   4  -3  -3  267.92    6.74
   4  -3  -3  265.37    6.33
   4  -3  -2    9.20    1.22
   4  -3  -2    8.04    1.02
   4  -3  -1  212.00    5.60
   4  -3  -1  213.40    4.60
   4  -3   0   49.50    3.90
  -4   3   0   53.63    4.11
   4  -3   0   45.53    2.56
   4  -3   1  203.05    5.44
   4  -3   2   -0.16    0.37
  -4   3  -3  206.04    5.75
   4  -3   3  204.40    5.97
  -4   3  -4    2.82    0.78
   4  -3   4    2.94    0.96
  -4   3  -5    1.76    0.86
  -4   3  -6    5.50    1.34
  -4   3  -7   24.91    2.94
   4  -2 -10    1.82    0.94
   4  -2  -9    0.52    0.68
   4  -2  -8    2.42    1.00
   4  -2  -7    5.31    1.26
   4  -2  -6  183.19    6.34
   4  -2  -5   39.83    2.77
   4  -2  -4  150.06    5.02
   4  -2  -4  144.70    4.82
   4  -2  -3   41.96    2.50
   4  -2  -3   47.08    2.54
   4  -2  -2    6.11    0.94
   4  -2  -2    6.53    0.87
   4  -2  -1  360.42    6.80
   4  -2  -1  370.52    9.90
   4  -2  -1  363.60    5.74
   4  -2   0  884.40   17.01
   4  -2   0  868.15   10.28
  -4   2  -1    0.36    0.26
   4  -2   1    0.61    0.29
   4  -2   2   99.00    3.42
   4  -2   2   95.85    3.64
  -4   2  -2   95.21    3.85
  -4   2  -3    3.32    0.75
  -4   2  -3    4.06    0.94
  -4   2  -4    0.41    0.45
  -4   2  -5  110.08    5.39
  -4   2  -6    9.98    1.82
  -4   2  -7   33.80    3.43
   4  -1 -10    2.49    1.10
   4  -1  -9   14.12    2.12
   4  -1  -8    3.04    0.96
   4  -1  -7   47.65    3.35
   4  -1  -6   63.34    3.61
   4  -1  -5    0.37    0.31
   4  -1  -4  121.06    4.25
   4  -1  -4  137.17    4.50
  -4   1   3    0.99    0.46
   4  -1  -3    1.37    0.38
   4  -1  -3    1.81    0.53
   4  -1  -2  143.76    5.91
   4  -1  -2  141.51    4.05
   4  -1  -2  154.14    4.04
  -4   1   2  145.02    5.91
  -4   1   1  306.18    6.32
   4  -1  -1  313.32    9.68
   4  -1  -1  316.36    5.76
   4  -1  -1  296.03    5.27
   4  -1   0   70.88    2.68
  -4   1   0   72.72    3.16
   4  -1   1   38.95    2.20
   4  -1   1   37.57    2.03
  -4   1  -1   37.70    2.35
   4  -1   2    2.06    0.59
  -4   1  -2    1.10    0.51
  -4   1  -2    0.40    0.41
  -4   1  -3   33.23    2.33
   4  -1   3   28.62    2.20
  -4   1  -3   29.53    2.52
  -4   1  -4  153.50    6.04
  -4   1  -5   13.33    2.00
  -4   1  -6   68.18    4.66
  -4   1  -7   20.26    2.77
   4   0 -11   -0.91    0.78
   4   0 -10    1.21    0.86
   4   0  -9   59.63    4.09
   4   0  -8   22.72    2.41
   4   0  -7   65.90    3.77
   4   0  -6   22.45    2.05
   4   0  -5   25.76    2.05
  -4   0   4  434.23    9.90
   4   0  -4  425.11    7.77
  -4   0   4  453.92    7.06
   4   0  -3  247.60    7.90
   4   0  -3  244.00    5.20
  -4   0   3  244.46    5.35
  -4   0   3  249.55    7.95
   4   0  -3  239.31    5.45
  -4   0   2   94.97    5.24
   4   0  -2   89.50    5.12
   4   0  -2   89.88    2.91
   4   0  -2   85.27    3.10
  -4   0   2   90.61    3.36
  -4   0   1   45.84    2.49
  -4   0   1   45.08    3.89
   4   0  -1   43.91    1.93
   4   0  -1   42.13    3.79
   4   0  -1   44.95    2.18
   4   0   0    0.09    0.30
  -4   0   0    1.28    0.57
   4   0   1  136.65    4.41
  -4   0  -1  132.00    4.56
  -4   0  -1  139.41    4.63
   4   0   2   57.54    3.08
  -4   0  -2   58.77    3.12
  -4   0  -2   55.04    3.19
  -4   0  -3  180.88    5.64
  -4   0  -3  165.86    5.96
   4   0   3  173.34    5.78
  -4   0  -4   22.12    2.40
  -4   0  -5   37.92    3.34
  -4   0  -6  130.11    6.64
   4   1 -11   11.61    2.00
   4   1 -10   50.44    3.87
   4   1  -9   10.33    1.63
   4   1  -8   71.18    4.04
   4   1  -7   15.10    1.77
   4   1  -6   21.80    1.99
  -4  -1   5   12.07    1.84
  -4  -1   5   10.73    1.07
   4   1  -5   10.22    1.28
  -4  -1   4   21.75    1.59
  -4  -1   4   22.28    2.53
   4   1  -4   19.87    1.68
  -4  -1   3  134.69    6.45
   4   1  -3  134.92    6.46
  -4  -1   3  128.38    3.98
   4   1  -3  138.86    4.25
   4   1  -2  270.86    9.58
  -4  -1   2  255.41    5.83
   4   1  -2  267.87    5.74
  -4  -1   1   70.79    3.17
   4   1  -1   61.43    2.72
  -4  -1   0  559.09    9.23
   4   1   0  560.10    9.12
  -4  -1   0  540.52    8.49
   4   1   1  135.77    4.74
  -4  -1  -1  141.65    4.83
  -4  -1  -1  133.92    4.65
  -4  -1  -2  125.12    4.70
   4   1   2  113.11    4.69
  -4  -1  -2  119.54    4.77
   4   1   3   14.37    1.82
  -4  -1  -3   14.93    1.72
  -4  -1  -3   14.81    1.84
  -4  -1  -4  360.53    9.79
  -4  -1  -5    3.28    1.12
  -4  -1  -6    1.21    0.79
   4   2 -11    1.79    0.90
   4   2 -11    0.97    0.74
   4   2 -10   65.86    4.29
   4   2 -10   69.77    4.60
   4   2  -9    0.11    0.36
   4   2  -9    0.16    0.63
   4   2  -8   27.77    2.50
   4   2  -8   30.83    2.70
   4   2  -7  153.36    5.46
   4   2  -6    0.27    0.35
   4   2  -5    0.61    0.37
  -4  -2   5    1.24    0.40
   4   2  -4    1.29    0.43
  -4  -2   4    0.96    0.42
  -4  -2   3   -0.32    0.30
   4   2  -3    0.34    0.34
  -4  -2   2   43.76    2.51
   4   2  -2   42.06    2.45
   4   2  -2   44.14    2.27
  -4  -2   2   41.85    1.90
   4   2  -1  271.55    5.38
  -4  -2   1  258.03    5.35
  -4  -2   1  263.79    6.39
   4   2   0    0.41    0.41
  -4  -2   0   -0.11    0.40
  -4  -2   0   -0.10    0.26
  -4  -2  -1  192.61    5.92
   4   2   1  189.98    5.99
  -4  -2  -1  193.98    5.78
   4   2   2    9.49    1.46
  -4  -2  -2    8.31    1.34
  -4  -2  -2    9.03    1.38
   4   2   3    0.36    0.53
  -4  -2  -3    0.96    0.76
   4   2   4   -0.37    0.59
  -4  -2  -4    0.00    0.48
  -4  -2  -5    9.39    1.82
   4   3 -11    1.22    0.73
   4   3 -11    2.17    0.93
   4   3 -10    3.81    1.10
   4   3 -10    2.31    0.91
   4   3  -9    0.38    0.44
   4   3  -9   -0.20    0.53
   4   3  -8    9.45    1.41
   4   3  -8   10.18    1.59
   4   3  -7    5.14    1.05
   4   3  -7    3.77    0.88
   4   3  -6    0.04    0.37
  -4  -3   5  172.46    4.60
   4   3  -5  165.79    5.29
   4   3  -5  170.37    5.38
  -4  -3   4   77.65    3.24
   4   3  -4   79.44    3.51
   4   3  -4   80.88    3.63
  -4  -3   3    7.11    1.03
   4   3  -3    6.71    0.99
   4   3  -3    7.07    1.09
  -4  -3   2    6.06    1.05
   4   3  -2    4.17    0.75
  -4  -3   1  295.18    7.16
   4   3  -1  295.65    7.23
   4   3   0    1.78    0.66
  -4  -3   0    2.66    0.79
  -4  -3   0    2.99    0.66
   4   3   1   41.61    3.03
  -4  -3  -1   40.45    2.91
  -4  -3  -1   41.65    2.83
   4   3   2   63.40    3.95
  -4  -3  -2   72.53    4.07
  -4  -3  -2   70.74    4.00
   4   3   3   53.50    3.85
  -4  -3  -3   56.13    3.86
   4   3   4   43.52    3.72
  -4  -3  -4   40.44    3.57
   4   3   5   62.07    4.68
  -4  -3  -5   54.59    4.41
   4   4 -12   86.93    5.70
   4   4 -11   96.91    5.69
   4   4 -10   10.64    1.68
   4   4 -10   11.32    1.82
   4   4  -9   19.84    2.21
   4   4  -9   17.53    2.10
   4   4  -8   19.49    2.08
   4   4  -8   16.04    1.87
   4   4  -7    2.37    0.82
   4   4  -7    3.15    0.86
   4   4  -7    2.10    0.64
   4   4  -6    1.78    0.66
   4   4  -6    2.31    0.74
   4   4  -6    2.12    0.73
  -4  -4   5   16.16    1.53
   4   4  -5   16.12    1.75
   4   4  -5   15.15    1.71
   4   4  -5   13.21    1.48
  -4  -4   4  969.87   12.27
   4   4  -4 1008.34   11.85
   4   4  -4  967.38   13.26
   4   4  -4  984.52   13.03
  -4  -4   3   42.54    2.68
   4   4  -3   44.79    2.69
  -4  -4   2    4.73    1.02
   4   4  -2    4.37    0.86
   4   4  -1   -0.08    0.54
  -4  -4   1    0.21    0.51
   4   4   0   11.19    1.63
  -4  -4   0    9.85    1.58
   4   4   1   34.38    2.91
  -4  -4  -1   36.21    2.94
   4   4   2   11.85    1.91
  -4  -4  -2   11.21    1.69
   4   4   3    1.07    0.83
  -4  -4  -3    0.49    0.47
   4   4   4  163.61    7.51
  -4  -4  -4  160.76    7.33
   4   5 -12   13.18    2.25
   4   5 -11   96.45    5.65
   4   5 -10    2.10    0.89
   4   5 -10    1.79    0.87
   4   5  -9    1.93    0.82
   4   5  -9    1.35    0.63
   4   5  -9    2.29    0.86
   4   5  -8   59.88    3.70
   4   5  -8   54.57    3.43
   4   5  -8   55.33    3.68
   4   5  -7  136.66    5.57
   4   5  -7  140.75    5.51
   4   5  -7  140.09    5.07
   4   5  -7  138.45    5.53
   4   5  -6    0.04    0.41
   4   5  -6   -0.05    0.43
   4   5  -6    0.09    0.42
  -4  -5   5   24.10    2.03
   4   5  -5   21.44    2.12
   4   5  -5   22.04    2.15
   4   5  -5   24.43    2.06
  -4  -5   4   15.13    1.66
   4   5  -4   15.01    1.73
  -4  -5   3  158.70    5.57
   4   5  -3  160.96    5.44
  -4  -5   2   26.35    2.33
   4   5  -2   31.74    2.39
   4   5  -1    0.22    0.50
  -4  -5   1   -0.96    1.05
   4   5   0    1.96    0.84
  -4  -5   0    1.34    0.65
   4   5   1   39.75    3.29
  -4  -5  -1   40.16    3.25
   4   5   2  347.15   10.30
  -4  -5  -2  353.15   10.01
   4   5   3  217.28    8.62
   4   6 -12    5.45    1.50
   4   6 -11   41.46    3.68
   4   6 -11   43.61    3.88
   4   6 -10   68.52    4.32
   4   6 -10   71.53    4.53
   4   6 -10   70.05    4.69
   4   6  -9   15.68    2.02
   4   6  -9   18.07    2.15
   4   6  -9   16.92    2.25
   4   6  -8   -0.01    0.46
   4   6  -8   -0.08    0.45
   4   6  -8    0.72    0.63
   4   6  -7    0.04    0.36
   4   6  -7   -0.43    0.60
   4   6  -7    0.08    0.38
  -4  -6   6   57.06    3.21
   4   6  -6   53.12    3.48
   4   6  -6   58.83    3.73
   4   6  -6   58.13    3.49
  -4  -6   5   50.95    3.14
   4   6  -5   53.02    3.46
   4   6  -5   54.08    3.13
  -4  -6   4    5.70    1.10
   4   6  -4    4.27    1.02
  -4  -6   3   17.55    1.92
   4   6  -3   18.95    2.01
  -4  -6   2    0.21    0.62
  -4  -6   1  244.36    8.00
   4   6  -1  258.87    8.12
   4   6   0  214.62    7.66
  -4  -6   0  209.30    7.70
   4   6   1   22.67    2.63
  -4  -6  -1   23.80    2.75
   4   6   2    6.77    1.56
  -4  -6  -2    4.55    1.36
   4   7 -12   -0.13    0.58
   4   7 -11    3.02    0.89
   4   7 -11    5.25    1.30
   4   7 -10   38.11    3.31
   4   7 -10   38.62    3.57
   4   7  -9    0.53    0.53
   4   7  -9    0.35    0.43
   4   7  -9    1.08    0.70
   4   7  -8   73.50    4.35
   4   7  -8   64.18    4.26
   4   7  -8   64.59    4.18
   4   7  -7   16.22    2.03
   4   7  -7   18.20    2.24
   4   7  -7   20.75    2.25
  -4  -7   6   25.25    2.33
   4   7  -6   25.36    2.56
   4   7  -6   28.74    2.53
  -4  -7   5    0.21    0.61
   4   7  -5    0.20    0.57
  -4  -7   4    2.43    0.75
   4   7  -4    2.54    0.89
  -4  -7   3  144.46    6.23
   4   7  -3  155.06    6.10
  -4  -7   2   43.44    3.54
   4   7  -1   47.95    3.68
  -4  -7   1   51.11    3.93
   4   7   0   16.86    2.26
  -4  -7   0   19.69    2.56
   4   7   1    2.43    0.86
  -4  -7  -1    2.47    1.22
   4   8 -12   15.68    2.44
   4   8 -11    7.14    1.63
   4   8 -10    7.13    1.57
   4   8 -10    6.49    1.59
   4   8  -9   42.78    3.49
   4   8  -9   42.49    3.71
   4   8  -9   41.83    3.62
   4   8  -8   69.00    4.60
   4   8  -8   75.92    4.65
   4   8  -7   -0.16    0.46
   4   8  -7    0.02    0.47
  -4  -8   6  206.99    7.20
   4   8  -6  196.79    7.61
  -4  -8   5   46.25    3.53
   4   8  -5   52.05    3.82
  -4  -8   4    3.50    1.43
   4   8  -4    1.50    0.79
  -4  -8   3   19.53    2.57
   4   8  -3   17.79    2.27
  -4  -8   2   28.42    3.11
   4   8  -1    5.78    1.29
  -4  -8   1    7.53    1.83
   4   8   0    1.63    0.88
  -4  -8   0    1.39    1.22
   4   9 -11   39.43    3.86
   4   9 -10   24.57    2.98
   4   9 -10   34.10    3.50
   4   9  -9   15.89    2.44
   4   9  -9   14.25    2.16
   4   9  -8    4.70    1.35
   4   9  -8    5.85    1.39
   4   9  -7    4.62    1.32
  -4  -9   6   83.42    5.00
   4   9  -6   83.25    5.14
  -4  -9   5   20.41    2.66
   4   9  -5   19.04    2.49
  -4  -9   4   22.98    2.93
   4   9  -4   23.96    2.77
  -4  -9   3   36.83    3.71
  -4  -9   2   22.80    3.06
   4   9  -1   71.36    4.96
   4  10 -10   -0.20    0.53
   4  10  -9   93.01    5.95
   4  10  -9   90.61    5.67
   4  10  -8    3.78    0.99
   4  10  -7   14.50    2.30
  -4 -10   6   12.72    2.26
   4  10  -6   17.33    2.48
  -4 -10   5   63.82    5.00
   4  10  -5   70.04    4.98
  -4 -10   4  105.45    6.42
   4  10  -4   97.66    5.93
   5 -10  -1    4.90    1.50
   5 -10   0    6.04    1.42
   5 -10   1    7.79    1.71
   5 -10   2    4.39    1.47
   5 -10   3   17.44    2.53
   5 -10   4    0.81    0.84
   5  -9  -3    0.67    0.64
   5  -9  -2    3.35    1.12
   5  -9  -1   16.51    2.34
   5  -9   0   13.18    2.11
   5  -9   1    0.73    0.59
   5  -9   2    6.53    1.44
   5  -9   3   22.93    2.85
   5  -9   4   12.39    2.10
   5  -9   5  207.87    8.59
   5  -8  -4    0.47    0.48
   5  -8  -4    2.71    1.10
   5  -8  -3    2.85    1.09
   5  -8  -2    2.09    0.95
   5  -8  -1    1.56    0.64
   5  -8   0  120.65    6.02
   5  -8   1   -0.24    0.72
   5  -8   2  726.37   14.55
   5  -8   3  105.14    5.70
   5  -8   4  204.17    7.98
   5  -8   5    3.22    1.17
   5  -8   6  101.18    6.01
   5  -7  -5    4.75    1.31
   5  -7  -5    8.17    1.67
   5  -7  -4   -0.02    0.75
   5  -7  -4    1.43    0.82
   5  -7  -3    2.40    0.97
   5  -7  -2   82.99    4.90
   5  -7  -1  686.35   13.70
   5  -7   0    4.48    1.17
   5  -7   1  393.12   10.15
   5  -7   2    0.12    0.48
   5  -7   3  235.43    8.12
   5  -7   4    3.27    1.04
   5  -7   5   23.42    2.75
  -5   7  -6    2.64    0.95
   5  -7   6    1.85    1.03
   5  -7   7   23.62    2.98
  -5   7  -7   22.12    2.91
   5  -6  -6    1.12    0.65
   5  -6  -5    2.13    0.86
   5  -6  -5    1.95    0.86
   5  -6  -4  352.54    9.64
   5  -6  -4  353.35   10.00
   5  -6  -3   21.43    2.42
   5  -6  -2   54.31    3.75
   5  -6  -1   27.29    2.60
   5  -6   0  311.27    8.67
   5  -6   1   38.86    3.06
   5  -6   2    5.70    1.32
   5  -6   3   13.29    1.84
   5  -6   4    7.16    1.46
   5  -6   5   26.53    2.81
   5  -6   6   91.27    5.41
  -5   6  -6   82.37    5.29
  -5   6  -7    7.09    1.67
   5  -5  -7    5.36    1.44
   5  -5  -6    1.75    0.92
   5  -5  -5    4.41    1.10
   5  -5  -5    4.45    1.10
   5  -5  -4    2.30    0.80
   5  -5  -4    2.29    0.92
   5  -5  -3   82.14    4.07
   5  -5  -3   79.47    4.41
   5  -5  -2    7.46    1.32
   5  -5  -1   47.16    3.21
   5  -5   0    8.64    1.36
   5  -5   1    1.77    0.76
   5  -5   2   27.20    2.46
   5  -5   3   51.96    3.48
   5  -5   4    0.61    0.75
  -5   5  -5    9.90    1.79
   5  -5   5   12.83    2.01
  -5   5  -6   64.69    4.69
  -5   5  -7   43.93    4.07
   5  -4  -8    2.01    1.00
   5  -4  -7   55.96    4.19
   5  -4  -6    0.48    0.47
   5  -4  -5   52.83    3.54
   5  -4  -5   49.15    3.54
   5  -4  -4   23.25    2.30
   5  -4  -4   19.27    2.02
   5  -4  -3  152.56    5.75
   5  -4  -3  143.97    5.08
   5  -4  -2   22.58    2.17
   5  -4  -1   64.32    3.53
   5  -4   0  180.92    5.84
   5  -4   1   46.74    3.00
   5  -4   2    9.30    1.43
  -5   4  -3   66.79    3.74
   5  -4   3   68.46    3.84
  -5   4  -4  248.99    8.24
  -5   4  -5   59.76    4.30
  -5   4  -6    8.01    1.73
   5  -3  -9   12.45    2.24
   5  -3  -8  106.09    5.89
   5  -3  -7   40.09    3.40
   5  -3  -6   22.59    2.36
   5  -3  -5    7.48    1.36
   5  -3  -5    6.58    1.27
   5  -3  -4    3.85    0.94
   5  -3  -4    3.97    0.87
   5  -3  -3   38.34    2.74
   5  -3  -3   40.06    2.57
   5  -3  -2    1.63    0.59
   5  -3  -1   26.99    2.16
   5  -3   0   81.64    3.70
   5  -3   1  557.20    9.79
   5  -3   2   47.92    2.95
  -5   3  -2   46.68    3.00
  -5   3  -3   56.75    3.37
  -5   3  -3   55.93    3.72
  -5   3  -4   19.70    2.37
  -5   3  -5   21.26    2.61
  -5   3  -6   12.96    2.12
   5  -2  -9   13.98    2.19
   5  -2  -8    9.43    1.70
   5  -2  -7   15.87    2.07
   5  -2  -6   15.01    1.92
   5  -2  -5   -0.27    0.44
   5  -2  -5    0.08    0.55
   5  -2  -4   15.83    1.73
   5  -2  -4   15.77    1.69
   5  -2  -3   66.71    3.38
   5  -2  -3   62.94    3.07
   5  -2  -2  204.04    5.70
   5  -2  -2  209.34    5.18
   5  -2  -1   56.25    2.91
   5  -2   0   66.26    3.11
  -5   2   0   67.37    3.44
  -5   2  -1    5.01    0.97
  -5   2  -2   12.28    1.57
  -5   2  -3    2.11    0.71
  -5   2  -3    2.37    0.86
  -5   2  -4  127.88    5.99
  -5   2  -5    1.95    0.71
  -5   2  -6   26.30    3.08
   5  -1 -10   22.34    2.85
   5  -1  -9   16.93    2.30
   5  -1  -8  155.53    6.61
   5  -1  -7  219.27    7.37
   5  -1  -6   11.49    1.64
   5  -1  -5   58.98    3.32
   5  -1  -4    3.21    0.79
   5  -1  -4    4.16    0.83
   5  -1  -3  159.80    4.87
   5  -1  -3  159.49    4.81
   5  -1  -2    0.90    0.39
  -5   1   2    0.99    0.60
   5  -1  -2    1.30    0.79
   5  -1  -2    0.28    0.37
   5  -1  -1   14.99    1.40
  -5   1   1   19.63    1.82
  -5   1   0   97.48    4.19
  -5   1  -1   68.75    3.62
   5  -1   1   75.52    3.51
  -5   1  -2   25.01    2.20
   5  -1   2   23.53    2.05
  -5   1  -2   23.80    2.31
  -5   1  -3   49.09    3.22
  -5   1  -3   42.26    3.26
  -5   1  -4   56.34    3.99
  -5   1  -5    6.06    1.35
  -5   1  -6   86.79    5.62
   5   0 -11  125.78    6.77
   5   0 -10    3.65    1.18
   5   0  -9   54.85    4.00
   5   0  -8    0.07    0.46
   5   0  -7   -0.54    0.60
   5   0  -6    2.88    0.89
   5   0  -5  324.81    7.72
  -5   0   5  314.55    6.71
   5   0  -4   44.69    2.56
   5   0  -4   45.23    2.69
  -5   0   4   44.62    2.60
   5   0  -3   83.44    3.28
   5   0  -3   85.52    3.56
  -5   0   3   83.95    3.65
   5   0  -2   63.30    2.96
  -5   0   2   67.28    3.33
  -5   0   1   15.44    1.67
   5   0  -1   16.42    1.47
  -5   0   0   18.04    1.86
  -5   0   0   16.07    1.64
   5   0   1  190.92    5.88
  -5   0  -1  185.35    6.04
  -5   0  -1  187.87    6.07
   5   0   2   12.73    1.62
  -5   0  -2   10.58    1.49
  -5   0  -2   13.23    1.73
   5   0   3   88.41    4.48
  -5   0  -3   77.97    4.45
   5   0   4   15.14    2.04
  -5   0  -4   17.63    2.32
   5   0   5   15.09    2.12
  -5   0  -5   20.03    2.62
   5   1 -11    4.44    1.22
   5   1 -10    0.23    0.61
   5   1  -9   22.77    2.52
   5   1  -8  100.22    5.00
   5   1  -7    8.28    1.33
   5   1  -6    4.79    0.93
   5   1  -5    5.09    1.00
  -5  -1   5    5.34    0.91
  -5  -1   4  177.11    5.24
   5   1  -4  186.22    5.60
  -5  -1   3   85.77    3.78
   5   1  -3   84.11    3.66
  -5  -1   2    8.68    1.28
   5   1  -2    8.77    1.19
  -5  -1   1   33.33    2.47
  -5  -1   1   30.65    2.11
   5   1   0    0.60    0.51
  -5  -1   0    0.91    0.61
  -5  -1   0    0.43    0.41
  -5  -1  -1   28.80    2.45
   5   1   1   33.52    2.64
  -5  -1  -1   30.31    2.47
  -5  -1  -2   32.79    2.69
   5   1   2   31.71    2.71
  -5  -1  -2   29.33    2.58
   5   1   3   26.42    2.64
  -5  -1  -3   27.94    2.76
   5   1   4    4.49    1.32
  -5  -1  -4    2.94    1.05
   5   1   5    0.39    0.48
  -5  -1  -5    0.96    0.67
   5   2 -11    0.56    0.59
   5   2 -10    7.86    1.62
   5   2  -9   22.89    2.47
   5   2  -8  146.79    5.95
   5   2  -7  136.69    5.48
   5   2  -6  288.69    7.66
  -5  -2   5   27.92    2.06
   5   2  -5   24.72    2.16
  -5  -2   4  307.97    7.06
   5   2  -4  322.85    7.59
  -5  -2   3    1.49    0.57
   5   2  -3    2.01    0.71
  -5  -2   2    2.01    0.67
   5   2  -2    2.01    0.62
  -5  -2   1   66.34    3.62
   5   2   0    1.48    0.55
  -5  -2   0    2.20    0.75
  -5  -2   0    3.81    0.89
  -5  -2  -1  126.74    5.33
   5   2   1  128.41    5.44
  -5  -2  -1  129.21    5.19
  -5  -2  -2   23.88    2.39
   5   2   2   21.26    2.33
  -5  -2  -2   22.44    2.36
   5   2   3    0.43    0.48
  -5  -2  -3    0.34    0.44
   5   2   4   13.59    2.14
  -5  -2  -4   12.29    2.06
   5   3 -12    8.50    1.82
   5   3 -11   20.98    2.64
   5   3 -10  413.33   10.95
   5   3  -9  606.98   12.63
   5   3  -8   31.64    2.78
   5   3  -7  234.80    7.26
   5   3  -6  424.05    9.45
  -5  -3   5    1.72    0.52
   5   3  -5    4.78    1.01
  -5  -3   4   12.69    1.51
   5   3  -4   12.88    1.61
  -5  -3   3    2.36    0.69
   5   3  -3    3.41    0.83
   5   3  -3    3.66    0.83
  -5  -3   2   86.40    4.12
  -5  -3   1    5.82    1.20
   5   3   0    3.07    0.85
  -5  -3   0    2.86    0.90
   5   3   1    3.98    1.04
  -5  -3  -1    3.00    0.78
  -5  -3  -2  100.06    5.17
   5   3   2   91.74    5.09
   5   3   3    0.63    0.71
  -5  -3  -3    0.14    0.39
   5   3   4    0.52    0.50
  -5  -3  -4    0.69    0.60
   5   4 -12  191.99    8.12
   5   4 -11   73.99    4.82
   5   4 -10   15.42    2.13
   5   4  -9  415.67   10.59
   5   4  -8   18.98    2.21
   5   4  -7    0.32    0.48
  -5  -4   6    8.23    1.20
   5   4  -6    6.89    1.30
  -5  -4   5    1.79    0.58
   5   4  -5    2.39    0.77
   5   4  -5    1.89    0.69
  -5  -4   4    7.87    1.26
   5   4  -4    6.30    1.15
   5   4  -4    5.51    1.14
  -5  -4   3    1.19    0.69
   5   4  -3    1.80    0.69
  -5  -4   2    4.30    1.01
  -5  -4   1  229.14    7.38
   5   4  -1  218.64    7.31
   5   4   0    2.08    0.73
  -5  -4   0    2.71    0.97
   5   4   1   -0.12    0.46
  -5  -4  -1   -0.40    0.72
   5   4   2    3.15    0.99
  -5  -4  -2    1.03    0.80
   5   4   3   51.28    4.25
   5   5 -12   79.11    5.46
   5   5 -11   49.14    3.99
   5   5 -11   50.23    4.12
   5   5 -10    1.94    0.76
   5   5 -10    0.68    0.74
   5   5  -9    1.06    0.48
   5   5  -8    7.70    1.40
   5   5  -7    3.86    1.08
   5   5  -7    3.57    1.01
  -5  -5   6   44.53    2.90
   5   5  -6   42.54    3.19
   5   5  -6   43.40    3.22
  -5  -5   5  135.96    5.27
   5   5  -5  146.11    5.90
   5   5  -5  138.31    5.61
  -5  -5   4    3.08    0.89
   5   5  -4    3.27    0.89
  -5  -5   3    5.87    1.24
  -5  -5   2    2.70    0.94
   5   5  -1   12.79    1.87
  -5  -5   1   12.67    1.87
  -5  -5   0   35.22    3.19
   5   5   0   36.45    3.28
   5   5   1   10.36    1.87
  -5  -5  -1   11.52    1.92
   5   5   2   14.97    2.27
  -5  -5  -2   14.58    2.22
   5   6 -12   15.76    2.42
   5   6 -11    8.19    1.63
   5   6 -11    8.08    1.68
   5   6 -10   25.46    2.82
   5   6 -10   23.10    2.61
   5   6  -9   25.65    2.75
   5   6  -9   21.05    2.50
   5   6  -8  112.13    5.61
   5   6  -8  112.54    5.58
   5   6  -8  114.14    5.54
   5   6  -7    0.61    0.42
   5   6  -7    0.38    0.43
  -5  -6   6   84.54    4.26
   5   6  -6   86.74    4.75
   5   6  -6   89.39    4.84
  -5  -6   5   -0.22    0.67
   5   6  -5    3.48    1.00
  -5  -6   4   84.66    4.57
   5   6  -4   96.54    4.83
  -5  -6   3    8.20    1.45
  -5  -6   2   13.92    1.98
   5   6  -1   12.53    2.03
  -5  -6   1   10.92    1.79
   5   6   0   10.97    1.80
  -5  -6   0    8.41    1.68
   5   6   1    0.08    0.50
  -5  -6  -1    0.26    0.56
   5   7 -12   47.56    4.15
   5   7 -11   35.38    3.45
   5   7 -10    0.09    0.69
   5   7 -10    0.96    0.71
   5   7  -9  166.16    7.10
   5   7  -9  148.95    6.84
   5   7  -9  152.33    6.83
   5   7  -8   22.47    2.57
   5   7  -8   19.60    2.44
   5   7  -8   19.89    2.32
   5   7  -7   69.28    4.46
   5   7  -7   65.95    4.38
  -5  -7   6   14.78    1.91
   5   7  -6   15.30    2.10
  -5  -7   5   71.68    4.38
   5   7  -5   73.56    4.50
  -5  -7   4   -0.73    0.80
   5   7  -4    0.63    0.61
  -5  -7   3    3.36    1.02
  -5  -7   2   14.87    2.21
   5   7  -1    5.89    1.47
  -5  -7   1    5.70    1.58
   5   7   0    1.75    0.88
  -5  -7   0    0.72    0.79
   5   8 -11   91.86    5.89
   5   8 -10   17.70    2.47
   5   8 -10   19.72    2.56
   5   8 -10   20.10    2.74
   5   8  -9    9.57    1.85
   5   8  -9    9.44    1.90
   5   8  -9    8.35    1.71
   5   8  -8    4.75    1.26
   5   8  -7   85.71    5.27
  -5  -8   6    0.30    0.65
   5   8  -6    0.25    0.45
  -5  -8   5    1.20    0.79
   5   8  -5    0.52    0.47
  -5  -8   4   22.69    2.73
  -5  -8   3    1.15    0.82
  -5  -8   2    4.02    1.35
   5   9 -10   44.85    4.08
   5   9  -9    9.16    1.84
   5   9  -9    9.27    1.89
   5   9  -8   14.85    2.32
   5   9  -7    5.53    1.51
  -5  -9   6    2.59    1.34
   5   9  -6   -0.23    0.64
  -5  -9   5    7.29    1.80
   5   9  -5    5.53    1.40
  -5  -9   4   15.39    2.46
  -5 -10   6   72.48    5.29
   5  10  -6   72.57    5.26
   5  10  -5   21.40    2.85
   6  -9  -1    3.54    1.21
   6  -9   0   55.90    4.47
   6  -9   1   19.35    2.75
   6  -9   2   52.06    4.29
   6  -9   3   26.65    3.15
   6  -8  -3   24.23    2.93
   6  -8  -2    4.99    1.40
   6  -8  -1    1.63    0.73
   6  -8   0    1.08    0.88
   6  -8   1   18.66    2.46
   6  -8   2    0.55    0.59
   6  -8   3   55.19    4.35
   6  -8   4    1.79    0.92
   6  -8   5   52.24    4.42
   6  -7  -5    0.52    0.82
   6  -7  -4    6.42    1.60
   6  -7  -3   66.56    4.68
   6  -7  -2    6.54    1.44
   6  -7  -1    1.24    0.71
   6  -7   0    7.73    1.53
   6  -7   1   54.87    4.02
   6  -7   2    6.29    1.53
   6  -7   3   -0.10    0.62
   6  -7   4   26.97    3.00
   6  -7   5    1.14    0.72
   6  -6  -6    8.05    1.64
   6  -6  -6    9.10    1.82
   6  -6  -5  141.66    6.82
   6  -6  -5  139.59    6.50
   6  -6  -4    0.32    0.55
   6  -6  -3    4.65    1.27
   6  -6  -2    5.34    1.29
   6  -6  -1   86.80    4.88
   6  -6   0   16.77    2.13
   6  -6   1   22.91    2.48
   6  -6   2   41.91    3.42
   6  -6   3   18.68    2.37
   6  -6   4   14.99    2.21
  -6   6  -5    9.17    1.89
   6  -5  -7    1.17    0.64
   6  -5  -6   -0.24    0.67
   6  -5  -6    0.05    0.51
   6  -5  -5    3.87    1.14
   6  -5  -5    3.74    1.04
   6  -5  -4   26.45    2.74
   6  -5  -3   42.07    3.32
   6  -5  -2   36.85    3.10
   6  -5  -1   74.87    4.30
   6  -5   0   23.39    2.40
   6  -5   1   44.81    3.30
   6  -5   2   15.74    2.09
   6  -5   3   50.76    3.68
  -6   5  -3   48.01    3.53
  -6   5  -4    1.33    0.65
  -6   5  -5    1.78    0.90
   6  -4  -8   33.69    3.51
   6  -4  -7    7.47    1.66
   6  -4  -6    0.46    0.53
   6  -4  -6    0.57    0.52
   6  -4  -5   70.81    4.42
   6  -4  -5   69.16    4.19
   6  -4  -4    2.87    0.77
   6  -4  -4    2.79    0.88
   6  -4  -3    7.79    1.46
   6  -4  -2    2.15    0.87
   6  -4  -1  136.34    5.47
   6  -4   0    0.48    0.47
   6  -4   1    0.77    0.58
  -6   4  -2    6.79    1.42
  -6   4  -3    0.45    0.42
  -6   4  -4    6.00    1.46
  -6   4  -5   10.48    2.11
   6  -3  -8   80.86    5.20
   6  -3  -7    4.11    1.10
   6  -3  -6   32.27    2.92
   6  -3  -6   25.79    2.63
   6  -3  -5    9.67    1.59
   6  -3  -5   10.50    1.62
   6  -3  -4   90.27    4.55
   6  -3  -4   93.21    4.36
   6  -3  -3   74.67    4.05
   6  -3  -2  117.58    4.93
   6  -3  -1   68.45    3.67
   6  -3   0   18.78    1.95
  -6   3   0   16.55    1.95
  -6   3  -1   60.78    3.71
  -6   3  -2   13.69    1.81
  -6   3  -3    2.43    0.97
  -6   3  -3    3.30    1.05
  -6   3  -4   43.02    3.77
  -6   3  -5    1.13    0.79
   6  -2  -9    3.67    1.23
   6  -2  -8   27.36    2.93
   6  -2  -7   52.86    3.82
   6  -2  -6  247.81    7.79
   6  -2  -5   37.21    2.92
   6  -2  -5   39.28    2.92
   6  -2  -4   16.97    1.92
   6  -2  -4   15.88    1.75
   6  -2  -3   19.33    1.95
   6  -2  -2   18.11    1.88
  -6   2   2   17.82    1.96
  -6   2   1   38.65    2.86
  -6   2   0    1.55    0.74
  -6   2  -1   29.29    2.61
  -6   2  -2    0.20    0.54
  -6   2  -2   -0.03    0.44
  -6   2  -3   54.96    4.07
  -6   2  -4    1.35    0.66
  -6   2  -5    3.23    1.26
   6  -1 -10    2.47    1.14
   6  -1  -9  143.21    6.81
   6  -1  -8   17.79    2.30
   6  -1  -7   -0.31    0.57
   6  -1  -6    1.91    0.68
   6  -1  -5   66.84    3.69
   6  -1  -5   65.90    3.72
  -6   1   5   72.71    3.67
   6  -1  -4  168.47    5.62
   6  -1  -4  174.92    5.72
  -6   1   4  176.19    5.78
   6  -1  -3   98.71    4.09
   6  -1  -3   97.60    4.07
  -6   1   3   89.92    4.22
  -6   1   2   24.99    2.28
  -6   1   1   67.14    3.79
  -6   1   0   18.57    2.05
  -6   1  -1   89.25    4.58
  -6   1  -1   87.07    4.53
  -6   1  -2   20.61    2.28
  -6   1  -2   23.77    2.57
  -6   1  -3   32.25    3.11
  -6   1  -4   46.67    3.93
   6   0 -10   57.34    4.46
   6   0  -9   41.33    3.62
   6   0  -8   20.98    2.44
   6   0  -7  129.48    5.74
   6   0  -6   15.29    1.90
   6   0  -5   17.77    1.93
  -6   0   5   17.50    1.80
   6   0  -4   17.57    1.86
  -6   0   4   19.19    1.92
  -6   0   3   65.54    3.64
   6   0  -3   63.31    3.36
  -6   0   2   72.65    3.87
  -6   0   1  158.99    5.91
  -6   0   0  117.20    5.21
  -6   0   0  115.77    4.92
  -6   0  -1  256.33    7.87
  -6   0  -1  260.78    7.90
   6   0   2    9.34    1.55
  -6   0  -2    5.03    1.23
  -6   0  -2    6.76    1.37
  -6   0  -3    0.76    0.69
  -6   0  -4    4.03    1.32
   6   1 -11   26.21    3.11
   6   1 -10   69.14    4.77
   6   1  -9    4.73    1.23
   6   1  -8    0.15    0.49
   6   1  -7    0.17    0.45
   6   1  -6   30.81    2.68
  -6  -1   5  188.36    5.98
   6   1  -5  191.55    6.35
  -6  -1   4  640.97   11.20
   6   1  -4  667.12   11.46
  -6  -1   3    6.20    1.17
   6   1  -3    5.58    1.07
  -6  -1   2  627.18   11.55
   6   1  -2  641.68   10.76
  -6  -1   1   51.37    3.40
  -6  -1   0   28.74    2.66
   6   1   1    6.44    1.37
  -6  -1  -1    6.88    1.34
  -6  -1  -1    5.94    1.21
   6   1   2   10.44    1.81
  -6  -1  -2    7.60    1.50
  -6  -1  -2   10.80    1.71
   6   1   3   93.56    5.32
  -6  -1  -3   96.52    5.51
   6   1   4    1.67    0.81
  -6  -1  -4    1.79    0.83
   6   2 -11   -0.02    0.50
   6   2 -10    3.05    1.09
   6   2  -9   10.77    1.78
   6   2  -8  424.99   10.71
   6   2  -7  770.89   13.86
  -6  -2   6   49.80    3.01
   6   2  -6   48.74    3.37
  -6  -2   5   64.35    3.53
   6   2  -5   64.44    3.74
  -6  -2   4  441.86    9.52
   6   2  -4  470.39   10.05
  -6  -2   3   12.07    1.64
   6   2  -3   13.00    1.68
  -6  -2   2   24.79    2.35
  -6  -2   1   14.14    1.85
  -6  -2   0   16.38    2.03
   6   2   1    0.38    0.47
  -6  -2  -1    0.32    0.51
   6   2   2    5.20    1.33
  -6  -2  -2    8.30    1.59
   6   2   3    0.19    0.70
  -6  -2  -3    0.66    0.70
   6   3 -11   97.00    5.79
   6   3 -10  143.52    6.76
   6   3  -9  147.28    6.58
   6   3  -8    4.51    1.15
   6   3  -7  104.87    5.22
  -6  -3   6  136.40    5.12
   6   3  -6  133.46    5.68
  -6  -3   5    0.91    0.44
   6   3  -5    0.71    0.52
  -6  -3   4   87.21    4.35
   6   3  -4   90.14    4.52
  -6  -3   3   11.58    1.60
  -6  -3   2   11.99    1.79
  -6  -3   1    1.31    0.74
   6   3   0    7.27    1.44
  -6  -3   0    7.74    1.45
   6   3   1    7.18    1.56
  -6  -3  -1    4.36    1.18
  -6  -3  -2   27.14    2.94
   6   3   2   22.32    2.74
   6   4 -11   24.62    2.96
   6   4 -10    7.07    1.64
   6   4  -9    8.63    1.70
   6   4  -8    2.43    0.89
   6   4  -7  129.49    5.88
  -6  -4   6    2.12    0.82
   6   4  -6    2.56    0.90
  -6  -4   5   12.83    1.71
   6   4  -5   12.15    1.80
  -6  -4   4   65.57    3.94
  -6  -4   3   48.79    3.50
  -6  -4   2   66.99    4.21
  -6  -4   1   11.35    1.80
   6   4   0    0.94    0.64
  -6  -4   0    2.30    1.02
   6   4   1   12.90    2.05
  -6  -4  -1   13.12    2.04
   6   5 -11    5.25    1.41
   6   5 -10   77.06    5.04
   6   5  -9   39.44    3.48
   6   5  -8    2.41    0.94
   6   5  -7  114.63    5.68
  -6  -5   6   12.12    1.64
   6   5  -6   14.24    2.03
   6   5  -6   13.66    1.89
  -6  -5   5   -0.04    0.55
   6   5  -5    0.59    0.68
  -6  -5   4  123.26    5.66
  -6  -5   3    3.47    1.03
  -6  -5   2   17.22    2.30
  -6  -5   1    2.07    0.97
  -6  -5   0   26.12    3.01
   6   5   0   22.02    2.78
  -6  -5  -1    2.24    0.95
   6   6 -11   44.46    4.00
   6   6 -10  174.49    7.69
   6   6  -9    8.99    1.77
   6   6  -8    0.50    0.64
   6   6  -7    6.64    1.41
   6   6  -7    7.79    1.52
  -6  -6   6   45.32    3.49
   6   6  -6   45.93    3.61
  -6  -6   5   29.80    2.89
   6   6  -5   30.01    2.89
  -6  -6   4    0.86    0.53
  -6  -6   3    0.39    0.82
  -6  -6   2   27.73    3.05
  -6  -6   1    6.22    1.59
   6   7 -11    1.37    0.83
   6   7 -10    4.92    1.46
   6   7  -9    6.00    1.50
   6   7  -8    6.57    1.51
   6   7  -8    9.58    1.78
   6   7  -7   -0.49    0.54
  -6  -7   6   24.20    2.68
   6   7  -6   28.57    2.96
  -6  -7   5   84.67    5.10
  -6  -7   4    5.09    1.26
  -6  -7   3    9.50    1.80
  -6  -7   2    7.32    1.67
   6   8 -10    6.31    1.57
   6   8  -9   14.83    2.41
   6   8  -9   16.32    2.42
   6   8  -8    7.53    1.66
   6   8  -7    9.15    1.90
  -6  -8   6    0.10    0.56
   6   8  -6   -0.29    0.71
  -6  -8   5   23.70    2.88
  -6  -8   4   11.21    2.09
   6   9  -7   82.38    5.59
  -6  -9   6    6.92    1.62
   6   9  -6    6.83    1.65
   7  -8  -1    0.59    0.54
   7  -8   0    0.92    0.98
   7  -8   1    0.11    0.82
   7  -8   2    0.52    0.64
   7  -7  -4   18.33    2.55
   7  -7  -3    7.34    1.70
   7  -7  -2   21.63    2.80
   7  -7  -1    1.31    1.00
   7  -7   0   16.45    2.28
   7  -7   1   33.45    3.33
   7  -7   2   16.50    2.38
   7  -7   3   31.81    3.36
   7  -6  -5   19.82    2.66
   7  -6  -4   53.11    4.25
   7  -6  -3    0.44    0.72
   7  -6  -2    7.44    1.59
   7  -6  -1   25.62    2.81
   7  -6   0  106.73    5.69
   7  -6   1   16.02    2.24
   7  -6   2   -0.45    0.50
  -7   6  -3    9.97    1.77
   7  -5  -7   59.39    4.62
   7  -5  -6   -0.40    0.61
   7  -5  -6    0.00    0.50
   7  -5  -5    0.44    0.63
   7  -5  -4   42.71    3.63
   7  -5  -3   85.91    5.05
   7  -5  -2    0.49    0.60
   7  -5  -1    6.63    1.43
   7  -5   0   58.44    4.04
   7  -5   1   15.42    2.17
  -7   5  -2    9.77    1.69
  -7   5  -3   11.08    1.99
   7  -4  -7   82.24    5.25
   7  -4  -6    7.80    1.66
   7  -4  -6    8.55    1.68
   7  -4  -5   11.83    1.87
   7  -4  -4  101.30    5.33
   7  -4  -3   65.00    4.22
   7  -4  -2   10.09    1.73
   7  -4  -1  232.46    7.64
  -7   4   0  162.63    6.72
  -7   4  -1   21.71    2.52
  -7   4  -2    0.06    0.55
  -7   4  -3    5.32    1.43
   7  -3  -8   -0.19    0.72
   7  -3  -7   19.72    2.46
   7  -3  -6  208.14    7.74
   7  -3  -6  204.85    7.58
   7  -3  -5   27.05    2.77
   7  -3  -5   32.63    2.88
   7  -3  -4  217.24    7.42
   7  -3  -3   37.24    3.04
   7  -3  -2  139.25    5.70
  -7   3   1    3.70    1.04
  -7   3   0    6.21    1.35
  -7   3  -1   23.87    2.61
  -7   3  -2   61.85    4.31
  -7   3  -2   63.73    4.48
  -7   3  -3    7.43    1.58
   7  -2  -9   32.30    3.47
   7  -2  -8    1.53    0.81
   7  -2  -7  107.78    5.64
   7  -2  -6   47.88    3.58
  -7   2   5    6.90    1.32
   7  -2  -5    4.65    1.07
   7  -2  -5    4.72    1.15
  -7   2   4    2.22    0.77
   7  -2  -4    2.55    1.00
  -7   2   3   26.56    2.55
  -7   2   2  160.02    6.33
  -7   2   1   38.97    3.20
  -7   2   0   10.86    1.70
  -7   2  -1    0.79    0.61
  -7   2  -1   -0.03    0.59
  -7   2  -2    0.40    0.67
  -7   2  -2    1.23    0.77
  -7   2  -3   47.73    4.07
   7  -1  -9  113.01    6.28
   7  -1  -8   20.00    2.56
   7  -1  -7    0.09    0.48
   7  -1  -6   43.54    3.38
   7  -1  -5   21.61    2.24
   7  -1  -5   21.74    2.25
  -7   1   5   19.05    2.11
  -7   1   4   18.70    2.14
  -7   1   3   -0.40    0.68
  -7   1   2   22.08    2.35
  -7   1   1    8.99    1.55
  -7   1   0   23.02    2.50
  -7   1  -1  541.75   12.43
  -7   1  -1  514.20   12.08
  -7   1  -2   22.53    2.60
  -7   1  -2   24.39    2.78
  -7   1  -3  194.49    8.19
   7   0 -10   34.67    3.56
   7   0  -9   44.63    3.84
   7   0  -8    3.05    0.80
   7   0  -7    4.88    1.19
   7   0  -6   35.49    3.00
   7   0  -5    1.20    0.78
  -7   0   5    0.28    0.48
  -7   0   4    4.38    1.08
   7   0  -4    4.67    1.07
  -7   0   3  169.60    6.50
  -7   0   2 1463.61   19.40
  -7   0   1  167.98    6.67
  -7   0   0  153.82    6.55
  -7   0  -1  115.75    5.81
  -7   0  -1  109.45    5.58
  -7   0  -2    9.79    1.83
  -7   0  -2   11.51    1.91
  -7   0  -3   10.31    1.95
   7   1 -10   -0.03    0.52
   7   1  -9   12.79    2.09
   7   1  -8    1.75    0.77
   7   1  -7    5.30    1.24
  -7  -1   6  156.37    5.92
   7   1  -6  147.21    6.17
  -7  -1   5  928.07   14.68
   7   1  -5  909.52   14.91
  -7  -1   4  269.46    8.09
   7   1  -4  268.25    7.88
  -7  -1   3    8.17    1.38
  -7  -1   2  135.24    5.99
  -7  -1   1   28.44    2.76
  -7  -1   0   29.21    2.92
  -7  -1  -1   12.10    1.96
   7   1   2    8.66    1.78
  -7  -1  -2    8.11    1.68
   7   2 -10   -0.32    0.55
   7   2  -9   18.86    2.49
   7   2  -8  170.22    7.14
   7   2  -7   41.33    3.42
  -7  -2   6    2.53    0.80
   7   2  -6    3.38    1.00
  -7  -2   5    5.24    1.14
   7   2  -5    4.72    1.19
  -7  -2   4   -0.01    0.46
   7   2  -4    0.00    0.43
  -7  -2   3   16.33    2.10
   7   2  -3   19.76    2.23
  -7  -2   2    8.51    1.60
  -7  -2   1    0.08    0.44
  -7  -2   0    9.06    1.74
  -7  -2  -1   27.69    2.98
   7   2   2   94.05    5.76
   7   3 -10   49.15    4.17
   7   3  -9    3.47    1.20
   7   3  -8   10.46    1.82
   7   3  -7   91.29    5.16
  -7  -3   6   71.38    4.13
   7   3  -6   70.97    4.47
  -7  -3   5   10.21    1.69
   7   3  -5   10.55    1.73
  -7  -3   4    6.11    1.28
   7   3  -4    6.80    1.45
  -7  -3   3    8.46    1.60
  -7  -3   2   60.14    4.16
  -7  -3   1  120.00    6.10
  -7  -3   0    2.53    0.93
  -7  -3  -1   34.30    3.50
   7   4 -10   47.55    4.11
   7   4  -9   36.32    3.47
   7   4  -8    7.55    1.51
   7   4  -7   11.74    1.86
  -7  -4   6    0.68    0.52
   7   4  -6    0.41    0.62
  -7  -4   5   91.39    4.95
   7   4  -5   94.61    5.21
  -7  -4   4   77.33    4.67
  -7  -4   3   17.00    2.29
  -7  -4   2   63.33    4.45
  -7  -4   1    1.07    0.81
  -7  -4   0  114.86    6.39
   7   5 -10    0.44    0.49
   7   5  -9   69.85    4.93
   7   5  -8   27.60    3.09
   7   5  -7   23.61    2.73
  -7  -5   6    2.18    0.86
   7   5  -6    3.66    1.22
  -7  -5   5    0.27    0.61
  -7  -5   4    1.22    0.80
  -7  -5   3  128.35    6.46
  -7  -5   2    0.80    0.91
   7   6 -10   -0.60    0.98
   7   6  -9   32.45    3.43
   7   6  -8    1.58    0.91
   7   6  -7   61.19    4.57
  -7  -6   6   25.44    2.82
  -7  -6   5    0.74    0.70
  -7  -6   4   13.00    2.22
  -7  -6   3    1.61    1.02
   7   7  -9   49.81    4.35
   7   7  -8   10.34    1.98
   7   7  -7   14.90    2.27
  -7  -7   6   13.06    2.11
  -7  -7   5    0.92    0.62
   7   8  -7    2.08    0.97
   8  -7   0    7.19    1.76
   8  -6  -3    3.32    1.28
   8  -6  -2  242.19    9.19
   8  -6  -1   19.77    2.63
   8  -6   0    9.15    1.86
   8  -5  -5   38.53    3.76
   8  -5  -4    0.36    0.67
   8  -5  -3    4.17    1.27
   8  -5  -2   11.59    1.97
   8  -5  -1   -0.12    0.63
  -8   5   0   37.79    3.62
  -8   5  -1   88.88    5.49
  -8   5  -2   61.09    4.63
   8  -4  -7   -0.02    0.60
   8  -4  -6    0.82    0.83
   8  -4  -5    5.97    1.45
   8  -4  -4    7.75    1.59
   8  -4  -3   12.33    1.96
  -8   4   2   64.74    4.43
  -8   4   1    0.45    0.50
  -8   4   0    3.19    1.17
  -8   4  -1   10.63    1.91
  -8   4  -2   34.12    3.47
  -8   4  -2   29.44    3.33
   8  -3  -7    2.29    0.89
   8  -3  -6   12.80    2.10
   8  -3  -5   54.60    4.01
  -8   3   5   57.57    4.07
  -8   3   4    8.34    1.55
   8  -3  -4    7.56    1.47
  -8   3   3   90.00    5.13
  -8   3   2    1.02    0.48
  -8   3   1   41.96    3.60
  -8   3   0   80.73    5.10
  -8   3  -1   18.67    2.49
  -8   3  -2   -0.20    0.55
  -8   3  -2   -0.47    0.55
   8  -2  -8    1.66    1.00
   8  -2  -7    5.50    1.33
   8  -2  -6   25.28    2.66
  -8   2   5   22.20    2.49
  -8   2   4   52.81    3.89
  -8   2   3   23.94    2.65
  -8   2   2   10.08    1.79
  -8   2   1    7.25    1.59
  -8   2   0   35.95    3.45
  -8   2  -1   -0.53    0.55
  -8   2  -1   -1.06    0.67
  -8   2  -2   -0.53    0.73
  -8   2  -2    0.05    0.52
   8  -1  -8   21.51    2.69
   8  -1  -7    0.40    0.58
   8  -1  -6    3.48    1.07
  -8   1   6    2.85    0.97
  -8   1   5   28.46    2.81
  -8   1   4   35.40    3.18
  -8   1   3   64.86    4.33
  -8   1   2   21.71    2.61
  -8   1   1  119.88    6.12
  -8   1   0  350.98   10.68
  -8   1  -1    5.26    1.43
  -8   1  -2   32.08    3.41
  -8   1  -2   24.16    3.03
   8   0  -9    1.62    0.98
   8   0  -8   11.04    1.96
   8   0  -7  176.13    7.37
   8   0  -6    3.27    1.18
  -8   0   6    3.03    1.03
  -8   0   5    1.10    0.53
  -8   0   4   94.77    5.22
  -8   0   3   13.22    2.04
  -8   0   2    3.51    1.12
  -8   0   1    2.95    1.05
  -8   0   0    1.01    0.66
  -8   0  -1    0.78    0.59
   8   1  -9    3.93    1.17
   8   1  -8    3.90    1.26
   8   1  -7   97.01    5.46
  -8  -1   6    2.48    0.95
   8   1  -6    3.27    0.98
  -8  -1   5   68.43    4.38
   8   1  -5   69.19    4.42
  -8  -1   4    1.61    0.69
  -8  -1   3    7.10    1.65
  -8  -1   2    8.43    1.69
  -8  -1   1   25.07    2.88
  -8  -1   0   16.87    2.41
   8   2  -9    3.83    1.19
   8   2  -8   39.24    3.66
   8   2  -7   14.08    2.12
  -8  -2   6    0.85    0.61
   8   2  -6    0.53    0.63
  -8  -2   5   10.65    1.80
   8   2  -5    5.92    1.33
  -8  -2   4  104.38    5.59
  -8  -2   3    4.05    1.21
  -8  -2   2    0.46    0.75
  -8  -2   1    1.91    1.05
   8   3  -9    0.06    0.59
   8   3  -8   -0.38    0.71
   8   3  -7    0.83    0.85
  -8  -3   6   16.32    2.21
   8   3  -6   17.59    2.38
  -8  -3   5   -0.15    0.52
   8   3  -5    0.05    0.55
  -8  -3   4   69.94    4.67
  -8  -3   3   81.72    5.17
  -8  -3   2    8.44    1.76
   8   4  -9    0.44    0.69
   8   4  -8    1.38    0.65
   8   4  -7   64.17    4.67
  -8  -4   6    0.70    0.78
   8   4  -6   -0.93    0.80
  -8  -4   5   34.85    3.37
  -8  -4   4   43.51    3.78
  -8  -4   3    0.13    0.51
   8   5  -8    1.81    0.84
   8   5  -7   86.62    5.58
  -8  -5   6   31.09    3.15
  -8  -5   5    8.07    1.70
  -8  -6   6    0.38    0.46
   9  -4  -5   24.47    3.00
   9  -3  -6   21.67    2.78
  -9   3   5   29.29    3.22
  -9   3   4   -0.16    0.56
  -9   3   3   75.09    5.16
  -9   3   2    3.16    1.16
  -9   2   6    0.58    0.65
  -9   2   5   55.91    4.34
  -9   2   4   32.26    3.36
  -9   2   3   27.78    3.15
  -9   2   2    4.00    1.34
  -9   1   6    4.49    1.32
  -9   1   5    1.87    0.76
  -9   1   4    9.00    1.77
  -9   1   3    1.36    0.85
  -9   1   2   14.98    2.36
   9   0  -8   16.92    2.50
   9   0  -7   15.21    2.31
  -9   0   6    7.62    1.62
  -9   0   5    3.58    1.14
  -9   0   4   17.46    2.43
  -9   0   3   21.71    2.76
   9   1  -8    8.39    1.78
   9   1  -7   -0.67    0.56
  -9  -1   6   14.10    2.20
  -9  -1   5    2.97    1.05
  -9  -1   4   19.74    2.63
  -9  -1   3   20.37    2.73
   9   2  -8   37.62    3.77
   9   2  -7   20.03    2.71
  -9  -2   6    2.46    1.09
  -9  -2   5    1.25    0.68
  -9  -2   4   44.66    4.03
   9   3  -7    1.17    0.74
  -9  -3   6   27.49    3.11
   9   3  -6   26.89    3.09
   0   0   0    0.00    0.00


TITL MP_1 in P-1
REM P-1 (#2 in standard setting)
CELL 0.71073   7.718438   9.939338  10.030048 115.0288 112.4706  92.6719
ZERR    3.00   0.000945   0.000992   0.001020   0.0098   0.0105   0.0091
LATT  1
SFAC C H N O
UNIT 33.00 30.00 3.00 3.00
TREF
HKLF 4
END
_computing_structure_solution     'SHELXT 2014/5 (Sheldrick, 2014)'
;
_shelx_hkl_checksum              10898
loop_
_space_group_symop_operation_xyz
'x, y, z'
'-x, -y, -z'
loop_
_atom_site_label
_atom_site_type_symbol
_atom_site_fract_x
_atom_site_fract_y
_atom_site_fract_z
_atom_site_U_iso_or_equiv
_atom_site_adp_type
_atom_site_occupancy
_atom_site_site_symmetry_order
_atom_site_calc_flag
C1A C 0.77882(19) 0.80344(15) 0.27507(16) 0.0137(3) Uani 1 1 d
C2A C 0.63009(19) 0.70793(15) 0.26611(16) 0.0130(3) Uani 1 1 d
C3A C 0.62151(19) 0.55080(15) 0.20468(16) 0.0134(3) Uani 1 1 d
C4A C 0.7578(2) 0.49160(16) 0.15290(16) 0.0155(3) Uani 1 1 d
H4A H 0.750(2) 0.3828(19) 0.1076(18) 0.016(4) Uiso 1 1 d
C5A C 0.9085(2) 0.58751(17) 0.16845(17) 0.0159(3) Uani 1 1 d
H5A H 1.004(2) 0.5487(19) 0.140(2) 0.023(4) Uiso 1 1 d
C6A C 0.9190(2) 0.74282(16) 0.23014(16) 0.0149(3) Uani 1 1 d
H6A H 1.024(2) 0.8093(18) 0.2436(19) 0.017(4) Uiso 1 1 d
C7A C 0.78911(19) 0.97030(16) 0.33081(16) 0.0145(3) Uani 1 1 d
O71A O 0.93572(14) 1.04177(12) 0.32928(13) 0.0205(3) Uani 1 1 d
H71A H 0.938(3) 1.152(3) 0.368(3) 0.071(7) Uiso 1 1 d
O72A O 0.67285(15) 1.03387(11) 0.37084(13) 0.0232(3) Uani 1 1 d
C8A C 0.4806(2) 0.77328(15) 0.31933(17) 0.0150(3) Uani 1 1 d
O81A O 0.54245(15) 0.82580(12) 0.48002(12) 0.0205(3) Uani 1 1 d
H81A H 0.450(3) 0.869(2) 0.510(3) 0.053(6) Uiso 1 1 d
O82A O 0.32857(14) 0.77818(11) 0.22763(12) 0.0204(3) Uani 1 1 d
C9A C 0.46821(19) 0.44580(15) 0.19762(16) 0.0151(3) Uani 1 1 d
O91A O 0.47584(15) 0.30072(12) 0.13041(13) 0.0221(3) Uani 1 1 d
H91A H 0.373(4) 0.244(3) 0.126(3) 0.069(7) Uiso 1 1 d
O92A O 0.35251(15) 0.48904(12) 0.25017(13) 0.0240(3) Uani 1 1 d
N1B N 0.17076(18) 0.11055(14) 0.07462(15) 0.0195(3) Uani 1 1 d
C2B C -0.0016(2) 0.14191(17) 0.02235(18) 0.0190(3) Uani 1 1 d
H2B H -0.005(2) 0.246(2) 0.0359(19) 0.023(4) Uiso 1 1 d
C3B C -0.1722(2) 0.03190(17) -0.05225(18) 0.0205(3) Uani 1 1 d
H3B H -0.295(3) 0.0579(19) -0.089(2) 0.027(4) Uiso 1 1 d
N1C N 0.96658(17) 1.34142(13) 0.43213(14) 0.0175(3) Uani 1 1 d
C2C C 1.1168(2) 1.42572(17) 0.44258(17) 0.0179(3) Uani 1 1 d
H2C H 1.200(2) 1.3711(19) 0.401(2) 0.022(4) Uiso 1 1 d
C3C C 1.1493(2) 1.58355(17) 0.50973(17) 0.0178(3) Uani 1 1 d
H3C H 1.260(2) 1.6428(17) 0.5157(18) 0.016(4) Uiso 1 1 d
loop_
_atom_site_aniso_label
_atom_site_aniso_U_11
_atom_site_aniso_U_22
_atom_site_aniso_U_33
_atom_site_aniso_U_23
_atom_site_aniso_U_13
_atom_site_aniso_U_12
C1A 0.0131(7) 0.0151(7) 0.0122(6) 0.0064(6) 0.0049(5) 0.0036(5)
C2A 0.0121(7) 0.0154(7) 0.0115(6) 0.0070(5) 0.0044(5) 0.0042(5)
C3A 0.0117(7) 0.0160(7) 0.0114(6) 0.0068(6) 0.0038(5) 0.0031(5)
C4A 0.0162(7) 0.0146(7) 0.0136(7) 0.0058(6) 0.0055(6) 0.0046(6)
C5A 0.0151(7) 0.0199(7) 0.0165(7) 0.0095(6) 0.0094(6) 0.0080(6)
C6A 0.0134(7) 0.0183(7) 0.0152(7) 0.0093(6) 0.0069(6) 0.0039(6)
C7A 0.0148(7) 0.0156(7) 0.0126(7) 0.0068(6) 0.0058(6) 0.0032(5)
O71A 0.0199(5) 0.0135(5) 0.0315(6) 0.0095(5) 0.0162(5) 0.0030(4)
O72A 0.0248(6) 0.0175(5) 0.0352(6) 0.0116(5) 0.0215(5) 0.0097(4)
C8A 0.0158(7) 0.0118(7) 0.0201(7) 0.0086(6) 0.0095(6) 0.0028(5)
O81A 0.0214(6) 0.0243(6) 0.0200(5) 0.0098(5) 0.0136(5) 0.0093(5)
O82A 0.0146(5) 0.0234(6) 0.0270(6) 0.0140(5) 0.0102(4) 0.0078(4)
C9A 0.0137(7) 0.0154(7) 0.0149(7) 0.0077(6) 0.0046(6) 0.0039(5)
O91A 0.0185(6) 0.0142(5) 0.0324(6) 0.0089(5) 0.0128(5) 0.0021(4)
O92A 0.0236(6) 0.0210(6) 0.0353(6) 0.0138(5) 0.0199(5) 0.0066(5)
N1B 0.0197(6) 0.0177(6) 0.0217(6) 0.0105(5) 0.0088(5) 0.0029(5)
C2B 0.0242(8) 0.0145(7) 0.0214(7) 0.0099(6) 0.0117(6) 0.0050(6)
C3B 0.0193(8) 0.0215(8) 0.0255(8) 0.0147(7) 0.0102(6) 0.0067(6)
N1C 0.0198(6) 0.0164(6) 0.0153(6) 0.0083(5) 0.0060(5) 0.0037(5)
C2C 0.0192(7) 0.0188(7) 0.0158(7) 0.0092(6) 0.0067(6) 0.0046(6)
C3C 0.0174(7) 0.0190(8) 0.0173(7) 0.0104(6) 0.0064(6) 0.0021(6)
loop_
_atom_type_symbol
_atom_type_description
_atom_type_scat_dispersion_real
_atom_type_scat_dispersion_imag
_atom_type_scat_source
C C 0.0033 0.0016 'International Tables Vol C Tables 4.2.6.8 and 6.1.1.4'
H H 0.0000 0.0000 'International Tables Vol C Tables 4.2.6.8 and 6.1.1.4'
N N 0.0061 0.0033 'International Tables Vol C Tables 4.2.6.8 and 6.1.1.4'
O O 0.0106 0.0060 'International Tables Vol C Tables 4.2.6.8 and 6.1.1.4'
loop_
_geom_angle_atom_site_label_1
_geom_angle_atom_site_label_2
_geom_angle_atom_site_label_3
_geom_angle
_geom_angle_site_symmetry_1
_geom_angle_site_symmetry_3
C6A C1A C2A 120.00(12) . .
C6A C1A C7A 118.84(12) . .
C2A C1A C7A 121.16(12) . .
C3A C2A C1A 118.74(12) . .
C3A C2A C8A 120.77(12) . .
C1A C2A C8A 120.48(12) . .
C4A C3A C2A 120.18(12) . .
C4A C3A C9A 119.47(12) . .
C2A C3A C9A 120.33(12) . .
C5A C4A C3A 120.65(13) . .
C5A C4A H4A 119.1(9) . .
C3A C4A H4A 120.2(9) . .
C6A C5A C4A 119.53(13) . .
C6A C5A H5A 119.8(10) . .
C4A C5A H5A 120.6(10) . .
C5A C6A C1A 120.77(12) . .
C5A C6A H6A 119.9(10) . .
C1A C6A H6A 119.3(10) . .
O72A C7A O71A 123.00(13) . .
O72A C7A C1A 123.96(12) . .
O71A C7A C1A 113.03(12) . .
C7A O71A H71A 110.7(14) . .
O82A C8A O81A 125.50(13) . .
O82A C8A C2A 123.72(12) . .
O81A C8A C2A 110.78(11) . .
C8A O81A H81A 108.7(13) . .
O92A C9A O91A 123.61(12) . .
O92A C9A C3A 123.82(12) . .
O91A C9A C3A 112.56(12) . .
C9A O91A H91A 106.8(15) . .
C2B N1B C3B 117.41(13) . 2
N1B C2B C3B 121.56(13) . .
N1B C2B H2B 118.1(10) . .
C3B C2B H2B 120.3(10) . .
N1B C3B C2B 121.03(14) 2 .
N1B C3B H3B 119.2(10) 2 .
C2B C3B H3B 119.8(10) . .
C3C N1C C2C 117.16(13) 2_786 .
N1C C2C C3C 121.28(14) . .
N1C C2C H2C 116.5(10) . .
C3C C2C H2C 122.2(10) . .
N1C C3C C2C 121.56(13) 2_786 .
N1C C3C H3C 118.7(9) 2_786 .
C2C C3C H3C 119.7(9) . .
loop_
_geom_bond_atom_site_label_1
_geom_bond_atom_site_label_2
_geom_bond_distance
_geom_bond_site_symmetry_2
C1A C6A 1.3933(19) .
C1A C2A 1.4052(19) .
C1A C7A 1.4962(19) .
C2A C3A 1.4028(19) .
C2A C8A 1.5119(19) .
C3A C4A 1.3925(19) .
C3A C9A 1.5008(19) .
C4A C5A 1.385(2) .
C4A H4A 0.968(16) .
C5A C6A 1.383(2) .
C5A H5A 0.932(18) .
C6A H6A 0.948(16) .
C7A O72A 1.2163(17) .
C7A O71A 1.3164(16) .
O71A H71A 0.99(3) .
C8A O82A 1.2013(17) .
C8A O81A 1.3322(17) .
O81A H81A 0.93(2) .
C9A O92A 1.2099(17) .
C9A O91A 1.3240(17) .
O91A H91A 0.93(2) .
N1B C2B 1.336(2) .
N1B C3B 1.3377(19) 2
C2B C3B 1.382(2) .
C2B H2B 0.984(17) .
C3B N1B 1.3377(19) 2
C3B H3B 0.971(18) .
N1C C3C 1.3377(19) 2_786
N1C C2C 1.3416(19) .
C2C C3C 1.385(2) .
C2C H2C 0.957(17) .
C3C N1C 1.3378(19) 2_786
C3C H3C 0.984(15) .
loop_
_geom_torsion_atom_site_label_1
_geom_torsion_atom_site_label_2
_geom_torsion_atom_site_label_3
_geom_torsion_atom_site_label_4
_geom_torsion
_geom_torsion_site_symmetry_1
_geom_torsion_site_symmetry_4
C6A C1A C2A C3A -2.77(19) . .
C7A C1A C2A C3A 176.62(11) . .
C6A C1A C2A C8A 178.17(12) . .
C7A C1A C2A C8A -2.44(19) . .
C1A C2A C3A C4A -0.40(19) . .
C8A C2A C3A C4A 178.66(11) . .
C1A C2A C3A C9A 178.27(12) . .
C8A C2A C3A C9A -2.67(19) . .
C2A C3A C4A C5A 3.1(2) . .
C9A C3A C4A C5A -175.60(12) . .
C3A C4A C5A C6A -2.5(2) . .
C4A C5A C6A C1A -0.7(2) . .
C2A C1A C6A C5A 3.4(2) . .
C7A C1A C6A C5A -176.05(12) . .
C6A C1A C7A O72A 179.16(13) . .
C2A C1A C7A O72A -0.2(2) . .
C6A C1A C7A O71A 0.40(17) . .
C2A C1A C7A O71A -179.00(12) . .
C3A C2A C8A O82A -86.80(17) . .
C1A C2A C8A O82A 92.24(17) . .
C3A C2A C8A O81A 94.20(14) . .
C1A C2A C8A O81A -86.75(15) . .
C4A C3A C9A O92A 174.85(12) . .
C2A C3A C9A O92A -3.8(2) . .
C4A C3A C9A O91A -3.90(18) . .
C2A C3A C9A O91A 177.42(11) . .
C3B N1B C2B C3B -0.1(2) 2 .
N1B C2B C3B N1B 0.1(2) . 2
C3C N1C C2C C3C -0.4(2) 2_786 .
N1C C2C C3C N1C 0.5(2) . 2_786

_cod_database_fobs_code 2021398
