#------------------------------------------------------------------------------
#$Date: 2018-04-30 18:54:21 +0300 (Mon, 30 Apr 2018) $
#$Revision: 207539 $
#$URL: file:///home/coder/svn-repositories/cod/cif/2/02/11/2021109.cif $
#------------------------------------------------------------------------------
#
# This file is available in the Crystallography Open Database (COD),
# http://www.crystallography.net/. The original data for this entry
# were provided by IUCr Journals, http://journals.iucr.org/.
#
# The file may be used within the scientific community so long as
# proper attribution is given to the journal article from which the
# data were obtained.
#
data_2021109
loop_
_publ_author_name
'Ovchinnikov, Alexander'
'Bobev, Svilen'
_publ_section_title
;
 Undistorted linear Bi chains with hypervalent bonding in La~3~TiBi~5~
 from single-crystal X-ray diffraction
;
_journal_coeditor_code           KU3221
_journal_issue                   5
_journal_name_full               'Acta Crystallographica Section C'
_journal_page_first              618
_journal_page_last               622
_journal_paper_doi               10.1107/S205322961800565X
_journal_volume                  74
_journal_year                    2018
_chemical_formula_iupac          'La3 Ti Bi5'
_chemical_formula_sum            'Bi5 La3 Ti'
_chemical_formula_weight         1509.53
_chemical_name_systematic
;
Trilanthanum titanium pentabismuthide
;
_space_group_crystal_system      hexagonal
_space_group_IT_number           193
_space_group_name_Hall           '-P 6c 2'
_space_group_name_H-M_alt        'P 63/m c m'
_symmetry_space_group_name_Hall  '-P 6c 2'
_symmetry_space_group_name_H-M   'P 63/m c m'
_audit_creation_method           SHELXL-2014/7
_cell_angle_alpha                90
_cell_angle_beta                 90
_cell_angle_gamma                120
_cell_formula_units_Z            2
_cell_length_a                   9.6871(13)
_cell_length_b                   9.6871
_cell_length_c                   6.4528(8)
_cell_measurement_reflns_used    861
_cell_measurement_temperature    200(2)
_cell_measurement_theta_max      26.87
_cell_measurement_theta_min      4.86
_cell_volume                     524.40(10)
_computing_cell_refinement
;
SAINT (Bruker, 2014)
;
_computing_data_collection
;
SMART (Bruker, 2014)
;
_computing_data_reduction
;
SAINT (Bruker, 2014)
;
_computing_molecular_graphics
;
DIAMOND (Brandenburg, 2014)
;
_computing_publication_material
;
publCIF (Westrip, 2010)
;
_computing_structure_refinement
;
SHELXL2014 (Sheldrick, 2015b)
;
_computing_structure_solution
;
SHELXT (Sheldrick, 2015a)
;
_diffrn_ambient_temperature      200(2)
_diffrn_measured_fraction_theta_full 1.000
_diffrn_measured_fraction_theta_max 1.000
_diffrn_measurement_device_type  'CCD area detector'
_diffrn_measurement_method       'phi and omega scans'
_diffrn_radiation_type           MoK\a
_diffrn_radiation_wavelength     0.71073
_diffrn_reflns_av_R_equivalents  0.0741
_diffrn_reflns_limit_h_max       12
_diffrn_reflns_limit_h_min       -10
_diffrn_reflns_limit_k_max       11
_diffrn_reflns_limit_k_min       -12
_diffrn_reflns_limit_l_max       8
_diffrn_reflns_limit_l_min       -8
_diffrn_reflns_number            4569
_diffrn_reflns_theta_full        25.242
_diffrn_reflns_theta_max         26.867
_diffrn_reflns_theta_min         2.428
_exptl_absorpt_coefficient_mu    96.132
_exptl_absorpt_correction_T_max  0.046
_exptl_absorpt_correction_T_min  0.008
_exptl_absorpt_correction_type   multi-scan
_exptl_absorpt_process_details
;
(SADABS; Bruker, 2014)
;
_exptl_crystal_colour            black
_exptl_crystal_density_diffrn    9.560
_exptl_crystal_description       block
_exptl_crystal_F_000             1216
_exptl_crystal_size_max          0.120
_exptl_crystal_size_mid          0.070
_exptl_crystal_size_min          0.050
_refine_diff_density_max         1.271
_refine_diff_density_min         -1.098
_refine_ls_extinction_coef       0.00126(9)
_refine_ls_extinction_expression Fc^*^=kFc[1+0.001xFc^2^\l^3^/sin(2\q)]^-1/4^
_refine_ls_extinction_method
;
SHELXL2014 (Sheldrick, 2015b)
;
_refine_ls_goodness_of_fit_ref   1.077
_refine_ls_hydrogen_treatment    undef
_refine_ls_matrix_type           full
_refine_ls_number_parameters     14
_refine_ls_number_reflns         233
_refine_ls_number_restraints     0
_refine_ls_restrained_S_all      1.077
_refine_ls_R_factor_all          0.0209
_refine_ls_R_factor_gt           0.0185
_refine_ls_shift/su_max          0.000
_refine_ls_shift/su_mean         0.000
_refine_ls_structure_factor_coef Fsqd
_refine_ls_weighting_details
'w=1/[\s^2^(Fo^2^)+(0.0129P)^2^+1.9223P] where P=(Fo^2^+2Fc^2^)/3'
_refine_ls_weighting_scheme      calc
_refine_ls_wR_factor_gt          0.0359
_refine_ls_wR_factor_ref         0.0365
_reflns_number_gt                217
_reflns_number_total             233
_reflns_threshold_expression     'I > 2\s(I)'
_cod_data_source_file            ku3221sup1.cif
_cod_data_source_block           I
_cod_original_cell_volume        524.40(16)
_cod_database_code               2021109
_shelx_space_group_comment
;
The symmetry employed for this shelxl refinement is uniquely defined
by the following loop, which should always be used as a source of
symmetry information in preference to the above space-group names.
They are only intended as comments.
;
_shelx_estimated_absorpt_t_min   0.031
_shelx_estimated_absorpt_t_max   0.086
_shelx_hkl_file
;
  -1   0   0 11.0560 4.12646   3
  -1   1   0 28.4659 4.15249   1
  -1   1   0 18.3382 8.97690   2
  -1   1   0 9.68259 2.77000   3
   0  -1   0 11.6360 6.90371   1
   0  -1   0 0.22924 8.26945   2
   0  -1   0 2.55834 4.50892   3
   0   1   0 12.1234 5.35397   1
   0   1   0 5.21217 8.34428   2
   0   1   0 9.28512 4.84382   3
   1  -1   0 21.0560 3.55397   1
   1  -1   0 7.52437 2.82481   1
   1  -1   0 7.25173 7.02109   2
   1  -1   0 4.62852 2.12572   3
   1   0   0 20.2971 6.52867   1
   1   0   0 13.9494 3.21367   2
   1   0   0 6.05719 3.71436   3
  -1   0   0 -0.1306 1.86430   1
  -1   0   0 10.6297 3.44200   2
   1  -2   0 42.1304 7.51613   1
   1  -2   0 64.0526 21.8531   2
  -1   2   0 47.5402 7.65471   1
  -1   2   0 43.9193 7.38517   3
   1   1   0 45.1542 20.0360   2
   2  -1   0 54.7564 9.60127   1
   2  -1   0 41.0539 11.1790   2
   2  -1   0 33.2118 6.19065   3
  -2   1   0 32.7858 5.70012   3
  -1  -1   0 47.2144 19.2970   2
   1  -2   0 36.1733 7.02405   3
   1   1   0 43.2721 16.6961   1
  -2   1   0 54.4585 13.1692   2
  -1  -1   0 27.0956 15.7064   3
  -1  -1   0 26.8356 19.4354   2
   2  -2   0 451.391 26.8697   1
   2   0   0 422.147 34.5368   1
   0   2   0 463.374 32.4527   3
   2   0   0 485.989 27.1577   2
   2   0   0 507.482 31.3691   3
   0  -2   0 489.761 55.2502   2
   0  -2   0 469.644 33.7749   3
  -2   2   0 456.677 27.3342   1
   2  -2   0 470.147 42.9168   2
  -2   0   0 488.699 28.5185   2
   0   2   0 439.050 34.2676   1
   2  -2   0 464.078 26.7069   3
   2   1   0 1347.92 83.4619   1
   1  -3   0 1348.94 71.3637   3
   1  -3   0 1371.90 100.182   2
  -1   3   0 1304.40 69.6241   1
   1   2   0 1256.93 82.8788   3
   3  -1   0 1370.00 74.0651   1
   3  -1   0 1404.62 72.5121   2
   3  -1   0 1315.34 68.6866   3
  -1  -2   0 1149.06 81.7219   3
   2  -3   0 1259.79 93.7724   2
   3  -2   0 1327.72 67.7334   3
   1   2   0 1220.16 84.4591   1
  -2   3   0 1404.58 68.5025   1
  -1  -2   0 1280.07 89.2957   2
   3  -2   0 1333.54 69.8904   1
   3  -2   0 1194.12 78.4131   2
  -2  -1   0 1288.62 79.8910   2
  -2  -1   0 1362.15 74.2135   2
   2  -3   0 1323.11 68.4946   3
   3   0   0 7607.86 374.851   1
   3   0   0 7694.06 362.163   2
   3   0   0 7457.14 367.718   3
   0   3   0 7836.10 373.171   1
   0  -3   0 7622.75 398.195   2
  -3   0   0 7368.33 363.892   2
  -3   3   0 7571.45 363.522   1
   3  -3   0 7784.92 362.323   3
   0  -3   0 8084.38 372.437   3
   3  -3   0 8124.80 387.568   2
   3  -3   0 7742.61 362.636   1
  -2  -2   0 173.301 31.5086   2
   2  -4   0 148.438 42.2961   2
   2  -4   0 129.011 18.2594   3
   2   2   0 206.600 38.6492   1
   4  -2   0 192.444 26.6650   2
  -2   4   0 196.799 21.0026   1
  -2  -2   0 174.143 32.3097   3
   4  -2   0 207.055 24.7796   1
   4  -2   0 231.453 20.6611   3
   3   1   0 96.6248 24.7719   1
  -1   4   0 59.1253 13.7326   1
   1   3   0 93.3653 26.1031   1
  -1  -3   0 59.9200 22.0185   3
   3  -4   0 75.1023 12.4862   3
   4  -1   0 86.7572 14.0556   2
  -3   4   0 80.3717 12.6297   1
   3  -4   0 63.3383 31.2571   2
   4  -3   0 100.454 15.5695   1
   4  -1   0 64.3400 12.6111   3
  -1  -3   0 53.3603 26.0640   2
   1  -4   0 61.2431 15.0398   3
   4  -1   0 44.4703 15.6304   1
   1  -4   0 143.852 44.2072   2
  -3  -1   0 79.3054 14.6357   2
  -3  -1   0 59.5380 16.4028   2
   4  -3   0 68.1554 21.1657   2
   4  -3   0 105.852 13.5248   3
   4  -4   0 846.458 48.3061   3
  -4   4   0 834.194 49.6979   1
  -4   0   0 931.140 51.4614   2
   4  -4   0 820.646 48.4975   1
   0   4   0 778.442 57.7817   1
   4   0   0 812.442 54.2027   3
   4   0   0 849.889 48.1320   2
   0  -4   0 801.561 58.4835   3
   4   0   0 798.256 61.1688   1
   4  -4   0 782.552 70.8569   2
   0  -4   0 670.819 86.7101   2
  -3   5   0 206.954 22.5385   1
  -2  -3   0 192.942 35.8456   2
  -2  -3   0 174.719 34.7300   3
   3   2   0 286.144 47.8138   1
   5  -3   0 223.303 26.9639   1
  -2   5   0 181.967 22.8566   1
   2  -5   0 201.495 53.3463   2
  -3  -2   0 179.854 34.1643   3
   5  -2   0 223.258 23.2165   3
   5  -2   0 170.720 24.6428   2
  -3  -2   0 222.727 31.0602   2
   5  -2   0 243.537 30.9565   1
   5  -3   0 208.922 21.8564   3
   3  -5   0 230.195 24.5214   3
   2   3   0 194.176 39.2248   1
   2  -5   0 222.204 25.6966   3
   3  -5   0 169.017 50.0067   2
   5  -3   0 196.154 32.0609   2
   5  -1   0 1702.79 106.336   1
   4   1   0 1912.04 116.247   1
   4  -5   0 1929.48 95.6698   1
   1  -5   0 1906.39 146.004   2
   5  -4   0 1928.93 95.9851   3
   1   4   0 1830.35 116.230   1
   5  -1   0 1686.74 98.0330   3
   5  -1   0 1780.07 95.1919   2
   5  -4   0 1916.95 118.647   2
  -4  -1   0 1755.70 98.8755   2
  -4  -1   0 1890.64 94.8649   2
  -1   5   0 1803.01 101.718   1
   4  -5   0 1704.30 129.064   2
   4  -5   0 1798.33 95.9185   3
   1  -5   0 1832.92 102.791   3
  -4   5   0 1844.62 95.9244   1
   5  -4   0 1821.28 97.7616   1
  -1  -4   0 1686.67 112.239   3
  -1  -4   0 1793.00 127.911   2
   5   0   0 853.609 48.8970   2
   0  -5   0 786.648 100.541   2
   5  -5   0 819.343 77.5445   2
   5  -5   0 851.254 51.2161   1
   5  -5   0 858.654 50.2710   3
  -5   5   0 796.862 51.4994   1
   5   0   0 856.668 65.3446   1
  -5   0   0 831.103 50.7745   2
   0   5   0 715.971 59.3502   1
   0  -5   0 768.495 60.3840   3
   6  -3   0 1035.17 68.3846   2
   6  -3   0 1075.58 67.2141   1
   6  -3   0 973.093 59.9009   3
   3  -6   0 1083.72 63.6730   3
   3  -6   0 1151.27 137.680   2
  -3  -3   0 933.630 70.9029   2
   3   3   0 1079.13 102.318   1
  -3   6   0 1006.38 61.1854   1
  -3  -3   0 1057.58 79.7066   3
   6  -4   0 1544.47 90.3834   1
   6  -2   0 1625.49 89.3511   2
  -2   6   0 1583.26 89.7217   1
   6  -4   0 1553.35 102.900   2
  -4  -2   0 1555.10 90.0781   2
   2  -6   0 1514.08 91.1754   3
   6  -2   0 1709.32 98.9282   1
  -4  -2   0 1506.77 101.860   3
   2  -6   0 1750.00 146.477   2
   4  -6   0 1510.88 130.598   2
  -2  -4   0 1629.23 106.641   3
   4  -6   0 1491.81 87.3222   3
  -4   6   0 1587.51 86.8665   1
   2   4   0 1565.94 109.480   1
   4   2   0 1564.12 111.095   1
   6  -2   0 1594.86 87.9501   3
  -2  -4   0 1601.60 110.775   2
   6  -4   0 1684.95 86.5422   3
  -5   6   0 981.752 57.7477   1
   1  -6   0 1105.41 127.362   2
   5  -6   0 858.560 55.5542   1
   1  -6   0 906.524 64.4320   3
   6  -5   0 958.821 56.6919   3
   5   1   0 913.602 74.3302   1
   1   5   0 964.557 73.7292   1
   6  -5   0 985.187 59.3856   1
   6  -5   0 1028.61 81.7683   2
   6  -1   0 892.413 53.8089   2
  -5  -1   0 1105.92 55.6567   2
   5  -6   0 905.541 56.3515   3
  -5  -1   0 864.698 54.3233   2
  -1  -5   0 865.297 84.8253   2
  -1   6   0 866.146 62.3398   1
   6  -1   0 885.971 59.8570   3
   5  -6   0 917.920 91.9197   2
  -1  -5   0 915.058 73.3860   3
   6  -1   0 820.129 66.5305   1
   6  -6   0 505.456 36.4490   3
   6   0   0 510.149 34.1184   2
  -6   0   0 489.938 32.4874   2
  -6   6   0 466.903 37.8923   1
   6   0   0 544.509 61.3667   1
   0  -6   0 381.246 48.9652   3
   0  -6   0 437.191 76.9742   2
   6  -6   0 529.178 75.4712   2
   0   6   0 548.909 58.2542   1
   6  -6   0 501.660 37.5666   1
  -3  -4   0 12.3167 17.6209   3
   7  -3   0 19.3014 15.4973   1
   7  -3   0 -1.4049 9.50638   2
   4   3   0 -0.9748 19.1674   1
   4  -7   0 -22.216 25.5423   2
   7  -3   0 6.63114 8.29240   3
  -3   7   0 1.30008 8.74228   1
  -3  -4   0 5.08847 17.6349   2
   7  -4   0 -1.8192 9.99907   1
  -4  -3   0 5.38124 13.1788   2
   7  -4   0 2.74679 7.08954   3
  -4  -3   0 10.2537 17.4826   3
   4  -7   0 -5.2287 7.44110   3
   3  -7   0 15.6874 10.5645   3
   3  -7   0 6.01584 32.4018   2
   3   4   0 -7.6576 17.0911   1
  -4   7   0 6.25967 8.66185   1
   7  -4   0 5.44696 10.9961   2
   5  -7   0 465.388 82.8165   2
   2   5   0 492.536 62.6681   1
   7  -5   0 430.062 34.2671   3
   2  -7   0 507.714 94.6614   2
  -5  -2   0 439.026 52.2356   3
   2  -7   0 517.434 49.8452   3
   5   2   0 502.650 67.1310   1
   7  -2   0 488.463 54.5398   1
   7  -2   0 469.190 43.5906   3
   5  -7   0 493.489 36.1733   1
   7  -5   0 380.465 54.7442   2
   5  -7   0 465.603 36.8133   3
  -2  -5   0 510.900 60.7930   3
   7  -2   0 496.175 36.4372   2
  -2   7   0 497.288 40.6289   1
  -5   7   0 426.457 35.2840   1
  -2  -5   0 585.268 70.6887   2
   7  -5   0 441.020 44.8954   1
   1  -7   0 1106.13 81.5738   3
  -1  -6   0 1281.45 105.874   2
   7  -6   0 1216.01 99.9134   2
   6   1   0 1227.40 94.3363   1
  -1  -6   0 1356.31 94.5507   3
  -6   7   0 1177.12 73.3094   1
   6  -7   0 1356.64 119.264   2
   7  -6   0 1237.00 75.7115   1
   7  -1   0 1108.61 76.6583   3
  -1   7   0 1325.42 83.2041   1
   1  -7   0 1214.48 121.671   2
   7  -1   0 1144.71 85.7790   1
   6  -7   0 1320.49 73.4660   3
   7  -6   0 1199.83 71.8354   3
   1   6   0 1260.04 90.8108   1
   6  -7   0 1302.45 73.3507   1
   0   7   0 22.6600 18.9393   1
   7   0   0 69.4048 27.6817   1
   0  -7   0 32.3672 19.5136   3
  -7   7   0 71.5801 17.4883   1
   7  -7   0 79.4174 18.5058   1
   7  -7   0 15.0061 26.7708   2
   7  -7   0 24.5605 11.5085   3
   0  -7   0 79.6636 39.4606   2
   4  -8   0 3368.98 173.439   3
  -4   8   0 3318.52 170.289   1
   8  -4   0 3302.97 169.536   3
   8  -4   0 3209.25 178.822   1
   8  -4   0 3295.46 176.981   2
   4   4   0 3222.26 195.998   1
   8  -3   0 465.040 43.7885   3
   8  -3   0 549.128 58.4892   1
   8  -5   0 424.697 53.3946   2
  -3   8   0 407.671 43.8100   1
  -3  -5   0 524.424 61.9677   2
   8  -5   0 444.439 48.7971   1
   8  -5   0 471.423 36.6145   3
   5  -8   0 439.642 43.4887   3
   3  -8   0 385.016 88.5171   2
   5   3   0 541.886 72.0040   1
   5  -8   0 344.001 78.4633   2
   8  -3   0 475.691 39.1031   2
  -5   8   0 499.575 38.1491   1
   3   5   0 470.094 64.7555   1
   3  -8   0 335.458 41.7227   3
   8  -2   0 178.980 36.2409   1
   2  -8   0 207.988 32.8962   3
  -6   8   0 250.899 30.9195   1
  -2  -6   0 306.079 52.2327   2
   6  -8   0 155.429 54.9795   2
   2   6   0 204.658 41.7287   1
   8  -6   0 246.717 33.2131   1
   8  -6   0 272.808 30.0025   3
   6   2   0 311.462 54.5794   1
   8  -6   0 236.135 46.5061   2
   6  -8   0 203.150 27.4016   3
  -2   8   0 205.444 31.7267   1
   6  -8   0 288.415 32.5098   1
   2  -8   0 249.529 73.8448   2
   8  -2   0 209.000 29.4125   3
   8  -7   0 1318.26 84.5589   1
  -1  -7   0 1416.63 114.272   2
  -1   8   0 1449.44 92.4884   1
   1  -8   0 1412.57 131.906   2
   8  -1   0 1328.72 87.0114   3
   7  -8   0 1332.80 82.1804   1
   1   7   0 1415.37 98.7245   1
   7  -8   0 1537.65 132.753   2
   7  -8   0 1323.72 81.5365   3
   8  -7   0 1519.14 115.609   2
   7   1   0 1480.65 106.985   1
   8  -1   0 1317.55 96.1747   1
  -7   8   0 1487.61 84.8724   1
   8  -7   0 1326.23 80.9242   3
   1  -8   0 1381.69 95.2236   3
   8  -8   0 1941.69 117.698   1
   8  -8   0 2261.87 161.269   2
   0   8   0 2072.42 131.261   1
   8  -8   0 2066.71 115.290   3
   8   0   0 2160.09 136.759   1
   0  -8   0 2345.49 162.704   2
  -4   9   0 67.3362 17.5089   1
   5  -9   0 78.9182 55.5861   2
   4  -9   0 82.9935 21.4359   3
   9  -5   0 77.7507 23.4865   1
   5   4   0 90.1214 35.2439   1
   4   5   0 196.216 45.4304   1
   5  -9   0 81.8629 20.5078   3
  -5   9   0 57.1255 17.0183   1
   9  -4   0 95.6147 25.7239   1
   4  -9   0 100.607 58.7987   2
   9  -4   0 68.6938 17.2135   3
   9  -5   0 62.4556 22.1172   2
   9  -5   0 72.1839 17.6467   3
   6  -9   0 63.8017 16.8313   1
   6  -9   0 25.0984 39.6496   2
   9  -6   0 60.4482 20.5710   1
   6  -9   0 76.7814 18.5839   3
   3   6   0 80.5665 28.4994   1
   3  -9   0 53.4134 49.3588   2
   9  -3   0 41.5636 21.0079   1
  -3   9   0 45.2109 16.7409   1
   9  -3   0 46.7801 16.7295   3
   3  -9   0 87.2889 22.2228   3
   6   3   0 59.6757 32.7804   1
  -6   9   0 72.9916 18.3762   1
   9  -6   0 40.1719 21.7045   2
   9  -6   0 48.5859 13.7919   3
   2   7   0 856.861 86.7878   1
   7  -9   0 912.630 60.2530   1
   9  -7   0 887.152 64.8115   1
  -7   9   0 933.807 61.2008   1
  -2  -7   0 966.176 84.9705   2
   9  -7   0 836.901 58.0797   3
   9  -2   0 654.243 75.1277   1
   2  -9   0 898.420 126.966   2
   7  -9   0 868.333 127.467   2
  -2   9   0 861.115 65.5653   1
   9  -2   0 895.020 64.2782   3
   7   2   0 818.665 91.8183   1
   9  -7   0 987.543 85.2707   2
   7  -9   0 834.568 59.1435   3
   8  -9   0 20.6393 13.3744   1
   1  -9   0 27.2380 36.0505   2
  -1  -8   0 4.58698 26.1526   2
   9  -8   0 42.4032 14.6302   3
  -1   9   0 46.4616 20.8463   1
  -8   9   0 32.0672 14.7386   1
   8  -9   0 63.0769 40.5556   2
   9  -1   0 13.1815 17.9896   1
   8   1   0 13.0003 22.7080   1
   8  -9   0 25.1921 13.9879   3
   9  -8   0 23.3702 28.6226   2
   9  -8   0 2.33931 13.7738   1
   1   8   0 -3.4233 17.4674   1
   9  -9   0 511.123 84.0408   2
   0  -9   0 625.791 89.2580   2
   0   9   0 585.163 68.6335   1
   9   0   0 460.555 63.4776   1
   9  -9   0 392.473 48.1661   1
   9  -9   0 578.087 51.3058   3
  10  -5   0 604.953 65.0764   1
  10  -5   0 530.004 51.0862   3
   5 -10   0 581.911 55.8562   3
   5 -10   0 527.593 123.073   2
   5   5   0 624.290 75.5466   1
  -5  10   0 639.590 48.2106   1
   6 -10   0 580.577 45.0788   1
   6   4   0 719.060 84.6077   1
  10  -6   0 516.956 58.7080   1
   4 -10   0 660.625 123.079   2
   6 -10   0 500.564 51.4221   3
  -4  10   0 480.643 49.7116   1
  10  -6   0 539.095 44.6710   3
   4   6   0 553.730 72.4427   1
  -6  10   0 527.550 51.4052   1
  10  -6   0 533.792 83.3730   2
  10  -4   0 581.589 66.7006   1
  10  -4   0 666.888 56.8451   3
   3   7   0 173.044 38.2007   1
  10  -7   0 124.422 28.6582   1
   7 -10   0 140.147 24.4823   3
  10  -3   0 118.159 24.6046   3
  -3  10   0 131.291 27.3383   1
   7 -10   0 104.178 53.8274   2
  10  -3   0 95.0290 27.8129   1
   7   3   0 97.6123 36.9583   1
  10  -7   0 213.904 29.2950   3
  -7  10   0 94.9702 21.8047   1
   3 -10   0 152.599 56.9440   2
  10  -7   0 128.560 34.3681   2
   7 -10   0 99.4243 22.1145   1
  10  -8   0 448.595 42.6777   3
   8 -10   0 392.320 42.1688   1
   2 -10   0 563.458 99.2494   2
   8 -10   0 493.803 100.861   2
   8   2   0 367.502 60.3828   1
  10  -2   0 323.293 52.4786   1
  10  -8   0 366.282 47.3276   1
  10  -2   0 391.366 45.7078   3
  -2  10   0 418.287 51.3044   1
   8 -10   0 355.216 40.3559   3
  10  -8   0 382.873 59.6920   2
   2   8   0 408.202 56.4266   1
  -8  10   0 336.157 40.4067   1
  10  -9   0 654.135 90.5538   2
  10  -9   0 701.374 67.4794   1
  10  -1   0 684.534 75.8731   1
  -1  10   0 623.526 69.1340   1
   1 -10   0 631.303 96.7100   2
   9 -10   0 487.501 89.9034   2
   1   9   0 635.796 73.7692   1
  10  -9   0 589.639 47.7901   3
   9 -10   0 706.236 54.4061   1
   9   1   0 792.841 86.7177   1
   9 -10   0 597.583 49.2624   3
   0  10   0 28.4836 23.9649   1
   0 -10   0 65.3733 37.9198   2
  10   0   0 38.7945 25.7803   1
  10 -10   0 39.8299 15.6515   3
  10 -10   0 61.1908 37.8278   2
  10 -10   0 56.8659 23.0037   1
   5 -11   0 166.531 75.8215   2
  11  -5   0 82.8674 26.2871   1
   6   5   0 92.8481 35.5069   1
   5   6   0 108.975 35.3136   1
  11  -6   0 73.1560 27.0120   1
   6 -11   0 159.313 77.3357   2
  11  -6   0 83.9026 21.6396   3
  11  -5   0 109.731 24.0226   3
  11  -7   0 560.952 65.5569   1
  11  -4   0 540.217 68.3933   1
   4   7   0 734.378 81.9561   1
   7 -11   0 652.662 125.958   2
  11  -7   0 739.710 53.7412   3
   7   4   0 882.444 93.1906   1
  11  -4   0 654.134 54.0351   3
   4 -11   0 787.074 138.718   2
   8   3   0 129.977 39.7751   1
   3 -11   0 230.432 68.5826   2
  11  -8   0 140.689 40.9000   2
  11  -3   0 195.556 33.5584   3
  11  -3   0 148.520 36.1588   1
   3   8   0 174.117 38.6453   1
  11  -8   0 250.981 40.3219   1
  11  -8   0 218.689 31.7143   3
   8 -11   0 229.654 76.4398   2
  11  -2   0 288.454 49.9130   1
  11  -9   0 217.050 38.1096   1
   9 -11   0 482.384 99.1679   2
   2 -11   0 222.516 63.6980   2
   9   2   0 328.113 57.8508   1
  11  -9   0 297.572 53.9912   2
   2   9   0 364.277 53.4081   1
  11  -9   0 293.902 36.9325   3
  10 -11   0 163.485 59.4139   2
  11  -1   0 115.239 34.9681   1
  11 -10   0 119.513 23.4625   3
   1 -11   0 122.207 49.3966   2
  11 -10   0 109.378 42.1787   2
  11 -10   0 74.3999 27.7159   1
  10   1   0 161.356 43.7553   1
   6   6   0 7.54261 22.6871   1
  12  -6   0 8.10910 15.5447   3
   6 -12   0 6.13527 55.3432   2
  12  -6   0 -3.7115 18.4613   1
  12  -7   0 8.71304 20.2794   1
  12  -5   0 14.2635 21.6540   1
   7 -12   0 4.16212 53.9062   2
  12  -7   0 -4.5396 12.9969   3
   5   7   0 -1.2453 22.3148   1
  12  -5   0 -4.0020 12.9291   3
   7   5   0 -2.8891 20.4201   1
   5 -12   0 -30.372 43.6767   2
   8   4   0 228.215 49.4903   1
  12  -4   0 157.193 28.9709   3
   8 -12   0 66.6744 59.2184   2
  12  -4   0 126.683 33.5000   1
   4 -12   0 242.041 79.5929   2
  12  -8   0 129.621 25.6446   3
  12  -8   0 141.880 33.3155   1
   4   8   0 155.615 37.1956   1
   0   0  -1 2.78402 2.60505   3
   0   0  -1 -2.2614 2.59275   1
   0   0   1 7.64843 3.76227   1
   0   0   1 -5.3046 7.21258   2
   0   0   1 3.02462 2.10882   3
   0   0  -1 -3.9213 7.28528   2
   1   0   1 -0.9100 2.88637   1
  -1   1  -1 5.68398 16.5993   2
   1  -1   1 -3.0373 14.9976   2
   1   0  -1 12.5293 12.2524   1
   0  -1  -1 1.11726 2.51723   3
   0  -1   1 18.3464 10.3061   3
   0   1   1 0.97858 2.43188   1
  -1   0   1 -0.7174 4.34941   3
  -1   0  -1 3.83209 3.06112   3
  -1   0  -1 -1.7051 3.15123   1
  -1   0  -1 29.6649 5.97229   1
   0   1   1 0.94561 2.74890   1
   0   1  -1 11.7877 15.2490   2
   1   0   1 0.20923 6.05580   2
   0  -1  -1 -2.8363 7.34959   2
  -1   0  -1 4.08869 8.97426   2
  -1   1   1 0.98838 4.94936   1
   0  -1  -1 -1.2430 2.10971   1
   1   0  -1 -0.8789 8.48711   2
   1   0  -1 -0.4356 4.94076   3
   1   0   1 4.36504 5.55832   3
   1  -1  -1 3.22064 7.59396   1
  -1   1  -1 0.79696 4.00942   1
   1  -1  -1 0.60590 2.95681   3
   0   1   1 2.62607 2.77527   3
   0  -1   1 20.9006 16.1206   2
   1  -1   1 3.56702 2.44099   3
   1   0   1 15.0755 5.20399   1
   1  -1  -1 3.37043 8.34783   2
  -1   1   1 4.15130 2.89477   3
   0   1  -1 -1.7782 5.18158   1
   1   1   1 92.5351 15.2128   3
   1  -2  -1 96.3756 20.8080   2
   1  -2  -1 92.5985 7.40288   1
   1   1   1 129.731 16.5469   1
  -2   1   1 94.5449 11.2932   3
   1  -2  -1 107.158 11.2798   3
   1  -2   1 90.7904 40.9755   2
  -1   2   1 83.1085 9.94473   3
  -1   2   1 97.0358 6.50628   1
   2  -1   1 97.5429 12.2266   1
   1  -2   1 104.940 13.1680   3
   2  -1  -1 106.725 20.0816   2
   2  -1  -1 98.3406 11.7611   3
  -1  -1  -1 120.941 16.6716   2
   2  -1   1 103.169 8.12260   3
  -1   2  -1 84.5723 13.4955   1
   2  -1  -1 100.307 18.8631   1
  -2   1  -1 117.382 14.4720   1
  -1  -1  -1 77.6633 13.1204   3
   2  -1   1 102.709 31.4898   2
   1   1  -1 118.133 25.0372   1
  -1  -1   1 83.1928 21.6311   2
   1   1   1 132.145 15.6916   2
   1   1  -1 75.4574 21.2224   2
   2   0  -1 -7.7070 7.40807   2
  -2   0  -1 2.58712 10.0258   2
   2   0   1 2.57847 5.59547   3
  -2   2   1 -1.0595 3.13347   1
   2  -2  -1 7.51620 12.8527   2
   0  -2  -1 -1.0402 8.87354   1
   0   2  -1 -8.6109 7.68206   1
   0   2  -1 25.9531 25.9018   2
   2  -2  -1 4.98894 5.87685   1
   2  -2  -1 0.99746 4.24569   3
   2   0  -1 3.50353 7.81519   3
   0  -2   1 -0.5796 21.3318   2
   2   0   1 -1.9376 10.0698   2
  -2   2   1 -1.2977 3.69722   3
   0   2   1 1.89471 9.81665   1
   2   0  -1 0.17187 16.0492   1
   0  -2   1 -3.2221 12.5376   3
   2  -2   1 -24.855 21.3109   2
  -2   0  -1 -12.289 9.02847   3
   0  -2  -1 -2.5713 5.00394   3
   2  -2  -1 -2.6212 3.48871   1
  -2   2  -1 2.80390 5.59005   1
   2   0   1 -3.0108 5.01542   2
  -2   0   1 -1.7729 6.83218   3
   2   0   1 67.7476 12.0784   1
   2  -2   1 -2.1779 3.24497   3
   0  -2  -1 2.82549 11.4019   2
  -2  -1  -1 2846.63 136.655   2
   3  -1   1 2737.31 135.758   3
  -2   3   1 2872.62 133.653   1
  -1  -2   1 2728.82 166.513   2
   3  -1   1 2957.08 140.664   1
   2  -3   1 2920.81 137.568   3
  -2   3   1 2727.27 136.531   3
   3  -1   1 2790.63 145.726   2
   3  -2  -1 2795.97 142.445   1
   2  -3   1 3100.38 190.754   2
   3  -2  -1 2911.41 152.186   2
  -1  -2   1 2963.95 155.874   3
  -1   3  -1 2928.91 142.140   1
   3  -2  -1 2838.79 137.649   3
   2   1  -1 2381.30 157.361   1
   1   2   1 2582.57 145.779   1
   1  -3  -1 2901.78 139.547   1
   3  -1   1 2793.27 158.083   2
   2   1  -1 2692.97 151.286   2
  -3   2  -1 2692.28 139.499   1
   1   2   1 2802.68 144.948   3
  -2  -1  -1 2885.76 152.004   3
   1  -3  -1 2955.58 138.536   3
   1  -3  -1 2808.11 159.018   2
   1   2  -1 2665.70 155.447   1
   1  -3   1 3262.62 199.932   2
  -1  -2  -1 2669.44 146.436   2
  -3   1  -1 2692.80 154.968   2
   3  -2   1 2836.82 138.780   1
   3  -2   1 2717.68 159.767   2
   2  -3  -1 2707.87 158.242   2
   2   1   1 3002.57 145.569   1
  -2   3  -1 2701.62 139.812   1
   3  -2   1 2800.86 134.775   3
  -1   3   1 2892.33 138.007   3
   2  -3  -1 2752.41 133.330   1
   3  -1  -1 2860.82 139.097   3
   2   1   1 2758.98 135.214   2
  -1  -2  -1 2713.14 142.964   3
   2  -3  -1 2804.40 133.276   1
  -1   3   1 2858.43 134.586   1
   3  -1  -1 2816.34 147.019   2
  -2  -1   1 2990.17 150.030   3
   3  -1  -1 2964.80 150.551   1
   2  -3  -1 2753.81 137.307   3
   1   2  -1 2778.72 170.739   2
   1  -3   1 2791.18 141.994   3
   3   0  -1 1.67419 8.69479   3
   0   3   1 -3.7867 10.1321   1
   3  -3   1 -7.1340 21.1331   2
   0  -3  -1 -1.9489 6.94744   3
   3  -3  -1 -4.7139 4.24694   3
   0   3   1 -5.4509 7.32027   3
   3   0  -1 9.25268 18.1890   1
  -3   3  -1 0.26418 5.68131   1
   0  -3   1 -14.258 9.62878   3
   0  -3   1 24.6395 28.2406   2
   0  -3  -1 0.82440 14.2645   2
   3   0   1 -6.1821 6.55887   3
   0   3  -1 6.60715 11.2264   1
   3   0  -1 13.2918 10.0785   2
   3   0   1 9.42425 9.26586   1
   3  -3  -1 5.91798 6.04329   1
   3  -3   1 -1.8209 3.93532   3
   3  -3  -1 7.66642 15.2081   2
   2   2   1 409.326 44.4303   1
  -2  -2  -1 411.854 32.4743   2
   2   2  -1 424.004 54.9818   1
   2  -4   1 441.369 30.8204   3
   4  -2  -1 349.228 35.4936   2
   2  -4  -1 328.515 53.2524   2
   4  -2   1 448.675 39.2825   2
   2  -4  -1 440.408 28.8500   3
   4  -2   1 424.086 30.3581   1
  -2  -2  -1 424.337 48.0077   3
  -2   4   1 365.192 23.8600   1
   4  -2   1 381.342 25.3698   3
   4  -2  -1 396.210 41.2658   1
  -2   4  -1 362.465 29.6958   1
  -2  -2   1 404.083 54.3027   2
   2  -4   1 440.515 82.6581   2
  -2  -2   1 380.311 46.3220   3
   2   2   1 588.902 55.3450   3
   4  -2  -1 347.775 27.5942   3
   2   2  -1 476.547 61.3998   2
   4  -1   1 472.379 31.5751   2
   4  -1   1 477.764 43.4004   2
  -1  -3   1 593.859 79.0295   2
  -1  -3   1 522.489 55.5291   3
   4  -1   1 474.541 31.5692   3
   1   3   1 447.635 50.5093   1
   3  -4   1 482.560 31.2567   3
  -4   3  -1 536.144 34.9297   1
  -1   4  -1 479.126 36.7401   1
   3   1  -1 449.355 41.5179   2
   4  -3  -1 522.526 47.4840   2
   3  -4   1 331.884 65.5148   2
   1   3   1 491.268 46.1878   3
   4  -1   1 491.088 36.5753   1
   4  -3  -1 472.785 34.4119   1
   4  -3  -1 458.793 31.2155   3
   3   1  -1 449.023 59.4929   1
   1  -4  -1 356.011 54.1089   2
  -3  -1  -1 560.886 54.8129   3
  -3   4   1 507.622 29.0734   1
   1  -4  -1 446.535 33.3844   3
  -3   4  -1 475.452 34.0195   1
  -1   4   1 402.136 33.7274   3
  -4   1  -1 451.531 40.3673   2
  -1   4   1 481.939 31.2680   1
   4  -1  -1 481.219 38.6476   2
   4  -3   1 497.801 33.1408   1
   3  -4  -1 447.786 30.9485   3
   1   3  -1 476.326 56.4209   1
   4  -1  -1 454.001 49.6703   1
   1  -4   1 428.858 78.7287   2
  -1  -3  -1 436.514 42.4952   3
   1  -4   1 466.208 42.9820   3
   3  -4  -1 497.697 28.5659   1
   4  -1  -1 512.414 34.1799   3
   3  -4  -1 498.753 61.4626   2
  -1  -3  -1 472.091 45.4030   2
   3   1   1 502.718 47.3973   1
   4  -3   1 463.287 29.1708   3
   4  -3   1 406.034 55.8083   2
   4   0  -1 -13.926 7.21902   2
   4   0   1 11.1346 12.3474   1
   0  -4   1 -4.2155 13.1408   3
   4   0  -1 -6.1448 17.4111   1
   0   4  -1 -5.7985 11.4422   1
   4  -4   1 2.76600 23.5959   2
   0  -4   1 -13.007 29.1087   2
   0  -4  -1 -4.0425 18.8738   2
   4  -4  -1 -1.7294 6.30098   1
   0  -4  -1 1.89237 9.60262   3
   4  -4  -1 -14.214 15.1678   2
   0   4   1 -10.286 7.47941   3
   0   4   1 -4.6084 11.3115   1
   4   0  -1 -1.3786 9.95039   3
   4  -4   1 -3.5304 5.42841   3
   4  -4  -1 -2.1725 5.99773   3
  -4   4  -1 3.30179 8.25168   1
   4  -4   1 4.02064 7.47678   1
   3   2  -1 1445.77 102.408   2
  -3  -2  -1 1507.69 84.5779   2
   3  -5   1 1563.08 139.680   2
   5  -2   1 1515.66 86.6800   1
  -2  -3   1 1436.54 109.163   2
   2  -5  -1 1433.08 116.014   2
   3  -5   1 1533.54 82.6110   3
   5  -2   1 1578.37 80.3381   3
   3   2  -1 1404.53 107.695   1
  -3   5   1 1497.56 77.3035   1
  -3  -2  -1 1570.94 79.8088   2
   2   3   1 1465.49 97.9031   3
   5  -3  -1 1434.53 80.9040   3
   2  -5  -1 1574.55 83.8060   3
   5  -2   1 1523.95 85.7993   2
  -2   5  -1 1591.60 87.0629   1
   2   3   1 1410.80 97.4471   1
   5  -3  -1 1456.51 88.1944   1
  -2  -3   1 1471.55 100.833   3
   5  -3  -1 1412.80 93.4363   2
  -3  -2  -1 1625.88 102.554   3
   3   2   1 1727.10 86.4765   2
  -3   5  -1 1458.29 83.3692   1
   2  -5   1 1570.36 145.730   2
   3  -5  -1 1340.75 111.544   2
   5  -2  -1 1437.50 89.4958   2
   5  -2  -1 1516.79 92.9563   1
  -3  -2   1 1388.88 98.5556   2
   2  -5   1 1475.26 85.2649   3
   3  -5  -1 1531.66 82.1925   3
   5  -3   1 1506.22 96.6275   2
   2   3  -1 1533.02 106.285   1
   5  -2  -1 1533.86 82.6570   3
  -3  -2   1 1496.65 95.9319   3
   5  -3   1 1538.31 84.3846   1
   5  -3   1 1425.40 78.4054   3
   3   2   1 1398.42 93.3836   1
  -2  -3  -1 1448.99 91.4900   2
  -2   5   1 1481.08 78.3048   1
  -2  -3  -1 1673.85 100.607   3
  -1   5  -1 86.6636 20.5178   1
  -4   5   1 74.0248 13.1453   1
   5  -1   1 104.791 12.7202   2
   5  -1   1 87.8969 18.8712   2
  -4  -1  -1 122.953 27.8690   3
   4  -5   1 91.2234 41.2300   2
   1   4   1 113.352 25.9527   3
   5  -1   1 102.943 22.0947   1
   1   4   1 77.8387 25.1489   1
   5  -4  -1 92.6699 26.6066   2
   4   1  -1 120.133 24.4104   2
   1  -5  -1 169.172 42.9068   2
   5  -1   1 68.2234 14.8793   3
  -1  -4   1 95.1386 36.9745   2
  -5   4  -1 101.810 18.0818   1
   4   1  -1 105.864 33.8570   1
   5  -4  -1 99.7873 15.3754   3
  -1  -4   1 92.8018 26.3150   3
   1  -5  -1 71.5986 16.8571   3
   5  -4  -1 115.243 19.7193   1
   4  -5   1 86.9510 13.9778   3
   5  -1  -1 79.9663 16.5966   3
   5  -1  -1 129.541 29.6378   1
   5  -4   1 124.902 15.7786   3
   1  -5   1 57.7846 42.4825   2
   5  -4   1 104.511 17.5148   1
   5  -4   1 89.9537 29.6419   2
   4  -5  -1 124.565 15.4759   1
  -1   5   1 93.7700 17.3118   1
  -4   5  -1 129.322 19.7013   1
  -1  -4  -1 97.9301 29.6963   2
   4  -5  -1 96.7442 35.5133   2
   5  -1  -1 44.3918 14.6557   2
  -1  -4  -1 62.5435 19.5876   3
   4   1   1 93.1468 22.7455   1
   1  -5   1 91.2089 20.3551   3
  -5   1  -1 90.6332 18.4743   2
   4  -5  -1 123.016 16.7961   3
  -4  -1   1 115.960 22.4880   2
   1   4  -1 143.003 31.8782   1
  -5   5  -1 -6.3054 6.58773   1
   5  -5   1 3.78524 7.00802   1
   0  -5  -1 -6.7738 20.0171   2
   5   0   1 10.8026 13.1159   1
   5   0  -1 6.10860 9.32550   2
   0  -5  -1 16.9122 13.2859   3
   0  -5   1 -1.5397 13.2140   3
   0   5  -1 5.76235 13.0157   1
   0   5   1 -5.6981 10.0743   1
   5  -5  -1 2.52042 6.36609   3
   5  -5  -1 5.61236 7.74482   1
   0  -5   1 16.4522 31.0714   2
   5   0  -1 9.99591 17.7155   1
   5  -5  -1 8.44186 18.6579   2
   5   0  -1 -3.3161 8.89964   3
   5  -5   1 3.75350 22.2061   2
   5  -5   1 4.05809 6.10476   3
  -3   6  -1 1275.14 75.6280   1
   6  -3   1 1269.45 76.3457   1
   6  -3   1 1175.33 69.0770   3
   6  -3  -1 1251.80 81.0273   1
   6  -3   1 1286.90 80.2474   2
  -3  -3   1 1186.52 87.9583   3
  -3   6   1 1236.42 67.8400   1
   6  -3  -1 1260.76 82.5214   2
   3  -6   1 1236.55 73.8555   3
  -3  -3  -1 1259.34 77.1654   2
   3   3   1 1188.77 90.0834   1
   3  -6  -1 1224.52 112.281   2
   3   3  -1 1231.08 97.1986   1
  -3  -3  -1 1440.98 94.0947   3
  -3  -3   1 1133.17 91.6447   2
   3  -6   1 1478.92 169.209   2
   6  -3  -1 1305.02 72.5392   3
   3  -6  -1 1254.69 72.9378   3
   6  -2   1 618.027 41.1840   2
   2  -6  -1 531.173 42.5331   3
   4   2  -1 559.074 56.7295   2
  -4   6   1 613.355 38.1638   1
  -4  -2  -1 612.588 64.6419   3
   2   4   1 604.149 67.6358   1
   4   2  -1 641.564 79.4011   1
   6  -4  -1 576.115 40.6904   3
   6  -2   1 588.974 47.0109   1
  -2  -4   1 597.725 74.6381   2
   6  -4  -1 601.658 54.6023   2
   2  -6  -1 458.667 78.1891   2
   4  -6   1 683.767 111.037   2
   6  -4  -1 575.469 45.9751   1
   4  -6   1 586.459 41.2822   3
  -2   6  -1 589.845 45.9239   1
   6  -2   1 625.121 41.3480   3
  -2  -4   1 656.558 69.0297   3
   6  -4   1 561.185 54.7474   2
   4  -6  -1 627.009 37.8295   1
   4   2   1 576.255 63.2388   1
   2  -6   1 576.768 46.6242   3
   4  -6  -1 632.163 42.3158   3
   6  -2  -1 632.819 63.8892   1
  -2  -4  -1 616.812 56.3864   2
   2  -6   1 608.920 107.825   2
  -4  -2   1 633.541 55.6724   2
   6  -4   1 587.695 38.5657   3
   2   4  -1 554.970 72.8824   1
   4  -6  -1 623.549 87.9614   2
  -4   6  -1 655.217 44.9146   1
  -4  -2   1 587.643 58.9590   3
   6  -2  -1 704.500 44.6175   3
   6  -2  -1 645.064 48.6468   2
   6  -4   1 629.357 44.0072   1
  -2   6   1 578.073 39.4832   1
  -2  -4  -1 553.557 62.5418   3
   6  -1   1 1404.08 89.0766   3
   5   1  -1 1648.15 98.7799   2
   5  -6   1 1580.21 86.4190   3
   5   1  -1 1551.22 115.469   1
   6  -5  -1 1535.20 86.6773   3
   5  -6   1 1479.64 133.300   2
  -5  -1  -1 1556.11 100.550   3
   6  -5  -1 1599.03 90.4263   1
   5  -6   1 1500.53 87.8074   1
   1  -6  -1 1557.80 93.3760   3
   1   5   1 1676.42 105.218   1
  -6   5  -1 1674.16 91.6771   1
  -5   6   1 1572.84 85.5056   1
   6  -1   1 1529.21 97.1052   1
   6  -5  -1 1612.74 110.730   2
  -1  -5   1 1457.03 103.782   3
   1  -6  -1 1547.24 128.991   2
  -1   6  -1 1623.67 97.8802   1
  -1  -5   1 1710.86 125.076   2
   1   5  -1 1434.72 103.807   1
   6  -5   1 1759.46 85.9908   3
  -1  -5  -1 1634.91 116.087   2
   5  -6  -1 1587.02 84.8308   1
  -5  -1   1 1569.28 93.5794   2
  -5   6  -1 1563.05 89.2178   1
   5  -6  -1 1300.88 116.678   2
   5   1   1 1487.39 99.8264   1
   6  -1  -1 1608.13 91.7592   2
  -6   1  -1 1593.03 79.7598   2
   6  -1  -1 1581.44 105.155   1
   6  -5   1 1523.33 114.437   2
   5  -6  -1 1591.97 87.0423   3
   1  -6   1 1985.66 154.647   2
   6  -1  -1 1694.58 92.9808   3
  -1  -5  -1 1379.04 97.9072   3
  -1   6   1 1596.72 90.3606   1
   6  -5   1 1565.42 88.9146   1
   1  -6   1 1546.16 97.9760   3
   0  -6  -1 -19.131 20.1286   2
   6  -6   1 1.37193 6.76383   3
   6  -6  -1 2.60504 7.66194   3
   0   6  -1 25.3662 16.8434   1
   0   6   1 6.54218 13.2852   1
   6  -6  -1 -3.1798 16.8094   2
  -6   6  -1 8.97978 9.20348   1
   6   0   1 37.0439 18.5611   1
   6  -6   1 -31.858 20.2137   2
   6   0  -1 18.5452 19.8793   1
   0  -6   1 13.1720 17.6634   3
   0  -6   1 34.4181 31.5646   2
   6  -6  -1 9.27906 9.87573   1
   6  -6   1 3.47397 8.38791   1
   0  -6  -1 -5.0645 11.4832   3
   6   0  -1 9.97165 11.0997   2
   4  -7   1 143.206 65.2278   2
   3  -7  -1 146.001 22.9268   3
   7  -4  -1 195.966 24.3304   3
  -4   7   1 167.859 20.6044   1
   7  -3   1 138.841 23.6124   2
   3  -7  -1 212.991 61.0953   2
   7  -4  -1 127.856 27.8021   1
   7  -4  -1 207.677 36.7886   2
  -3  -4   1 234.937 41.8106   3
   4  -7   1 171.244 24.7471   3
   7  -3   1 151.170 27.6618   1
  -3  -4   1 171.784 38.2488   2
   7  -3   1 135.554 20.1952   3
   3   4   1 130.519 32.9497   1
  -3   7  -1 185.648 28.0322   1
   4   3  -1 165.484 41.9151   1
  -4   7  -1 139.242 24.1733   1
  -3  -4  -1 166.650 30.6679   2
   7  -4   1 124.143 23.6814   1
   7  -3  -1 150.744 22.0897   3
   7  -3  -1 173.303 28.7203   2
  -4  -3   1 147.309 31.6428   3
   3   4  -1 132.056 38.0850   1
  -4  -3   1 176.509 35.7269   2
   4   3   1 142.671 36.8857   1
   4  -7  -1 120.326 20.3491   3
   3  -7   1 147.658 24.4513   3
   3  -7   1 186.617 77.3281   2
   7  -4   1 123.415 18.5589   3
  -3   7   1 175.470 20.9111   1
   7  -3  -1 160.785 30.9818   1
   4  -7  -1 146.371 50.2137   2
   7  -4   1 133.179 28.4104   2
   2  -7  -1 1005.18 68.6521   3
   7  -5  -1 994.844 63.9949   3
   5  -7   1 998.071 64.0259   3
   7  -5  -1 1033.05 69.6701   1
   7  -2   1 1051.22 60.2259   2
  -2  -5   1 1140.84 83.5842   3
   7  -5  -1 1085.18 83.5386   2
  -5   7   1 1121.28 62.5088   1
   5  -7   1 1118.25 140.804   2
  -2   7  -1 1114.04 72.6684   1
   5   2  -1 1185.89 98.1290   1
   2  -7  -1 992.559 124.810   2
   7  -2   1 1107.48 67.0806   3
   2   5   1 989.893 81.4245   1
   7  -2   1 1048.67 73.8361   1
  -2  -5   1 1065.77 90.3124   2
  -5  -2   1 1141.71 78.0522   2
   7  -2  -1 1147.59 82.2054   1
   7  -2  -1 1112.83 68.2020   3
   7  -2  -1 1076.41 69.7820   2
   5  -7  -1 1211.25 111.930   2
   2   5  -1 999.806 83.9294   1
  -2  -5  -1 1130.48 86.8020   2
  -2   7   1 1053.91 64.4127   1
  -5  -2   1 994.883 76.9521   3
  -5   7  -1 1141.90 68.4575   1
   5  -7  -1 1021.89 60.9587   1
   5  -7  -1 902.552 63.6298   3
   7  -5   1 962.175 66.8644   1
   2  -7   1 1088.63 73.5229   3
   7  -5   1 1045.09 62.1572   3
   5   2   1 1148.06 82.4689   1
   2  -7   1 1272.53 155.173   2
   7  -5   1 1129.65 85.5029   2
   7  -6  -1 11.3030 9.74170   3
   6  -7   1 -1.0761 34.3677   2
   6   1  -1 13.0308 15.6720   2
   1  -7  -1 30.7701 16.0613   3
  -1   7  -1 42.6367 18.7581   1
  -6   7   1 11.8260 10.0639   1
   1   6   1 18.6992 17.3690   1
   6  -7   1 9.26963 8.91166   3
   7  -6  -1 37.6614 15.3756   1
   7  -1   1 12.5192 10.9988   3
   6   1  -1 -11.362 19.7472   1
   7  -6  -1 27.4554 23.6824   2
  -1  -6   1 17.0882 26.4758   2
   7  -1   1 20.1843 16.4625   1
  -1  -6   1 29.5936 22.0564   3
   6  -7   1 42.9250 13.8798   1
  -7   6  -1 16.6410 11.7702   1
   1  -7  -1 1.32093 28.4593   2
   6  -7  -1 31.9956 12.3803   1
   7  -1  -1 20.5524 12.0514   2
   7  -6   1 -0.2061 9.19192   1
   6   1   1 3.63264 17.2500   1
   1  -7   1 2.94454 33.0686   2
   1  -7   1 44.8468 20.2767   3
   6  -7  -1 1.09434 27.2841   2
   7  -6   1 9.58589 8.35444   3
   7  -6   1 -8.1129 18.5298   2
   7  -1  -1 24.8891 14.2775   3
  -1   7   1 12.4720 12.5743   1
  -6  -1   1 29.6226 15.8611   2
   1   6  -1 22.9118 18.6716   1
  -6   7  -1 78.3879 17.4368   1
  -1  -6  -1 31.2920 28.4793   2
   7  -1  -1 10.2875 22.7056   1
   6  -7  -1 9.03989 9.74259   3
   7   0   1 8.70420 18.8602   1
   0  -7  -1 9.04833 27.5708   2
   7  -7  -1 -2.8980 7.67447   3
   7  -7   1 1.95470 26.1216   2
   7  -7   1 10.9729 8.76276   3
   0   7  -1 3.87374 15.5005   1
   7  -7   1 -7.7237 7.33321   1
   7  -7  -1 0.08061 9.95648   1
   0  -7   1 -16.697 25.9617   2
  -7   7  -1 -12.284 8.16500   1
   7   0  -1 20.1577 23.4661   1
   0  -7   1 34.3858 19.2626   3
   7  -7  -1 0.93152 20.9890   2
   0   7   1 5.68437 14.9840   1
   8  -4   1 25.7725 11.2652   3
   4   4  -1 28.5800 25.5493   1
   4  -8   1 33.6758 14.4791   3
   4   4   1 35.7833 24.4256   1
  -4   8  -1 38.6023 15.4627   1
  -4  -4   1 37.8946 20.9008   2
   4  -8  -1 24.9368 14.2334   3
   8  -4  -1 29.0694 19.5575   1
   4  -8  -1 61.0372 44.1427   2
   4  -8   1 96.1871 64.4948   2
   8  -4   1 24.3773 14.9456   1
   8  -4   1 23.9068 14.8447   2
  -4   8   1 28.5246 11.2841   1
   8  -4  -1 35.2838 18.1969   2
  -4  -4   1 38.5165 21.3511   3
   8  -4  -1 33.0086 13.0609   3
   3  -8  -1 16.4102 36.3988   2
   8  -5  -1 3.86126 14.2774   1
   8  -3   1 -6.4709 7.40484   3
   5  -8   1 -17.216 37.6069   2
   5  -8   1 4.23346 9.45303   3
  -3  -5   1 -2.7644 18.6203   2
  -3   8  -1 -2.1151 9.95515   1
   8  -3   1 -11.650 10.5917   1
   8  -5  -1 -1.2954 8.79866   3
   3   5   1 6.68742 19.7814   1
   8  -5  -1 25.5366 17.7256   2
   3  -8  -1 -12.684 9.17878   3
   5   3  -1 53.0369 30.3640   1
  -5   8   1 5.74295 8.42182   1
  -3  -5   1 -4.6229 15.2601   3
   8  -3  -1 43.0757 16.8003   2
   5  -8  -1 -1.4438 8.72140   3
  -5  -3   1 -4.1344 11.7990   3
   8  -5   1 6.52163 16.3795   2
   8  -5   1 -8.4337 8.96061   1
   5  -8  -1 6.66459 8.61053   1
   8  -3  -1 4.90570 14.8830   1
   8  -5   1 4.88474 8.59687   3
   3  -8   1 19.2028 43.1852   2
   8  -3  -1 14.9349 11.0239   3
   3  -8   1 5.39054 11.5544   3
   5  -8  -1 7.17922 31.7692   2
  -3   8   1 -5.6677 7.95048   1
   5   3   1 1.31593 20.1580   1
   3   5  -1 25.7651 25.1809   1
  -5   8  -1 1.05078 10.3298   1
   6   2  -1 -15.217 21.3526   1
  -2   8  -1 7.95667 14.6549   1
   6  -8   1 30.2324 13.2159   1
   8  -6  -1 21.0080 15.0946   1
  -2  -6   1 2.48505 17.7113   3
   2   6   1 -3.3827 19.4449   1
  -2  -6   1 26.4117 24.3234   2
   8  -6  -1 -3.8035 16.0701   2
   8  -2   1 -7.8700 12.5118   1
   8  -2   1 -1.7044 9.00673   3
   2  -8  -1 6.32624 33.2067   2
   6  -8   1 9.02138 9.41692   3
   6  -8   1 2.53913 36.0871   2
  -6   8   1 -6.3495 7.55145   1
   8  -6  -1 1.38575 8.43632   3
  -2   8   1 -8.5924 9.60183   1
   8  -2  -1 12.8524 11.8617   2
   6  -8  -1 -3.4087 31.2034   2
   8  -6   1 26.0005 14.3496   1
   8  -2  -1 0.84917 18.3011   1
   2  -8   1 8.84326 13.7240   3
   8  -6   1 2.07360 7.87368   3
   6  -8  -1 11.2247 9.91048   1
   2   6  -1 -11.902 14.7600   1
   8  -2  -1 24.5226 12.5692   3
   8  -6   1 10.7737 20.7213   2
   2  -8   1 -16.120 40.7462   2
  -6   8  -1 15.6830 13.2899   1
   6   2   1 8.94334 17.8542   1
  -2  -6  -1 10.8862 20.7357   2
   6  -8  -1 0.79285 8.26508   3
  -1  -7   1 1.30109 17.7783   3
   8  -7  -1 3.72307 22.1616   2
   1   7   1 20.4436 20.3674   1
   7  -8   1 3.10311 30.1645   2
   8  -7  -1 13.8618 10.0478   3
   7   1  -1 16.9126 23.6334   1
   8  -7  -1 22.1348 14.6988   1
  -8   7  -1 -5.2360 9.39759   1
  -1   8  -1 -12.153 12.4831   1
   7  -8   1 1.94738 9.22607   3
   7  -8   1 11.1095 11.7269   1
  -1  -7   1 4.33889 25.7679   2
   1  -8  -1 19.4379 32.8577   2
   8  -1   1 28.1083 19.5486   1
   7  -8  -1 8.88631 10.3147   1
   7  -8  -1 39.1390 34.2664   2
  -1  -7  -1 10.2440 24.5012   2
   8  -7   1 -3.5843 20.8908   2
   8  -7   1 4.29290 8.60858   3
   8  -7   1 -8.1352 8.57617   1
   7  -8  -1 11.7595 11.8346   3
  -1   8   1 9.12574 14.1440   1
   8  -1  -1 8.33115 19.5841   1
   1  -8   1 -10.684 15.6384   3
  -7   8  -1 3.51246 10.9859   1
   8  -1  -1 10.5689 13.1439   3
   1   7  -1 15.7422 19.2861   1
   1  -8   1 33.9943 38.1210   2
   7   1   1 -6.4858 14.7048   1
   8  -8   1 0.20972 11.3486   1
   0  -8  -1 17.7205 29.3787   2
   8  -8  -1 35.2886 30.3049   2
   0  -8   1 -15.218 26.8109   2
  -8   8  -1 7.86617 12.6912   1
   8   0  -1 15.1618 21.3376   1
   0  -8   1 8.07988 18.2499   3
   0   8  -1 11.8408 20.0477   1
   8   0   1 -1.1040 17.4647   1
   8  -8  -1 7.87793 12.8115   1
   8  -8  -1 -7.1825 9.20526   3
   0   8   1 1.77767 16.9916   1
   8  -8   1 -1.8918 26.7138   2
   8  -8   1 4.42916 10.0173   3
  -5   9   1 70.7059 18.0167   1
   9  -4   1 69.2967 16.3978   3
   9  -5  -1 82.2305 19.2302   3
   4   5   1 73.2318 31.1806   1
   4  -9  -1 99.4929 51.1110   2
   9  -5  -1 92.3463 25.0329   1
   9  -5  -1 69.5534 22.9739   2
   5   4  -1 159.128 43.3247   1
   5  -9   1 64.6333 18.8876   3
   5  -9   1 40.3952 49.8282   2
  -4   9  -1 130.909 26.3638   1
   9  -4   1 70.5613 21.7619   1
   5   4   1 83.7601 31.4816   1
   5  -9  -1 57.3316 18.8889   3
   4  -9   1 65.4774 18.9645   3
   9  -5   1 64.5986 22.0347   2
   9  -4  -1 48.7543 18.4800   2
   4   5  -1 98.7019 34.1849   1
   9  -4  -1 133.816 30.8458   1
   4  -9   1 115.766 64.2756   2
   9  -4  -1 78.7126 18.8374   3
   5  -9  -1 106.014 50.1306   2
  -5   9  -1 80.8836 21.4053   1
  -4   9   1 85.7258 19.9611   1
   9  -5   1 84.8665 17.7516   3
   9  -5   1 82.0067 23.1935   1
   9  -6  -1 1040.67 78.6740   1
   9  -3   1 1025.88 78.5194   1
   9  -3   1 1134.56 72.2167   3
   3   6   1 1203.45 91.0453   1
   3  -9  -1 1126.09 148.738   2
   6  -9   1 1452.64 181.938   2
   9  -6  -1 1026.00 69.0660   3
   9  -6  -1 1047.85 85.2730   2
  -3  -6   1 1101.79 88.3374   2
  -3   9  -1 1103.10 77.1862   1
   6  -9   1 1126.54 71.1667   3
   6   3  -1 1334.44 103.895   1
  -6   9   1 1034.63 71.0850   1
   6  -9  -1 1036.47 144.456   2
   3   6  -1 1138.18 91.7938   1
   6   3   1 1252.05 94.2729   1
   3  -9   1 1533.52 181.951   2
   9  -3  -1 1140.64 73.8425   3
  -3   9   1 936.987 82.8859   1
   9  -3  -1 1026.87 82.6732   1
   9  -6   1 1220.34 89.0988   2
   9  -6   1 1134.08 76.0192   1
   6  -9  -1 1026.26 70.1618   3
   9  -6   1 1157.37 68.6944   3
   3  -9   1 1121.70 77.7180   3
  -6   9  -1 1058.91 71.5642   1
  -2  -7   1 40.8528 28.7478   2
  -7   9   1 34.5054 15.5436   1
   7  -9   1 59.5145 19.0144   1
   2   7   1 35.8854 24.0944   1
   7  -9   1 45.7525 14.4535   3
   9  -2   1 59.2338 18.7645   3
   9  -7  -1 49.9076 15.1623   3
   2  -9  -1 64.8581 45.6274   2
   9  -7  -1 68.7568 23.5254   1
   9  -2   1 6.89431 15.9817   1
   7   2  -1 94.6298 40.5804   1
   9  -7  -1 61.4848 28.6266   2
  -2   9  -1 33.5149 20.8376   1
   7  -9   1 3.23090 38.2602   2
   9  -7   1 34.8509 12.9739   3
   2  -9   1 68.7516 22.9105   3
   2   7  -1 87.6643 31.2562   1
   9  -7   1 53.6614 18.0177   1
   9  -2  -1 21.1355 23.1093   1
   7  -9  -1 42.0868 15.7770   3
   9  -2  -1 46.0716 16.7771   3
  -7   9  -1 59.2259 19.4011   1
   9  -7   1 37.3120 27.3242   2
   7   2   1 71.7861 31.1317   1
   7  -9  -1 52.0976 39.1695   2
   2  -9   1 7.73820 39.7325   2
   9  -8  -1 9.66159 10.0112   3
   8  -9   1 -17.048 27.2536   2
   9  -8  -1 14.2198 16.0257   1
   8   1  -1 25.9995 27.3607   1
   9  -8  -1 20.5386 25.8852   2
   8  -9   1 10.7022 10.6322   3
   8  -9   1 4.62083 11.4600   1
   1  -9  -1 -4.4652 33.1294   2
  -1  -8   1 11.7159 28.2558   2
   9  -1   1 56.7042 24.1999   1
   1   8   1 -10.499 17.0762   1
  -1   9  -1 -1.4479 18.1037   1
   8  -9  -1 -5.4567 8.79478   3
   1  -9   1 24.4395 33.9208   2
  -1  -8  -1 4.77182 26.0181   2
   9  -8   1 5.18475 12.1649   1
   9  -1  -1 11.2507 22.5447   1
   1   8  -1 11.8820 19.3050   1
   1  -9   1 -1.3439 18.3520   3
   9  -8   1 0.41560 9.83927   3
   9  -8   1 24.9716 25.8220   2
   8   1   1 -6.0978 17.9556   1
   8  -9  -1 75.0902 40.0606   2
  -8   9  -1 8.99819 13.4597   1
   9  -9   1 -3.6651 29.5362   2
   0   9  -1 -15.075 17.7071   1
   9   0   1 -22.008 12.0187   1
  -9   9  -1 0.50089 11.5739   1
   0  -9   1 -29.780 23.4876   2
   9   0  -1 -4.1249 19.1047   1
   9  -9   1 -8.9965 9.77427   1
   9  -9  -1 7.44423 24.7238   2
   0  -9  -1 -25.042 22.9290   2
   9  -9  -1 1.66561 16.1461   3
   9  -9   1 -10.778 8.35401   3
  10  -5   1 534.646 44.3921   3
  10  -5  -1 536.082 64.1389   1
   5 -10   1 636.435 139.948   2
   5 -10   1 581.443 56.1669   3
  10  -5   1 528.960 58.5076   1
  10  -5  -1 574.234 46.2343   3
   5   5   1 754.231 79.6652   1
  -5  10  -1 586.864 49.8247   1
   5   5  -1 444.328 69.1787   1
   5 -10  -1 593.981 117.516   2
   4 -10  -1 135.207 60.8379   2
  10  -4   1 80.7830 26.0660   1
  10  -6  -1 92.1433 27.0486   2
  10  -6  -1 94.0393 20.0133   3
  -4  10  -1 101.252 24.1177   1
   6 -10   1 62.5271 18.0187   3
  10  -6  -1 83.7319 27.2181   1
   4   6   1 179.726 40.8880   1
   6 -10   1 75.1454 62.2775   2
   6   4  -1 97.4971 36.0706   1
  10  -4   1 78.1037 19.7156   3
   6   4   1 88.9855 31.9579   1
   4   6  -1 45.9903 29.0939   1
   4 -10   1 109.087 65.4600   2
  -6  10  -1 70.6103 21.3122   1
  10  -6   1 66.2411 17.3854   3
  10  -4  -1 66.1992 26.7042   1
  10  -4  -1 68.5780 19.6876   3
   6 -10  -1 71.8447 54.9402   2
  10  -6   1 84.8422 24.9975   1
   4 -10   1 95.9378 23.4128   3
  10  -7  -1 476.623 46.0152   3
  10  -3   1 376.895 51.8564   1
  10  -3   1 482.325 50.0403   3
   3 -10  -1 640.905 111.282   2
   7 -10   1 730.282 130.693   2
   3   7   1 563.501 67.6987   1
   7   3  -1 523.605 75.0634   1
  10  -7  -1 451.269 62.1572   2
   7 -10   1 427.150 46.0263   3
  10  -7  -1 444.737 54.0275   1
  -3  10  -1 500.045 56.4232   1
   7 -10   1 425.099 46.1669   1
   3 -10   1 540.055 57.8171   3
  10  -3  -1 404.386 57.5852   1
  10  -3  -1 558.886 53.5666   3
   3 -10   1 724.498 121.785   2
  10  -7   1 543.617 41.1117   3
  10  -7   1 398.296 58.3169   2
   7   3   1 660.212 78.8787   1
   3   7  -1 397.592 61.0288   1
  -7  10  -1 433.973 47.4550   1
   7 -10  -1 315.960 84.2933   2
  10  -7   1 426.957 50.4739   1
  10  -8  -1 4.51957 15.4106   1
  10  -2   1 10.7624 16.2330   1
   2 -10  -1 -9.4397 38.1163   2
  -2  10  -1 -7.3911 17.3848   1
  10  -8  -1 -5.5120 11.0046   3
   2   8   1 -11.068 16.0392   1
   8 -10   1 9.30223 13.2314   1
  10  -8  -1 35.3777 26.2759   2
   8 -10   1 -0.4063 11.1160   3
   8 -10   1 4.48726 43.0409   2
   8   2  -1 18.3761 24.5237   1
  10  -8   1 -9.0626 20.0610   2
   2   8  -1 6.77736 21.0973   1
  10  -2  -1 13.9639 18.9975   1
  10  -2  -1 4.28166 13.5832   3
   2 -10   1 10.2695 36.5953   2
   8   2   1 6.43063 20.9744   1
  10  -8   1 2.55463 9.64639   3
   8 -10  -1 -3.8658 33.6699   2
  10  -8   1 8.24072 14.6910   1
  -8  10  -1 21.8975 14.8220   1
   9 -10   1 63.8529 20.3642   1
   9   1  -1 99.0363 37.0883   1
  10  -1   1 57.2838 24.4755   1
   9 -10   1 73.5725 18.4432   3
  -1  10  -1 90.6501 29.5507   1
   9 -10   1 52.0837 42.1166   2
   1 -10  -1 52.4908 38.9265   2
  -1  -9   1 76.8637 34.9451   2
  10  -9  -1 130.703 44.6281   2
  10  -9   1 55.3870 21.6628   1
  10  -9   1 98.0268 38.9110   2
   9 -10  -1 143.555 51.8846   2
   1 -10   1 148.281 50.9434   2
  -9  10  -1 66.4302 21.1704   1
   9   1   1 61.4713 27.2884   1
   1   9  -1 86.9616 31.4951   1
  10  -1  -1 58.2776 28.5107   1
  10  -9   1 87.8556 20.2147   3
  10   0  -1 -3.0392 20.2039   1
   0 -10   1 12.8933 32.3892   2
   0  10  -1 -4.2883 18.8006   1
  10 -10   1 -9.3645 28.2193   2
  10 -10   1 11.3861 15.6463   1
  10 -10  -1 -4.4643 23.2628   2
  10 -10   1 -5.9437 10.7240   3
  10   0   1 -20.396 17.2463   1
  -5  11  -1 307.102 40.7156   1
   5 -11  -1 551.378 120.289   2
  11  -6  -1 283.360 37.6950   3
   5   6   1 350.855 57.3550   1
   6   5  -1 465.681 66.3835   1
  11  -5   1 389.787 42.6332   3
   6 -11   1 408.712 47.2655   3
  11  -5   1 386.856 52.6474   1
  11  -6  -1 257.855 44.7206   1
   6 -11   1 458.722 117.951   2
   5   6  -1 468.148 66.9173   1
   5 -11   1 326.438 43.7685   3
  11  -6   1 347.705 48.8386   1
  11  -5  -1 370.711 53.5534   1
  11  -5  -1 364.996 42.2815   3
  11  -6   1 361.894 39.8139   3
   6 -11  -1 339.189 93.6672   2
   5 -11   1 398.040 103.908   2
  -6  11  -1 279.581 37.9988   1
   6   5   1 495.870 66.1002   1
  11  -7  -1 134.477 31.1062   1
   7   4  -1 182.965 46.1380   1
  11  -4   1 117.525 31.3048   1
   7 -11   1 155.529 27.9530   1
  11  -7  -1 144.924 36.2013   3
  11  -4   1 107.161 24.3009   3
   7 -11   1 179.692 74.1146   2
   7 -11   1 149.210 27.7270   3
   4   7   1 79.1278 29.8288   1
   4 -11  -1 196.883 72.1145   2
  -4  11  -1 210.862 36.0774   1
  11  -4  -1 163.851 29.3081   3
   7   4   1 194.230 46.1041   1
  11  -4  -1 170.640 41.0258   1
   4 -11   1 161.592 68.5146   2
  -7  11  -1 140.281 27.0244   1
   4   7  -1 113.317 33.8374   1
  11  -7   1 127.151 23.9638   3
   7 -11  -1 204.929 79.4544   2
  11  -7   1 161.965 32.8122   1
  11  -3   1 16.8971 16.3524   3
  -3  11  -1 -1.1797 16.9241   1
   8   3  -1 8.37140 22.5702   1
   8 -11   1 54.0689 55.0824   2
  11  -8  -1 21.4334 21.1424   1
  11  -3   1 15.0254 19.9234   1
   8 -11   1 -2.8206 11.5733   1
  11  -8  -1 -5.1816 21.8811   2
   3 -11  -1 -13.641 34.6103   2
   8 -11   1 -11.597 11.7369   3
   3   8   1 1.40644 19.9325   1
  -8  11  -1 -13.134 12.9369   1
   3 -11   1 -2.8415 39.1862   2
  11  -8   1 3.37076 16.8841   1
  11  -8   1 10.5313 11.9020   3
   8   3   1 -18.423 19.8795   1
   3   8  -1 -19.351 15.0337   1
  11  -3  -1 6.30872 21.5464   1
   8 -11  -1 -42.003 29.5239   2
  11  -2   1 488.778 63.7596   1
   2 -11  -1 640.449 95.5029   2
   9 -11   1 564.529 54.3078   3
   9   2  -1 749.568 88.3229   1
  11  -9  -1 519.505 73.9388   2
   9 -11   1 540.929 57.5968   1
  -2  11  -1 587.076 69.8438   1
   9 -11   1 578.222 105.595   2
   2 -11   1 768.630 110.871   2
  -9  11  -1 650.397 62.5896   1
   2   9  -1 648.987 71.6164   1
  11  -9   1 616.495 48.2505   3
   9   2   1 523.316 69.9745   1
  11  -2  -1 658.541 80.2961   1
  11  -9   1 451.243 70.2384   2
   9 -11  -1 483.044 95.9046   2
  11  -1   1 333.200 52.3967   1
  -1  11  -1 394.964 57.2918   1
  10 -11   1 381.506 48.6648   1
  10 -11   1 338.101 39.1809   3
  11 -10  -1 396.964 70.8415   2
  10 -11   1 403.651 89.1912   2
  10   1  -1 439.130 70.6015   1
  11 -10   1 351.441 38.9000   3
  11 -10   1 274.846 62.1280   2
  10 -11  -1 343.359 73.9911   2
   1  10  -1 383.067 58.4371   1
 -10  11  -1 335.232 46.0099   1
  10   1   1 412.865 61.1206   1
  11 -10   1 304.440 43.9711   1
   1 -11   1 372.909 70.2064   2
   6 -12   1 150.653 71.2401   2
   6   6  -1 329.427 56.0840   1
  12  -6  -1 196.252 40.5758   1
  12  -6   1 280.449 37.4191   3
   6   6   1 342.965 54.0015   1
  12  -6   1 237.766 41.4040   1
   6 -12  -1 418.335 114.792   2
   5 -12  -1 42.3900 53.8813   2
   5   7   1 6.14134 22.2680   1
  12  -5   1 3.66691 14.2824   3
   7 -12   1 28.3922 26.0128   3
  12  -5   1 23.5478 20.2231   1
  12  -7  -1 -2.0879 20.1863   1
   7   5  -1 7.66841 22.8768   1
   7 -12   1 -31.715 52.1798   2
  12  -5  -1 19.7739 21.0944   1
   7 -12  -1 -0.4292 49.8268   2
   5 -12   1 24.1012 50.9665   2
   5   7  -1 31.3067 24.1893   1
   7   5   1 35.0987 26.4083   1
  12  -7   1 8.45966 18.1224   1
  12  -7   1 -11.378 11.8977   3
   8   4  -1 13.3909 25.2020   1
  12  -4   1 45.0551 20.5590   3
   4   8   1 18.8735 20.0414   1
   8 -12   1 3.85847 13.3419   3
  12  -8  -1 13.8115 20.5178   1
  12  -4   1 3.70813 15.9220   1
  12  -8   1 8.10364 16.8596   1
  12  -4  -1 1.67114 20.8007   1
   4   8  -1 -13.831 18.7402   1
  12  -8   1 15.3853 14.8328   3
   8   4   1 6.23281 22.4165   1
   0   0  -2 3070.28 142.053   1
   0   0  -2 2949.19 162.249   2
   0   0  -2 2624.26 146.166   3
   0   0   2 2997.69 138.696   3
   0   1   2 848.476 42.0901   1
   1   0   2 861.563 43.8552   1
  -1   0   2 872.152 45.1017   3
  -1   1  -2 766.134 68.2003   2
   1  -1   2 836.936 69.7924   2
   1   0   2 840.950 39.2091   3
   1  -1  -2 829.186 42.7941   1
   0  -1  -2 823.941 59.0102   2
   0   1  -2 730.943 65.3132   2
  -1   0  -2 827.949 63.2174   2
   1  -1  -2 741.760 58.3279   2
   1   0  -2 774.207 46.2693   3
  -1   1  -2 791.755 45.4925   1
   1  -1  -2 739.062 42.4559   3
   0   1   2 870.032 41.6062   3
   0   1  -2 778.448 46.9399   1
   0   1   2 794.249 40.9668   1
  -1   0  -2 872.067 44.4449   1
   1   0  -2 814.291 48.7859   1
   1   0  -2 804.764 61.0512   2
  -1   1   2 760.382 47.5522   1
   0  -1  -2 842.219 41.0658   3
   0  -1  -2 842.616 41.4742   1
   1  -1   2 774.862 44.2356   3
  -2   1   2 5884.48 271.402   3
   2  -1  -2 5684.84 283.856   1
   1  -2  -2 5558.36 291.655   2
   1   1   2 5648.89 270.112   3
   1   1  -2 5824.77 283.096   1
  -1  -1   2 6161.08 280.021   3
  -1  -1  -2 5607.59 285.490   2
   2  -1  -2 5802.56 290.529   2
   2  -1  -2 5610.13 272.047   3
  -2   1  -2 5302.25 301.571   2
   1   1   2 5809.44 270.574   1
  -1   2  -2 5776.17 275.744   1
   2  -1   2 5696.69 301.950   2
   1  -2  -2 5748.12 269.858   3
   2  -1   2 5860.50 272.608   1
  -2   1  -2 5765.04 273.147   1
   2  -1   2 5752.44 265.516   3
  -1   2  -2 5522.54 313.543   2
   1   1  -2 5478.75 296.730   2
   1  -2   2 5909.25 313.224   2
  -1   2   2 5691.06 269.961   3
   1  -2   2 5840.87 275.507   3
  -2   0  -2 113.080 26.4605   2
   0   2  -2 199.273 24.4518   1
   2  -2  -2 84.2951 22.3503   2
   0  -2  -2 131.189 12.5626   3
   2  -2  -2 113.697 13.2552   3
   0  -2  -2 81.2280 21.6538   2
   2  -2  -2 116.940 18.0320   1
   0   2  -2 127.113 38.9790   2
   2   0   2 108.132 14.4514   1
   0  -2   2 167.390 38.5967   2
  -2   2  -2 132.431 17.5348   1
   2  -2   2 121.580 9.74986   3
  -2   2   2 128.630 13.5380   3
  -2   2   2 144.279 14.3583   1
   2   0  -2 156.049 19.7600   3
   0   2   2 144.580 14.0858   3
   0  -2   2 98.0833 22.3596   3
   0  -2  -2 112.469 8.87589   1
   0   2   2 139.327 13.7310   1
  -2   0  -2 153.224 17.7096   1
   2  -2   2 124.628 41.9824   2
  -2   2  -2 102.196 40.1859   2
   0   2   2 116.693 9.12200   1
   2   0  -2 114.874 24.9083   2
  -2   0   2 133.867 17.0299   3
   2   0  -2 110.482 27.2777   1
  -1  -2   2 10.8016 18.1304   2
  -1   3  -2 19.0206 31.1782   2
   3  -1   2 17.9022 8.14398   1
  -1   3  -2 11.9993 9.57770   1
  -3   1   2 17.9048 7.83682   3
  -2   3   2 28.7135 7.53969   3
   2   1  -2 18.8277 19.2543   1
  -2  -1  -2 26.2100 13.6410   2
   2  -3   2 17.7670 7.50748   3
   2  -3   2 55.3456 43.2271   2
   3  -2  -2 4.26874 11.6628   2
   3  -2  -2 18.7082 16.9744   1
   3  -2  -2 22.1740 7.47316   3
   1   2   2 29.3774 9.38387   3
  -3   2  -2 20.3959 8.82862   1
   3  -1   2 20.5809 23.4528   2
   3  -1   2 4.04891 4.33044   3
   1   2   2 35.8779 10.5447   1
   2   1  -2 32.2750 17.7898   2
   1  -3  -2 23.6641 7.15451   3
   1  -3  -2 5.27369 14.9949   2
   1   2  -2 10.7002 20.7035   2
   1   2  -2 32.7618 16.2802   1
   2   1   2 16.5346 13.1785   3
   2  -3  -2 19.8890 16.9152   2
   3  -1  -2 15.3867 12.5189   2
  -1  -2  -2 20.4869 7.13521   3
  -3   1  -2 24.4416 9.30314   1
  -1  -2  -2 11.4378 12.2870   2
   3  -2   2 38.4661 32.8639   2
  -2   3  -2 22.6836 10.4391   1
   3  -2   2 9.33768 3.73500   3
  -3   2   2 28.7034 7.78090   3
   3  -1  -2 11.4672 7.86507   3
   3  -1  -2 -6.3529 15.6867   1
  -1   3   2 26.0202 7.19709   3
   1  -3   2 9.07369 9.84360   3
   3  -2   2 5.49143 6.46809   1
   2   1   2 43.2177 11.3808   1
  -2  -1   2 22.2719 13.1960   3
   1  -3   2 20.6445 31.4991   2
   2  -3  -2 17.2488 6.49146   3
  -3   1  -2 7.51635 21.0307   2
   0  -3  -2 36.5866 9.29863   3
  -3   3   2 60.5629 9.76975   3
   3   0  -2 36.3366 17.1582   2
  -3   0   2 50.5949 14.1687   3
   3  -3  -2 71.6369 24.7865   2
   3   0   2 49.4745 20.2977   2
   0  -3   2 9.87020 24.6490   2
  -3   3  -2 65.2672 14.0513   1
   3  -3   2 68.5316 43.3107   2
   3  -3   2 68.4857 9.10694   3
   3   0   2 51.8553 13.1014   1
   3  -3  -2 54.2776 14.4696   1
   0   3  -2 24.4453 13.7770   1
   3   0  -2 58.8974 15.2160   3
   0  -3   2 43.1651 17.8483   3
  -3   0  -2 36.0059 17.5987   2
   0  -3  -2 52.1613 21.0444   2
   0   3  -2 29.8297 30.0843   2
   0   3   2 38.0436 13.0921   1
   3   0  -2 34.6041 22.7214   1
   3  -3  -2 58.2783 10.9152   3
   0   3   2 56.1925 10.6842   3
  -2   4  -2 4129.46 201.058   1
  -2  -2   2 4253.14 220.594   2
  -2  -2  -2 4084.10 198.389   3
   2   2   2 3864.13 205.500   3
   2   2  -2 3796.73 224.055   2
   4  -2   2 3754.32 223.173   2
   2   2   2 4257.79 201.620   1
   4  -2  -2 3847.56 210.728   1
  -4   2  -2 3897.61 198.498   1
   2  -4   2 3534.94 256.363   2
   2  -4   2 4165.74 197.277   3
   2  -4  -2 3767.71 221.428   2
   4  -2   2 4143.04 197.638   1
   2  -4  -2 3870.41 188.225   1
  -2  -2   2 4370.42 213.031   3
   2  -4  -2 4019.73 194.395   3
   4  -2   2 4157.19 190.256   3
  -2   4   2 3920.25 193.514   3
   2   2  -2 3725.20 219.728   1
   4  -2  -2 4025.69 196.121   3
   4  -2  -2 3720.98 212.092   2
  -2  -2  -2 3995.30 204.776   2
  -1   4  -2 329.516 36.6099   1
   4  -3  -2 383.234 50.7692   2
   1  -4  -2 355.993 55.2430   2
   1  -4  -2 374.436 25.3278   1
  -3   4   2 327.948 24.7143   3
   4  -3  -2 370.225 39.4806   1
   4  -1   2 332.282 44.4026   2
   4  -1   2 384.738 26.3487   3
   3   1  -2 279.387 50.6471   1
   1   3   2 340.885 38.2662   1
   3   1  -2 385.274 49.3707   2
   4  -1   2 374.979 29.9136   1
  -4   3  -2 329.137 28.3373   1
   3  -4   2 296.727 73.0436   2
   1  -4  -2 348.230 26.5030   3
   4  -3  -2 378.908 27.1584   3
  -1  -3   2 347.132 48.1075   3
  -1  -3   2 200.583 47.6069   2
  -3  -1  -2 393.266 34.6469   2
   3  -4   2 344.326 25.0747   3
   1   3   2 349.526 34.1177   3
   3  -4  -2 347.712 19.7378   1
   4  -3   2 400.533 67.4690   2
   4  -1  -2 290.880 30.3045   3
   4  -3   2 380.807 22.9506   3
   3  -4  -2 329.041 25.7229   3
   4  -3   2 408.898 29.4203   1
  -3   4  -2 362.244 30.5568   1
  -1   4   2 306.282 25.5993   3
   1  -4   2 400.874 79.7275   2
   1   3  -2 345.775 62.8591   2
   3   1   2 364.486 36.7002   1
   1  -4   2 348.335 39.8831   3
  -1  -3  -2 292.557 29.2999   3
   1   3  -2 331.703 45.5902   1
  -1   4   2 324.951 20.6509   1
  -1  -3  -2 380.686 46.9338   2
   4  -1  -2 340.417 43.1548   2
   4  -1  -2 354.585 52.7990   1
   3  -4  -2 352.616 53.3749   2
   3  -4  -2 404.748 25.1544   1
   0   4   2 2560.56 134.707   3
   4  -4   2 2561.29 182.807   2
   4  -4   2 2646.54 128.711   3
   4   0   2 2629.67 126.938   2
   4   0   2 2660.44 137.772   1
   4   0  -2 2424.88 159.491   1
  -4   4  -2 2673.91 136.191   1
   0  -4   2 2450.01 147.758   3
   4  -4  -2 2614.45 132.247   3
   0  -4   2 2310.79 177.858   2
   4   0   2 2810.45 137.695   2
   4   0  -2 2644.21 148.628   2
   0  -4  -2 2653.85 157.611   2
   0  -4  -2 2609.72 133.892   3
   4  -4  -2 2665.54 134.571   1
   0   4  -2 2581.42 146.521   1
   0   4   2 2430.62 136.927   1
   4  -4  -2 2553.14 157.114   2
   2  -5  -2 181.702 22.2610   3
   5  -3  -2 163.705 32.8719   2
   5  -3  -2 128.375 18.4850   3
   3   2  -2 182.278 40.5843   2
   5  -2   2 174.302 23.9776   1
  -3  -2  -2 174.957 23.8481   2
  -3  -2  -2 182.018 31.5268   3
  -5   3  -2 165.493 24.3434   1
   5  -2   2 145.294 16.8853   3
   2  -5  -2 174.809 28.0060   1
   3  -5   2 167.864 20.8182   3
  -2   5  -2 123.961 22.9546   1
   3   2  -2 134.817 37.1218   1
   2  -5  -2 207.233 44.2432   2
   2   3   2 158.172 29.3600   3
  -2  -3   2 81.2004 25.6874   3
   3  -5   2 141.839 62.5624   2
   5  -3  -2 117.337 26.8444   1
  -2  -3   2 122.320 37.2492   2
   2   3   2 160.794 28.1398   1
   5  -2   2 148.751 27.7752   2
   2  -5   2 122.815 20.9205   3
   5  -3   2 150.107 15.8610   3
  -2  -3  -2 111.248 21.6285   3
   5  -2  -2 128.890 19.2382   3
  -2   5   2 136.543 11.0079   1
   5  -3   2 121.868 19.9623   1
  -2  -3  -2 145.012 28.6186   2
  -2   5   2 91.3497 16.7413   3
   5  -2  -2 116.662 26.8725   2
   5  -2  -2 191.295 34.8839   1
   3  -5  -2 116.638 17.5918   3
  -3  -2   2 170.873 34.1132   2
   3   2   2 196.420 28.7329   1
   3  -5  -2 124.610 36.7757   2
   2   3  -2 108.621 39.9063   2
   2  -5   2 109.377 49.9710   2
   2   3  -2 127.389 34.4844   1
  -3   5  -2 172.672 24.2614   1
   3  -5  -2 161.720 12.4408   1
   5  -3   2 115.007 32.7724   2
   4   1  -2 1006.09 100.066   1
   4   1  -2 967.879 71.6300   2
   5  -4  -2 933.471 61.8448   1
   5  -4  -2 939.449 54.9782   3
   5  -1   2 883.345 59.5801   1
  -1  -4   2 714.295 95.4138   2
   5  -4  -2 872.179 74.3588   2
  -4  -1  -2 781.317 103.850   3
   1  -5  -2 955.865 82.3330   2
   1  -5  -2 934.739 56.7337   3
   1   4   2 877.922 66.2309   1
   4  -5   2 977.320 128.615   2
  -1  -4   2 949.937 85.1377   3
   4  -5   2 955.879 53.1334   3
  -1   5  -2 833.269 62.3882   1
  -5   4  -2 989.759 59.3119   1
   5  -1   2 928.079 55.9981   3
   1   4   2 999.719 63.1604   3
   5  -1   2 887.399 55.6168   2
   5  -4   2 851.363 84.8972   2
   4  -5  -2 977.733 83.1118   2
   5  -4   2 909.187 56.8066   1
  -1   5   2 901.948 50.6971   1
  -1   5   2 868.629 55.5142   3
   5  -4   2 914.281 50.9836   3
   1   4  -2 850.634 71.1601   1
   1  -5   2 958.577 66.6021   3
   5  -1  -2 847.359 58.3506   3
   5  -1  -2 917.341 65.9749   2
   4  -5  -2 870.421 53.9434   3
   1  -5   2 894.927 118.030   2
   5  -1  -2 968.172 80.2017   1
  -1  -4  -2 854.555 71.4531   2
   4  -5  -2 982.191 52.6520   1
  -4   5  -2 943.345 59.3094   1
  -1  -4  -2 878.962 59.3305   3
   4   1   2 894.758 62.2264   1
   0   5  -2 2356.79 141.803   1
   5  -5   2 2415.72 128.022   1
   5   0  -2 2388.79 132.499   3
  -5   5  -2 2483.98 129.663   1
   5  -5   2 2445.08 121.797   3
   0  -5  -2 2384.59 128.504   3
   5  -5   2 2217.61 170.244   2
   5  -5  -2 2378.86 125.127   3
   5   0   2 2231.97 132.213   1
   0  -5  -2 2638.89 157.037   2
   0   5   2 2441.06 130.606   1
   5  -5  -2 2385.48 127.339   1
   5  -5  -2 2475.29 153.669   2
   5   0  -2 2469.29 157.361   1
   0   5   2 2460.07 130.083   3
   5   0  -2 2387.88 139.839   2
   0  -5   2 2450.32 143.951   3
   0  -5   2 2335.02 173.151   2
  -3   6  -2 1270.49 80.9767   1
   6  -3  -2 1275.31 89.6992   2
  -3  -3  -2 1650.80 105.489   3
   3  -6  -2 1354.10 67.1788   1
   3   3  -2 1309.98 103.310   1
   6  -3  -2 1387.86 91.4978   1
   6  -3   2 1243.14 88.0687   2
   3   3   2 1288.94 86.7331   1
   3  -6   2 1555.25 147.882   2
  -3  -3   2 1296.30 91.0323   3
   3  -6   2 1334.36 78.2052   3
  -3  -3  -2 1489.99 82.7026   2
   3   3  -2 1445.05 111.125   2
   6  -3   2 1310.13 72.1484   3
  -3  -3   2 1244.81 100.219   2
   6  -3  -2 1381.66 77.7689   3
   3  -6  -2 1312.27 76.2837   3
  -3   6   2 1275.79 67.1772   1
   6  -3   2 1195.21 77.9500   1
   3  -6  -2 1339.24 112.144   2
   6  -4  -2 177.670 35.5909   2
   2   4   2 231.103 38.2047   3
  -6   4  -2 223.331 29.2085   1
   6  -4  -2 195.566 24.4771   3
   6  -4  -2 215.551 33.5422   1
   4  -6   2 190.654 23.4965   3
   6  -2   2 185.518 22.1435   3
  -2   6  -2 191.891 30.8798   1
   2   4   2 185.372 35.2941   1
  -2  -4   2 201.595 37.2611   3
   4   2  -2 116.949 36.2899   1
   2  -6  -2 214.868 50.1314   2
   6  -2   2 203.591 26.9152   2
   2  -6  -2 182.982 24.6410   3
   4  -6   2 151.118 57.7367   2
   4   2  -2 232.034 44.6738   2
  -2  -4   2 236.592 50.7234   2
   6  -2   2 200.032 29.1373   1
  -2  -4  -2 216.283 42.2222   3
   2   4  -2 143.429 35.8637   1
  -4   6  -2 202.131 28.5610   1
  -4  -2   2 186.895 35.8485   2
   6  -2  -2 183.600 38.7255   1
   4  -6  -2 167.230 21.9790   3
   2  -6   2 125.854 54.5403   2
   4  -6  -2 224.889 17.9816   1
   6  -4   2 182.607 25.9997   1
  -2  -4  -2 204.442 36.1922   2
   4  -6  -2 164.117 43.4575   2
   4   2   2 229.042 35.6688   1
   6  -4   2 183.545 19.8009   3
   2  -6   2 184.648 28.1105   3
   6  -2  -2 186.962 25.8755   3
   6  -2  -2 212.796 34.0596   2
   6  -4   2 214.301 43.0458   2
  -2   6   2 210.247 16.5706   1
   6  -5  -2 47.5107 12.6774   3
  -6   5  -2 50.2531 15.6706   1
  -1  -5   2 19.8741 19.1882   3
   1  -6  -2 47.0228 30.3813   2
   1  -6  -2 25.4870 13.4636   3
   5  -6   2 32.8802 9.97357   3
  -1  -5   2 40.0362 30.0186   2
   5   1  -2 48.2819 20.6750   2
   6  -5  -2 29.9765 15.5155   1
   6  -1   2 30.0224 12.6998   3
   6  -5  -2 59.2523 25.9794   2
   5   1  -2 28.3088 28.7070   1
  -1   6  -2 26.2076 16.0296   1
   5  -6   2 2.68256 36.3936   2
   6  -1   2 19.2605 12.9376   1
   1   5   2 41.0920 20.1333   1
   6  -5   2 58.2904 33.1217   2
   1  -6   2 41.2472 34.7969   2
   6  -5   2 16.2330 10.1043   1
   6  -5   2 38.8443 9.70212   3
   1   5  -2 50.2834 24.1842   1
   5  -6  -2 46.9461 12.6603   3
  -1   6   2 26.1254 10.0368   1
  -1  -5  -2 21.1947 20.0006   2
   5   1   2 73.1231 20.3950   1
   6  -1  -2 36.8459 13.5418   3
   1  -6   2 51.6016 20.3452   3
   5  -6  -2 57.6088 28.1740   2
   6  -1  -2 11.2855 23.9242   1
  -5   6  -2 39.4828 15.2720   1
   5  -6  -2 33.6800 12.1262   1
   6  -1  -2 20.8111 13.9259   2
   6   0  -2 1478.23 115.111   1
   6  -6   2 1471.91 81.2602   3
   6  -6  -2 1614.24 115.805   2
  -6   6  -2 1487.14 89.1172   1
   6  -6   2 1428.81 87.3778   1
   6  -6  -2 1596.26 85.7710   3
   6   0   2 1297.47 91.9395   1
   6  -6   2 1326.51 126.298   2
   6   0  -2 1565.97 97.3264   2
   0   6   2 1555.64 90.1411   1
   0  -6   2 1485.04 102.464   3
   0   6  -2 1442.33 101.574   1
   0  -6  -2 1441.71 115.783   2
   6  -6  -2 1663.32 88.4050   1
   0  -6   2 1360.24 122.537   2
   4  -7   2 340.550 84.2500   2
  -3  -4   2 375.918 64.0804   2
   7  -3   2 349.645 33.9620   3
  -3   7  -2 456.462 48.4074   1
   7  -4  -2 472.977 57.5510   2
   7  -3   2 348.672 40.3841   2
  -3  -4   2 357.212 51.3489   3
   3  -7  -2 387.110 43.0249   3
   4  -7   2 364.759 36.2652   3
   3  -7  -2 416.435 73.8700   2
   4   3  -2 397.846 62.3744   2
   7  -4  -2 342.145 36.1653   3
   4   3  -2 453.295 70.4282   1
  -4   7   2 407.255 27.2099   1
   7  -3   2 365.184 42.4406   1
   7  -4  -2 406.532 50.7784   1
   3   4   2 470.374 57.2931   1
   7  -3  -2 449.686 53.7225   2
  -4   7  -2 334.265 39.5504   1
   4  -7  -2 427.412 77.3312   2
   7  -3  -2 366.300 53.2714   1
   4  -7  -2 386.667 27.8894   1
   7  -4   2 349.794 40.2648   1
  -4  -3   2 376.145 55.8619   2
   3  -7   2 498.236 105.399   2
  -4  -3   2 476.635 56.5363   3
   4   3   2 356.351 48.4660   1
  -3  -4  -2 438.833 48.6006   2
   7  -4   2 400.251 51.8693   2
   3   4  -2 441.585 65.9795   1
   3  -7   2 418.841 43.8836   3
   4  -7  -2 408.200 38.6602   3
   7  -4   2 395.617 30.2294   3
  -3   7   2 400.855 26.3589   1
   7  -3  -2 406.072 39.7357   3
  -2   7  -2 1421.11 93.1534   1
  -7   5  -2 1293.80 86.2760   1
   2   5   2 1472.02 99.5868   1
  -2  -5   2 1675.48 104.669   3
   5   2  -2 1469.50 114.495   1
   7  -5  -2 1515.30 105.056   2
   7  -5  -2 1490.84 83.5635   3
   7  -2   2 1338.15 83.1355   3
  -2  -5   2 1460.86 117.092   2
   5   2  -2 1760.87 111.928   2
   2  -7  -2 1457.53 127.916   2
   5  -7   2 1380.43 81.7188   3
   7  -2   2 1553.96 91.8409   1
   5  -7   2 1487.14 174.139   2
   7  -5  -2 1499.83 93.4502   1
  -2   7   2 1459.71 76.9227   1
   5   2   2 1531.17 96.4835   1
   7  -5   2 1361.51 106.121   2
   7  -2  -2 1283.76 85.1916   3
   5  -7  -2 1248.21 118.321   2
   7  -2  -2 1369.42 92.6384   2
   7  -2  -2 1606.17 109.832   1
   2   5  -2 1421.58 105.309   1
   5  -7  -2 1443.00 77.9691   1
  -5  -2   2 1258.34 96.2598   2
  -5   7  -2 1444.60 88.2719   1
   2  -7   2 1626.48 150.611   2
  -2  -5  -2 1562.13 104.046   2
   7  -5   2 1494.05 79.3974   3
   5  -7  -2 1393.45 83.0132   3
   7  -5   2 1366.15 85.6923   1
   2  -7   2 1511.77 93.2205   3
   7  -6  -2 158.016 28.7043   1
   6   1  -2 153.780 44.7291   1
   1   6   2 180.008 33.8205   1
   6   1  -2 169.440 35.5382   2
  -1  -6   2 179.009 37.5425   3
   6  -7   2 152.275 59.3028   2
   6  -7   2 142.780 21.2784   3
  -1  -6   2 168.898 46.5143   2
  -7   6  -2 215.165 31.2051   1
  -1   7  -2 209.435 37.0994   1
   7  -1   2 115.101 26.6935   1
   1  -7  -2 176.734 52.3948   2
   7  -6  -2 168.982 41.7209   2
   7  -6  -2 224.090 26.1811   3
   6  -7   2 125.706 24.0291   1
   6  -7  -2 140.516 21.8563   3
   1  -7   2 147.977 32.2409   3
   7  -1  -2 127.703 39.1717   1
   7  -6   2 157.675 20.0825   3
   7  -6   2 156.372 25.7750   1
   7  -1  -2 183.272 29.1992   3
  -1   7   2 181.986 24.1160   1
  -1  -6  -2 147.340 39.0177   2
   7  -1  -2 152.758 29.7235   2
   1   6  -2 178.784 41.1133   1
   6  -7  -2 184.653 24.7790   1
  -6   7  -2 178.249 28.8629   1
   7  -6   2 142.222 44.4625   2
   6   1   2 160.400 32.7131   1
   6  -7  -2 216.936 53.3349   2
   1  -7   2 232.332 65.0665   2
  -6  -1   2 173.903 31.6173   2
   7  -7  -2 693.775 88.6354   2
   0  -7   2 801.282 101.491   2
   7   0  -2 688.427 57.8535   2
   0  -7  -2 735.289 95.5076   2
   7  -7   2 594.584 48.1691   1
   7  -7   2 696.214 101.594   2
   7   0   2 692.035 68.2104   1
   0   7  -2 629.473 72.2559   1
   7  -7  -2 663.259 50.3656   1
   7  -7   2 624.640 44.1247   3
   0   7   2 663.000 52.4433   1
   7   0  -2 629.612 82.2675   1
   0  -7   2 605.088 67.9895   3
   7  -7  -2 626.710 46.4247   3
  -7   7  -2 681.876 51.1161   1
   8  -4  -2 28.0201 21.8232   1
   4  -8  -2 4.61329 29.9380   2
   8  -4  -2 0.72956 9.85771   3
   4  -8   2 -2.4251 39.3842   2
   8  -4   2 15.5213 9.35641   3
  -4  -4   2 19.8286 19.9992   3
  -4  -4   2 12.9286 23.0977   2
   4   4   2 14.9016 20.2471   1
  -4   8  -2 25.4348 14.1422   1
   4  -8   2 4.83229 10.7217   3
   8  -4  -2 -3.4869 12.4186   2
   8  -4   2 1.20901 13.1514   2
   4   4  -2 15.4893 26.7355   1
   8  -4   2 11.6881 12.0210   1
   5  -8   2 1629.31 196.357   2
   5   3  -2 1619.07 121.554   1
  -3  -5   2 1504.05 115.919   2
  -3  -5   2 1630.23 108.039   3
   8  -3   2 1519.33 89.1225   3
   5  -8   2 1491.67 89.7126   3
   3  -8  -2 1513.70 139.797   2
   8  -5  -2 1477.37 105.810   2
   8  -5  -2 1512.55 90.2799   3
  -3   8  -2 1603.96 99.0163   1
   3   5   2 1688.30 109.774   1
   8  -5  -2 1496.66 101.948   1
   8  -3   2 1301.59 93.4264   1
  -5  -3   2 1754.24 114.391   2
   8  -5   2 1547.99 86.0730   3
   3  -8   2 1915.50 170.805   2
   8  -5   2 1491.98 105.256   2
   8  -3  -2 1757.63 111.994   1
   8  -5   2 1502.67 93.7600   1
  -5   8  -2 1513.75 94.6509   1
   8  -3  -2 1527.92 91.8776   3
   3  -8   2 1613.17 97.3739   3
   3   5  -2 1553.40 114.020   1
   8  -3  -2 1573.06 101.344   2
   5   3   2 1716.35 108.415   1
  -5  -3   2 1475.21 102.497   3
   8  -6  -2 -4.4296 15.7702   2
   6  -8   2 23.0009 11.0221   3
  -2  -6   2 6.60589 23.6177   2
  -8   6  -2 24.3725 14.4646   1
   2  -8  -2 15.6734 35.2509   2
   6   2  -2 46.0350 30.0424   1
   6   2  -2 9.68542 22.1756   2
   6  -8   2 4.09755 48.0772   2
   2   6   2 22.5382 22.1046   1
   8  -2   2 60.1592 20.3795   1
   8  -2   2 14.1526 12.0372   3
   8  -6  -2 19.6753 16.8366   1
   8  -6  -2 10.8734 9.70030   3
  -2  -6   2 -6.7502 17.6103   3
  -2   8  -2 25.5162 18.4863   1
   8  -2  -2 10.3225 22.0000   1
   2   6  -2 8.90907 20.1106   1
   8  -6   2 21.4868 24.1764   2
   8  -2  -2 15.0533 12.8856   3
   8  -6   2 9.17149 12.5842   1
   8  -2  -2 21.3538 14.3512   2
  -6   8  -2 2.60139 11.0625   1
   2  -8   2 21.3116 40.5952   2
   8  -6   2 17.3734 9.06511   3
   6   2   2 32.2489 19.3870   1
   2  -8   2 7.81072 16.0877   3
   6  -8  -2 6.66474 26.6207   2
   8  -7  -2 135.733 28.7347   1
  -1  -7   2 145.423 36.5855   3
   8  -1   2 150.999 32.1976   1
   8  -7  -2 192.168 47.2191   2
   1   7   2 191.059 34.9667   1
  -1   8  -2 154.135 33.6793   1
   7   1  -2 248.197 53.9925   1
   7  -8   2 231.176 67.1988   2
   7  -8   2 200.902 25.2376   3
   1  -8  -2 235.838 59.3266   2
   7  -8   2 201.253 29.8668   1
  -8   7  -2 241.807 35.1949   1
  -1  -7   2 214.019 52.5162   2
   7   1   2 194.694 36.3041   1
   1  -8   2 162.480 51.7512   2
   1   7  -2 225.643 43.2942   1
   8  -1  -2 114.253 37.6869   1
   1  -8   2 131.594 31.4642   3
  -1  -7  -2 247.172 51.6905   2
   8  -7   2 165.366 22.9984   3
   8  -1  -2 201.323 46.9601   3
   8  -7   2 198.037 30.6437   1
  -7   8  -2 157.262 27.9169   1
   8  -7   2 221.077 52.9946   2
   7  -8  -2 166.456 49.9238   2
   8  -8  -2 3353.47 217.846   2
   0  -8   2 3930.08 230.363   2
   8   0   2 3319.89 192.824   1
   0  -8   2 3591.10 200.939   3
   8  -8   2 3565.97 177.498   3
   0  -8  -2 3432.83 222.608   2
   0   8  -2 3313.00 199.312   1
   8   0  -2 4067.59 221.510   1
   8  -8   2 3337.87 183.961   1
  -8   8  -2 3416.83 186.055   1
   8  -8   2 3067.09 225.072   2
   9  -4   2 71.7822 17.8377   3
   5  -9   2 77.5500 68.4741   2
   9  -5  -2 75.8838 24.7134   2
  -4   9  -2 58.5030 19.7300   1
  -4  -5   2 52.7558 29.2515   2
   9  -4   2 66.3072 21.1262   1
  -4  -5   2 83.1825 26.0074   3
   4   5   2 62.0097 29.7834   1
   4  -9  -2 153.992 58.5406   2
   9  -5  -2 89.1289 28.8902   1
   5  -9   2 68.3467 19.1768   3
   5   4  -2 91.0806 34.5999   1
   5   4   2 46.4460 26.2343   1
   5  -9  -2 46.7080 38.2198   2
   9  -4  -2 98.3392 27.4217   2
   9  -4  -2 159.824 35.9890   1
   4   5  -2 18.7517 26.9441   1
   4  -9   2 87.7232 20.9140   3
   9  -5   2 79.9739 21.2608   1
  -5   9  -2 52.3936 19.7608   1
   9  -5   2 67.7419 15.6538   3
   4  -9   2 70.7228 58.1893   2
   9  -6  -2 1391.74 108.349   2
   9  -3   2 1580.66 95.0735   3
  -3   9  -2 1504.56 102.083   1
   9  -6  -2 1553.97 105.382   1
   3  -9  -2 1598.61 151.928   2
  -3  -6   2 1888.69 112.041   3
   3   6   2 1637.97 111.400   1
   9  -3   2 1533.60 101.823   1
   6  -9   2 1671.22 94.5195   3
  -3  -6   2 1780.08 120.558   2
   6  -9   2 1646.60 202.455   2
   6   3  -2 1926.36 131.704   1
   9  -3  -2 1732.90 117.385   1
   9  -3  -2 1631.85 126.770   2
   9  -6   2 1487.44 97.4671   1
   9  -6   2 1415.87 88.4996   3
   9  -6   2 1487.28 110.189   2
   3   6  -2 1741.93 119.009   1
   3  -9   2 1502.05 100.379   3
  -6   9  -2 1518.09 97.3390   1
   3  -9   2 1914.98 170.207   2
   6   3   2 1761.65 113.625   1
   7  -9   2 118.241 56.8850   2
   9  -7  -2 120.029 29.4613   1
  -2  -7   2 99.8991 28.6965   3
   2  -9  -2 79.8214 46.9567   2
  -2   9  -2 99.4608 28.9655   1
   7   2  -2 113.900 38.3816   1
   9  -2   2 83.9014 25.1468   1
   7  -9   2 124.023 25.9551   1
   9  -7  -2 82.2248 32.9053   2
   7  -9   2 153.690 23.8676   3
   2   7   2 135.549 34.6247   1
  -2  -7   2 139.869 41.2095   2
   2  -9   2 103.859 49.7908   2
   2  -9   2 126.327 29.5295   3
   2   7  -2 136.443 37.4225   1
   9  -7   2 115.438 25.5971   1
  -7   9  -2 97.8602 24.3078   1
   7   2   2 120.626 30.9899   1
   7  -9  -2 94.1205 43.3978   2
   9  -2  -2 151.939 42.4490   1
   9  -7   2 145.558 41.5215   2
   9  -7   2 167.918 23.0478   3
   8   1  -2 98.5463 39.7808   1
   8  -9   2 119.144 25.1707   1
   9  -1   2 98.4325 27.9775   1
   9  -8  -2 161.520 43.5586   2
  -1   9  -2 100.118 30.7817   1
  -1  -8   2 107.922 32.9746   3
  -9   8  -2 168.571 31.1656   1
   1  -9  -2 153.544 54.1128   2
   8  -9   2 154.654 61.9102   2
   8  -9   2 99.2046 19.6039   3
  -1  -8   2 183.700 50.6337   2
   8   1   2 117.675 30.2114   1
   9  -8   2 80.8236 17.0037   3
   8  -9  -2 121.219 48.6909   2
  -8   9  -2 128.505 27.6460   1
   1  -9   2 176.036 57.5743   2
   1   8  -2 116.942 33.7476   1
   9  -1  -2 141.284 42.9759   1
   1  -9   2 155.195 36.9662   3
   9  -8   2 126.035 44.7313   2
   9  -8   2 113.350 25.9920   1
   0  -9   2 373.851 70.2662   2
   9  -9   2 400.975 46.1515   1
   0  -9  -2 316.249 70.2044   2
   9  -9  -2 412.272 73.8773   2
   0  -9   2 353.163 51.7156   3
   0   9  -2 401.365 60.7963   1
  -9   9  -2 399.569 46.7914   1
   9   0   2 371.456 52.3535   1
   9  -9   2 374.636 38.2024   3
   9   0  -2 358.732 63.4587   1
   9  -9   2 518.695 86.5140   2
   5 -10   2 409.235 46.3410   3
  10  -5   2 426.569 40.6644   3
  10  -5  -2 359.832 49.9849   2
  10  -5  -2 315.348 51.5667   1
   5   5  -2 447.762 68.0360   1
   5 -10   2 492.964 114.523   2
  -5  10  -2 313.119 44.3517   1
  10  -5   2 362.872 47.6447   1
   5   5   2 520.863 67.8340   1
   5 -10  -2 500.614 107.405   2
   4   6   2 36.6604 25.0890   1
  10  -4   2 7.61197 15.5671   1
  10  -6  -2 64.7965 25.4753   2
  10  -4   2 46.7243 16.7910   3
  10  -6  -2 60.5693 26.9956   1
   6   4  -2 109.093 38.7055   1
   4 -10  -2 111.123 59.0119   2
  -4  10  -2 34.1247 19.8886   1
   6 -10   2 59.6118 17.5489   3
   6 -10   2 93.6389 65.6765   2
  10  -4  -2 38.3364 27.4012   1
  10  -6   2 37.6709 17.9606   1
   6 -10  -2 26.9494 41.1621   2
  -6  10  -2 23.1563 16.3834   1
   4 -10   2 26.4903 18.5026   3
  10  -6   2 49.9605 14.8932   3
   4 -10   2 62.3837 55.3695   2
   4   6  -2 55.2698 27.4742   1
   6   4   2 92.3926 32.3847   1
  10  -7  -2 62.4599 25.6978   1
   7 -10   2 4.53693 41.2051   2
   7   3  -2 90.7693 34.4861   1
   7 -10   2 11.9061 14.1213   1
  10  -3   2 24.9269 18.0820   1
   3   7   2 -10.729 32.6799   1
   7 -10   2 4.98555 11.0276   3
  -3  10  -2 -2.3621 17.3733   1
  10  -7  -2 21.5620 21.9773   2
   3 -10  -2 28.3896 41.0224   2
  10  -3   2 19.4111 13.5221   3
  -7  10  -2 9.23016 15.4822   1
  10  -3  -2 11.8310 24.3098   1
  10  -7   2 5.42318 12.8824   1
   7   3   2 0.60473 20.5395   1
   3 -10   2 26.3873 19.0711   3
   7 -10  -2 26.7219 40.1909   2
  10  -7   2 16.4262 11.6130   3
   3   7  -2 28.4282 21.8558   1
   3 -10   2 23.2071 45.6918   2
   2 -10  -2 384.854 81.8504   2
  -2  10  -2 419.187 58.7856   1
   8 -10   2 413.609 47.5628   1
  10  -8  -2 378.503 63.2036   2
  -2  -8   2 460.998 70.1332   2
  10  -2   2 340.005 50.7875   1
   8 -10   2 395.066 41.5677   3
   8   2  -2 432.821 69.8701   1
   8 -10   2 340.420 84.7569   2
   2   8  -2 395.434 59.6132   1
   2 -10   2 408.757 55.3604   3
   8 -10  -2 505.256 94.9888   2
  10  -2  -2 529.256 77.3695   1
  10  -8   2 404.291 64.5075   2
  10  -8   2 375.765 39.4130   3
  -8  10  -2 468.510 51.7992   1
   2 -10   2 503.580 91.8864   2
  10  -8   2 377.959 47.3202   1
   8   2   2 408.941 58.0412   1
   9 -10   2 127.751 55.1556   2
   9 -10   2 132.257 27.8239   1
  -1  -9   2 142.613 45.9677   2
   1 -10  -2 84.8386 42.5791   2
   9 -10   2 96.9541 20.2558   3
  10  -9  -2 113.089 41.4600   2
  10  -1   2 106.077 30.5762   1
   9   1  -2 165.143 48.2348   1
  -1  10  -2 99.0367 31.9348   1
  10  -1  -2 189.147 46.4921   1
  -9  10  -2 119.039 28.3173   1
  10  -9   2 112.023 44.5528   2
   1   9  -2 122.513 36.4050   1
   1 -10   2 131.374 48.8828   2
   9   1   2 111.312 31.5323   1
   9 -10  -2 128.892 47.9783   2
  10  -9   2 99.8615 25.3689   1
  10  -9   2 88.6257 19.2951   3
 -10  10  -2 66.2262 23.4988   1
  10   0   2 81.5537 27.7745   1
  10 -10   2 70.2076 18.7855   3
   0 -10   2 37.8661 36.3582   2
  10   0  -2 71.5871 33.3332   1
   0  10  -2 70.4330 29.6603   1
  10 -10   2 84.0853 24.5073   1
  10 -10  -2 90.7743 40.5863   2
  10 -10   2 49.0509 38.1835   2
  11  -5   2 11.8869 12.9076   3
   6   5  -2 5.16775 22.8820   1
   5 -11  -2 30.3243 44.5850   2
  11  -6  -2 17.8508 21.8228   1
  -5  11  -2 27.7359 20.0923   1
   6 -11   2 68.4565 58.7639   2
   6 -11   2 5.30173 13.9512   3
  11  -5   2 25.4858 17.2930   1
   5   6   2 65.4504 28.0255   1
   5 -11   2 2.65342 15.5606   3
  11  -6   2 23.3912 19.4368   1
  -6  11  -2 16.1460 18.0678   1
  11  -6   2 27.5148 13.9877   3
   6   5   2 24.5467 24.7677   1
  11  -5  -2 48.2148 29.4502   1
   5 -11   2 38.1320 45.9550   2
   6 -11  -2 -33.763 34.0651   2
   5   6  -2 14.5485 21.7346   1
  11  -7  -2 212.857 42.9700   2
   7   4  -2 213.852 48.6801   1
   7 -11   2 139.028 25.3382   3
  -4  11  -2 157.334 33.0311   1
  11  -4   2 158.043 29.1837   3
   4 -11  -2 225.837 76.2864   2
   7 -11   2 155.575 72.8593   2
   7 -11   2 222.448 35.7762   1
  11  -4   2 171.200 34.7788   1
   4 -11   2 98.3087 27.3831   3
   7   4   2 200.046 42.3139   1
   7 -11  -2 106.052 53.9384   2
  11  -4  -2 160.190 42.2134   1
   4   7  -2 159.630 37.8541   1
  -7  11  -2 151.228 30.8620   1
  11  -7   2 115.615 27.4852   1
  11  -7   2 115.810 22.0613   3
   4 -11   2 167.408 66.2218   2
  11  -8  -2 716.115 85.9563   2
   8   3  -2 831.770 94.0031   1
   3 -11  -2 1088.56 142.730   2
  -3  11  -2 707.637 77.4193   1
   8 -11   2 861.930 59.0676   3
   8 -11   2 654.485 128.921   2
   8 -11   2 789.695 61.7262   1
  11  -3   2 767.086 79.5378   1
   8   3   2 889.837 90.4132   1
  11  -3  -2 823.709 93.5547   1
  11  -8   2 793.487 55.7467   3
   8 -11  -2 863.456 138.570   2
   3 -11   2 628.064 70.9296   3
   3   8  -2 723.561 80.3350   1
   3 -11   2 656.469 105.570   2
  11  -8   2 731.144 63.6502   1
  -8  11  -2 729.849 60.8978   1
   9   2  -2 11.5200 27.2762   1
  -2  11  -2 41.8153 27.2353   1
  11  -9  -2 20.9600 25.7574   2
   9 -11   2 4.62715 14.8332   1
   9 -11   2 7.82191 13.1952   3
   9 -11   2 51.7229 49.3489   2
  11  -2   2 32.9922 21.6756   1
   2 -11  -2 8.63561 36.8432   2
  11  -2  -2 16.1762 27.9093   1
   2   9  -2 11.0040 22.9481   1
  11  -9   2 14.3297 16.0523   1
   9 -11  -2 53.8995 46.5628   2
  -9  11  -2 35.3005 17.2218   1
   2 -11   2 16.9454 33.0875   2
   9   2   2 30.1879 27.1004   1
  11  -9   2 8.09909 10.2401   3
   0   0  -3 -0.0989 15.0724   2
   0   0   3 0.71185 3.06915   3
   0   0  -3 -0.9125 4.91149   1
   0   1  -3 7.32513 6.74204   1
   0  -1   3 -7.5479 4.70378   3
   0  -1  -3 2.62049 14.4351   2
   0  -1  -3 3.98039 4.45931   1
   0   1  -3 6.92021 19.9411   2
   1  -1   3 0.38369 3.68389   3
   1  -1  -3 1.19802 13.2179   2
   0   1   3 1.52111 3.05643   3
  -1   1  -3 3.51622 5.97008   1
  -1   0  -3 3.38429 5.22310   1
  -1   0   3 -1.0831 4.34860   3
   1  -1  -3 4.25430 4.80836   1
   1   0  -3 -2.6911 6.13394   1
   1   0  -3 -8.3664 11.2277   2
  -1   0  -3 3.49836 15.8239   2
  -1   1  -3 5.37173 21.4781   2
   1   0   3 11.6624 2.77990   3
  -2   1   3 64.4575 11.0270   3
   2  -1   3 57.4354 11.8055   1
  -1   2  -3 105.140 41.3523   2
  -1  -1   3 125.971 18.5653   3
  -1  -1  -3 99.2909 28.2622   2
   1   1  -3 68.0184 17.9073   1
   2  -1  -3 70.8642 23.3158   2
   2  -1   3 86.2931 31.7191   2
   2  -1  -3 111.494 15.0414   3
  -1  -1  -3 87.0916 12.5296   1
   1   1  -3 112.283 34.3074   2
  -1   2   3 73.4803 10.6965   3
  -2   1  -3 71.3215 30.6573   2
   1  -2   3 106.679 19.7511   3
   1  -2   3 107.321 36.9087   2
   1  -2  -3 97.3624 11.4341   3
  -2   1  -3 54.5599 11.8945   1
   1   1   3 89.5346 10.0404   3
   1  -2  -3 91.0707 8.44024   1
   1   1   3 87.7278 11.7441   1
  -1   2   3 98.4046 14.4911   1
   2  -1  -3 69.5544 14.9646   1
  -1   2  -3 97.4453 17.3815   1
   1  -2  -3 124.680 30.5385   2
   2  -2  -3 4.55013 14.8007   2
   0   2  -3 -7.3123 6.22589   1
   2   0  -3 8.77757 15.7808   2
  -2   2  -3 3.53819 22.2421   2
   0   2  -3 -2.7555 18.7964   2
  -2   0  -3 4.24295 16.9151   2
  -2   2   3 0.22576 4.01381   3
   2   0  -3 -2.3451 7.02871   3
   2  -2  -3 0.53922 4.52745   3
   0  -2   3 -10.629 14.8331   2
   2   0   3 -2.1319 4.80522   1
   2  -2   3 -2.4305 3.16482   3
   2   0  -3 13.7606 12.5314   1
   2   0   3 3.62402 6.78798   3
   0   2   3 5.29845 3.98609   1
  -2   0   3 -4.2768 5.27006   3
   0   2   3 -3.2728 3.66603   3
   2  -2   3 5.00406 23.4313   2
  -2   0  -3 4.46085 6.46040   1
  -2   2  -3 14.5033 8.04473   1
   2  -2  -3 3.19924 4.60642   1
   0  -2  -3 -2.4104 14.5313   2
   3  -1   3 2087.34 140.501   2
  -1   3  -3 1936.44 107.536   1
   2   1  -3 1974.50 130.229   2
   2   1  -3 1938.82 118.516   1
   1   2   3 1962.32 99.2799   1
   1  -3  -3 2071.10 129.610   2
   1  -3  -3 1981.34 98.2983   3
  -1   3  -3 2024.80 155.728   2
   3  -2  -3 2041.94 101.900   3
   3  -1   3 1951.86 102.213   1
  -2  -1  -3 1997.85 124.089   2
  -1  -2   3 1940.40 131.497   2
  -3   2  -3 1626.09 142.608   2
   3  -2  -3 2097.29 128.268   2
   1   2   3 1958.85 99.8075   3
  -3   2  -3 1841.27 103.112   1
  -2   3   3 1977.51 99.2069   3
  -3   1   3 1881.43 101.356   3
   3  -2  -3 2119.07 111.983   1
   2  -3   3 1731.45 148.429   2
  -1  -2   3 2103.48 114.313   3
   2  -3   3 2015.40 99.8740   3
  -3   1  -3 1845.70 137.443   2
  -1  -2  -3 1979.80 122.459   2
   1   2  -3 2133.40 116.361   1
   2   1   3 2017.37 101.053   1
   3  -2   3 1939.59 103.056   1
  -2   3  -3 1963.46 105.662   1
   1   2  -3 2038.09 138.341   2
   1  -3   3 1967.42 149.342   2
   2  -3  -3 1881.57 126.858   2
  -3   2   3 1924.75 99.7481   3
   3  -2   3 1785.90 147.672   2
   3  -1  -3 2104.55 104.417   3
   3  -1  -3 1884.64 118.128   1
   2   1   3 1874.05 102.859   3
  -2  -1   3 1944.72 107.041   3
  -1   3   3 2000.37 99.0321   3
   3  -1  -3 1866.44 122.541   2
  -3   1  -3 2036.82 103.770   1
  -2   3  -3 1452.07 144.582   2
   1  -3   3 1835.08 108.731   3
   3  -2   3 1947.66 92.8834   3
   2  -3  -3 1988.33 99.4638   3
  -3   3   3 5.96524 5.46403   3
   0  -3  -3 0.64926 14.5409   2
   3   0  -3 4.46589 8.58377   3
   3   0   3 7.70570 7.09176   1
   0  -3  -3 9.02752 5.95705   3
   3  -3  -3 17.4889 16.9356   2
   0   3   3 0.88281 6.66303   1
   3   0  -3 -4.6573 14.5238   1
  -3   3  -3 -0.8158 7.03307   1
   0   3  -3 8.89476 10.7356   1
   0  -3   3 32.3385 28.3182   2
   3  -3   3 -0.5946 3.42515   3
  -3   0  -3 2.86367 19.1276   2
  -3   0   3 2.59897 6.73641   3
   0  -3   3 3.23789 15.8490   3
   3  -3  -3 0.30194 5.60535   3
   0   3  -3 11.5696 25.2651   2
   3  -3  -3 12.5709 7.83768   1
   0   3   3 -0.9670 4.55797   3
   3  -3   3 26.1524 35.8983   2
   3   0  -3 3.65194 14.5851   2
   2   2   3 239.967 27.1247   1
   2   2   3 250.877 30.0691   3
   2   2  -3 231.727 40.9371   1
   4  -2   3 283.603 29.8101   1
  -2   4  -3 292.786 34.1053   1
   2  -4  -3 275.364 24.9259   3
  -2   4   3 258.101 20.8366   3
   2  -4  -3 253.397 47.4372   2
  -2  -2  -3 301.656 41.7660   2
   4  -2   3 249.840 17.1494   3
  -2  -2   3 241.749 45.7174   2
   2   2  -3 259.190 51.2585   2
   2  -4   3 277.083 28.5822   3
   4  -2   3 149.398 47.5053   2
  -2  -2   3 334.255 40.9521   3
   4  -2  -3 296.299 46.1879   2
   2  -4   3 199.844 60.3313   2
  -4   2  -3 312.441 32.1417   1
  -4   2   3 247.611 25.4044   3
   4  -2  -3 203.856 37.8923   1
   4  -2  -3 229.824 25.4196   3
   4  -3  -3 272.121 38.5023   1
   3   1  -3 286.404 51.0425   2
   3   1  -3 380.622 55.6204   1
  -4   1   3 375.985 29.0351   3
   4  -3  -3 403.349 57.0490   2
   3  -4   3 340.229 23.8455   3
   3  -4   3 301.336 74.6748   2
   1  -4  -3 319.698 52.3666   2
   1   3   3 297.739 30.5875   3
  -4   3  -3 329.883 34.2951   1
  -3  -1  -3 410.248 51.2433   2
   4  -3  -3 328.356 26.8045   3
  -3   4   3 344.137 25.1207   3
  -1  -3   3 254.996 50.6220   2
   1   3   3 345.971 32.7113   1
  -1  -3   3 374.191 46.5279   3
  -1   4  -3 289.414 70.2312   2
  -1   4  -3 246.332 33.7851   1
   4  -1   3 367.529 62.0656   2
   1  -4  -3 362.902 25.2810   3
   4  -1   3 303.931 31.9394   1
   4  -3   3 335.353 33.0289   1
  -4   3   3 279.570 23.9864   3
  -3  -1   3 369.501 39.3815   3
   1  -4   3 292.785 36.4343   3
   1   3  -3 309.359 44.1928   1
   3  -4  -3 267.156 48.5838   2
   3  -4  -3 322.016 25.4049   3
  -1  -3  -3 567.632 64.5397   2
   3   1   3 333.235 28.2210   1
  -3   4  -3 302.766 33.9693   1
  -1   4   3 297.976 24.5589   3
   4  -3   3 247.189 64.9893   2
   4  -1  -3 387.045 52.3807   2
   1   3  -3 310.842 61.5896   2
   4  -3   3 319.286 20.1175   3
   1  -4   3 272.664 64.3203   2
   4  -1  -3 328.025 51.3967   1
  -4   1  -3 349.664 35.2245   1
  -4   1  -3 338.739 56.9649   2
   0   4  -3 10.1015 26.8289   2
  -4   4   3 0.01855 4.80293   3
   4  -4  -3 6.40450 12.9081   1
  -4   0  -3 17.5357 18.8450   2
   4   0   3 37.5919 12.3075   1
   0  -4   3 20.7974 23.1625   2
   0  -4   3 3.02745 15.1556   3
   0   4   3 -2.6596 6.29668   3
  -4   0   3 10.8997 11.4162   3
   0   4  -3 -1.9630 10.8071   1
  -4   4  -3 -8.8193 6.82969   1
   0  -4  -3 0.82680 5.68659   3
   4   0  -3 -10.276 19.2587   1
   4   0   3 14.2347 19.4487   2
   4  -4   3 1.72112 30.0101   2
   0   4   3 21.2028 11.1358   1
   4  -4  -3 8.34091 6.74625   3
   0  -4  -3 -12.730 14.6757   2
   4  -4  -3 12.7880 17.4220   2
   4  -4   3 -1.2153 4.16890   3
   4   0  -3 7.72311 14.9312   2
   4   0  -3 22.8177 11.8298   3
  -3   5   3 999.008 60.8493   3
  -5   3  -3 993.801 65.7060   1
  -2  -3   3 1120.88 81.3037   3
   3   2  -3 1118.89 91.0503   2
   2   3   3 1007.00 70.0048   3
   2  -5  -3 1094.48 93.0762   2
   5  -2   3 1112.52 58.4981   3
   3  -5   3 1086.52 145.786   2
  -2  -3   3 1137.16 93.0179   2
   2   3   3 1091.50 67.0904   1
  -2   5  -3 1017.34 69.3107   1
   5  -3  -3 1142.57 64.6218   3
  -3  -2  -3 1167.44 78.2550   2
   3  -5   3 984.650 61.3117   3
   5  -3  -3 1070.92 85.3356   2
   5  -2   3 1128.18 91.9393   2
   5  -2   3 1128.21 66.5454   1
   5  -3  -3 844.781 76.6134   1
  -2  -3   3 1033.28 76.9788   3
   3   2  -3 1151.21 89.7889   1
   2  -5  -3 1078.45 61.5156   3
   3   2   3 1284.65 80.2291   3
  -3   5  -3 918.562 65.9104   1
   2   3  -3 1165.16 87.2357   1
   3  -5  -3 1145.60 62.2143   3
   2  -5   3 971.441 66.0749   3
   5  -2  -3 1088.17 65.3255   3
   2   3  -3 1009.74 96.8583   2
  -2  -3  -3 1140.70 80.9858   2
   3  -5  -3 1016.14 90.3795   2
  -5   2  -3 1143.03 67.8278   1
  -3  -2   3 1003.51 82.7995   2
   5  -2  -3 978.146 79.4768   2
  -2   5   3 958.302 60.5117   3
   5  -3   3 1094.94 56.2703   3
   5  -3   3 1119.04 66.1712   1
   3   2   3 1031.97 66.5712   1
   2  -5   3 867.422 124.071   2
   5  -2  -3 922.557 94.6529   1
   5  -3   3 1119.77 99.7103   2
  -3  -2   3 1057.75 80.6197   3
   5  -1   3 103.188 29.6765   2
   4   1  -3 88.9458 34.4965   1
   1  -5  -3 85.6533 32.9989   2
   5  -4  -3 58.8724 23.4797   2
  -1  -4   3 66.7277 23.7367   3
   1   4   3 46.7152 14.5684   3
   5  -4  -3 66.2715 22.8451   1
  -1  -4   3 55.8516 29.8132   2
   1   4   3 41.2444 16.9691   1
   4   1  -3 79.8923 27.4358   2
   4  -5   3 79.7267 12.8903   3
  -4  -1  -3 73.8837 22.0358   2
  -5   4  -3 60.9150 16.5158   1
   4  -5   3 14.6988 44.0888   2
  -1   5  -3 72.8749 20.2688   1
   5  -4  -3 55.1742 12.8484   3
   5  -1   3 61.3011 16.5653   1
   4  -5  -3 77.2922 29.1401   2
   5  -1  -3 67.0873 33.9621   1
  -4   5  -3 75.0710 17.5581   1
   1  -5   3 44.6536 19.4313   3
   1   4  -3 44.8905 22.0538   1
   5  -1  -3 46.2512 21.4446   2
   4   1   3 87.6690 25.7677   2
   5  -1  -3 78.0261 17.1303   3
  -1  -4  -3 39.1753 22.9376   2
   4   1   3 76.8779 18.3856   1
   5  -4   3 64.8451 16.0930   1
   4  -5  -3 82.5509 14.5960   1
   5  -4   3 40.3112 34.3556   2
   5  -4   3 85.0701 11.3031   3
   1   4  -3 44.6680 32.6168   2
   1  -5   3 86.9700 41.3203   2
   4  -5  -3 78.4471 14.1088   3
   5  -5  -3 2.23045 18.7276   2
   0   5   3 -6.0981 9.27240   1
   5   0   3 2.21089 14.5903   2
   5  -5   3 7.93502 9.43410   1
   5  -5   3 48.0865 33.5259   2
   5   0   3 0.27341 9.34002   1
   0  -5   3 -1.6850 15.7766   3
   0   5  -3 3.64804 15.1603   1
   5   0  -3 -0.9236 21.8494   1
   0  -5   3 12.3943 28.4702   2
   5   0  -3 9.02336 15.4464   2
   0  -5  -3 11.8346 21.5404   2
   5  -5  -3 9.53881 14.8753   1
   5  -5   3 -1.3722 4.43144   3
  -5   5  -3 0.49072 9.19791   1
   5  -5  -3 1.79585 6.40518   3
   3   3  -3 714.811 87.2011   1
   3  -6  -3 718.022 93.2368   2
   3  -6   3 942.772 136.926   2
   3   3  -3 914.146 90.6603   2
   6  -3  -3 938.288 77.2362   2
   6  -3  -3 986.706 81.1157   1
   3   3   3 838.510 62.6724   1
   3  -6   3 935.481 59.8543   3
  -3   6  -3 949.113 65.6700   1
   6  -3  -3 925.949 59.7827   3
  -6   3  -3 882.469 61.1943   1
   6  -3   3 984.321 53.5264   3
   6  -3   3 959.894 61.5745   1
  -3  -3   3 999.880 84.5568   2
  -3  -3   3 921.260 70.7220   3
  -3  -3  -3 1047.31 71.8129   2
   6  -3   3 885.162 77.3133   2
   6  -2   3 458.943 45.4578   1
   6  -2   3 406.583 48.5767   2
  -2  -4   3 426.236 66.4277   2
  -2   6  -3 415.106 47.7026   1
   6  -4  -3 343.816 53.4410   2
   2   4   3 418.246 48.6031   1
   6  -4  -3 402.131 54.7214   1
   6  -2   3 376.627 31.4324   3
  -6   4  -3 381.119 41.7484   1
   4   2  -3 455.227 63.3080   2
   4  -6   3 533.025 104.231   2
  -2  -4   3 500.462 59.1197   3
   4  -6   3 457.781 32.8183   3
   6  -4  -3 454.367 44.2610   3
   2  -6  -3 457.796 72.3747   2
   4   2  -3 286.397 56.2363   1
   6  -2  -3 417.303 41.6463   3
   2   4  -3 346.493 67.9055   2
   6  -2  -3 541.629 73.2288   1
   6  -2  -3 397.345 51.8807   2
   6  -4   3 471.104 29.3074   3
  -2  -4  -3 509.602 60.3917   2
   2  -6   3 494.777 93.6601   2
   4  -6  -3 455.673 72.3558   2
   4   2   3 415.171 45.2301   1
  -4   6  -3 440.414 45.7160   1
  -4  -2   3 410.002 54.1142   2
   2  -6   3 476.929 46.8084   3
   2   4  -3 316.599 53.8892   1
   6  -4   3 389.786 41.2538   1
   6  -4   3 450.461 69.7749   2
   5   1  -3 1029.67 109.751   1
   5   1  -3 1280.42 92.8894   2
  -1  -5   3 1320.88 115.744   2
   6  -5  -3 1223.34 82.5475   1
  -1   6  -3 1168.00 83.7654   1
   1   5   3 1158.19 79.5119   1
   6  -1   3 1186.70 76.2807   1
   5  -6   3 1378.32 160.628   2
  -1  -5   3 1216.75 89.1948   3
   5  -6   3 1223.44 67.2118   3
  -6   5  -3 1153.72 74.8164   1
   6  -5  -3 1095.11 92.5361   2
   1  -6  -3 1100.36 99.6885   2
   1   5  -3 1090.20 89.1946   1
   6  -1  -3 1185.07 101.063   1
   5   1   3 1189.34 78.1607   1
   1  -6   3 1175.17 139.769   2
   6  -5   3 1102.44 109.253   2
  -1  -5  -3 1387.68 100.167   2
   5  -6  -3 1178.08 102.020   2
   6  -1  -3 1152.20 86.3306   2
   1  -6   3 1205.37 84.7129   3
  -5   6  -3 1246.66 76.8045   1
   6  -5   3 1222.68 74.2554   1
   6  -5   3 1188.17 64.8650   3
   0  -6   3 1.54432 18.1300   3
   0  -6   3 29.2666 33.7048   2
   6   0   3 -0.8904 11.6062   1
   6   0  -3 12.6052 16.2589   2
   0   6  -3 4.04249 19.2682   1
  -6   6  -3 -6.2455 8.21870   1
   0  -6  -3 28.9286 24.3376   2
   6   0  -3 -2.6259 22.1077   1
   6  -6   3 1.90114 5.97125   3
   6  -6   3 -5.1687 8.49763   1
   6  -6   3 -5.3902 28.1634   2
   6  -6  -3 -2.1204 18.5707   2
   7  -4  -3 163.406 37.2854   2
  -3  -4   3 186.844 45.2848   2
  -3   7  -3 108.944 24.9586   1
  -7   4  -3 101.084 22.4807   1
   3   4   3 112.348 28.2746   1
   7  -3   3 147.173 30.7776   2
   7  -3   3 112.008 17.9999   3
   4  -7   3 108.232 19.4363   3
   4   3  -3 127.483 39.9720   1
  -3  -4   3 212.695 37.5295   3
   7  -3   3 117.266 23.7798   1
   4   3  -3 141.094 43.1918   2
   7  -4  -3 115.483 36.5028   1
   4  -7   3 44.4488 48.1990   2
   3  -7  -3 145.307 48.0328   2
  -4  -3   3 125.826 29.2539   3
   7  -3  -3 156.936 40.1909   1
  -4   7  -3 89.5981 21.9424   1
   7  -4   3 135.051 24.0108   1
   3  -7   3 53.5544 41.4621   2
   3  -7   3 87.1298 20.5535   3
   7  -4   3 128.195 17.1621   3
   4   3   3 95.3495 24.5122   1
   7  -3  -3 124.310 32.1431   2
   7  -4   3 92.6955 31.5149   2
   3   4  -3 99.4819 40.2977   2
   3   4  -3 64.6122 29.8435   1
   4  -7  -3 127.884 46.7250   2
  -4  -3   3 110.530 34.6627   2
  -2  -5   3 881.318 81.5144   3
   7  -2   3 723.659 52.5647   3
  -2  -5   3 925.332 107.142   2
   7  -5  -3 791.455 72.0224   2
   7  -5  -3 822.775 69.1942   1
  -2   7  -3 789.110 63.9392   1
   5   2  -3 811.375 78.5524   2
   5  -7   3 760.544 50.2731   3
   5   2  -3 649.129 88.8125   1
  -7   5  -3 855.932 59.2859   1
   7  -2   3 741.687 57.9289   1
   2  -7  -3 859.353 105.524   2
   2   5   3 861.767 67.2245   1
   5  -7   3 785.622 129.416   2
   7  -5   3 817.537 81.1522   2
  -2  -5  -3 912.707 76.3064   2
  -5  -2   3 762.387 68.3627   2
   7  -5   3 719.717 55.1584   1
   7  -2  -3 811.083 92.2855   1
   5   2   3 826.260 62.1123   1
   7  -5   3 758.871 47.2920   3
   7  -2  -3 736.744 67.0137   2
   2  -7   3 881.380 63.4300   3
   2   5  -3 738.385 83.2677   1
  -5   7  -3 831.801 59.8869   1
   5  -7  -3 1002.54 116.415   2
   2  -7   3 660.540 101.880   2
   7  -6  -3 35.1894 23.9877   2
  -7   6  -3 34.2701 14.2696   1
   6  -7   3 1.78777 11.6787   1
   6   1  -3 29.6629 30.2051   1
   7  -1   3 15.5388 13.7818   1
   6  -7   3 16.5784 8.30655   3
  -1  -6   3 19.0724 29.9330   2
   6  -7   3 61.0759 47.9165   2
  -1  -6   3 39.1973 21.8696   3
   6   1  -3 15.0702 18.9116   2
   1  -7  -3 26.1854 27.1673   2
  -1   7  -3 3.37626 14.5516   1
  -1  -6  -3 43.7611 28.6447   2
   6   1   3 16.4150 15.2941   1
   1   6  -3 44.5869 26.8524   1
   6  -7  -3 3.72913 21.2821   2
   7  -6   3 4.39144 6.82073   3
   7  -6   3 4.00233 10.1351   1
   7  -1  -3 8.18229 16.7451   2
   7  -6   3 27.2245 30.1198   2
   1  -7   3 24.9229 19.2606   3
   1  -7   3 21.3525 34.4540   2
  -6   7  -3 14.9781 13.4239   1
   7  -1  -3 28.2607 28.9506   1
   7  -7   3 6.68443 10.9768   1
   7   0  -3 -11.075 13.6646   2
   7   0  -3 -16.045 21.2569   1
   0  -7  -3 -17.058 19.5189   2
   7   0   3 -3.5847 14.4075   1
   7  -7  -3 -31.016 16.8169   2
   7  -7   3 3.33259 33.4567   2
   0  -7   3 7.22763 27.8286   2
  -7   7  -3 -4.7694 10.1521   1
   0   7  -3 -9.8249 16.5265   1
   0  -7   3 -2.0325 16.9228   3
   7  -7   3 16.9197 8.53963   3
   8  -4  -3 40.4321 30.9319   1
   4   4  -3 23.5015 29.1412   1
   4   4  -3 17.4905 28.0892   2
  -4  -4   3 44.8182 28.9369   2
   4  -8  -3 -1.9724 27.2428   2
   4  -8   3 25.4555 13.2752   3
   8  -4  -3 35.6195 23.0808   2
   4  -8   3 12.2907 41.0970   2
  -4   8  -3 32.5194 16.2171   1
   4   4   3 18.4773 19.8465   1
   8  -4   3 22.3052 10.3897   3
   8  -4   3 28.8298 16.2681   1
  -4  -4   3 29.3670 20.4381   3
   5  -8   3 -0.3748 8.61569   3
  -3   8  -3 6.98540 13.5797   1
   5  -8   3 13.6094 45.1867   2
   5   3  -3 27.6997 27.4540   2
  -3  -5   3 17.4370 19.1644   3
  -3  -5   3 2.60363 26.4389   2
   8  -3   3 -8.2240 7.24737   3
   8  -5  -3 12.1315 19.0180   2
   3  -8  -3 23.4769 33.3268   2
   3   5   3 20.1209 20.5568   1
   8  -3   3 9.45980 14.9241   1
   8  -5  -3 41.5924 24.9175   1
   5   3  -3 22.7175 27.3758   1
  -5  -3   3 8.90619 20.2974   2
   3  -8   3 -23.314 28.8972   2
   8  -5   3 16.4650 21.8090   2
   5   3   3 -6.6770 13.5126   1
   8  -5   3 20.2462 13.6234   1
   8  -3  -3 -23.495 21.8260   1
   8  -5   3 6.77653 7.96229   3
   3  -8   3 -3.1961 11.1176   3
   3   5  -3 20.4445 23.1223   1
  -5   8  -3 11.2161 12.7752   1
   5  -8  -3 -13.201 25.3486   2
   8  -3  -3 2.26702 15.7139   2
  -5  -3   3 4.72979 17.2166   3
   6   2  -3 19.0862 27.0699   1
   2  -8  -3 -6.1547 27.9338   2
  -2  -6   3 -10.770 23.8672   2
   6  -8   3 8.58227 8.75516   3
  -8   6  -3 1.14316 11.2568   1
  -2   8  -3 -0.3463 18.1644   1
  -2  -6   3 -2.9119 16.8447   3
   8  -6  -3 4.97543 19.7262   2
   8  -2   3 4.49300 12.3495   1
   6  -8   3 -1.8342 44.3415   2
   6   2  -3 6.31475 20.8060   2
   8  -6   3 11.2207 11.8444   1
   6   2   3 9.85782 16.9599   1
   8  -2  -3 14.0095 25.5441   1
   2   6  -3 -2.0215 17.9173   1
  -6  -2   3 2.04096 16.1102   2
  -6   8  -3 11.3682 14.0050   1
   8  -6   3 20.4595 26.4047   2
   2  -8   3 13.0490 31.0691   2
   6  -8  -3 15.5969 27.6154   2
   2  -8   3 -23.835 14.0916   3
   8  -6   3 1.56560 6.76664   3
   8  -2  -3 14.8657 16.1879   2
   7   1  -3 1.07932 26.3856   1
   8  -1   3 7.12032 16.3643   1
   7  -8   3 13.4760 9.00056   3
  -1   8  -3 22.0717 19.6171   1
   7  -8   3 -0.6761 10.9482   1
  -1  -7   3 2.74217 27.7854   2
   8  -7  -3 -0.7470 17.9746   2
  -8   7  -3 7.12966 14.2272   1
   7   1  -3 -10.190 25.7769   2
  -1  -7   3 23.3991 21.7285   3
   1  -8  -3 24.9129 30.2644   2
   7  -8   3 5.78292 41.8266   2
   8  -1  -3 1.07638 25.7119   1
   1   7  -3 6.58741 19.5295   1
   1  -8   3 8.24705 17.7962   3
   8  -7   3 10.9623 8.24357   3
   7   1   3 6.69812 14.3874   1
   1  -8   3 -16.793 25.5408   2
  -7   8  -3 1.79992 11.1421   1
   8  -7   3 -2.4909 11.8938   1
   8  -7   3 37.2661 33.5608   2
   8  -1  -3 1.71850 14.6420   2
   7  -8  -3 30.6589 30.3127   2
   0  -8   3 22.9853 20.5125   3
   0   8  -3 5.95846 17.9011   1
  -8   8  -3 5.99390 11.8670   1
   8  -8  -3 10.3633 26.3327   2
   8  -8   3 17.8116 9.90818   3
   0  -8  -3 12.7409 26.5727   2
   0  -8   3 -23.183 21.6267   2
   8   0  -3 13.4693 30.4748   1
   8  -8   3 33.4760 36.4873   2
   8  -8   3 8.58305 11.3854   1
   8   0   3 26.6187 17.5099   1
  -4   9  -3 99.3803 25.8872   1
   5   4  -3 115.969 38.7637   1
   9  -4   3 96.2723 25.1727   1
   5  -9   3 74.6469 18.4842   3
   9  -5  -3 76.4678 32.3153   1
   9  -4   3 36.5774 13.7210   3
   4   5   3 66.5000 28.5655   1
   4  -9  -3 102.165 50.5917   2
  -4  -5   3 99.7403 29.0586   3
  -4  -5   3 57.7342 31.9617   2
   9  -5  -3 80.4780 28.6074   2
   5  -9   3 74.7286 56.9979   2
   9  -5   3 34.0458 17.0792   1
  -5  -4   3 101.270 34.5047   2
   5   4   3 79.4789 27.5558   1
   9  -4  -3 31.2984 31.0930   1
   5  -9  -3 33.5927 39.4592   2
   4  -9   3 61.7982 19.0841   3
   9  -4  -3 71.6644 26.2313   2
   4  -9   3 74.1798 49.6745   2
  -5  -4   3 129.652 32.1222   3
   4   5  -3 78.7215 33.5092   1
  -5   9  -3 57.8723 20.5731   1
   9  -5   3 48.7985 13.5614   3
   6  -9   3 826.038 144.794   2
   9  -6  -3 839.581 77.9708   2
  -3   9  -3 845.451 71.6518   1
   6  -9   3 965.787 61.2612   3
   9  -3   3 830.067 61.0647   3
   3  -9  -3 873.133 120.240   2
   6   3  -3 907.059 105.055   1
   9  -3   3 840.234 66.5303   1
  -3  -6   3 901.121 83.2814   3
  -3  -6   3 923.429 90.7621   2
  -6   9  -3 919.437 67.1078   1
   9  -3  -3 1163.61 111.335   1
   9  -6   3 937.437 57.1676   3
   9  -3  -3 784.556 71.3007   2
   6  -9  -3 868.098 119.136   2
   3  -9   3 807.584 120.732   2
   6   3   3 957.344 73.3564   1
   3  -9   3 807.365 67.8171   3
   9  -6   3 953.940 67.3629   1
   3   6  -3 1125.18 106.266   1
   7  -9   3 49.7072 19.7345   1
   2  -9  -3 -5.0396 31.1519   2
  -9   7  -3 44.6351 17.9151   1
   7  -9   3 36.3476 13.4830   3
   9  -7  -3 61.5381 29.6688   2
  -2   9  -3 110.676 31.4896   1
  -2  -7   3 45.6246 23.6491   3
  -2  -7   3 18.0507 27.8548   2
   7   2  -3 57.9322 32.6288   1
   7  -9   3 -32.550 34.4606   2
   9  -2   3 47.1029 22.5674   1
  -7   9  -3 41.8956 20.2120   1
   9  -7   3 37.3336 12.0890   3
   2  -9   3 25.0583 20.4093   3
   2  -9   3 69.7277 45.5757   2
   2   7  -3 0.64221 18.7379   1
   7   2   3 80.8698 26.5923   1
   9  -2  -3 35.5328 29.0518   1
   7  -9  -3 15.2499 29.3797   2
   9  -7   3 46.2216 32.3802   2
   9  -7   3 43.4640 18.1256   1
   9  -1   3 10.4747 18.4488   1
  -9   8  -3 13.3284 14.1583   1
   8  -9   3 12.7390 38.6096   2
   8   1  -3 0.72161 25.3227   1
   8  -9   3 32.9427 16.5145   1
   8  -9   3 -6.2963 8.01242   3
  -1  -8   3 38.3789 25.7796   3
   9  -8  -3 9.82418 23.5236   2
  -1   9  -3 2.31845 20.1465   1
  -1  -8   3 -6.4816 22.9603   2
   1  -9  -3 5.76991 30.4703   2
  -8   9  -3 62.1066 20.9150   1
   1  -9   3 6.28446 17.4667   3
   9  -8   3 -0.5942 8.25154   3
   1   8  -3 38.9175 26.0613   1
   9  -8   3 -3.0594 12.0247   1
   9  -8   3 28.3967 31.1648   2
   1  -9   3 4.69403 30.3816   2
   8   1   3 23.1623 19.7676   1
   8  -9  -3 23.4399 30.0161   2
   9  -1  -3 -21.131 28.3489   1
   9   0   3 1.70750 16.6071   1
   9  -9   3 18.6210 15.1610   1
   9  -9  -3 -3.7371 22.3137   2
   9   0  -3 -1.8415 24.3627   1
   9  -9   3 -2.8740 7.93507   3
  -9   9  -3 -5.2350 12.2302   1
   0  -9   3 17.9187 22.0899   3
   0   9  -3 -8.7915 16.8228   1
   9  -9   3 -3.9002 32.2099   2
   0  -9   3 22.7698 30.5964   2
  10  -5   3 314.623 44.7954   1
  10  -5  -3 336.167 52.4089   2
   5   5   3 368.100 53.6309   1
  10  -5   3 499.358 44.6691   3
   5 -10  -3 501.707 101.902   2
   5 -10   3 415.464 46.5165   3
  10  -5  -3 527.466 72.7381   1
   5 -10   3 558.914 111.139   2
   5   5  -3 355.505 61.4094   1
  -5  10  -3 448.608 54.6002   1
   6   4  -3 90.1645 36.0872   1
   4 -10  -3 99.4115 52.0416   2
   6 -10   3 22.5185 50.2349   2
   6 -10   3 88.5538 21.5609   3
  10  -4   3 48.1499 20.1802   1
  10  -6  -3 79.2230 29.0436   2
  10  -4   3 49.8421 17.0701   3
  -4  10  -3 77.7948 24.2648   1
   4 -10   3 75.0230 24.2379   3
  -6  10  -3 92.1608 25.2128   1
   6 -10  -3 63.4311 40.4604   2
  10  -4  -3 121.835 43.7325   1
   4 -10   3 54.5656 45.5844   2
   6   4   3 133.410 35.7355   1
   4   6  -3 108.660 36.8737   1
  10  -6   3 74.1019 16.0267   3
  10  -6   3 56.4764 22.1751   1
  10  -7  -3 481.771 66.2903   2
   7 -10   3 353.662 38.3610   3
   7   3  -3 306.712 60.4305   1
  -3  10  -3 322.101 49.4391   1
   3 -10  -3 484.711 90.5222   2
  10  -3   3 378.843 52.7430   1
  -3  -7   3 271.308 54.7568   2
   7 -10   3 421.540 49.0999   1
   7 -10   3 318.858 90.5670   2
   3   7  -3 356.040 57.1778   1
   7   3   3 459.426 58.9388   1
   3 -10   3 307.982 72.3239   2
   3 -10   3 414.095 52.1721   3
  -7  10  -3 444.674 50.9918   1
  10  -3  -3 445.514 70.6119   1
   7 -10  -3 333.917 79.4559   2
  10  -7   3 339.750 44.6589   1
  10  -7   3 392.228 37.8086   3
   8 -10   3 9.11955 10.9499   3
  10  -8  -3 -8.5967 18.7823   2
  -2  -8   3 11.7109 26.4556   2
   2 -10  -3 7.96230 37.3326   2
   8 -10   3 3.18583 40.8695   2
  10  -2   3 4.82019 17.5936   1
  -2  10  -3 6.40737 22.6502   1
   8 -10   3 9.18378 13.4758   1
   8   2  -3 0.63941 26.2073   1
  10  -8   3 1.74595 11.8106   1
   8   2   3 24.8901 23.0095   1
   2 -10   3 17.6834 21.3939   3
  10  -2  -3 -24.160 26.3105   1
   2   8  -3 15.3338 19.4424   1
   2 -10   3 -14.710 29.7727   2
   8 -10  -3 22.9694 35.0485   2
  10  -8   3 10.3053 9.56825   3
  -8  10  -3 -5.2723 12.5638   1
   9 -10   3 89.8671 24.2221   1
  10  -1   3 56.0582 24.1865   1
   9 -10   3 63.6092 15.7667   3
  10  -9  -3 54.3854 32.2633   2
  -1  -9   3 69.9448 36.1118   2
   9   1  -3 102.165 40.9926   1
   9 -10   3 13.6624 40.7651   2
 -10   9  -3 65.3759 21.5197   1
  -1  10  -3 60.7130 31.5951   1
  10  -1  -3 84.6473 40.5905   1
   9   1   3 56.5708 25.7086   1
   1 -10   3 76.6616 40.4753   2
  10  -9   3 74.0920 40.7163   2
  10  -9   3 58.0219 15.2506   3
  10  -9   3 69.5951 21.4879   1
   9 -10  -3 62.5716 39.5395   2
   1 -10   3 64.1699 28.3487   3
  -9  10  -3 82.6659 24.1985   1
   1   9  -3 39.9618 27.7412   1
   5 -11  -3 367.501 97.5794   2
  11  -5   3 358.151 40.0472   3
   6   5  -3 237.200 51.0621   1
   6 -11   3 292.333 86.8779   2
  -5  11  -3 363.722 52.1657   1
   6 -11   3 343.791 42.2032   3
  11  -5   3 212.520 37.9982   1
   5 -11   3 248.975 38.0292   3
  11  -6   3 304.191 35.2180   3
   6 -11  -3 151.208 65.0000   2
  11  -5  -3 444.162 72.3673   1
  -6  11  -3 374.713 50.1878   1
  11  -6   3 254.584 42.2313   1
   5   6  -3 379.404 59.1095   1
   5 -11   3 321.770 87.0778   2
  11  -4   3 59.4065 19.6346   3
  11  -4   3 119.142 29.4558   1
  -4  11  -3 151.602 35.9099   1
   7 -11   3 118.528 23.2299   3
   4 -11  -3 64.4912 50.2193   2
   7   4  -3 78.7203 34.3253   1
   7 -11   3 104.898 61.1485   2
  11  -7  -3 84.5675 32.1044   2
  -7  11  -3 141.454 31.8192   1
  11  -4  -3 160.184 47.5056   1
   7   4   3 139.492 36.5236   1
   4 -11   3 132.389 30.9878   3
  11  -7   3 148.201 30.1735   1
   4 -11   3 160.625 62.3486   2
   7 -11  -3 170.482 61.3024   2
  11  -7   3 114.738 21.0831   3
   4   7  -3 126.774 37.9021   1
  11  -3   3 12.5417 19.5056   1
   8 -11   3 -6.6179 46.4122   2
  -3  11  -3 -5.7721 17.2388   1
   8   3  -3 24.0214 28.7120   1
   8 -11   3 -0.1650 10.5269   3
   3 -11  -3 20.2143 42.2597   2
  11  -8  -3 8.88743 21.9981   2
   8 -11   3 2.13534 13.9856   1
  11  -8   3 8.54877 15.2113   1
   3 -11   3 24.7905 20.2864   3
  11  -3  -3 22.2836 29.3621   1
   3 -11   3 3.41890 35.0094   2
  -8  11  -3 -2.7462 13.6344   1
  11  -8   3 12.7242 10.4723   3
   8   3   3 5.43725 20.9683   1
   8 -11  -3 24.5068 35.1094   2
   3   8  -3 9.15598 20.9982   1
   0   0   4 9460.73 448.731   3
   0   0  -4 9999.99 454.350   1
   0   0  -4 9315.22 495.187   2
   0  -1  -4 8.42138 18.0006   2
  -1   0   4 1.50537 4.39985   3
   1  -1  -4 8.71437 6.53794   1
  -1   1   4 3.40521 4.23774   3
  -1   1  -4 12.0653 25.2578   2
   1   0  -4 2.68868 7.24347   1
   0  -1   4 6.15664 5.24820   3
   1  -1   4 21.5000 4.61202   3
   1  -1  -4 1.78323 17.4095   2
   0   1  -4 8.37563 20.4610   2
   1   0  -4 3.21938 17.5105   2
   0   1  -4 8.72414 7.59318   1
  -1   1  -4 4.46912 7.00685   1
   1   0   4 2.07513 2.64936   3
  -1   0  -4 12.5591 20.3717   2
   0   1   4 3.40784 3.66256   3
  -1   0  -4 1.60475 5.81803   1
   0  -1  -4 10.0147 5.63547   1
  -1   2  -4 2.49534 26.4090   2
  -2   1   4 18.7594 6.78827   3
   2  -1   4 22.7381 23.9303   2
  -1  -1  -4 30.5727 8.26092   1
   1  -2   4 29.2769 9.99300   3
   1   1  -4 23.5272 12.4424   1
  -1  -1  -4 9.97323 19.0076   2
   1   1   4 16.3048 6.50505   1
   1   1   4 19.4763 5.40801   3
  -2   1  -4 31.0555 9.97534   1
  -1  -1   4 12.2490 7.54873   3
  -2   1  -4 14.9978 27.6109   2
   1  -2   4 12.2955 12.5277   3
   2  -1  -4 15.8464 17.0180   2
   1  -2  -4 22.3797 5.60345   1
  -1   2   4 26.5202 6.84187   3
   1   1  -4 19.1569 24.9381   2
   1  -2  -4 12.1195 17.4416   2
  -1   2  -4 28.3296 11.7320   1
   1  -2   4 22.3696 26.8531   2
   2  -1  -4 21.3448 8.97110   1
  -2   2  -4 259.879 28.6832   1
   0  -2  -4 272.565 18.0305   1
   2   0   4 225.403 16.7490   3
   2  -2   4 254.398 16.7099   3
  -2   0   4 218.986 22.7978   3
   0   2  -4 263.072 31.4774   1
   2  -2   4 263.390 60.4214   2
   0  -2   4 288.243 30.3655   3
  -2   0  -4 267.550 22.1528   1
   2   0  -4 268.444 50.8841   2
   0  -2  -4 256.351 47.2878   2
   0   2   4 227.319 16.6600   1
  -2   0  -4 185.240 46.6663   2
   2  -2  -4 242.097 47.7769   2
   2   0   4 226.174 23.2202   1
   0   2  -4 207.494 54.1568   2
  -2   2   4 236.087 18.9402   3
   2  -2   4 233.642 17.4502   3
   2  -2  -4 220.800 17.7404   1
   0   2   4 249.756 18.4430   3
   2   0  -4 273.883 32.9067   1
   0  -2   4 262.468 55.5338   2
  -2   2  -4 311.864 71.4543   2
   1   2   4 631.600 38.6981   3
  -2   3   4 650.238 39.3687   3
  -2  -1  -4 708.980 84.3661   2
  -1   3  -4 670.191 104.160   2
  -3   2  -4 614.654 43.8152   1
  -1  -2   4 596.665 75.9476   2
  -3   2  -4 913.757 121.008   2
   3  -1   4 712.227 92.2710   2
  -1   3  -4 602.222 46.6865   1
  -1  -2   4 701.976 49.4794   3
   2  -3   4 589.219 94.9905   2
   3  -2  -4 739.029 68.9815   2
  -2   3   4 649.576 35.5677   1
   1  -3  -4 514.884 72.8388   2
   3  -2  -4 611.582 42.0603   1
  -2   3   4 664.506 32.0119   1
  -3   1   4 709.752 42.4770   3
   2   1  -4 660.573 54.4621   1
   2   1  -4 517.192 73.5258   2
   3  -1   4 678.164 43.1818   1
   2  -3   4 639.582 40.1239   3
   1   2   4 654.143 38.9455   1
   3  -1  -4 685.566 50.2058   1
   2   1   4 668.846 40.7865   3
   2  -3  -4 781.158 89.0117   2
  -2   3  -4 631.639 45.4665   1
   1   2  -4 689.151 88.5548   2
   3  -2   4 706.915 102.724   2
   1  -3   4 555.737 54.5388   3
  -1   3   4 689.505 33.0289   1
   2   1   4 638.372 40.3433   1
  -3   1  -4 681.411 44.0334   1
  -1  -2  -4 675.408 79.3424   2
  -2  -1   4 665.518 45.2018   3
  -3   1  -4 708.667 95.3039   2
   1  -3   4 552.242 85.9594   2
   3  -2   4 594.256 42.9122   1
  -2   3  -4 842.216 121.398   2
  -1   3   4 618.673 38.6932   3
   1   2  -4 587.612 50.2545   1
   3  -1  -4 555.470 72.4688   2
   2  -3  -4 651.165 32.1181   1
  -3   2   4 689.710 40.9066   3
   3  -3   4 4330.11 203.241   3
  -3   0  -4 4310.54 213.451   1
  -3   0   4 4234.26 214.754   3
   3  -3   4 4087.27 279.974   2
   0  -3   4 4396.60 260.590   2
   0   3  -4 4865.37 279.655   2
   3   0   4 4392.28 212.751   1
   3   0  -4 4413.79 229.469   1
  -3   3   4 4416.02 210.127   3
   3  -3  -4 4285.85 204.613   1
  -3   3  -4 3916.66 279.634   2
   0   3   4 4351.55 206.315   1
   0  -3   4 3994.22 225.843   3
   0  -3  -4 4294.71 247.286   2
   3  -3  -4 4143.84 247.027   2
   0   3   4 4367.70 209.165   3
   3   0  -4 4299.40 246.869   2
   0   3  -4 4385.04 223.510   1
  -3   3  -4 4218.66 216.780   1
  -3   0  -4 4610.05 256.081   2
   4  -2   4 50.7158 13.6519   1
  -2   4  -4 83.8457 49.5397   2
  -2  -2   4 51.5447 24.6109   2
   2   2  -4 86.3633 24.8538   1
  -4   2  -4 83.5045 17.1645   1
   4  -2  -4 66.2736 28.1881   2
   2  -4  -4 136.508 41.2734   2
   2   2   4 76.1885 16.1225   3
   2   2  -4 73.8266 32.0075   2
   2   2   4 69.5456 14.0502   1
   4  -2  -4 78.0609 22.4247   1
   2  -4   4 81.8625 16.4540   3
  -2   4  -4 82.7303 19.7723   1
  -2  -2  -4 134.746 35.3746   2
   4  -2   4 122.696 48.9865   2
   2  -4   4 66.7536 43.4624   2
  -4   2  -4 67.1186 40.4024   2
   3  -4   4 37.9148 8.69714   3
  -1  -3   4 29.9968 16.8748   3
  -3  -1  -4 22.2287 22.7480   2
   3   1  -4 18.0594 20.6737   1
   1   3   4 31.5925 10.9846   3
   4  -1   4 91.9440 38.9548   2
   3  -4   4 81.6250 47.6632   2
   1  -4  -4 49.7265 28.7217   2
  -1  -3   4 54.5669 29.5400   2
  -4   3  -4 32.3516 12.1657   1
  -1   4  -4 65.3197 44.1092   2
   1   3   4 68.4199 13.5594   1
   3   1  -4 42.9199 28.1100   2
   4  -3  -4 23.5161 20.7807   2
   4  -1   4 40.6251 12.3481   1
   4  -3  -4 40.3361 14.2340   1
  -1   4  -4 37.1996 17.0924   1
   1  -4   4 35.3473 16.7812   3
   4  -1  -4 38.2353 20.9033   2
  -3   4  -4 31.1064 13.4652   1
   3  -4  -4 45.4312 25.9479   2
   1   3  -4 66.3931 40.5128   2
   3   1   4 48.6863 13.1545   1
   1   3  -4 43.8663 19.5286   1
   4  -1  -4 58.6770 24.4634   1
   1  -4   4 28.9197 33.5295   2
   4  -3   4 61.2126 43.1440   2
   4  -3   4 38.4703 5.81963   3
  -1  -3  -4 37.3881 24.9601   2
  -4   1  -4 38.0056 12.1283   1
   4  -3   4 36.6847 12.5037   1
  -4   1  -4 70.3525 36.4287   2
   0   4  -4 411.271 49.8551   1
   4  -4   4 382.762 86.1201   2
   4  -4  -4 407.965 63.7562   2
   4   0   4 496.183 70.9395   2
   0   4  -4 464.483 86.4522   2
  -4   4  -4 483.989 39.0450   1
   0  -4  -4 473.244 71.3841   2
   4   0  -4 551.740 71.1099   2
   0  -4   4 424.167 51.7542   3
   4  -4   4 466.327 27.4252   3
   4   0   4 448.117 35.9547   1
   4   0  -4 456.751 61.3005   1
   0  -4   4 518.175 86.0447   2
  -4   0  -4 440.402 69.3614   2
  -5   3  -4 132.309 23.5816   1
  -2  -3   4 81.8473 32.3093   2
   3  -5   4 145.983 19.1126   3
  -2   5  -4 85.6355 21.7653   1
   3   2  -4 146.441 42.3353   2
  -2  -3   4 86.3669 23.9266   3
   5  -2   4 157.646 24.8238   1
  -3  -2  -4 177.332 41.9190   2
   2   3   4 163.238 23.1290   1
   2  -5  -4 92.6879 37.0593   2
   3  -5   4 74.7161 53.4214   2
   3   2  -4 154.456 36.5463   1
   5  -3  -4 160.953 40.5442   2
   5  -2   4 107.112 45.9597   2
   5  -3  -4 117.499 30.5927   1
   2  -5   4 72.1572 41.8380   2
   2   3  -4 112.632 31.1680   1
  -3   5  -4 160.963 27.1609   1
   2  -5   4 98.3175 20.1646   3
   5  -3   4 119.497 50.1766   2
  -3  -2   4 151.723 39.1091   2
   3   2   4 127.481 21.4113   1
   3  -5  -4 87.2221 36.3938   2
   5  -3   4 90.1571 19.6092   1
   5  -2  -4 155.367 37.7368   2
   5  -2  -4 162.702 36.4680   1
  -2  -3  -4 147.334 37.5456   2
  -5   2  -4 111.709 21.6743   1
   2   3  -4 145.286 47.2366   2
   5  -3   4 129.319 12.9526   3
   3   2   4 87.8296 23.3472   3
  -5   4  -4 1037.72 66.9289   1
   1  -5  -4 882.590 89.1065   2
   5  -1   4 1075.36 65.7507   1
   5  -4  -4 995.987 88.9506   2
   4   1  -4 941.552 96.6490   1
   4  -5   4 1063.95 56.5444   3
  -1  -4   4 1142.32 80.8920   3
  -1  -4   4 975.281 98.2256   2
   4   1  -4 1114.73 90.3319   2
  -1   5  -4 987.647 73.0171   1
  -4  -1  -4 1061.95 87.4068   2
   5  -1   4 976.252 93.7408   2
   4  -5   4 816.129 126.640   2
   4  -5  -4 929.404 89.8441   2
   1  -5   4 960.341 72.5052   3
   4   1   4 1048.18 64.8022   1
   5  -4   4 1008.31 53.2928   3
  -4   5  -4 1004.88 67.3605   1
   1  -5   4 898.391 123.919   2
   5  -4   4 1110.64 67.0294   1
   1   4  -4 1113.47 82.4804   1
   5  -1  -4 1085.50 87.7178   2
   5  -1  -4 1000.46 99.0767   1
  -5   1  -4 1146.53 96.5964   2
   1   4  -4 998.467 125.791   2
  -1  -4  -4 1011.80 90.1751   2
   5  -4   4 653.390 110.461   2
   5   0  -4 402.048 60.7070   2
   0  -5  -4 422.264 69.6979   2
   0  -5   4 290.661 67.7769   2
   5   0  -4 391.254 62.7303   1
   5  -5   4 377.877 89.0100   2
   0  -5   4 390.552 50.1228   3
   5  -5   4 450.596 28.2803   3
   5  -5  -4 423.945 66.8548   2
   5   0   4 467.692 44.6509   1
   0   5  -4 541.720 60.2706   1
  -5   5  -4 447.176 46.6404   1
   5  -5   4 481.563 40.1905   1
   3   3  -4 656.022 74.8249   1
   6  -3   4 608.397 45.4400   1
   3  -6  -4 641.659 89.4595   2
   3   3   4 560.306 44.7108   1
  -3   6  -4 482.381 51.5575   1
   6  -3  -4 574.523 66.5197   1
  -3  -3   4 594.603 61.2523   3
   6  -3   4 544.119 79.7562   2
  -3  -3   4 419.239 64.8019   2
  -6   3  -4 514.422 43.7563   1
   6  -3   4 531.677 34.5985   3
   6  -3  -4 756.052 84.7598   2
   3  -6   4 489.215 99.9132   2
   3  -6   4 545.296 41.7811   3
  -3  -3  -4 731.029 100.756   2
   3   3  -4 534.060 83.0600   2
   4   2  -4 935.356 98.0631   1
  -2  -4   4 984.685 95.7325   2
   6  -2   4 901.064 83.1862   2
   2  -6  -4 1045.88 115.816   2
   6  -4  -4 875.246 82.0054   2
  -6   4  -4 907.854 63.6241   1
   6  -2   4 955.428 62.9455   1
   4   2  -4 915.693 86.9050   2
  -2  -4   4 1044.81 76.9312   3
  -2   6  -4 864.465 67.6723   1
   4  -6   4 964.548 56.2893   3
   4  -6   4 675.279 118.694   2
   4   2   4 898.202 62.4838   1
   6  -4   4 980.714 51.3713   3
  -2  -4  -4 1239.37 90.9661   2
   6  -4   4 836.684 108.120   2
   6  -2  -4 1060.25 87.2895   1
   2   4  -4 985.222 120.003   2
   2  -6   4 569.977 101.637   2
   6  -2  -4 860.165 78.7242   2
  -4   6  -4 861.136 64.1341   1
   4  -6  -4 1004.48 94.3798   2
  -4  -2   4 920.515 79.9528   2
   2  -6   4 1011.10 67.3767   3
   6  -4   4 912.270 62.6209   1
   2   4  -4 959.161 81.4585   1
  -6   5  -4 553.597 46.0136   1
   5  -6   4 360.696 86.7260   2
   6  -1   4 621.895 47.9822   1
  -1   6  -4 478.746 59.5000   1
  -1  -5   4 435.361 75.4683   2
   6  -5  -4 653.202 83.2866   2
   5   1  -4 774.183 89.3933   1
   5  -6   4 564.860 36.4699   3
   5   1  -4 548.170 72.4890   2
   1  -6  -4 571.452 81.5632   2
  -1  -5   4 555.504 64.4819   3
  -1  -5  -4 609.256 80.5388   2
  -5   6  -4 464.250 49.8233   1
   1  -6   4 580.462 61.3715   3
   6  -5   4 596.858 45.6154   1
   1  -6   4 564.822 92.5124   2
   5   1   4 546.236 46.4370   1
   1   5  -4 525.076 93.8108   2
   6  -5   4 503.481 88.1249   2
   6  -5   4 618.174 35.3813   3
   5  -6  -4 598.371 85.1492   2
   1   5  -4 666.257 76.9743   1
   6  -1  -4 553.546 71.6963   2
   6  -1  -4 553.169 73.5162   1
   6   0  -4 339.511 58.0371   1
   6   0  -4 229.625 44.5719   2
   0   6  -4 312.603 48.0779   1
   6  -6   4 266.986 21.5912   3
   6  -6  -4 231.705 48.7993   2
   0  -6  -4 257.765 52.4233   2
   0  -6   4 417.452 51.7887   3
  -6   6  -4 220.680 33.7546   1
   6   0   4 259.000 34.5142   1
   6  -6   4 234.263 32.5694   1
   0  -6   4 207.879 59.8494   2
   6  -6   4 236.035 68.7743   2
  -3   7  -4 12.7740 13.5157   1
   7  -3   4 0.72706 7.39374   3
   4  -7   4 6.95616 40.3932   2
  -3  -4   4 8.26511 25.2897   2
   7  -3   4 -3.5357 10.3565   1
   7  -4  -4 4.99912 18.8283   2
   3  -7  -4 28.3691 31.2440   2
   4  -7   4 9.57849 9.93932   3
   4   3  -4 -15.651 19.1343   1
  -7   4  -4 15.4926 12.3724   1
  -3  -4   4 17.5672 16.5697   3
   4   3  -4 -2.9800 21.0639   2
   4  -7  -4 -5.2245 21.5190   2
   4   3   4 5.35466 13.1937   1
   7  -4   4 6.21473 10.8108   1
   7  -3  -4 0.22754 14.3929   2
   3   4  -4 13.8330 28.3895   2
   3   4  -4 6.15743 19.8399   1
   7  -4   4 1.36818 6.65293   3
  -4   7  -4 -2.0993 10.1870   1
   3  -7   4 -3.6082 10.1391   3
   7  -3  -4 6.37962 23.5329   1
   7  -4   4 14.3511 24.6117   2
   3  -7   4 13.8983 41.0279   2
  -4  -3   4 -4.0730 16.5795   2
  -4  -3   4 5.21727 15.1054   3
   7  -5  -4 258.995 50.2644   2
   5   2  -4 336.009 61.0341   2
  -2  -5   4 320.413 44.8626   3
  -7   5  -4 302.605 38.6221   1
  -2  -5   4 255.646 58.7424   2
  -2   7  -4 272.401 42.9318   1
   5   2  -4 282.393 53.1230   1
   5  -7   4 277.172 27.4298   3
   7  -2   4 269.326 36.8786   1
   5  -7   4 266.715 74.4904   2
   2  -7  -4 310.682 62.3013   2
   5   2   4 263.827 35.7367   1
   7  -5   4 314.217 37.1818   1
   7  -2  -4 199.952 42.7329   2
   2   5  -4 335.646 57.0692   1
   2  -7   4 402.617 82.4814   2
  -5  -2   4 245.418 45.4892   2
   7  -5   4 244.602 23.4211   3
   7  -5   4 269.348 58.4036   2
  -5   7  -4 226.150 34.4534   1
   5  -7  -4 309.645 64.6401   2
   2  -7   4 217.185 34.5138   3
   7  -2  -4 277.038 55.2192   1
   1  -7  -4 741.026 98.3901   2
  -7   6  -4 748.052 56.8922   1
   6  -7   4 572.444 102.385   2
  -1   7  -4 791.091 79.6263   1
  -1  -6   4 866.972 108.165   2
  -1  -6   4 897.415 81.1475   3
   6  -7   4 724.608 55.4622   1
   7  -6  -4 790.620 93.1472   2
   6  -7   4 714.654 45.6113   3
   6   1  -4 787.113 74.2428   2
   7  -1   4 699.613 55.8453   1
   6   1  -4 694.914 89.3456   1
   1  -7   4 841.152 110.423   2
   7  -6   4 700.212 54.3864   1
  -1  -6  -4 689.293 88.7759   2
   1   6  -4 815.508 87.9092   1
   6   1   4 734.591 57.1778   1
   7  -6   4 800.066 107.042   2
   7  -6   4 723.518 44.4362   3
  -6   7  -4 762.264 57.5333   1
   6  -7  -4 640.768 88.5190   2
   7  -1  -4 714.651 69.8049   2
   1  -7   4 651.502 67.5933   3
   7  -1  -4 802.862 95.7988   1
   7  -7   4 26.4247 9.06194   3
   7  -7  -4 19.1063 24.6179   2
   7   0   4 13.7887 16.0700   1
   7  -7   4 22.0458 13.6046   1
   7  -7   4 61.4573 45.6482   2
   0   7  -4 14.3177 19.3944   1
   7   0  -4 25.5234 31.0391   1
   0  -7   4 41.4974 21.0757   3
  -7   7  -4 21.2748 15.3930   1
   7   0  -4 41.3540 24.1565   2
   0  -7  -4 38.6228 31.5922   2
   0  -7   4 42.9730 33.2191   2
   4   4  -4 2148.81 146.679   1
   4  -8   4 2206.34 121.022   3
   4   4  -4 2170.85 165.214   2
   4  -8   4 1870.05 175.118   2
   8  -4  -4 2282.05 145.643   2
  -4  -4   4 2440.83 136.701   3
   8  -4   4 2087.29 124.158   1
  -4  -4   4 2125.81 150.575   2
  -4   8  -4 2322.73 130.792   1
   4  -8  -4 1876.71 161.449   2
   8  -4   4 2126.65 113.845   3
   5   3  -4 356.988 68.2442   2
   3  -8  -4 234.992 57.9175   2
   8  -3   4 269.897 38.1617   1
  -3  -5   4 260.955 41.4139   3
   8  -3   4 218.799 28.0625   3
  -3  -5   4 335.943 63.1669   2
  -3   8  -4 314.376 46.0252   1
   5  -8   4 254.823 29.3284   3
  -8   5  -4 243.906 35.6917   1
   8  -5  -4 286.978 53.1370   2
   5   3  -4 181.342 47.0260   1
   5  -8   4 336.981 86.2905   2
   3   5  -4 278.724 54.3435   1
   8  -3  -4 408.664 66.0669   1
   3  -8   4 218.709 62.6521   2
   5   3   4 270.509 38.5851   1
  -5  -3   4 258.966 41.3604   3
  -5  -3   4 379.211 59.7666   2
   5  -8  -4 225.003 54.1921   2
   3  -8   4 355.632 41.5665   3
   8  -5   4 244.725 35.1815   1
   8  -3  -4 286.404 49.7684   2
  -5   8  -4 229.619 37.2784   1
   8  -5   4 330.896 25.7350   3
  -8   6  -4 125.895 26.8650   1
   6   2  -4 124.497 42.2016   1
   8  -2   4 139.071 29.5415   1
  -2   8  -4 154.441 33.7655   1
  -2  -6   4 173.816 49.8109   2
  -2  -6   4 190.818 35.3926   3
   8  -6  -4 156.880 42.6232   2
   6  -8   4 123.994 19.4157   3
   6   2  -4 187.292 43.9389   2
   2  -8  -4 145.806 49.0668   2
   6  -8   4 254.557 78.9607   2
   6  -8  -4 178.241 56.0147   2
  -6  -2   4 114.193 32.0448   2
  -6   8  -4 169.699 31.4966   1
   2  -8   4 77.8588 24.0034   3
   2   6  -4 208.475 46.0584   1
   2  -8   4 241.802 63.1601   2
   8  -6   4 123.463 25.5492   1
   8  -6   4 166.236 45.3627   2
   8  -6   4 145.228 18.2888   3
   8  -2  -4 164.002 38.8372   2
   8  -2  -4 187.622 48.0277   1
   6   2   4 174.469 31.9864   1
   7  -8   4 769.807 119.563   2
   7   1  -4 808.889 79.1861   2
   8  -1   4 865.623 67.7538   1
   7   1  -4 928.451 101.284   1
   7  -8   4 780.891 62.7368   1
   1  -8  -4 1095.10 123.320   2
  -8   7  -4 911.267 67.1534   1
   8  -7  -4 822.614 99.1431   2
  -1  -7   4 919.911 109.608   2
  -1  -7   4 1061.37 78.4793   3
   7  -8   4 897.177 54.4090   3
  -1   8  -4 908.560 90.7223   1
   1  -8   4 947.313 118.841   2
   8  -7   4 834.698 64.3582   1
  -7  -1   4 844.269 73.0200   2
   8  -7   4 992.693 118.876   2
   8  -1  -4 953.372 100.642   1
   7  -8  -4 1031.08 120.153   2
   7   1   4 813.809 66.7275   1
  -7   8  -4 903.173 66.6888   1
   1   7  -4 925.372 95.6941   1
   8  -7   4 892.659 53.6594   3
   8  -1  -4 821.339 76.1249   2
   1  -8   4 988.690 76.1456   3
   0  -8   4 1282.95 95.1230   3
   8  -8   4 1147.89 143.853   2
  -8   8  -4 1319.32 87.8137   1
   0   8  -4 1430.09 105.227   1
   8   0   4 1083.88 85.5377   1
   8   0  -4 1398.19 133.974   1
   8  -8   4 1306.10 85.8536   1
   8  -8  -4 1264.15 114.205   2
   8  -8   4 1386.33 74.2931   3
   0  -8   4 1337.15 119.417   2
  -4   9  -4 77.0493 23.3143   1
   5   4  -4 74.9766 38.3080   2
   5   4  -4 62.4629 32.3514   1
   9  -4   4 37.8917 13.5890   3
   9  -5  -4 70.6104 28.4896   2
   5  -9   4 33.0658 42.9186   2
   5  -9   4 38.2976 16.3048   3
  -4  -5   4 79.7701 25.4857   3
  -4  -5   4 96.8325 38.1226   2
   9  -4   4 53.2460 20.7171   1
   4  -9  -4 44.5609 40.1852   2
  -5   9  -4 63.2489 21.9756   1
  -5  -4   4 43.9889 27.6247   2
   9  -4  -4 74.7616 27.3213   2
   4   5  -4 62.1633 32.9550   1
   4  -9   4 67.3513 20.6376   3
   4  -9   4 13.3577 38.0862   2
   9  -5   4 50.9040 18.8669   1
   9  -5   4 44.3273 13.7949   3
  -5  -4   4 77.8842 26.1762   3
   5  -9  -4 105.447 46.9098   2
   9  -6  -4 57.6886 28.5405   2
   9  -3   4 16.6344 16.2852   1
   6  -9   4 41.5464 14.2824   3
  -3  -6   4 39.0448 32.0007   2
   6  -9   4 19.4719 39.8543   2
   6   3  -4 75.9574 39.5830   2
   6   3  -4 33.8707 27.4274   1
  -3   9  -4 48.8273 23.2908   1
  -3  -6   4 103.913 27.8253   3
   3  -9  -4 65.7145 42.4223   2
  -6  -3   4 50.7064 22.0101   3
  -6   9  -4 27.9610 16.7926   1
   3  -9   4 64.1219 21.4499   3
   6  -9  -4 38.6208 33.6183   2
   9  -3  -4 57.3356 25.9835   2
   9  -6   4 38.0539 11.3346   3
   9  -6   4 69.9789 20.6048   1
   3   6  -4 40.5823 29.0075   1
   3  -9   4 15.9968 35.5038   2
   9  -3  -4 44.7144 33.9191   1
   6   3   4 36.6233 20.8394   1
   9  -2   4 569.240 60.7521   1
  -2  -7   4 614.708 85.1791   2
  -2  -7   4 569.978 62.0544   3
   9  -7  -4 633.005 84.6975   2
   7  -9   4 506.712 54.9063   1
  -9   7  -4 487.662 55.5670   1
   7  -9   4 466.807 94.4455   2
   2  -9  -4 604.611 96.5314   2
  -2   9  -4 663.506 74.0182   1
   7   2  -4 574.500 82.1570   1
   7  -9   4 519.642 39.6278   3
   2  -9   4 512.748 89.0694   2
   7   2   4 500.819 56.7290   1
   9  -7   4 508.903 37.0770   3
   7  -9  -4 429.248 82.9748   2
   9  -2  -4 562.662 77.1010   1
   2   7  -4 613.540 78.4540   1
  -7   9  -4 513.497 56.8913   1
   9  -2  -4 676.666 92.0929   2
   9  -7   4 434.564 51.2723   1
   2  -9   4 430.804 54.6118   3
  -1  -8   4 7.72006 21.2343   3
   9  -1   4 -3.9512 14.6260   1
  -9   8  -4 3.02657 16.3768   1
  -1  -8   4 12.5715 30.9053   2
   8  -9   4 13.4753 9.80771   3
  -1   9  -4 4.78540 21.4058   1
   8   1  -4 18.7872 26.6659   1
   9  -8  -4 26.0420 23.5718   2
   8  -9   4 23.3676 15.8531   1
   8  -9   4 -24.891 30.8400   2
   1  -9  -4 49.9187 39.2966   2
   8  -9  -4 50.7306 35.9058   2
   1   8  -4 51.5188 27.9370   1
   9  -8   4 47.1389 39.4580   2
   9  -8   4 12.2362 8.43496   3
  -8   9  -4 45.1969 20.0828   1
   9  -1  -4 22.4935 31.9219   1
   8   1   4 45.9080 21.6213   1
   1  -9   4 11.1902 20.6556   3
   9  -8   4 31.2739 17.8941   1
   1  -9   4 1.66563 30.4463   2
   0  -9   4 291.286 45.3992   3
  -9   9  -4 367.002 47.9454   1
   9   0   4 314.266 45.1220   1
   9  -9  -4 207.335 53.5700   2
   0  -9   4 430.384 73.9331   2
   9  -9   4 293.451 70.8382   2
   0   9  -4 268.369 50.0252   1
   9  -9   4 277.767 30.4580   3
   9  -9   4 282.971 41.8610   1
  10  -5   4 383.872 38.0730   3
  -5  10  -4 393.101 52.7508   1
  10  -5  -4 334.052 53.6129   2
   5 -10  -4 410.815 89.9197   2
   5 -10   4 291.255 37.8872   3
  10  -5   4 413.208 51.5296   1
   5   5  -4 399.044 64.6368   1
   5 -10   4 447.313 90.4519   2
   6 -10   4 215.776 70.0259   2
  10  -4   4 256.079 32.7496   3
  10  -6  -4 260.095 49.4395   2
  -4  -6   4 431.566 51.9504   3
  -4  -6   4 405.512 84.9524   2
  10  -4   4 297.088 43.7513   1
   4 -10  -4 329.734 79.6275   2
  -4  10  -4 287.758 45.2216   1
   6   4  -4 411.414 67.6734   1
   6 -10   4 384.548 40.5543   3
   4 -10   4 391.056 46.9381   3
  10  -6   4 270.447 41.3956   1
  10  -6   4 334.155 33.6466   3
  -6  10  -4 285.223 42.5546   1
   4 -10   4 365.427 80.3146   2
  10  -4  -4 406.302 59.1755   2
   4   6  -4 395.256 61.8543   1
   6 -10  -4 429.344 88.2771   2
  -3  -7   4 94.0476 27.1557   3
   7 -10   4 73.4790 55.4514   2
  10  -3   4 71.3848 26.1219   1
  10  -7  -4 101.705 37.9056   2
   7   3  -4 85.9258 37.3279   1
   7 -10   4 97.4770 19.6041   3
   3 -10  -4 110.996 56.0776   2
   7 -10   4 106.742 26.4781   1
  -3  10  -4 64.1917 26.8175   1
  -3  -7   4 90.6879 40.1204   2
  10  -3  -4 97.3868 41.5872   1
   7 -10  -4 102.910 47.8978   2
  10  -7   4 114.724 18.9074   3
   3 -10   4 57.4927 22.8705   3
   3   7  -4 103.684 34.1089   1
  10  -7   4 74.8069 23.9069   1
   3 -10   4 123.850 48.2595   2
   7   3   4 94.1721 27.5881   1
  -7  10  -4 124.053 29.8470   1
  10  -8  -4 249.516 56.7785   2
   2 -10  -4 247.602 63.8871   2
   8 -10   4 268.591 30.1125   3
   8   2  -4 308.511 60.3784   1
  -2  -8   4 390.261 63.7305   2
  -2  10  -4 271.574 48.8265   1
  -2  -8   4 303.381 46.1750   3
 -10   8  -4 289.489 42.0424   1
  10  -2   4 228.067 41.4700   1
   8 -10   4 215.824 35.7268   1
   8 -10   4 210.607 72.8771   2
  10  -8   4 258.902 27.8773   3
   8   2   4 284.531 45.2739   1
   8 -10  -4 282.646 69.4596   2
   2   8  -4 224.497 46.9398   1
  -8  10  -4 243.394 39.2226   1
   2 -10   4 254.147 60.4278   2
  10  -8   4 257.137 38.6987   1
   2 -10   4 284.871 45.2653   3
  10  -2  -4 392.247 70.2035   1
   0   0  -5 -2.4072 7.09167   1
   0   0  -5 -11.201 21.1633   2
   0   0   5 -1.3104 3.66017   3
   1   0   5 3.12571 3.06913   3
   1  -1   5 5.41137 3.65396   3
   0   1  -5 -2.7417 7.13750   1
   0  -1  -5 4.32444 6.41055   1
  -1   0  -5 23.3805 28.1600   2
   0  -1   5 1.42664 4.71221   3
  -1   1   5 2.26257 4.51892   3
  -1   1  -5 22.3262 26.6167   2
  -1   0   5 -0.9122 4.91577   3
   1   0  -5 -4.9603 17.9624   2
  -1   0  -5 1.67098 7.20063   1
   1  -1  -5 8.22001 6.88313   1
   1   0  -5 -2.3637 8.19477   1
   0  -1  -5 0.64576 18.3807   2
   0   1  -5 13.2848 22.9902   2
   1  -1  -5 -6.9467 18.2144   2
   0   1   5 5.32648 4.29296   3
  -1   1  -5 8.91352 8.40499   1
  -1   2  -5 67.6739 38.4218   2
   1   1  -5 26.3317 29.9842   2
  -1  -1  -5 42.0681 30.1397   2
  -2   1  -5 34.4469 35.1597   2
   1  -2   5 44.8931 8.70084   3
  -1   2  -5 59.0676 14.6868   1
   2  -1  -5 25.8910 24.8532   2
   1   1  -5 45.4217 14.7360   1
   2  -1   5 43.6314 31.3041   2
   1   1   5 56.8905 8.45379   3
  -1   2   5 50.6542 9.55581   3
  -1  -1   5 43.9417 10.4154   3
   1  -2   5 36.4181 14.5419   3
   1   1   5 59.0227 11.1614   1
  -2   1  -5 52.3485 13.2688   1
   1  -2   5 29.7390 27.3186   2
  -1  -1  -5 48.1984 11.0405   1
   2  -1  -5 58.4464 13.9476   1
   1  -2  -5 48.7853 28.4364   2
   2  -1   5 55.1289 13.2298   1
   0   2  -5 9.53865 25.7044   2
   2  -2  -5 -0.9172 8.05309   1
   2   0   5 -0.6100 6.47328   1
   2   0   5 -6.9255 3.99082   3
   0   2   5 2.62448 4.93714   1
   0   2   5 1.78700 4.74921   3
   0  -2   5 23.6246 24.0676   2
   2  -2   5 3.96359 2.89963   3
   2  -2   5 3.19367 30.8633   2
   2   0  -5 35.8878 13.5193   1
   0   2  -5 -0.5512 10.2211   1
  -2   0  -5 14.0228 25.2322   2
  -2   2  -5 44.4789 38.7241   2
   2   0  -5 4.11744 17.6749   2
   2  -2  -5 -1.9196 18.1899   2
   0  -2   5 4.18829 7.17394   3
  -2   0  -5 7.52605 7.78814   1
   2  -2   5 4.86910 4.58758   3
   0  -2  -5 15.7437 20.9168   2
  -2   2  -5 -4.1614 6.82377   1
  -1   3  -5 1170.02 73.2399   1
   1  -3  -5 1150.59 102.134   2
   3  -2  -5 1086.26 97.9093   2
  -1   3  -5 872.922 125.695   2
  -1  -2   5 1154.69 100.467   2
   1   2   5 1134.67 61.1434   3
   3  -2  -5 1081.79 63.4774   1
   2  -3   5 1185.78 63.9316   3
   1   2   5 1126.77 61.5131   1
   2   1  -5 1134.93 75.6232   1
   3  -1   5 1131.18 66.5913   1
  -2  -1  -5 1214.90 105.366   2
   3  -1   5 1196.03 111.557   2
  -3   2  -5 1137.34 68.8428   1
   2   1  -5 1145.99 101.813   2
   2  -3   5 1207.32 63.0006   3
   2  -3   5 919.638 121.837   2
  -3   2  -5 1426.03 135.098   2
   3  -1  -5 1217.94 70.7821   1
   2   1   5 1138.66 61.9534   3
  -2   3  -5 977.905 68.5160   1
  -2   3  -5 1033.99 138.048   2
   2   1   5 1097.29 63.5119   1
   1   2  -5 1085.25 74.3198   1
   3  -2   5 1147.39 68.2184   1
   1   2  -5 1253.00 111.769   2
   1  -3   5 816.883 109.654   2
   3  -1  -5 1117.80 100.150   2
   1  -3   5 1010.42 71.5791   3
  -3   1  -5 1179.39 137.946   2
   3  -2   5 1257.81 145.255   2
   1  -3   5 1148.52 68.7782   3
   2  -3  -5 1142.76 102.084   2
  -3   1  -5 1162.98 67.8311   1
  -1  -2  -5 1125.65 101.083   2
   0   3  -5 -2.4417 11.2371   1
   3  -3   5 2.67205 2.85669   3
   0   3  -5 8.21278 28.8791   2
   3   0  -5 -4.0215 20.6514   2
  -3   3  -5 -0.8237 9.59273   1
   3  -3   5 -0.1919 33.9676   2
  -3   0  -5 0.28052 7.97156   1
  -3   3  -5 5.42126 37.4810   2
   3   0   5 -0.3814 6.84781   1
   3   0  -5 -3.3780 12.9263   1
   3  -3   5 -0.7816 4.82340   3
   0  -3   5 -3.8183 13.5487   3
   3  -3  -5 -20.960 16.6219   2
  -3   0  -5 -18.092 24.0278   2
   0  -3   5 11.2416 23.4011   2
   0  -3  -5 26.5281 26.2307   2
   4  -2  -5 155.460 24.1001   1
   4  -2   5 212.806 66.9035   2
  -2   4  -5 128.977 24.9977   1
  -2   4  -5 111.869 57.0759   2
  -4   2  -5 141.647 57.8834   2
   2  -4   5 166.128 60.7060   2
   2  -4  -5 97.9213 40.1818   2
  -2  -2  -5 152.507 45.2669   2
  -4   2  -5 136.232 22.4928   1
   4  -2   5 147.081 22.3574   1
   2   2  -5 87.4677 35.6049   2
   2  -4   5 153.012 21.2803   3
   2   2  -5 130.709 30.2520   1
   2   2   5 147.649 19.8680   1
   2   2   5 129.239 19.6513   3
   4  -2  -5 99.4627 35.4402   2
  -2  -2   5 150.276 39.7686   2
  -1  -3   5 198.359 48.7885   2
   3   1  -5 160.708 33.3942   1
   3   1  -5 250.329 54.1251   2
   3  -4   5 187.238 17.4998   3
  -1  -3   5 179.087 32.3529   3
   4  -3  -5 152.890 40.9388   2
   4  -1   5 325.481 71.8282   2
  -4   3  -5 251.548 77.3828   2
  -3  -1  -5 155.842 46.4217   2
   3  -4   5 170.443 60.9251   2
  -1   4  -5 130.577 54.5161   2
   4  -1   5 204.986 26.7476   1
  -4   3  -5 187.631 27.5461   1
  -1   4  -5 234.070 35.4189   1
   1  -4  -5 186.103 48.1724   2
  -3   4  -5 143.545 60.9043   2
   1   3  -5 169.810 32.1150   1
   1   3  -5 153.622 50.3650   2
   4  -1  -5 156.778 29.9909   1
   1  -4   5 192.538 59.5265   2
  -3   4  -5 150.396 25.8516   1
   4  -3   5 151.887 23.5026   1
   4  -1  -5 232.523 51.8161   2
   3  -4  -5 197.880 51.0575   2
  -1  -3  -5 158.119 44.8961   2
   4  -3   5 240.284 71.3399   2
   1  -4   5 123.351 26.1897   3
  -4   1  -5 184.412 59.2720   2
  -4   1  -5 248.286 30.6412   1
   3   1   5 238.803 26.1844   1
   4   0   5 6.80929 27.6167   2
   4   0   5 2.77282 8.38093   1
   0  -4   5 -1.6648 13.8708   3
   0  -4  -5 6.35642 27.4973   2
   0   4  -5 -4.6725 11.6054   1
  -4   0  -5 2.08773 26.8690   2
  -4   4  -5 4.95472 10.6310   1
   4  -4   5 4.85501 3.50184   3
   4   0  -5 20.8678 22.8469   2
   0  -4   5 25.3286 28.8427   2
   4  -4   5 -3.1901 40.8242   2
   4   0  -5 -20.929 14.4497   1
   4  -4  -5 17.5045 22.4912   2
   0   4  -5 -12.694 28.8502   2
  -2  -3   5 603.272 61.8287   3
   3  -5   5 451.540 98.3559   2
   5  -3  -5 785.743 93.6906   2
  -3  -2  -5 866.296 96.3264   2
  -5   3  -5 590.877 48.1034   1
  -2   5  -5 702.278 65.4841   1
  -2  -3   5 516.838 75.0237   2
   3  -5   5 696.526 42.5556   3
   3   2  -5 696.920 75.9138   1
   2  -5  -5 597.060 88.2453   2
   5  -2   5 600.126 99.4477   2
   5  -2   5 661.836 48.4873   1
   3   2  -5 783.522 96.8997   2
   2   3  -5 602.507 92.0719   2
   2   3  -5 536.167 66.0584   1
   5  -3   5 643.968 48.3513   1
   3  -5  -5 606.343 89.7846   2
   5  -2  -5 766.285 91.4798   2
  -3   5  -5 601.010 50.0351   1
  -3  -2   5 635.863 81.6760   2
  -5   2  -5 594.934 97.5417   2
   3   2   5 649.691 45.6539   1
  -2  -3  -5 772.624 92.1946   2
   2  -5   5 473.519 94.1159   2
   2  -5   5 658.128 48.4550   3
   5  -3   5 966.193 136.556   2
   5  -2  -5 607.989 60.8032   1
  -5   2  -5 652.649 48.8624   1
   4   1  -5 80.6279 33.4386   2
  -1  -4   5 59.2928 34.5875   2
   4  -5   5 62.8931 9.93074   3
   5  -1   5 54.8724 41.2466   2
   1  -5  -5 56.3725 35.0044   2
   4   1  -5 44.3593 27.1982   1
   5  -4  -5 55.7162 32.7146   2
   4  -5   5 39.4646 46.6218   2
  -1   5  -5 65.1766 22.8750   1
  -5   4  -5 57.9586 16.8499   1
  -1   5  -5 3.30281 37.6497   2
  -1  -4   5 21.1145 18.8941   3
   5  -1   5 38.0448 14.7551   1
  -1  -4  -5 59.6977 30.8447   2
   5  -4   5 56.1203 16.4781   1
  -5   1  -5 10.0924 32.1989   2
   5  -1  -5 71.4319 26.4551   1
   1   4  -5 57.1770 23.2136   1
   1   4  -5 64.4191 45.9466   2
  -4   5  -5 47.2056 16.6489   1
   5  -4   5 42.3594 6.70976   3
   4   1   5 56.5009 16.3063   1
   1  -5   5 70.6362 40.4811   2
   1  -5   5 38.0729 18.5345   3
   5  -4   5 54.9492 52.2739   2
   5  -1  -5 39.6592 27.0540   2
   4  -5  -5 124.911 39.5088   2
   5  -5   5 1.07673 4.24416   3
  -5   5  -5 -5.4845 10.7041   1
   5   0   5 27.2826 13.2396   1
   5  -5   5 -0.8690 10.3772   1
   5   0  -5 10.7495 21.6431   1
   5   0  -5 -9.7945 18.4828   2
   5  -5  -5 19.3487 24.4498   2
   5  -5   5 12.1682 40.0298   2
   0  -5  -5 15.0879 27.0862   2
   0   5  -5 1.62464 16.8347   1
   0   5  -5 20.9288 36.5952   2
   0  -5   5 11.8908 28.3924   2
   0  -5   5 10.9186 16.0991   3
  -6   3  -5 593.874 47.1401   1
   3   3  -5 645.831 77.3980   1
   3   3  -5 623.903 92.3068   2
   6  -3  -5 494.423 73.6606   2
   3  -6  -5 528.752 82.7203   2
   3  -6   5 382.648 89.7446   2
   3  -6   5 571.838 42.2521   3
  -3  -3   5 468.410 70.1963   2
   6  -3   5 581.018 46.2214   1
  -3  -3   5 621.791 61.3758   3
  -3   6  -5 641.805 51.7441   1
   6  -3   5 660.552 97.1564   2
  -2  -4   5 212.764 52.7617   2
   6  -2   5 298.736 36.1955   1
   4   2  -5 222.625 45.0896   1
   6  -4  -5 203.544 50.9364   2
   2  -6  -5 180.287 53.5883   2
  -2  -4   5 216.769 36.8612   3
  -2   6  -5 204.214 36.3288   1
   4  -6   5 242.005 77.2236   2
  -6   4  -5 207.760 32.7100   1
   4   2  -5 187.791 49.1221   2
   4  -6   5 290.095 26.2243   3
   2   4  -5 322.941 75.4039   2
   6  -4   5 289.218 36.5824   1
   6  -2  -5 252.085 43.2669   1
   6  -4   5 270.183 18.1578   3
   2   4  -5 239.710 46.8134   1
   4  -6  -5 319.051 63.8027   2
   6  -4   5 249.813 69.2746   2
  -4   6  -5 272.867 38.2566   1
  -4  -2   5 291.252 51.5008   2
  -2  -4  -5 208.591 75.5076   2
   4   2   5 287.673 34.5222   1
   2  -6   5 313.246 37.2180   3
   2  -6   5 206.968 68.1900   2
   6  -2  -5 177.891 43.0663   2
  -6   5  -5 847.361 59.0534   1
   5   1  -5 753.632 91.8709   2
   5  -6   5 838.085 44.6600   3
   6  -5  -5 773.538 93.8634   2
  -1  -5   5 854.829 67.1933   3
  -1   6  -5 787.310 66.8188   1
   5  -6   5 479.611 106.103   2
  -1  -5   5 799.220 107.593   2
   5   1  -5 558.110 74.8055   1
   6  -1   5 717.428 55.6124   1
   1  -6  -5 923.274 110.398   2
   6  -5   5 504.463 96.5088   2
   1   5  -5 1097.04 138.761   2
   6  -5   5 785.903 56.0641   1
   6  -5   5 730.129 41.2483   3
   1  -6   5 641.782 64.9922   3
   5  -6  -5 660.156 89.9511   2
   1  -6   5 702.203 107.428   2
  -1  -5  -5 845.508 100.050   2
   6  -1  -5 718.523 80.2840   1
   1   5  -5 901.303 89.6212   1
   5   1   5 745.057 55.3326   1
   6  -1  -5 808.017 94.4724   2
  -5   6  -5 702.131 56.9128   1
   6  -6   5 -1.6194 4.32566   3
   6   0   5 4.27530 12.0560   1
   0  -6   5 15.1936 15.9509   3
   6  -6   5 17.9521 38.6009   2
  -6   6  -5 -0.4505 12.3501   1
   0  -6  -5 7.43926 26.8939   2
   0  -6   5 -22.521 27.2980   2
   6   0  -5 3.37801 20.0915   2
   0   6  -5 -5.5118 14.8468   1
   6  -6   5 -4.8647 10.8463   1
   6   0  -5 26.6912 25.9949   1
   6  -6  -5 -15.672 16.7815   2
  -3  -4   5 58.0893 32.5287   2
   7  -3   5 44.0206 17.8252   1
   4  -7   5 72.6731 48.5782   2
   4  -7   5 73.9655 15.6662   3
   7  -4  -5 76.1496 31.9429   2
   4   3  -5 70.4887 41.3316   2
  -3  -4   5 88.4292 25.5329   3
   4   3  -5 72.4478 30.8810   1
  -3   7  -5 26.8468 16.6653   1
  -7   4  -5 71.1779 20.5346   1
   3  -7  -5 41.8597 34.5613   2
   3  -7   5 54.2801 40.8049   2
   3  -7   5 93.9347 20.0515   3
   7  -4   5 109.251 22.8061   1
  -4  -3   5 86.0120 24.7211   3
   4  -7  -5 78.4499 37.7661   2
   3   4  -5 79.9605 32.3423   1
  -4   7  -5 52.6419 19.4736   1
   3   4  -5 50.8533 40.4863   2
   7  -3  -5 54.7930 29.8268   2
  -4  -3   5 56.8635 30.9003   2
   7  -4   5 63.3503 10.6035   3
   5   2  -5 461.180 67.1138   1
   5  -7   5 415.885 93.4703   2
  -7   5  -5 471.241 52.4939   1
  -2  -5   5 544.375 82.5272   2
   7  -5  -5 602.529 82.9811   2
   5   2  -5 587.801 81.6444   2
  -2   7  -5 588.530 66.6370   1
   5  -7   5 533.881 35.6895   3
   7  -2   5 510.158 51.6007   1
  -2  -5   5 495.942 56.5980   3
   2  -7  -5 535.454 84.4627   2
  -5   7  -5 574.959 58.8732   1
   2   5  -5 587.437 78.0268   1
   2  -7   5 462.516 52.3553   3
   7  -5   5 553.970 53.7415   1
   7  -5   5 415.058 79.3827   2
   7  -2  -5 457.874 69.2913   2
  -5  -2   5 510.259 67.9417   2
   5  -7  -5 395.179 70.9176   2
   7  -5   5 521.025 31.9676   3
   7  -2  -5 488.612 70.5388   1
   2   5  -5 466.137 89.9955   2
   7  -6  -5 31.3497 27.0266   2
  -7   6  -5 13.1878 13.7522   1
   6  -7   5 13.9341 12.8401   1
  -1  -6   5 4.57631 17.0287   3
  -1  -6   5 1.19342 30.0224   2
   1  -7  -5 16.6900 31.3883   2
   6  -7   5 12.0103 7.06593   3
   6   1  -5 -7.8880 19.4811   2
   6   1  -5 -5.5344 21.1419   1
   6  -7   5 1.02326 42.2404   2
  -1   7  -5 42.4388 25.3195   1
   7  -1   5 -4.8137 11.3427   1
   6   1   5 20.4923 14.7076   1
   1  -7   5 -7.5340 23.4493   2
   1  -7   5 3.42273 16.3230   3
   1   6  -5 4.98974 19.5042   1
   7  -6   5 1.89117 31.3804   2
   7  -1  -5 -2.4033 24.6550   1
   6  -7  -5 0.57246 24.1725   2
  -6   7  -5 5.03542 12.5412   1
   7  -1  -5 9.16216 20.2020   2
   7  -6   5 21.4653 13.3767   1
   7  -6   5 17.1575 6.77211   3
   7   0   5 43.7581 18.7099   1
   0  -7  -5 19.3972 32.5393   2
   0   7  -5 -9.1089 18.9910   1
   7  -7   5 14.3409 7.20229   3
   7   0  -5 25.8841 25.7854   1
  -7   7  -5 -0.0046 12.7299   1
   7   0  -5 -2.6376 18.1951   2
   0  -7   5 5.01211 30.8946   2
   0  -7   5 9.61452 15.8656   3
   7  -7   5 6.44875 35.7716   2
   7  -7  -5 35.3441 30.0874   2
   7  -7   5 9.91833 14.6265   1
   4   4  -5 0.03789 29.5453   2
   4  -8  -5 -0.2029 29.7493   2
   8  -4   5 19.0949 15.5707   1
   8  -4  -5 13.5508 24.1891   2
   4  -8   5 11.8162 11.3331   3
  -4  -4   5 46.6224 31.5706   2
   4   4  -5 -7.6735 19.9110   1
  -4   8  -5 26.3985 16.5933   1
   4  -8   5 27.1194 37.0402   2
  -4  -4   5 41.1430 20.7429   3
   8  -5  -5 4.85578 21.6856   2
   5   3  -5 -4.8025 20.7011   1
  -3  -5   5 0.23688 14.9543   3
   8  -3   5 13.1579 15.0511   1
   5  -8   5 -11.834 29.1200   2
  -8   5  -5 -5.3102 11.4134   1
  -3  -5   5 -5.1934 21.7446   2
   5  -8   5 -3.5285 7.62695   3
   5   3  -5 -4.2751 24.6867   2
   3  -8  -5 -6.5325 26.4101   2
  -3   8  -5 14.3823 16.1815   1
   8  -5   5 -7.5498 5.92697   3
  -5  -3   5 -0.1801 19.8163   2
  -5  -3   5 -20.096 13.2324   3
   8  -5   5 1.09481 11.8996   1
   8  -3  -5 14.5598 22.2380   2
   5  -8  -5 4.96360 29.1427   2
   3   5  -5 3.75855 32.3222   2
   3  -8   5 0.26335 32.7997   2
   3   5  -5 15.1379 24.4654   1
   3  -8   5 21.5314 14.4284   3
  -5   8  -5 5.32881 12.7927   1
  -2  -6   5 -13.679 14.6665   3
   6  -8   5 13.3539 43.5333   2
  -8   6  -5 -8.8921 11.4931   1
   6   2  -5 3.76632 20.9425   1
   6   2  -5 4.76115 23.3849   2
  -2  -6   5 -3.5312 27.4370   2
   2  -8  -5 72.8304 39.4460   2
   8  -6  -5 9.97062 22.1925   2
   6  -8   5 0.59699 7.38718   3
  -2   8  -5 -4.6156 14.4001   1
   8  -2   5 6.60790 14.6382   1
  -6   8  -5 -2.3723 13.4322   1
   2   6  -5 -21.207 19.5259   1
   6  -8  -5 10.2936 24.8288   2
   2  -8   5 -1.4063 29.7570   2
   2  -8   5 17.0085 17.1126   3
   8  -6   5 7.60444 6.86687   3
   8  -6   5 2.46480 12.3652   1
   8  -2  -5 2.55872 19.3787   2
  -6  -2   5 7.62371 19.9708   2
   8  -1   5 28.8826 16.6535   1
   7  -8   5 13.3794 15.7466   1
   1  -8  -5 50.2893 36.4795   2
   7   1  -5 15.8684 24.0353   2
  -1  -7   5 24.2705 28.6772   2
  -8   7  -5 1.95304 12.3065   1
   7  -8   5 3.28494 6.92839   3
  -1  -7   5 9.53870 18.0137   3
  -1   8  -5 -13.681 17.7072   1
   8  -7  -5 -5.4123 19.6628   2
   7  -8   5 12.0308 38.0697   2
   7   1  -5 23.5949 26.2859   1
   1   7  -5 -5.9790 18.0911   1
   1  -8   5 -3.2142 15.5649   3
   8  -7   5 -5.1522 29.9821   2
   8  -1  -5 50.6118 33.7436   1
   7  -8  -5 14.2326 28.6945   2
   8  -1  -5 -6.8918 18.6694   2
   7   1   5 6.93980 16.5652   1
   8  -7   5 10.5490 7.19685   3
   1  -8   5 -13.042 30.3302   2
  -7  -1   5 5.69707 17.8275   2
  -7   8  -5 -3.7703 12.9070   1
   8  -7   5 9.57736 14.1094   1
   8   0  -5 28.2506 27.3139   1
   0  -8   5 14.9731 32.3455   2
   0  -8   5 2.40909 16.2226   3
   8  -8  -5 3.84979 24.9509   2
   8  -8   5 -3.4018 6.36697   3
   8  -8   5 15.7548 14.1509   1
   8   0  -5 9.23581 22.2667   2
   8   0   5 26.8537 19.4487   1
  -8   8  -5 -5.2383 12.0546   1
   8  -8   5 10.0004 36.1835   2
   0   8  -5 9.14811 21.2091   1
  -4   9  -5 14.9533 18.1634   1
   5  -9   5 25.4706 13.6282   3
  -4  -5   5 71.9034 24.7573   3
  -4  -5   5 36.4062 30.7919   2
   5  -9   5 26.8209 42.5370   2
   5   4  -5 45.6956 39.0481   2
   9  -5  -5 87.4654 33.0200   2
   9  -4   5 82.4911 23.1618   1
   5   4  -5 16.4196 26.2152   1
   4  -9  -5 74.6766 42.3522   2
   9  -5   5 49.9546 20.2313   1
  -5  -4   5 67.5081 24.3778   3
   9  -5   5 51.3555 13.0079   3
   5  -9  -5 58.3143 40.4620   2
   4   5  -5 65.1101 31.7693   1
   4  -9   5 51.0858 38.2549   2
  -5   9  -5 19.4049 18.7851   1
  -5  -4   5 29.0005 28.1118   2
   9  -4  -5 36.7492 27.1088   2
   4  -9   5 36.6020 16.8296   3
  -3  -6   5 670.108 64.1274   3
   6   3  -5 642.887 81.6607   1
   9  -6  -5 494.440 71.9349   2
   6   3  -5 662.820 92.2468   2
  -3   9  -5 557.901 67.6961   1
   9  -3   5 447.461 52.9088   1
   6  -9   5 426.114 96.4140   2
  -3  -6   5 602.089 88.5757   2
   3  -9  -5 611.353 98.3870   2
  -9   6  -5 579.924 57.9430   1
   6  -9   5 554.237 41.1470   3
  -6   9  -5 512.682 57.3691   1
   3  -9   5 715.018 62.5263   3
   9  -6   5 493.327 36.7727   3
   3   6  -5 742.727 88.9317   1
   9  -6   5 498.726 54.0335   1
  -6  -3   5 573.054 60.2996   3
   9  -3  -5 583.116 76.8884   2
  -6  -3   5 585.630 73.3525   2
   7  -9   5 19.8840 41.5410   2
   7  -9   5 27.3384 10.6309   3
   9  -2   5 37.4157 20.7290   1
  -2  -7   5 26.1683 20.2615   3
   7   2  -5 22.2486 28.9349   1
   9  -7  -5 14.2803 23.2997   2
  -9   7  -5 25.4956 17.3183   1
   7  -9   5 4.96991 14.8543   1
  -2   9  -5 40.3070 25.0978   1
   2  -9  -5 37.5788 35.7058   2
  -2  -7   5 21.6695 29.3036   2
   9  -7   5 37.6738 17.0977   1
  -7   9  -5 41.7063 20.9119   1
   9  -7   5 29.7688 9.96002   3
   2   7  -5 81.4058 34.6493   1
   9  -2  -5 35.8528 25.7301   2
   2  -9   5 28.0162 17.8468   3
   7  -9  -5 18.5968 32.2536   2
   2  -9   5 25.0287 32.6464   2
   0   0  -6 868.439 111.930   2
   0   0   6 954.924 50.3766   3
   0   0  -6 936.613 57.5490   1
   1  -1   6 272.790 16.8940   3
   0   1  -6 223.675 28.7910   1
  -1   0  -6 266.622 28.9530   1
   0   1  -6 244.535 59.3872   2
  -1   0  -6 208.932 59.1470   2
   0  -1  -6 327.088 65.7236   2
   1  -1   6 170.776 51.6603   2
   1   0  -6 314.230 65.0351   2
   1   0   6 283.003 28.4361   1
   1  -1  -6 337.124 67.1281   2
  -1   1  -6 304.320 69.8947   2
  -1   1  -6 241.890 29.0989   1
   1   0   6 273.077 16.9219   3
   1   0  -6 287.507 30.1490   1
   2  -1   6 2242.43 162.560   2
   1  -2  -6 1969.20 154.213   2
   1  -2   6 1937.84 109.003   3
   1   1   6 1948.21 98.2338   3
   1  -2   6 2032.02 99.1064   3
  -1   2  -6 2130.71 172.586   2
  -1  -1  -6 2008.54 154.122   2
  -2   1  -6 1965.14 108.485   1
  -2   1  -6 2170.33 169.114   2
  -1   2  -6 1980.03 111.381   1
   2  -1  -6 1846.38 149.449   2
   2  -1   6 2004.37 107.466   1
   1   1  -6 2027.62 155.621   2
   1   1  -6 1989.09 112.226   1
   1  -2   6 2029.61 153.593   2
  -2   2  -6 79.2175 49.0812   2
   2  -2   6 40.9306 4.44356   3
   2   0   6 39.3994 11.6757   1
   0   2  -6 27.6326 34.4133   2
   0   2  -6 41.9226 15.8341   1
  -2   0  -6 44.2443 13.3225   1
   2  -2   6 40.3723 5.64195   3
   0  -2  -6 60.0235 34.4447   2
   0  -2   6 34.8137 27.6361   2
   2   0  -6 23.6069 13.3400   1
   2  -2   6 17.2569 31.1028   2
  -2   0  -6 24.5160 32.7283   2
  -2   2  -6 43.3913 14.2088   1
   0  -2   6 33.9842 15.5940   3
   2   0  -6 45.8545 34.3764   2
   2  -2  -6 61.0073 34.5988   2
   2  -3   6 4.65300 6.17245   3
   2   1  -6 3.54730 14.1865   1
   3  -1   6 10.6803 9.97171   1
   2  -3   6 6.61911 4.81098   3
  -1  -2   6 21.5040 22.4090   2
   1  -3  -6 -0.6307 23.8907   2
   2  -3   6 27.5923 32.8289   2
  -2  -1  -6 -15.799 28.9110   2
  -1   3  -6 0.12538 10.2335   1
   2   1  -6 19.3420 27.6288   2
  -3   2  -6 8.05566 40.8243   2
  -1   3  -6 5.63326 35.8319   2
  -3   2  -6 -5.1271 8.33722   1
   3  -2  -6 -5.7764 20.8164   2
   3  -1   6 12.8901 33.1655   2
   2  -3  -6 10.5736 23.4512   2
   3  -2   6 5.46944 34.2421   2
   3  -2   6 8.42985 9.43765   1
  -3   1  -6 0.04005 9.52848   1
   3  -1  -6 18.8945 26.7356   2
   1  -3   6 15.0870 11.9030   3
   2   1   6 9.69745 8.19681   3
  -2   3  -6 -9.9665 36.9580   2
   1   2  -6 17.7500 27.0496   2
   1  -3   6 -11.380 24.1725   2
  -2   3  -6 -9.7477 9.42573   1
  -3   1  -6 -0.3540 34.8084   2
  -1  -2  -6 10.8745 28.5402   2
   1   2  -6 10.7535 15.1239   1
   3   0   6 11.2342 10.0722   1
  -3   3  -6 23.9378 12.6951   1
   3   0  -6 18.8189 28.7859   2
   0   3  -6 18.4293 13.8899   1
   0  -3  -6 38.1905 33.7242   2
   3   0   6 -16.570 25.6479   2
   3  -3   6 23.9978 37.2591   2
  -3   0  -6 -3.0023 29.7295   2
   0  -3   6 22.5615 16.5685   3
  -3   0  -6 18.6222 11.2653   1
  -3   3  -6 69.1986 55.7013   2
   3   0  -6 14.1759 14.8525   1
   0  -3   6 6.64213 25.8469   2
   3  -3  -6 31.2667 32.6334   2
   0   3  -6 25.0846 37.3736   2
  -2  -2   6 1366.24 115.812   2
   4  -2   6 1587.83 152.379   2
   2   2  -6 1432.33 127.141   2
   4  -2   6 1470.12 86.8508   1
  -2   4  -6 1400.97 90.6171   1
  -2   4  -6 1756.57 197.198   2
   2  -4   6 1548.46 149.634   2
   2   2  -6 1612.92 100.343   1
  -4   2  -6 1484.91 88.3248   1
   2  -4   6 1541.21 82.4670   3
   4  -2  -6 1267.69 119.902   2
  -4   2  -6 1700.76 161.540   2
  -2  -2  -6 1491.19 127.763   2
   2  -4  -6 1432.88 128.403   2
   3  -4   6 102.942 13.4763   3
   1  -4  -6 155.456 53.6235   2
  -1   4  -6 150.551 60.1118   2
  -1  -3   6 131.782 25.4989   3
  -4   3  -6 126.515 66.1029   2
   3  -4   6 111.677 57.1539   2
   4  -3  -6 118.487 40.9431   2
   4  -1   6 116.996 20.9582   1
  -4   3  -6 152.905 24.8325   1
   3  -4   6 141.986 12.9834   3
  -1  -3   6 157.596 48.4633   2
  -1   4  -6 93.8270 24.7842   1
   3   1  -6 126.495 44.9110   2
   3   1  -6 146.176 30.0333   1
  -3  -1  -6 138.409 49.7993   2
   4  -1   6 178.484 60.4056   2
   3  -4  -6 166.227 50.4557   2
   4  -3   6 79.2995 19.1460   1
   4  -3   6 129.590 58.5237   2
   1   3  -6 141.160 56.4390   2
   1  -4   6 132.174 23.9389   3
  -3   4  -6 102.186 22.5145   1
  -4   1  -6 111.375 21.4240   1
  -4   1  -6 105.517 53.1711   2
  -1  -3  -6 142.452 49.5273   2
   1  -4   6 101.544 46.3485   2
   1   3  -6 112.580 28.5280   1
  -3   4  -6 167.242 75.5019   2
   4  -1  -6 158.500 48.8056   2
  -4   4  -6 998.544 158.634   2
   4   0   6 966.502 63.5441   1
   0  -4   6 962.753 72.0157   3
   4  -4   6 989.593 66.5893   1
   4   0   6 1109.56 126.754   2
   0  -4   6 1061.66 131.316   2
   4  -4  -6 1147.67 105.170   2
   4  -4   6 941.266 144.070   2
   4   0  -6 994.591 75.8683   1
   0  -4  -6 1169.55 110.902   2
   0   4  -6 987.935 75.0190   1
   4   0  -6 1079.96 119.233   2
   0   4  -6 1208.83 155.253   2
   5  -3  -6 70.0964 33.5405   2
   3  -5   6 56.9704 11.5046   3
   3  -5   6 42.0395 46.5559   2
   5  -2   6 43.4611 15.6407   1
  -5   3  -6 61.6023 19.2377   1
   3   2  -6 59.6066 36.2340   2
   2  -5  -6 50.9024 37.1404   2
   5  -2   6 85.2495 50.0872   2
  -2   5  -6 37.4190 50.4828   2
  -2  -3   6 58.7538 34.2234   2
   3   2  -6 43.8273 24.3184   1
  -2   5  -6 78.4266 22.4358   1
  -2  -3   6 108.174 25.8066   3
   5  -3   6 70.4652 52.6741   2
  -2  -3  -6 63.9893 37.1688   2
  -3   5  -6 54.1515 17.9960   1
   2  -5   6 71.9752 49.0707   2
  -3  -2   6 67.5352 30.5668   2
   3  -5  -6 96.3505 45.6352   2
   2   3  -6 66.2377 27.1993   1
   2  -5   6 62.2228 15.9774   3
   2   3  -6 73.4235 41.5112   2
  -5   2  -6 49.2749 16.4254   1
   5  -3   6 72.2046 18.8166   1
  -5   2  -6 106.237 56.2354   2
   5  -2  -6 47.2963 30.5419   2
   4  -5   6 314.196 20.9322   3
  -1  -4   6 342.853 67.7120   2
   4   1  -6 361.564 67.6673   2
  -1  -4   6 288.730 41.3637   3
  -1   5  -6 397.637 97.7433   2
   4   1  -6 328.392 52.0795   1
   5  -4  -6 364.004 71.5992   2
  -5   4  -6 316.583 40.0657   1
   5  -1   6 360.099 39.3301   1
   4  -5   6 297.096 89.9028   2
  -1   5  -6 317.263 46.7657   1
   1  -5  -6 451.962 79.5874   2
   4  -5  -6 375.248 76.2727   2
   5  -4   6 297.365 38.1150   1
   5  -4   6 328.120 95.0259   2
   1  -5   6 374.120 42.9252   3
   1   4  -6 357.265 52.8842   1
   1   4  -6 274.931 71.0588   2
   5  -1  -6 278.301 58.8662   2
  -1  -4  -6 380.269 72.2637   2
  -4   5  -6 265.930 37.0023   1
   1  -5   6 294.577 74.3727   2
   0  -5  -6 1108.60 106.882   2
   5   0   6 906.049 62.0209   1
   5  -5  -6 785.047 102.649   2
   5   0  -6 827.969 103.525   2
   5  -5   6 966.633 46.3021   3
   0   5  -6 676.671 76.4539   1
   0  -5   6 935.771 68.4681   3
   0   5  -6 1219.59 160.522   2
   5   0  -6 941.158 77.4861   1
   5  -5   6 873.109 63.2459   1
   0  -5   6 863.650 120.458   2
  -5   5  -6 971.313 66.5331   1
   5  -5   6 623.145 122.467   2
   3   3  -6 479.572 84.2599   2
  -3  -3   6 347.752 64.8799   2
   6  -3   6 574.740 47.4064   1
   6  -3  -6 628.073 89.4128   2
  -3   6  -6 633.280 63.1858   1
   3   3  -6 450.961 64.3904   1
   3  -6   6 642.164 42.0920   3
  -6   3  -6 564.458 47.5506   1
   3  -6  -6 585.627 89.1334   2
   3  -6   6 465.081 103.129   2
  -3  -3   6 630.834 60.8885   3
   4   2  -6 57.3107 27.8939   1
  -2  -4   6 49.7025 31.4461   2
   2  -6  -6 65.1629 39.5939   2
  -2   6  -6 90.4983 24.8730   1
   6  -4  -6 58.7329 33.7949   2
   6  -2   6 75.5261 20.7799   1
   4   2  -6 51.4874 33.9693   2
  -2  -4   6 56.1288 21.6473   3
  -6   4  -6 52.7086 19.1868   1
   4  -6   6 50.4193 10.4878   3
   4  -6   6 79.7727 58.8498   2
   2   4  -6 82.9410 44.1271   2
   2  -6   6 88.3205 54.0113   2
   2  -6   6 61.5919 18.6208   3
   6  -2  -6 84.7405 38.0953   2
   4  -6  -6 57.9285 35.9478   2
   6  -4   6 52.4127 47.3135   2
   6  -4   6 58.8243 17.6658   1
   2   4  -6 35.1139 24.5601   1
  -4   6  -6 109.239 25.6061   1
  -4  -2   6 71.9180 32.6654   2
   5   1  -6 14.1107 23.1097   1
   5   1  -6 8.91705 22.9167   2
  -1  -5   6 11.3977 15.6564   3
  -6   5  -6 24.0367 14.9912   1
   1  -6  -6 7.27041 31.1476   2
   5  -6   6 11.0495 45.4145   2
  -1   6  -6 31.5996 21.7149   1
   5  -6   6 14.2710 5.80476   3
  -1  -5   6 46.0041 34.7531   2
   6  -1   6 19.2013 14.3243   1
   5  -6   6 20.0945 14.2593   1
   6  -5  -6 6.18079 24.7590   2
   1  -6   6 -4.3515 13.3405   3
   1   5  -6 14.1508 22.8025   1
   1  -6   6 23.6772 32.2652   2
   6  -5   6 7.59063 11.2049   1
   5  -6  -6 31.5390 28.6868   2
   6  -1  -6 15.9962 24.9265   2
  -5   6  -6 5.73090 10.4551   1
   6  -5   6 10.7673 48.2859   2
   1   5  -6 3.35314 36.6350   2
   0   6  -6 647.808 72.3200   1
   6   0   6 558.640 74.1431   1
   0  -6  -6 575.777 89.8742   2
   6  -6  -6 620.405 94.6825   2
   6  -6   6 610.155 32.9102   3
   6  -6   6 514.933 53.0446   1
   0  -6   6 554.184 58.2744   3
   0  -6   6 633.385 101.417   2
  -6   6  -6 525.404 54.7288   1
   6  -6   6 381.202 92.6946   2
   6   0  -6 564.410 78.7603   2
   7  -3   6 147.719 28.6007   1
   4   3  -6 173.964 54.0258   2
  -3   7  -6 91.6771 25.6655   1
   4  -7   6 166.804 21.5539   3
   3  -7  -6 153.572 52.9036   2
   7  -4  -6 167.091 47.4041   2
  -3  -4   6 149.880 45.0812   2
  -3  -4   6 281.643 40.6619   3
   4  -7   6 230.541 72.2994   2
   4   3  -6 142.782 39.6198   1
  -7   4  -6 170.495 31.0785   1
  -4  -3   6 177.129 31.5153   3
  -4  -3   6 315.843 59.3425   2
   3   4  -6 156.193 51.0136   2
  -4   7  -6 161.878 33.0040   1
   4  -7  -6 125.662 49.7418   2
   7  -4   6 206.489 32.8832   1
   3  -7   6 138.511 55.2643   2
   7  -3  -6 110.152 38.6576   2
   3   4  -6 217.699 49.3489   1
   3  -7   6 186.112 25.8356   3
   2  -7  -6 686.801 101.771   2
   5   2  -6 551.190 83.8510   2
   5  -7   6 579.296 36.9427   3
   5  -7   6 346.926 87.8680   2
  -2  -5   6 595.322 62.5585   3
  -7   5  -6 587.322 59.5863   1
   7  -5  -6 724.955 97.5063   2
  -2  -5   6 688.576 96.0985   2
  -2   7  -6 596.271 66.9857   1
   7  -2   6 519.413 55.7918   1
   7  -5   6 544.444 55.7954   1
   7  -2  -6 505.211 77.2825   2
  -5   7  -6 573.974 58.4821   1
   2  -7   6 697.315 117.998   2
   2   5  -6 694.559 112.222   2
   2   5  -6 516.519 72.2118   1
  -5  -2   6 568.645 74.5643   2
   2  -7   6 585.090 55.5151   3
   5  -7  -6 763.304 108.271   2
   6  -7   6 79.5814 56.2939   2
  -7   6  -6 39.1456 17.6172   1
   6  -7   6 70.5475 11.0871   3
   6  -7   6 69.8222 19.9036   1
   6   1  -6 98.1161 35.5426   1
  -1  -6   6 82.0956 24.8842   3
  -1   7  -6 107.822 32.5772   1
   7  -1   6 84.5030 23.4024   1
   1  -7  -6 31.2821 35.6300   2
  -1  -6   6 105.527 46.4634   2
   7  -6  -6 71.8786 38.8843   2
   6   1  -6 35.9969 30.1127   2
   1  -7   6 76.5352 21.8492   3
  -6  -1   6 101.496 33.2258   2
   7  -1  -6 59.0511 31.3659   2
   1   6  -6 52.3544 29.3684   1
   6  -7  -6 76.4482 39.2107   2
   7  -6   6 50.9564 18.3151   1
   7  -6   6 98.4514 54.7178   2
  -6   7  -6 82.8031 23.1593   1
   7  -6   6 83.8391 10.2485   3
   1  -7   6 66.1578 46.5497   2
   7  -7   6 294.933 20.9657   3
   7  -7   6 179.585 63.2835   2
   0   7  -6 256.005 50.3399   1
   7   0  -6 269.899 55.0926   2
   7  -7   6 262.381 37.8279   1
   0  -7   6 284.643 40.2203   3
  -7   7  -6 302.803 42.9020   1
   0  -7   6 254.020 60.0508   2
   8  -4  -6 5.39671 22.3434   2
   4  -8   6 -15.515 8.26124   3
  -4  -4   6 20.0236 17.0826   3
   4  -8  -6 -6.8655 31.2798   2
   4  -8   6 17.1581 36.5300   2
   4   4  -6 3.60406 22.1146   1
   4   4  -6 -12.311 28.3558   2
  -4   8  -6 -3.0764 14.9865   1
  -4  -4   6 14.7801 25.5144   2
   8  -4   6 5.16787 15.9180   1
   8  -5  -6 663.646 86.6668   2
  -3  -5   6 844.699 63.6799   3
   8  -3   6 691.356 66.1373   1
   5   3  -6 873.717 115.621   2
  -3  -5   6 662.593 90.6964   2
   3  -8  -6 551.418 91.6369   2
  -3   8  -6 823.072 80.7615   1
  -8   5  -6 720.729 58.2257   1
   5  -8   6 752.689 130.240   2
   5  -8   6 668.885 44.8153   3
   5  -8  -6 663.121 105.630   2
   8  -5   6 603.271 60.7214   1
   3  -8   6 507.797 98.8479   2
  -5  -3   6 595.696 63.9961   3
   3  -8   6 714.533 54.8310   3
  -5   8  -6 727.733 71.5952   1
  -5  -3   6 662.257 84.8466   2
   8  -3  -6 563.336 82.2547   2
   3   5  -6 672.963 108.123   2
  -2  -6   6 6.92634 16.8001   3
   6   2  -6 -5.7076 25.4531   1
   8  -6  -6 23.3227 24.4050   2
   8  -2   6 -2.3588 13.6026   1
  -2   8  -6 10.8879 19.9503   1
   6  -8   6 6.94534 37.6468   2
   2  -8  -6 -4.3626 37.3834   2
   6  -8   6 -3.0500 12.4226   1
  -2  -6   6 20.3060 30.7981   2
  -8   6  -6 13.2197 13.7399   1
   6  -8   6 16.2559 8.28855   3
  -6  -2   6 -7.1849 17.9237   2
   2  -8   6 43.4612 39.6463   2
   8  -6   6 0.76825 13.3028   1
   8  -6   6 11.0600 6.32424   3
   2  -8   6 -12.692 12.1962   3
   6  -8  -6 8.26902 28.2394   2
  -6   8  -6 -0.1152 14.2535   1
   2   6  -6 44.6131 28.4948   1
   0   0  -7 -7.4340 27.7123   2
  -1   0  -7 3.99231 29.3591   2
   0   1  -7 -0.5326 26.9213   2
   0  -1  -7 -12.858 29.1517   2
   0  -1   7 9.53372 25.5283   2
   1  -1   7 9.36343 10.0466   3
   1  -1   7 2.80913 26.9284   2
  -1   1  -7 -1.1288 33.2424   2
   1   0  -7 17.3859 30.5176   2
   1  -1  -7 23.0619 31.1824   2
  -1  -1  -7 32.8930 35.9995   2
   2  -1   7 48.3608 35.9242   2
   1   1  -7 16.9529 33.0749   2
   1  -2   7 46.2843 13.6251   3
  -1  -1   7 35.6858 27.9076   2
  -2   1  -7 30.4136 41.3765   2
  -1   2  -7 6.05196 10.8258   1
   1  -2  -7 11.7624 31.5620   2
  -1   2  -7 69.8621 44.9673   2
   2  -1  -7 20.2458 32.4366   2
   1  -2   7 16.4541 30.9274   2
   2  -2  -7 14.8889 31.1300   2
   2   0  -7 17.4127 27.3812   2
   0  -2  -7 1.69623 28.1444   2
   2  -2   7 0.94009 30.4439   2
   0  -2   7 18.9697 27.6551   2
   0   2  -7 19.9163 12.7052   1
  -2   2  -7 -3.6241 37.8419   2
  -2   0  -7 8.00260 33.9526   2
  -2   2  -7 8.67633 11.7050   1
   2   0   7 7.28997 27.9742   2
   0  -2   7 -16.262 9.20992   3
   0   2  -7 -7.8425 31.1129   2
  -1   3  -7 642.301 49.0766   1
  -3   2  -7 580.845 45.5726   1
   1  -3  -7 740.389 111.395   2
   2  -3   7 559.023 31.5532   3
   2   1  -7 456.180 84.4378   2
  -1  -2   7 488.981 78.9695   2
  -1   3  -7 590.555 109.554   2
  -1  -2   7 585.002 54.5882   3
   3  -1   7 606.045 102.021   2
  -2  -1  -7 554.565 93.1336   2
   3  -2  -7 651.768 101.255   2
  -3   2  -7 879.297 138.778   2
   2  -3   7 449.721 90.8899   2
   3  -2   7 515.655 42.5847   1
  -3   1  -7 754.575 124.425   2
   1  -3   7 503.864 41.6893   3
   1   2  -7 553.122 55.2091   1
   1   2  -7 597.734 104.540   2
   1  -3   7 482.824 88.7404   2
  -2   3  -7 571.773 46.4384   1
   3  -1  -7 683.044 100.961   2
  -1  -2  -7 583.561 95.7967   2
   2  -3  -7 617.273 97.9662   2
  -2   3  -7 643.828 120.973   2
   3  -2   7 465.534 93.1754   2
   3  -3   7 13.3060 34.2802   2
   0  -3   7 -27.069 19.5237   2
   0   3  -7 5.86239 33.2038   2
  -3   3  -7 -22.676 34.2564   2
   3   0  -7 -2.6471 25.9942   2
   0  -3   7 11.1000 13.6543   3
  -3   0  -7 -38.978 27.5378   2
   3  -3   7 -2.7463 10.0023   1
   3  -3  -7 3.60815 31.8797   2
   3   0   7 -1.9304 30.8462   2
  -3   3  -7 -5.0101 11.2937   1
   0  -3  -7 -2.4858 30.0972   2
   0   3  -7 -2.1231 13.1368   1
   2  -4  -7 33.9192 36.1825   2
  -2   4  -7 62.2610 20.8899   1
   2   2  -7 61.0232 23.6821   1
  -4   2  -7 73.7864 19.4279   1
   2  -4   7 53.6625 48.3175   2
  -2  -2   7 49.1151 29.1607   2
  -2  -2  -7 50.4975 39.3290   2
   4  -2  -7 109.282 45.1316   2
  -2   4  -7 101.345 63.0024   2
   2  -4   7 88.5004 13.6866   3
  -4   2  -7 82.6014 58.5769   2
   4  -2   7 174.952 65.7964   2
   2   2  -7 106.448 44.6864   2
   4  -2   7 61.9463 17.2119   1
  -4   3  -7 12.8935 55.4619   2
   1  -4  -7 91.3379 46.6052   2
  -1  -3   7 57.0746 32.0680   2
   4  -3  -7 158.859 52.7141   2
   4  -1   7 91.6683 54.9349   2
   3  -4   7 96.0916 7.03497   3
  -1   4  -7 118.718 27.7352   1
  -1   4  -7 190.805 75.6528   2
  -4   3  -7 93.6120 21.9469   1
   3  -4   7 46.7590 45.5660   2
   3   1  -7 135.204 48.5688   2
  -1  -3   7 69.4465 22.2612   3
   4  -3   7 88.8296 55.5735   2
   1   3  -7 111.338 50.6406   2
   4  -3   7 69.5784 18.5557   1
   1  -4   7 102.722 49.2649   2
  -4   1  -7 127.437 79.3585   2
   3  -4  -7 96.7137 46.4149   2
   4  -1  -7 112.622 43.7416   2
  -3   4  -7 87.9061 21.9525   1
   1   3  -7 138.291 31.8094   1
  -1  -3  -7 131.849 52.3338   2
   1  -4   7 77.7878 19.6764   3
  -3   4  -7 127.887 66.8566   2
   0   4  -7 22.0555 39.4464   2
  -4   4  -7 -2.5965 44.7188   2
   0  -4  -7 15.9556 37.9764   2
   0   4  -7 9.92517 16.1238   1
   4  -4   7 44.5726 46.3186   2
   4  -4   7 2.82621 11.0022   1
  -4   4  -7 12.4840 14.4011   1
   0  -4   7 32.4941 16.5250   3
   4   0  -7 10.9869 30.5304   2
   4  -4  -7 -12.169 25.4720   2
   0  -4   7 7.97366 27.7257   2
  -5   3  -7 348.866 42.0031   1
  -2  -3   7 362.535 44.6304   3
  -2   5  -7 403.713 49.1873   1
   5  -3  -7 359.443 75.3814   2
  -2  -3   7 369.330 68.7882   2
   3  -5   7 329.120 23.9212   3
   3  -5   7 392.172 95.1599   2
   3   2  -7 439.507 57.7423   1
  -5   3  -7 477.409 106.843   2
   3   2  -7 423.589 81.2426   2
   5  -2   7 331.333 38.4936   1
  -2   5  -7 327.223 87.0112   2
   2  -5  -7 296.274 68.8424   2
   2  -5   7 341.923 33.9289   3
   5  -3   7 366.352 91.9638   2
  -3   5  -7 421.581 49.1268   1
   2   3  -7 335.340 77.4668   2
   5  -3   7 373.371 41.3337   1
  -5   2  -7 322.193 39.7853   1
   2   3  -7 298.464 49.2129   1
   5  -2  -7 452.801 84.0324   2
  -3  -2   7 422.631 68.5634   2
   3  -5  -7 257.105 64.9051   2
   1  -5  -7 23.2574 36.5349   2
  -1  -4   7 6.02879 14.0495   3
   5  -4  -7 31.8741 29.5159   2
  -5   4  -7 7.50342 13.8302   1
   4  -5   7 30.1459 50.6439   2
  -1   5  -7 47.9456 52.2914   2
  -1  -4   7 70.7277 39.6401   2
   4   1  -7 73.4710 38.8511   2
  -1   5  -7 57.3714 22.6080   1
   5  -1  -7 52.9605 31.8493   2
   1   4  -7 59.4454 24.9196   1
   5  -4   7 15.2251 12.0240   1
  -4   5  -7 31.9631 17.3651   1
   4  -5  -7 54.7007 38.0476   2
   1  -5   7 42.7303 37.2354   2
   1  -5   7 28.0496 15.7952   3
   5  -4   7 8.65197 47.2971   2
   1   4  -7 36.5974 41.8164   2
  -4  -1   7 34.6257 28.8750   2
   5  -5   7 -13.774 11.2318   1
   0  -5   7 -14.622 11.4763   3
   0  -5   7 -31.491 21.7346   2
   0   5  -7 -11.647 39.5430   2
   5  -5  -7 -13.721 26.0114   2
  -5   5  -7 15.7531 15.3696   1
   0  -5  -7 28.9456 38.6913   2
   5  -5   7 -17.106 48.8214   2
   5   0  -7 14.0188 23.4899   2
   0   5  -7 2.12039 19.6701   1
  -3  -3   7 275.114 60.3403   2
   6  -3  -7 189.637 51.2188   2
   3  -6  -7 316.259 70.8086   2
  -3  -3   7 319.121 42.1819   3
  -6   3  -7 247.956 35.6331   1
  -3   6  -7 215.562 36.0668   1
   6  -3   7 333.406 38.6231   1
   3   3  -7 461.205 88.7663   2
   3  -6   7 266.633 26.7135   3
   3  -6   7 353.922 89.3116   2
   4   2  -7 142.239 36.5418   1
   4  -6   7 154.500 75.2556   2
  -2  -4   7 123.026 43.4610   2
   6  -2   7 164.892 36.9116   1
   4  -6   7 137.893 14.4593   3
  -2  -4   7 135.931 28.2147   3
   6  -4  -7 92.9949 42.3826   2
   4   2  -7 191.913 58.0082   2
   2  -6  -7 91.9055 49.3118   2
  -6   4  -7 146.885 28.8798   1
  -2   6  -7 99.2496 26.5844   1
   2  -6   7 165.717 24.6644   3
  -4   6  -7 139.276 29.8379   1
   4  -6  -7 95.3031 45.0861   2
   6  -4   7 147.464 27.5297   1
   2  -6   7 184.010 64.4547   2
   2   4  -7 237.298 48.5331   1
  -4  -2   7 185.294 48.2080   2
   2   4  -7 187.447 61.9703   2
   6  -2  -7 153.432 49.3333   2
   5  -6   7 380.485 21.1148   3
   5  -6   7 339.180 42.0123   1
   6  -5   7 430.285 46.2229   1
   0   0  -8 3104.18 228.035   2
   0   1  -8 -45.685 23.3078   2
   0  -1  -8 -25.527 29.6022   2
   1   0  -8 32.9770 35.9591   2
   1   0   8 0.06371 28.3472   2
  -1   0  -8 29.4203 36.9214   2
   1  -1  -8 -15.895 28.0823   2
   1  -1   8 -9.1631 25.2150   2
  -1   1  -8 5.49587 34.3886   2
   0  -1   8 2.32062 25.2454   2
   0  -1   8 -12.955 11.3439   3
  -1  -1   8 8.63133 28.3231   2
   2  -1  -8 19.0829 33.7040   2
  -2   1  -8 42.9101 48.5934   2
   1  -2  -8 11.3500 37.6060   2
   1   1  -8 9.15080 34.1534   2
  -1  -1  -8 55.4645 42.6298   2
  -1   2  -8 -6.3527 39.2032   2
   1  -2   8 21.1193 34.3405   2
   1  -2   8 5.05859 7.96064   3
   2  -1   8 24.0306 35.5285   2
   0  -2  -8 37.7696 43.5838   2
  -2   2  -8 172.153 70.7061   2
   0  -2   8 74.3730 38.6016   2
   0  -2   8 75.7968 19.6661   3
   0   2  -8 82.0280 49.0056   2
   2  -2  -8 72.6209 42.6763   2
   2   0   8 24.9459 37.2611   2
   2  -2   8 94.0904 53.6115   2
   2   0  -8 62.8225 43.5463   2
  -2   0  -8 49.7460 46.1373   2
   0   0   0    0.00    0.00   0
 _exptl_absorpt_process_details 'SADABS 2014/5'
 _exptl_absorpt_correction_type   multi-scan
 _exptl_absorpt_correction_T_max  0.0457
 _exptl_absorpt_correction_T_min  0.0083
 _exptl_special_details
)
 The following wavelength and cell were deduced by SADABS from the
 direction cosines etc. They are given here for emergency use only:
 CELL 0.71073    9.729    9.710    6.461   90.171   89.822  119.940
)
;
_shelx_hkl_checksum              88319
_shelx_res_file
;
    shelx.res created by SHELXL-2014/7
TITL La3TiBi5 in space group P 63/m c m
CELL   0.71073    9.6871   9.6871   6.4528  90.000  90.000 120.000
ZERR         2    0.0013   0.0000   0.0008   0.000   0.000   0.000
LATT  1
SYMM -X,-Y, 0.50000+Z
SYMM -Y,X-Y,Z
SYMM -X+Y,-X,Z
SYMM X-Y,X, 0.50000+Z
SYMM Y,-X+Y, 0.50000+Z
SYMM X-Y,-Y, 0.50000-Z
SYMM -X,-X+Y, 0.50000-Z
SYMM Y,X, 0.50000-Z
SYMM -Y,-X,-Z
SYMM X,X-Y,-Z
SYMM -X+Y,Y,-Z
SFAC    TI  LA  BI
UNIT     2  6  10
MERG    2
L.S.   10
ACTA
BOND   $H
CONF
TEMP    -73.0
SIZE   0.12  0.07  0.05
FMAP   2
PLAN    25
WGHT    0.012900    1.922300
EXTI    0.001261
FVAR       0.15425
LA1    2    0.618177    0.000000    0.250000    10.25000    0.01518    0.01633 =
         0.01607    0.00000    0.00000    0.00817
TI1    1    0.000000    0.000000    0.000000    10.08333    0.01632    0.01632 =
         0.01795    0.00000    0.00000    0.00816
BI1   3    0.253533    0.000000    0.250000    10.25000    0.01439    0.01528 =
         0.01627    0.00000    0.00000    0.00764
BI2   3    0.333333    0.666667    0.000000    10.16667    0.01516    0.01516 =
         0.01585    0.00000    0.00000    0.00758
HKLF 4
REM  La3TiBi5 in space group P 63/m c m
REM R1 =  0.0185 for     217 Fo > 4sig(Fo)  and  0.0209 for all     233 data
REM     14 parameters refined using      0 restraints
END
WGHT      0.0129      1.9221
REM Highest difference peak  1.271,  deepest hole -1.098,  1-sigma level  0.305
Q1    1   0.6175  0.0000  0.1175  10.50000  0.05    1.27
Q2    1   0.3333  0.6667 -0.1388  10.33333  0.05    1.13
Q3    1   0.3160  0.5908 -0.1191  11.00000  0.05    0.91
Q4    1   0.2386  0.0000  0.1051  10.50000  0.05    0.85
Q5    1   0.3124  0.0675  0.1147  11.00000  0.05    0.84
Q6    1   0.2331  0.7669  0.0000  10.50000  0.05    0.79
Q7    1   0.4200  0.8401  0.0000  10.50000  0.05    0.75
Q8    1   0.5205  0.1202  0.1353  11.00000  0.05    0.73
Q9    1   0.4670  0.0000  0.1049  10.50000  0.05    0.72
Q10   1   0.4931  0.0000  0.2500  10.25000  0.05    0.70
Q11   1   0.1376  0.0000  0.1579  10.50000  0.05    0.69
Q12   1   0.2731  0.5706 -0.2500  10.50000  0.05    0.67
Q13   1   0.7575  0.1535  0.1323  11.00000  0.05    0.65
Q14   1   0.4730  0.6623 -0.0948  11.00000  0.05    0.63
Q15   1   0.5430  0.0945  0.1416  11.00000  0.05    0.60
Q16   1   0.3378 -0.0343  0.1487  11.00000  0.05    0.60
Q17   1   0.2842  0.1671  0.1472  11.00000  0.05    0.59
Q18   1   0.0348  0.0684  0.1379  11.00000  0.05    0.58
Q19   1   0.4345  0.0827  0.2500  10.50000  0.05    0.58
Q20   1   0.7429  0.0965  0.1493  11.00000  0.05    0.57
Q21   1   0.3160  0.0000  0.0009  10.50000  0.05    0.56
Q22   1   0.5210  0.8452 -0.1038  11.00000  0.05    0.54
Q23   1   0.6988  0.1551  0.1027  11.00000  0.05    0.53
Q24   1   0.6664  0.1108  0.2500  10.50000  0.05    0.51
Q25   1   0.1969 -0.0567  0.2500  10.50000  0.05    0.50
;
_shelx_res_checksum              19068
loop_
_space_group_symop_operation_xyz
'x, y, z'
'-x, -y, z+1/2'
'-y, x-y, z'
'-x+y, -x, z'
'x-y, x, z+1/2'
'y, -x+y, z+1/2'
'x-y, -y, -z+1/2'
'-x, -x+y, -z+1/2'
'y, x, -z+1/2'
'-y, -x, -z'
'x, x-y, -z'
'-x+y, y, -z'
'-x, -y, -z'
'x, y, -z-1/2'
'y, -x+y, -z'
'x-y, x, -z'
'-x+y, -x, -z-1/2'
'-y, x-y, -z-1/2'
'-x+y, y, z-1/2'
'x, x-y, z-1/2'
'-y, -x, z-1/2'
'y, x, z'
'-x, -x+y, z'
'x-y, -y, z'
loop_
_atom_site_type_symbol
_atom_site_label
_atom_site_fract_x
_atom_site_fract_y
_atom_site_fract_z
_atom_site_U_iso_or_equiv
_atom_site_adp_type
_atom_site_calc_flag
_atom_site_occupancy
La La1 0.61818(9) 0.0000 0.2500 0.0157(2) Uani d 1
Ti Ti1 0.0000 0.0000 0.0000 0.0169(10) Uani d 1
Bi Bi1 0.25353(6) 0.0000 0.2500 0.0152(2) Uani d 1
Bi Bi2 0.3333 0.6667 0.0000 0.0154(2) Uani d 1
loop_
_atom_site_aniso_label
_atom_site_aniso_U_11
_atom_site_aniso_U_22
_atom_site_aniso_U_33
_atom_site_aniso_U_12
_atom_site_aniso_U_13
_atom_site_aniso_U_23
La1 0.0152(4) 0.0163(5) 0.0161(4) 0.0082(3) 0.000 0.000
Ti1 0.0163(15) 0.0163(15) 0.018(2) 0.0082(7) 0.000 0.000
Bi1 0.0144(3) 0.0153(3) 0.0163(3) 0.00764(17) 0.000 0.000
Bi2 0.0152(3) 0.0152(3) 0.0158(4) 0.00758(13) 0.000 0.000
loop_
_atom_type_symbol
_atom_type_description
_atom_type_scat_dispersion_real
_atom_type_scat_dispersion_imag
_atom_type_scat_source
Ti Ti 0.2776 0.4457 'International Tables Vol C Tables 4.2.6.8 and 6.1.1.4'
La La -0.2871 2.4523 'International Tables Vol C Tables 4.2.6.8 and 6.1.1.4'
Bi Bi -4.1077 10.2566 'International Tables Vol C Tables 4.2.6.8 and 6.1.1.4'
loop_
_geom_angle_atom_site_label_1
_geom_angle_atom_site_label_2
_geom_angle_atom_site_label_3
_geom_angle_site_symmetry_1
_geom_angle_site_symmetry_3
_geom_angle
Bi1 La1 Bi1 3_655 4_655 81.45(3)
Bi1 La1 Bi2 3_655 1_545 141.80(2)
Bi1 La1 Bi2 4_655 1_545 73.779(12)
Bi1 La1 Bi2 3_655 14_546 141.80(2)
Bi1 La1 Bi2 4_655 14_546 73.779(12)
Bi2 La1 Bi2 1_545 14_546 56.193(8)
Bi1 La1 Bi2 3_655 2_665 73.780(10)
Bi1 La1 Bi2 4_655 2_665 141.81(2)
Bi2 La1 Bi2 1_545 2_665 140.95(3)
Bi2 La1 Bi2 14_546 2_665 109.451(15)
Bi1 La1 Bi2 3_655 13_665 73.780(10)
Bi1 La1 Bi2 4_655 13_665 141.81(2)
Bi2 La1 Bi2 1_545 13_665 109.451(15)
Bi2 La1 Bi2 14_546 13_665 140.95(3)
Bi2 La1 Bi2 2_665 13_665 56.193(8)
Bi1 La1 Bi1 3_655 13_656 74.192(17)
Bi1 La1 Bi1 4_655 13_656 74.192(17)
Bi2 La1 Bi1 1_545 13_656 124.029(4)
Bi2 La1 Bi1 14_546 13_656 71.376(8)
Bi2 La1 Bi1 2_665 13_656 71.377(6)
Bi2 La1 Bi1 13_665 13_656 124.029(3)
Bi1 La1 Bi1 3_655 13_655 74.192(18)
Bi1 La1 Bi1 4_655 13_655 74.192(17)
Bi2 La1 Bi1 1_545 13_655 71.376(7)
Bi2 La1 Bi1 14_546 13_655 124.029(3)
Bi2 La1 Bi1 2_665 13_655 124.029(3)
Bi2 La1 Bi1 13_665 13_655 71.377(6)
Bi1 La1 Bi1 13_656 13_655 137.87(4)
Bi1 La1 Bi1 3_655 . 139.276(17)
Bi1 La1 Bi1 4_655 . 139.276(16)
Bi2 La1 Bi1 1_545 . 70.476(15)
Bi2 La1 Bi1 14_546 . 70.476(15)
Bi2 La1 Bi1 2_665 . 70.475(14)
Bi2 La1 Bi1 13_665 . 70.475(14)
Bi1 La1 Bi1 13_656 . 111.066(18)
Bi1 La1 Bi1 13_655 . 111.066(18)
Bi1 La1 La1 3_655 13_655 116.015(12)
Bi1 La1 La1 4_655 13_655 116.015(11)
Bi2 La1 La1 1_545 13_655 54.726(8)
Bi2 La1 La1 14_546 13_655 100.99(2)
Bi2 La1 La1 2_665 13_655 100.99(2)
Bi2 La1 La1 13_665 13_655 54.725(7)
Bi1 La1 La1 13_656 13_655 165.70(4)
Bi1 La1 La1 13_655 13_655 56.427(14)
Bi1 La1 La1 . 13_655 54.64(2)
Bi1 La1 La1 3_655 13_656 116.015(12)
Bi1 La1 La1 4_655 13_656 116.015(11)
Bi2 La1 La1 1_545 13_656 100.99(2)
Bi2 La1 La1 14_546 13_656 54.726(8)
Bi2 La1 La1 2_665 13_656 54.725(8)
Bi2 La1 La1 13_665 13_656 100.99(2)
Bi1 La1 La1 13_656 13_656 56.427(14)
Bi1 La1 La1 13_655 13_656 165.70(4)
Bi1 La1 La1 . 13_656 54.64(2)
La1 La1 La1 13_655 13_656 109.28(4)
Bi1 Ti1 Bi1 15 3 180.000(13)
Bi1 Ti1 Bi1 15 13 92.745(10)
Bi1 Ti1 Bi1 3 13 87.255(10)
Bi1 Ti1 Bi1 15 16 92.745(11)
Bi1 Ti1 Bi1 3 16 87.255(11)
Bi1 Ti1 Bi1 13 16 92.745(12)
Bi1 Ti1 Bi1 15 4 87.255(11)
Bi1 Ti1 Bi1 3 4 92.745(11)
Bi1 Ti1 Bi1 13 4 87.255(12)
Bi1 Ti1 Bi1 16 4 180.00(2)
Bi1 Ti1 Bi1 15 . 87.255(10)
Bi1 Ti1 Bi1 3 . 92.745(10)
Bi1 Ti1 Bi1 13 . 180.0
Bi1 Ti1 Bi1 16 . 87.255(13)
Bi1 Ti1 Bi1 4 . 92.745(13)
Bi1 Ti1 Ti1 15 2 123.299(7)
Bi1 Ti1 Ti1 3 2 56.701(7)
Bi1 Ti1 Ti1 13 2 123.299(8)
Bi1 Ti1 Ti1 16 2 123.299(8)
Bi1 Ti1 Ti1 4 2 56.701(8)
Bi1 Ti1 Ti1 . 2 56.701(8)
Bi1 Ti1 Ti1 15 2_554 56.701(7)
Bi1 Ti1 Ti1 3 2_554 123.299(7)
Bi1 Ti1 Ti1 13 2_554 56.701(8)
Bi1 Ti1 Ti1 16 2_554 56.701(8)
Bi1 Ti1 Ti1 4 2_554 123.299(8)
Bi1 Ti1 Ti1 . 2_554 123.299(8)
Ti1 Ti1 Ti1 2 2_554 180.0
Ti1 Bi1 Ti1 . 2 66.597(16)
Ti1 Bi1 La1 . 3_545 81.053(15)
Ti1 Bi1 La1 2 3_545 81.053(15)
Ti1 Bi1 La1 . 4_665 81.053(14)
Ti1 Bi1 La1 2 4_665 81.053(14)
La1 Bi1 La1 3_545 4_665 158.55(3)
Ti1 Bi1 La1 . 13_656 144.36(2)
Ti1 Bi1 La1 2 13_656 77.767(17)
La1 Bi1 La1 3_545 13_656 93.835(4)
La1 Bi1 La1 4_665 13_656 93.835(3)
Ti1 Bi1 La1 . 13_655 77.767(17)
Ti1 Bi1 La1 2 13_655 144.36(2)
La1 Bi1 La1 3_545 13_655 93.835(3)
La1 Bi1 La1 4_665 13_655 93.835(3)
La1 Bi1 La1 13_656 13_655 137.87(4)
Ti1 Bi1 La1 . . 146.701(8)
Ti1 Bi1 La1 2 . 146.701(8)
La1 Bi1 La1 3_545 . 100.724(17)
La1 Bi1 La1 4_665 . 100.724(16)
La1 Bi1 La1 13_656 . 68.934(18)
La1 Bi1 La1 13_655 . 68.935(18)
Bi2 Bi2 Bi2 14_556 14 180.0
Bi2 Bi2 La1 14_556 15_565 118.097(4)
Bi2 Bi2 La1 14 15_565 61.904(4)
Bi2 Bi2 La1 14_556 1_565 61.904(4)
Bi2 Bi2 La1 14 1_565 118.097(4)
La1 Bi2 La1 15_565 1_565 166.36(3)
Bi2 Bi2 La1 14_556 3 61.904(5)
Bi2 Bi2 La1 14 3 118.097(5)
La1 Bi2 La1 15_565 3 70.550(16)
La1 Bi2 La1 1_565 3 99.631(8)
Bi2 Bi2 La1 14_556 13_665 118.097(3)
Bi2 Bi2 La1 14 13_665 61.904(4)
La1 Bi2 La1 15_565 13_665 99.631(5)
La1 Bi2 La1 1_565 13_665 70.550(15)
La1 Bi2 La1 3 13_665 91.52(3)
Bi2 Bi2 La1 14_556 4_665 61.903(4)
Bi2 Bi2 La1 14 4_665 118.096(3)
La1 Bi2 La1 15_565 4_665 91.52(3)
La1 Bi2 La1 1_565 4_665 99.631(6)
La1 Bi2 La1 3 4_665 99.631(6)
La1 Bi2 La1 13_665 4_665 166.36(3)
Bi2 Bi2 La1 14_556 16 118.096(4)
Bi2 Bi2 La1 14 16 61.903(5)
La1 Bi2 La1 15_565 16 99.631(9)
La1 Bi2 La1 1_565 16 91.52(3)
La1 Bi2 La1 3 16 166.36(3)
La1 Bi2 La1 13_665 16 99.631(5)
La1 Bi2 La1 4_665 16 70.550(15)
loop_
_geom_bond_atom_site_label_1
_geom_bond_atom_site_label_2
_geom_bond_site_symmetry_2
_geom_bond_distance
La1 Bi1 3_655 3.2602(8)
La1 Bi1 4_655 3.2602(7)
La1 Bi2 1_545 3.4253(3)
La1 Bi2 14_546 3.4253(3)
La1 Bi2 2_665 3.4254(3)
La1 Bi2 13_665 3.4254(3)
La1 Bi1 13_656 3.4575(6)
La1 Bi1 13_655 3.4575(6)
La1 Bi1 . 3.5323(11)
La1 La1 13_655 3.9563(11)
La1 La1 13_656 3.9563(11)
Ti1 Bi1 15 2.9384(5)
Ti1 Bi1 3 2.9384(5)
Ti1 Bi1 13 2.9384(6)
Ti1 Bi1 16 2.9384(5)
Ti1 Bi1 4 2.9384(5)
Ti1 Bi1 . 2.9384(6)
Ti1 Ti1 2 3.2264(4)
Ti1 Ti1 2_554 3.2264(4)
Bi1 Ti1 2 2.9384(6)
Bi1 La1 3_545 3.2601(7)
Bi1 La1 4_665 3.2601(7)
Bi1 La1 13_656 3.4575(6)
Bi1 La1 13_655 3.4575(6)
Bi2 Bi2 14_556 3.2264(4)
Bi2 Bi2 14 3.2264(4)
Bi2 La1 15_565 3.4253(4)
Bi2 La1 1_565 3.4253(3)
Bi2 La1 3 3.4253(5)
Bi2 La1 13_665 3.4253(3)
Bi2 La1 4_665 3.4253(3)
Bi2 La1 16 3.4253(4)

_cod_database_fobs_code 2021109
