#------------------------------------------------------------------------------
#$Date: 2018-08-14 05:14:15 +0300 (Tue, 14 Aug 2018) $
#$Revision: 209667 $
#$URL: file:///home/coder/svn-repositories/cod/cif/2/02/11/2021197.cif $
#------------------------------------------------------------------------------
#
# This file is available in the Crystallography Open Database (COD),
# http://www.crystallography.net/. The original data for this entry
# were provided by IUCr Journals, http://journals.iucr.org/.
#
# The file may be used within the scientific community so long as
# proper attribution is given to the journal article from which the
# data were obtained.
#
data_2021197
loop_
_publ_author_name
'Rajam, Ammaiyappan'
'Muthiah, Packianathan Thomas'
'Butcher, Raymond John'
'Jasinski, Jerry P.'
'Wikaira, Jan'
_publ_section_title
;
 Design of two series of 1:1 cocrystals involving
 4-amino-5-chloro-2,6-dimethylpyrimidine and carboxylic acids
;
_journal_coeditor_code           SK3691
_journal_issue                   9
_journal_name_full               'Acta Crystallographica Section C'
_journal_page_first
;
;
_journal_paper_doi               10.1107/S2053229618009154
_journal_volume                  74
_journal_year                    2018
_chemical_formula_iupac          'C5 H3 Br O2 S, C6 H8 Cl N3'
_chemical_formula_moiety         'C5 H3 Br O2 S, C6 H8 Cl N3'
_chemical_formula_sum            'C11 H11 Br Cl N3 O2 S'
_chemical_formula_weight         364.65
_chemical_name_systematic
;
4-Amino-5-chloro-2,6-dimethylpyrimidine--3-bromothiophene-2-carboxylic acid
(1/1)
;
_space_group_crystal_system      triclinic
_space_group_IT_number           2
_space_group_name_Hall           '-P 1'
_space_group_name_H-M_alt        'P -1'
_symmetry_space_group_name_Hall  '-P 1'
_symmetry_space_group_name_H-M   'P -1'
_atom_sites_solution_hydrogens   mixed
_atom_sites_solution_primary     direct
_atom_sites_solution_secondary   difmap
_audit_creation_method           SHELXL-2018/1
_cell_angle_alpha                79.629(2)
_cell_angle_beta                 79.596(2)
_cell_angle_gamma                75.895(2)
_cell_formula_units_Z            2
_cell_length_a                   7.5237(4)
_cell_length_b                   7.5739(4)
_cell_length_c                   12.5089(7)
_cell_measurement_reflns_used    9311
_cell_measurement_temperature    100(2)
_cell_measurement_theta_max      33.1758
_cell_measurement_theta_min      2.8016
_cell_volume                     673.00(6)
_computing_cell_refinement
;
SAINT (Bruker, 2014)
;
_computing_data_collection
;
APEX2 (Bruker, 2014)
;
_computing_data_reduction
;
SAINT (Bruker, 2014)
;
_computing_molecular_graphics
;
SHELXTL (Sheldrick, 2008)
;
_computing_publication_material
;
SHELXTL (Sheldrick, 2008)
;
_computing_structure_refinement
;
SHELXL2018 (Sheldrick, 2015b)
;
_computing_structure_solution
;
SHELXS97 (Sheldrick, 2008)
;
_diffrn_ambient_temperature      100(2)
_diffrn_measured_fraction_theta_full 0.991
_diffrn_measured_fraction_theta_max 0.987
_diffrn_measurement_device_type  'Bruker D8 Quest CMOS'
_diffrn_measurement_method       'omega and phi scans'
_diffrn_radiation_type           MoK\a
_diffrn_radiation_wavelength     0.71073
_diffrn_reflns_av_R_equivalents  0.0321
_diffrn_reflns_limit_h_max       10
_diffrn_reflns_limit_h_min       -11
_diffrn_reflns_limit_k_max       11
_diffrn_reflns_limit_k_min       -11
_diffrn_reflns_limit_l_max       19
_diffrn_reflns_limit_l_min       -19
_diffrn_reflns_number            13063
_diffrn_reflns_theta_full        25.242
_diffrn_reflns_theta_max         33.200
_diffrn_reflns_theta_min         2.802
_exptl_absorpt_coefficient_mu    3.408
_exptl_absorpt_correction_T_max  0.7465
_exptl_absorpt_correction_T_min  0.5390
_exptl_absorpt_correction_type   multi-scan
_exptl_absorpt_process_details
;
(APEX2; Bruker, 2014)
;
_exptl_crystal_colour            colourless
_exptl_crystal_density_diffrn    1.799
_exptl_crystal_description       block
_exptl_crystal_F_000             364
_exptl_crystal_size_max          0.310
_exptl_crystal_size_mid          0.270
_exptl_crystal_size_min          0.210
_refine_diff_density_max         0.673
_refine_diff_density_min         -0.524
_refine_ls_extinction_method     none
_refine_ls_goodness_of_fit_ref   1.043
_refine_ls_hydrogen_treatment    mixed
_refine_ls_matrix_type           full
_refine_ls_number_parameters     187
_refine_ls_number_reflns         5103
_refine_ls_number_restraints     0
_refine_ls_restrained_S_all      1.043
_refine_ls_R_factor_all          0.0425
_refine_ls_R_factor_gt           0.0336
_refine_ls_shift/su_max          0.000
_refine_ls_shift/su_mean         0.000
_refine_ls_structure_factor_coef Fsqd
_refine_ls_weighting_details
'w=1/[\s^2^(Fo^2^)+(0.0100P)^2^+0.8813P] where P=(Fo^2^+2Fc^2^)/3'
_refine_ls_weighting_scheme      calc
_refine_ls_wR_factor_gt          0.0661
_refine_ls_wR_factor_ref         0.0695
_reflns_number_gt                4471
_reflns_number_total             5103
_reflns_threshold_expression     'I > 2\s(I)'
_cod_data_source_file            sk3691sup1.cif
_cod_data_source_block           COCRYSTAL-1
_cod_database_code               2021197
_shelx_space_group_comment
;
The symmetry employed for this shelxl refinement is uniquely defined
by the following loop, which should always be used as a source of
symmetry information in preference to the above space-group names.
They are only intended as comments.
;
_shelx_hkl_file
;
  -1   0   0    2.42    0.16
  -1   0   0    1.79    0.16
  -1   0   0    1.92    0.17
   1   0   0    2.11    0.16
   1   0   0    2.06    0.16
  -2   0   0  424.83   17.66
  -2   0   0  455.89   17.80
   2   0   0  436.01   17.73
   2   0   0  452.76   17.82
  -3   0   0  281.63   11.06
  -3   0   0  274.65   10.94
   3   0   0  268.44   10.98
  -4   0   0    8.48    0.66
  -4   0   0    9.11    0.52
  -4   0   0    9.34    0.63
   4   0   0    9.42    0.59
   4   0   0    8.78    0.53
  -5   0   0   52.59    2.39
  -5   0   0   51.36    2.43
   5   0   0   55.55    2.34
   5   0   0   53.82    2.35
  -6   0   0   43.36    2.10
  -6   0   0   45.59    2.21
   6   0   0   45.63    2.09
  -7   0   0    5.77    0.80
  -7   0   0    4.12    0.53
  -7   0   0    6.14    0.78
   7   0   0    5.73    0.70
  -8   0   0   35.23    1.93
  -8   0   0   33.92    1.79
  -8   0   0   35.92    2.03
   8   0   0   38.72    1.90
  -9   0   0   20.82    1.42
  -9   0   0   18.99    1.41
 -10   0   0    7.62    0.83
 -10   0   0    5.87    1.15
 -11   0   0   13.92    1.31
 -10   1   0    2.32    0.62
  -9   1   0    3.98    0.72
  -9   1   0    4.50    0.79
  -8   1   0    2.93    0.60
  -8   1   0    2.98    0.62
   7  -1   0    3.99    0.77
  -7   1   0    3.80    0.66
  -7   1   0    3.30    0.62
  -7   1   0    3.43    0.48
   6  -1   0    3.08    0.54
  -6   1   0    3.13    0.33
  -6   1   0    3.40    0.38
  -6   1   0    2.86    0.55
  -6   1   0    2.78    0.53
   5  -1   0   20.96    1.20
  -5   1   0   22.22    1.15
  -5   1   0   22.49    1.15
  -5   1   0   22.81    1.18
  -5   1   0   21.13    1.23
   4  -1   0   94.08    3.80
  -4   1   0   93.99    3.77
  -4   1   0   84.86    3.62
  -4   1   0   85.41    3.77
  -4   1   0   89.40    3.73
  -4   1   0   93.33    3.83
   3  -1   0    0.64    0.24
  -3   1   0    0.72    0.22
  -3   1   0    0.87    0.15
  -3   1   0    0.68    0.14
   2  -1   0  172.60    6.77
  -2   1   0  159.95    6.72
  -2   1   0  169.03    6.76
  -2   1   0  174.73    6.76
   1  -1   0  142.97    5.50
   1  -1   0  128.83    5.39
  -1   1   0  130.45    5.46
  -1   1   0  137.38    5.40
  -1   1   0  137.99    5.38
   0  -1   0    4.15    0.23
   0   1   0    4.19    0.23
   0   1   0    3.97    0.23
  -1  -1   0   23.93    1.06
  -1  -1   0   25.02    1.03
  -1  -1   0   24.27    1.03
   1   1   0   24.07    1.06
   1   1   0   25.14    1.03
   1   1   0   24.71    1.04
  -2  -1   0  873.66   37.00
  -2  -1   0 1000.00   36.82
   2   1   0  904.03   36.99
  -3  -1   0   17.76    0.95
  -3  -1   0   18.46    0.87
  -3  -1   0   19.63    0.97
   3   1   0   19.50    0.83
   3   1   0   17.60    0.90
  -4  -1   0  201.48    8.44
  -4  -1   0  219.47    8.38
  -4  -1   0  210.75    8.44
   4   1   0  203.98    8.39
  -5  -1   0  127.49    5.21
  -5  -1   0  124.87    5.27
  -5  -1   0  125.13    5.31
   5   1   0  129.70    5.23
   5   1   0  125.50    5.14
  -6  -1   0   61.33    2.92
  -6  -1   0   62.97    2.88
  -6  -1   0   62.42    2.80
   6   1   0   63.48    2.80
   6   1   0   65.53    2.73
  -7  -1   0   84.94    3.88
  -7  -1   0   83.52    3.70
  -7  -1   0   83.65    3.80
   7   1   0   89.22    3.65
   7   1   0   85.88    3.70
  -8  -1   0    2.29    0.34
  -8  -1   0    2.10    0.57
  -8  -1   0    2.08    0.57
   8   1   0    3.24    0.54
  -9  -1   0   21.66    1.43
  -9  -1   0   26.77    1.68
  -9  -1   0   28.58    1.67
 -10  -1   0    5.50    0.72
 -10  -1   0    3.89    0.84
 -11  -1   0    1.22    0.62
 -10   2   0   12.05    1.41
  -9   2   0    4.44    0.78
  -9   2   0    3.51    0.68
  -8   2   0    7.62    0.93
  -8   2   0    7.98    0.91
   7  -2   0   38.08    1.99
  -7   2   0   36.36    1.83
  -7   2   0   36.46    1.83
  -7   2   0   35.82    1.86
  -7   2   0   36.54    1.97
   6  -2   0   11.40    0.97
  -6   2   0   10.46    0.87
  -6   2   0   10.08    0.72
  -6   2   0   10.31    0.70
  -6   2   0   10.39    0.79
   5  -2   0    0.22    0.38
  -5   2   0    0.41    0.28
  -5   2   0    0.38    0.31
  -5   2   0    0.37    0.16
   4  -2   0   80.47    3.42
  -4   2   0   76.35    3.33
  -4   2   0   83.82    3.40
  -4   2   0   75.13    3.28
   3  -2   0    6.57    0.59
  -3   2   0    7.83    0.48
  -3   2   0    6.85    0.49
  -3   2   0    7.09    0.47
   2  -2   0   28.04    1.35
  -2   2   0   28.82    1.32
  -2   2   0   27.90    1.23
  -2   2   0   28.72    1.29
   1  -2   0   11.42    0.54
   1  -2   0   10.31    0.60
  -1   2   0   10.86    0.54
  -1   2   0   10.54    0.46
  -1   2   0   10.87    0.60
  -1   2   0   10.32    0.57
   0  -2   0   97.84    3.91
   0   2   0   95.81    3.90
  -1  -2   0   90.71    3.61
  -1  -2   0   89.63    3.65
   1   2   0   89.61    3.69
  -2  -2   0    3.09    0.37
  -2  -2   0    3.86    0.27
  -2  -2   0    3.35    0.32
   2   2   0    4.50    0.32
   2   2   0    3.36    0.32
  -3  -2   0  269.61   11.11
  -3  -2   0  264.94   11.07
  -3  -2   0  292.30   11.05
   3   2   0  290.98   11.15
   3   2   0  271.31   11.09
  -4  -2   0   69.58    3.08
  -4  -2   0   72.05    2.98
  -4  -2   0   69.86    3.06
   4   2   0   71.56    2.86
   4   2   0   69.39    3.03
  -5  -2   0   26.13    1.42
  -5  -2   0   25.57    1.41
  -5  -2   0   27.42    1.28
   5   2   0   24.41    1.40
  -6  -2   0   34.22    1.88
  -6  -2   0   36.70    1.88
   6   2   0   35.57    1.73
   6   2   0   37.94    1.63
  -7  -2   0    2.11    0.34
  -7  -2   0    2.90    0.58
  -7  -2   0    2.54    0.56
   7   2   0    2.50    0.48
   7   2   0    2.32    0.39
  -8  -2   0   25.23    1.60
  -8  -2   0   26.23    1.65
  -8  -2   0   24.52    1.36
   8   2   0   26.24    1.40
   8   2   0   27.31    1.34
  -9  -2   0   14.02    1.10
  -9  -2   0   18.22    1.28
  -9  -2   0   17.12    1.38
   9   2   0   16.65    1.05
 -10  -2   0    1.80    0.72
 -10  -2   0    2.39    0.48
 -11  -2   0   26.27    1.63
 -10   3   0   15.29    1.69
 -10   3   0   16.15    1.69
  -9   3   0    0.97    0.70
  -8   3   0   95.96    4.33
  -7   3   0    4.90    0.72
  -7   3   0    3.34    0.55
  -7   3   0    5.04    0.82
  -7   3   0    5.09    0.64
  -6   3   0   98.79    4.13
  -6   3   0   98.72    4.26
  -6   3   0   97.70    4.26
  -6   3   0   96.06    4.21
   5  -3   0  119.67    5.05
  -5   3   0  122.40    4.98
  -5   3   0  110.63    4.87
  -5   3   0  116.74    4.97
  -5   3   0  115.52    4.83
   4  -3   0    0.77    0.40
  -4   3   0    0.28    0.25
  -4   3   0    0.40    0.15
  -4   3   0    0.55    0.16
   3  -3   0   34.01    1.63
  -3   3   0   33.07    1.53
  -3   3   0   32.28    1.45
  -3   3   0   32.16    1.55
   2  -3   0   83.19    3.70
   2  -3   0   87.83    3.62
  -2   3   0   91.86    3.70
  -2   3   0   89.18    3.64
  -2   3   0   86.42    3.68
  -2   3   0   86.44    3.51
   1  -3   0   42.84    1.92
  -1   3   0   43.12    1.93
  -1   3   0   43.98    1.91
   0  -3   0  278.53   10.95
   0   3   0  268.39   10.96
   0   3   0  282.39   10.98
   0   3   0  272.13   10.94
  -1  -3   0  178.82    7.08
  -1  -3   0  179.81    7.12
   1   3   0  172.69    7.12
   1   3   0  178.08    7.17
   1   3   0  176.01    7.07
  -2  -3   0    0.88    0.22
  -2  -3   0    1.15    0.31
   2   3   0    1.85    0.33
   2   3   0    1.07    0.20
  -3  -3   0   91.52    3.85
  -3  -3   0   88.66    3.93
  -3  -3   0   96.81    3.85
   3   3   0   91.45    3.91
   3   3   0   93.41    3.84
  -5  -3   0    1.52    0.46
  -5  -3   0    1.76    0.45
  -5  -3   0    2.01    0.26
   5   3   0    2.20    0.21
   5   3   0    2.04    0.26
  -6  -3   0    0.65    0.44
  -6  -3   0    0.68    0.44
   6   3   0    0.75    0.20
  -7  -3   0   12.69    0.80
  -7  -3   0   12.34    1.07
  -7  -3   0   13.06    1.10
   7   3   0   11.93    0.81
  -8  -3   0    6.54    0.85
  -8  -3   0    6.00    0.61
  -8  -3   0    6.55    0.93
   8   3   0    7.87    0.68
   8   3   0    5.26    0.59
  -9  -3   0   31.30    1.97
  -9  -3   0   28.17    1.66
  -9  -3   0   33.99    1.89
 -10  -3   0    9.34    1.16
 -10  -3   0    9.78    0.88
 -11  -3   0    2.84    0.58
 -11  -3   0    2.67    0.95
  -9   4   0   13.58    1.50
  -9   4   0   16.23    1.56
  -8   4   0    4.92    0.81
  -8   4   0    5.49    1.02
  -8   4   0    5.37    0.86
  -7   4   0   13.41    0.98
  -7   4   0   13.06    0.71
  -7   4   0   14.07    1.14
  -7   4   0   15.08    1.03
  -7   4   0   15.42    1.25
  -6   4   0   43.17    2.02
  -6   4   0   44.00    2.23
  -6   4   0   43.13    2.08
  -6   4   0   41.14    2.05
  -5   4   0    0.24    0.42
  -5   4   0    0.31    0.33
  -5   4   0    0.26    0.33
  -4   4   0  179.84    7.47
  -4   4   0  183.49    7.52
  -4   4   0  181.40    7.29
  -4   4   0  180.68    7.51
  -3   4   0  105.98    4.40
  -3   4   0   98.10    4.39
  -3   4   0  105.52    4.34
   2  -4   0   34.34    1.55
  -2   4   0   33.68    1.60
  -2   4   0   31.54    1.65
  -2   4   0   33.51    1.36
  -2   4   0   33.12    1.56
   1  -4   0  283.01   10.63
  -1   4   0  261.54   10.73
  -1   4   0  255.97   10.82
   0  -4   0    9.75    0.56
   0   4   0    8.63    0.68
   0   4   0    8.57    0.56
   0   4   0    9.25    0.55
  -1  -4   0  128.78    5.18
  -1  -4   0  131.08    5.33
   1   4   0  129.79    5.37
   1   4   0  129.88    5.39
   1   4   0  130.57    5.29
  -2  -4   0  107.76    4.34
  -2  -4   0  107.36    4.26
  -2  -4   0  102.24    4.41
   2   4   0  104.76    4.25
   2   4   0  101.13    4.40
   2   4   0  101.17    4.35
  -3  -4   0    8.72    0.79
  -3  -4   0    8.85    0.67
  -3  -4   0   10.08    0.57
   3   4   0    8.95    0.64
   3   4   0    9.54    0.70
  -4  -4   0   17.22    1.07
  -4  -4   0   17.83    1.19
   4   4   0   19.59    1.09
   4   4   0   17.89    1.02
  -5  -4   0   64.28    2.95
  -5  -4   0   64.65    2.84
  -5  -4   0   64.79    3.05
   5   4   0   66.37    2.87
   5   4   0   63.26    2.91
  -6  -4   0    6.67    0.85
  -6  -4   0    8.11    0.55
  -6  -4   0    6.21    0.80
   6   4   0    6.00    0.53
   6   4   0    7.00    0.37
  -7  -4   0   29.21    1.76
  -7  -4   0   29.21    1.71
  -7  -4   0   27.65    1.45
   7   4   0   28.90    1.17
   7   4   0   26.39    1.49
  -8  -4   0   11.16    1.11
  -8  -4   0    9.64    0.79
  -8  -4   0    8.95    1.14
   8   4   0    7.85    0.81
  -9  -4   0   12.83    1.08
  -9  -4   0   15.29    1.16
   9   4   0   16.73    1.12
 -10  -4   0    1.86    0.45
 -10  -4   0    2.19    0.72
 -11  -4   0    3.54    0.64
 -11  -4   0    3.40    0.97
  -8   5   0    1.10    0.66
  -8   5   0   -0.14    0.64
  -7   5   0    5.66    1.02
  -7   5   0    6.42    0.91
  -7   5   0    6.09    0.84
  -6   5   0   11.90    0.93
  -6   5   0   12.18    0.87
  -6   5   0   11.07    1.09
  -6   5   0   11.27    0.92
  -5   5   0   39.28    1.95
  -5   5   0   39.41    1.90
  -5   5   0   38.87    1.81
  -5   5   0   39.52    2.11
  -4   5   0    8.05    0.86
  -4   5   0    7.66    0.55
  -4   5   0    7.36    0.60
  -3   5   0   60.85    2.39
  -3   5   0   59.96    2.73
  -3   5   0   57.11    2.78
   2  -5   0   64.67    2.67
  -2   5   0   59.21    2.72
  -2   5   0   58.70    2.81
   1  -5   0    0.22    0.25
  -1   5   0    0.22    0.34
  -1   5   0    0.06    0.13
  -1   5   0    0.32    0.15
   0  -5   0   17.30    0.92
   0  -5   0   17.78    0.93
   0   5   0   16.87    1.08
   0   5   0   16.52    0.91
   0   5   0   15.47    1.02
  -1  -5   0   31.19    1.33
  -1  -5   0   31.84    1.51
   1   5   0   31.09    1.63
   1   5   0   31.48    1.57
   1   5   0   32.54    1.50
  -2  -5   0   21.49    1.04
  -2  -5   0   20.88    1.08
   2   5   0   20.71    1.22
   2   5   0   20.89    1.14
   2   5   0   21.53    1.04
  -3  -5   0   71.30    3.12
  -3  -5   0   74.05    3.09
   3   5   0   69.27    3.17
   3   5   0   72.12    3.23
   3   5   0   72.42    3.01
  -4  -5   0  131.02    5.40
  -4  -5   0  125.36    5.58
  -4  -5   0  131.24    5.41
   4   5   0  127.25    5.22
   4   5   0  130.46    5.53
   4   5   0  130.21    5.44
  -5  -5   0   18.81    1.21
  -5  -5   0   18.88    1.35
  -5  -5   0   19.33    1.04
   5   5   0   18.21    1.09
   5   5   0   19.26    1.21
  -6  -5   0   37.27    1.83
  -6  -5   0   38.29    2.17
  -6  -5   0   39.83    2.05
   6   5   0   40.62    1.98
   6   5   0   36.31    1.93
  -7  -5   0    4.86    0.80
  -7  -5   0    4.02    0.50
  -7  -5   0    5.04    0.89
   7   5   0    2.71    0.53
  -8  -5   0   27.09    1.61
  -8  -5   0   32.14    1.95
  -8  -5   0   33.07    1.87
  -9  -5   0   11.68    1.20
  -9  -5   0   12.44    1.05
 -10  -5   0    0.78    0.50
 -10  -5   0   -0.63    0.60
 -11  -5   0    3.81    0.69
  -8   6   0   18.67    1.58
  -7   6   0   15.79    1.39
  -6   6   0    4.20    0.79
  -6   6   0    3.57    0.63
  -6   6   0    3.74    0.65
  -6   6   0    4.71    0.79
  -5   6   0   22.68    1.51
  -4   6   0   11.31    0.75
  -4   6   0   11.05    1.04
  -3   6   0   -0.08    0.21
  -3   6   0   -0.41    0.31
  -3   6   0   -0.17    0.40
   2  -6   0    6.67    0.67
  -2   6   0    6.16    0.80
  -2   6   0    6.35    0.54
   1  -6   0   46.97    2.08
  -1   6   0   44.28    2.12
  -1   6   0   45.97    2.31
  -1   6   0   45.78    2.17
   0  -6   0   44.61    2.04
   0   6   0   45.30    2.16
   0   6   0   43.32    2.24
   0   6   0   46.32    2.10
  -1  -6   0   42.47    2.03
  -1  -6   0   42.90    1.75
   1   6   0   44.08    2.19
   1   6   0   44.56    2.11
   1   6   0   43.54    2.01
  -2  -6   0   82.24    3.34
  -2  -6   0   79.27    3.49
   2   6   0   77.01    3.61
   2   6   0   82.78    3.63
   2   6   0   82.11    3.45
  -3  -6   0   12.07    0.76
  -3  -6   0   15.25    0.89
   3   6   0   13.63    1.04
   3   6   0   13.53    0.84
   3   6   0   14.85    0.77
  -4  -6   0   37.16    1.81
  -4  -6   0   34.92    1.74
   4   6   0   34.44    1.83
   4   6   0   36.21    1.61
   4   6   0   35.40    1.88
  -5  -6   0   -0.16    0.26
  -5  -6   0   -0.16    0.45
  -5  -6   0    0.33    0.43
   5   6   0    0.51    0.44
   5   6   0    0.19    0.24
  -6  -6   0    6.03    0.58
  -6  -6   0    7.18    0.98
  -6  -6   0    7.25    0.87
   6   6   0    7.39    0.41
   6   6   0    7.15    0.85
  -7  -6   0    8.93    0.77
  -7  -6   0    8.87    1.06
  -7  -6   0   10.09    1.06
  -8  -6   0   16.40    1.39
  -8  -6   0   16.69    1.28
  -9  -6   0   -0.59    0.51
  -9  -6   0    0.84    0.46
 -10  -6   0   34.96    1.96
  -7   7   0   -0.15    0.70
  -6   7   0   25.33    1.72
  -5   7   0    4.56    0.78
  -4   7   0   12.68    0.90
  -4   7   0   14.15    1.16
  -3   7   0   63.13    2.91
  -3   7   0   64.30    3.15
   2  -7   0    7.03    0.75
  -2   7   0    6.76    0.62
  -2   7   0    6.83    0.89
   1  -7   0   38.17    1.78
  -1   7   0   36.45    2.03
  -1   7   0   34.17    1.81
  -1   7   0   36.87    1.86
   0  -7   0   31.62    1.54
   0   7   0   28.44    1.52
   0   7   0   29.12    1.58
   0   7   0   31.86    1.79
  -1  -7   0   19.32    1.20
  -1  -7   0   24.53    1.31
   1   7   0   23.67    1.24
   1   7   0   24.17    1.50
   1   7   0   22.43    1.24
  -2  -7   0   11.39    0.70
   2   7   0   11.54    0.71
   2   7   0   10.81    0.77
   2   7   0   11.38    1.03
  -3  -7   0    0.81    0.35
   3   7   0    0.81    0.50
   3   7   0    0.31    0.32
  -4  -7   0    2.06    0.49
   4   7   0    2.16    0.59
   4   7   0    2.33    0.31
  -5  -7   0   16.28    1.23
   5   7   0   17.39    1.27
   5   7   0   17.76    0.90
  -6  -7   0   17.73    1.32
   6   7   0   16.40    0.83
   6   7   0   16.01    1.26
  -7  -7   0    2.96    0.70
   7   7   0    2.20    0.66
  -8  -7   0   21.07    1.49
  -9  -7   0    1.70    0.59
 -10  -7   0    4.55    0.72
  -6   8   0    0.69    0.71
  -5   8   0    6.94    0.98
  -4   8   0   30.89    1.88
  -3   8   0    4.86    0.79
  -3   8   0    3.78    0.73
   2  -8   0   29.27    1.55
  -2   8   0   27.88    1.75
  -2   8   0   26.17    1.48
   1  -8   0   24.15    1.33
  -1   8   0   21.68    1.32
   0  -8   0   14.92    1.03
   0   8   0   14.51    0.94
   0   8   0   14.40    1.19
  -1  -8   0    1.91    0.49
   1   8   0    2.21    0.39
   1   8   0    1.77    0.56
   1   8   0    1.28    0.34
   2   8   0   13.16    1.16
   2   8   0   12.99    0.86
   2   8   0   11.64    0.89
  -3  -8   0   15.09    0.92
   3   8   0   14.77    1.23
   3   8   0   15.64    0.89
  -4  -8   0   54.65    2.53
   4   8   0   52.86    2.80
   4   8   0   57.32    2.49
  -5  -8   0    0.03    0.52
   5   8   0   -0.16    0.27
   5   8   0    0.13    0.49
  -6  -8   0   20.29    1.50
   6   8   0   20.51    1.64
   7   8   0   18.79    1.44
  -8  -8   0    6.04    1.04
  -9  -8   0    6.09    0.93
  -4   9   0    6.17    0.95
  -3   9   0   -0.61    0.49
  -2   9   0    4.33    0.72
   1  -9   0    0.87    0.49
  -1   9   0    1.67    0.42
   0  -9   0   22.03    1.37
   0   9   0   22.60    1.52
  -1  -9   0   12.54    1.05
   1   9   0   12.20    1.08
  -2  -9   0   41.92    2.17
   2   9   0   43.05    2.35
   3   9   0    8.06    0.77
   3   9   0    8.13    0.91
  -4  -9   0   10.47    0.92
   4   9   0    9.16    1.04
   4   9   0    9.61    0.81
  -5  -9   0   27.13    1.63
   5   9   0   25.98    1.70
  -6  -9   0    2.35    0.71
   6   9   0    1.91    0.63
  -7  -9   0    1.72    0.77
   7   9   0    1.25    0.62
  -8  -9   0   18.31    1.70
  -3  10   0    2.25    0.71
  -2  10   0    7.16    1.01
  -1  10   0    1.10    0.55
   0 -10   0   10.07    1.14
   0  10   0   11.60    1.01
  -1 -10   0   -0.11    0.58
   1  10   0    1.17    0.50
  -2 -10   0    0.97    0.64
   2  10   0    0.99    0.50
  -3 -10   0    0.81    0.68
   3  10   0    1.65    0.48
   4  10   0    0.99    0.54
   5  10   0    1.01    0.55
  -6 -10   0    7.08    1.64
   6  10   0    5.02    0.78
  -7 -10   0   19.92    2.06
   7  10   0   17.36    1.56
   0  11   0    3.88    0.75
   1  11   0    5.43    0.71
   2  11   0    0.47    0.66
   3  11   0    2.13    0.65
   4  11   0    1.81    0.70
   5  11   0    7.26    1.11
   5  11  -1   15.03    1.60
  -4 -11   1    2.96    0.98
   3  11  -1    2.41    0.68
   2  11  -1    6.39    1.09
   1  11  -1    4.95    0.73
   0  11  -1    2.42    0.74
   7  10  -1    2.88    0.78
   6  10  -1    1.32    0.62
   5  10  -1    0.69    0.56
   4  10  -1    0.84    0.52
   3  10  -1   24.81    1.61
  -3 -10   1   24.98    1.72
   2  10  -1    6.77    0.91
  -2 -10   1    6.81    1.12
   1  10  -1   12.13    1.10
   0  10  -1   30.67    1.84
   0 -10   1   30.16    1.86
  -1  10  -1    2.41    0.55
  -2  10  -1    1.07    0.64
  -3  10  -1    2.26    0.75
  -8  -9   1   12.95    1.50
   7   9  -1    1.22    0.57
  -7  -9   1    1.61    0.73
   6   9  -1    8.79    1.04
  -6  -9   1    7.38    1.18
   5   9  -1   22.15    1.51
  -5  -9   1   22.28    1.52
   4   9  -1    0.45    0.47
   4   9  -1    0.62    0.45
  -4  -9   1    0.51    0.47
   3   9  -1   19.42    1.23
   3   9  -1   17.25    1.33
  -3  -9   1   17.83    0.97
   2   9  -1   23.07    1.55
  -2  -9   1   22.71    1.50
   1   9  -1    0.05    0.39
  -1  -9   1    0.53    0.52
   0   9  -1    0.51    0.39
   0  -9   1   -0.16    0.50
  -1   9  -1    8.20    0.84
   1  -9   1    6.97    0.95
  -2   9  -1    8.80    0.87
   2  -9   1    6.15    1.03
  -3   9  -1    3.91    0.63
  -4   9  -1   13.33    1.19
  -9  -8   1    9.61    1.21
  -8  -8   1   -0.49    0.58
   7   8  -1   38.69    2.20
  -7  -8   1   38.54    2.26
   6   8  -1   26.71    1.74
  -6  -8   1   29.78    1.75
   5   8  -1   25.83    1.33
   5   8  -1   22.32    1.99
  -5  -8   1   26.05    1.55
   4   8  -1   88.34    3.73
   4   8  -1   83.82    4.07
  -4  -8   1   85.60    3.74
   3   8  -1    4.32    0.79
   3   8  -1    5.17    0.55
  -3  -8   1    4.88    0.62
   2   8  -1   64.41    2.86
   2   8  -1   61.65    3.11
   1   8  -1   12.38    0.98
   1   8  -1   14.81    1.18
   1   8  -1   11.05    0.82
  -1  -8   1   14.85    1.08
   0   8  -1   13.11    0.97
   0   8  -1   13.76    1.20
   0  -8   1   14.38    1.06
  -1   8  -1   12.68    0.96
  -1   8  -1   12.44    1.14
   1  -8   1   15.46    1.09
  -2   8  -1    9.46    0.97
  -2   8  -1    8.17    0.82
   2  -8   1   10.82    0.99
  -3   8  -1    0.46    0.54
  -3   8  -1    0.09    0.42
  -4   8  -1    9.97    1.08
  -5   8  -1    4.76    0.86
  -6   8  -1    1.96    0.74
 -10  -7   1    2.93    0.70
  -9  -7   1   16.66    1.39
  -8  -7   1   24.07    1.63
   7   7  -1    0.21    0.21
  -7  -7   1    0.69    0.63
   6   7  -1   18.51    0.93
   6   7  -1   16.98    1.29
  -6  -7   1   17.48    1.30
   5   7  -1    6.69    0.89
   5   7  -1    7.96    0.55
  -5  -7   1    7.45    0.90
   4   7  -1   18.61    1.35
   4   7  -1   18.00    0.99
  -4  -7   1   19.08    1.18
   3   7  -1   42.62    2.23
   3   7  -1   46.16    2.00
   3   7  -1   40.04    2.15
  -3  -7   1   37.87    1.99
  -3  -7   1   44.19    1.96
   2   7  -1  132.47    5.35
   2   7  -1  125.51    5.54
   2   7  -1  127.37    5.54
  -2  -7   1  122.03    5.40
   1   7  -1    3.17    0.49
   1   7  -1    3.88    0.41
   1   7  -1    4.24    0.76
  -1  -7   1    3.63    0.65
   0   7  -1  173.46    7.33
   0   7  -1  165.04    7.26
   0   7  -1  174.39    7.20
   0  -7   1  176.59    7.11
  -1   7  -1   43.70    2.31
  -1   7  -1   39.06    2.09
  -1   7  -1   43.87    2.16
   1  -7   1   46.85    2.11
  -2   7  -1   19.92    1.16
  -2   7  -1   21.22    1.45
   2  -7   1   21.95    1.27
  -3   7  -1   30.30    1.80
  -3   7  -1   28.67    1.56
   3  -7   1   30.56    1.65
  -4   7  -1    0.85    0.44
  -4   7  -1    0.84    0.41
  -5   7  -1    0.99    0.52
  -6   7  -1   13.92    1.46
  -6   7  -1   11.80    1.25
  -7   7  -1    4.11    0.87
  10   6  -1    1.17    0.83
 -10  -6   1    1.30    0.58
  -9  -6   1    3.21    0.55
  -8  -6   1    1.04    0.48
   7   6  -1    7.01    0.41
  -7  -6   1    7.43    0.92
  -7  -6   1    4.72    0.74
   6   6  -1   17.72    1.23
  -6  -6   1   17.86    1.25
  -6  -6   1   14.83    0.99
   5   6  -1    0.19    0.34
   5   6  -1    0.34    0.46
  -5  -6   1   -0.24    0.27
  -5  -6   1    0.18    0.44
   4   6  -1   92.22    3.80
   4   6  -1   92.07    4.05
   4   6  -1   84.25    4.03
  -4  -6   1   94.71    3.94
  -4  -6   1   89.89    3.96
   3   6  -1   10.66    0.64
   3   6  -1   10.41    0.69
   3   6  -1   10.19    0.93
  -3  -6   1   10.78    0.77
  -3  -6   1    9.34    0.63
   2   6  -1   19.44    1.01
   2   6  -1   19.34    1.11
   2   6  -1   18.75    1.24
  -2  -6   1   18.91    0.97
  -2  -6   1   17.55    0.99
   1   6  -1  116.55    4.85
   1   6  -1  115.92    4.99
   1   6  -1  112.16    4.97
  -1  -6   1  115.38    4.88
   0   6  -1   41.45    1.91
   0   6  -1   39.59    2.05
   0   6  -1   40.53    1.95
   0  -6   1   36.71    1.85
   0  -6   1   39.82    1.89
  -1   6  -1   19.98    1.35
  -1   6  -1   21.01    1.16
  -1   6  -1   21.94    1.20
   1  -6   1   22.27    1.21
  -2   6  -1   64.25    2.96
  -2   6  -1   64.20    3.07
  -2   6  -1   65.27    2.95
   2  -6   1   66.58    2.91
  -3   6  -1   23.03    1.36
  -3   6  -1   26.25    1.58
   3  -6   1   27.55    1.46
  -4   6  -1   38.94    2.12
  -5   6  -1   70.12    3.39
  -6   6  -1    8.52    0.97
  -6   6  -1   11.04    1.06
  -6   6  -1    8.58    0.77
  -6   6  -1    8.69    1.02
  -7   6  -1   31.44    2.03
  -8   6  -1    5.31    1.01
 -10  -5   1   17.43    1.21
  -9  -5   1   12.91    1.06
  -8  -5   1    3.73    0.53
  -8  -5   1    5.51    0.92
   7   5  -1   18.02    1.24
  -7  -5   1   24.34    1.49
  -7  -5   1   23.59    1.61
  -7  -5   1   20.44    1.24
   6   5  -1   85.46    4.00
  -6  -5   1   91.65    4.04
  -6  -5   1   91.72    4.18
  -6  -5   1   90.16    3.94
   5   5  -1    0.25    0.40
   5   5  -1    0.30    0.20
  -5  -5   1    0.29    0.39
  -5  -5   1   -0.22    0.21
  -5  -5   1   -0.04    0.43
   4   5  -1   40.88    2.04
   4   5  -1   41.82    2.05
  -4  -5   1   41.00    1.99
  -4  -5   1   42.49    1.96
   3   5  -1   26.71    1.47
   3   5  -1   26.91    1.42
  -3  -5   1   27.48    1.36
  -3  -5   1   26.67    1.35
   2   5  -1   15.00    0.79
   2   5  -1   14.68    0.88
   2   5  -1   13.57    0.98
  -2  -5   1   14.18    0.81
  -2  -5   1   14.98    0.80
   1   5  -1    1.63    0.26
   1   5  -1    2.02    0.41
  -1  -5   1    1.45    0.19
   0   5  -1    2.29    0.46
   0   5  -1    2.79    0.28
   0   5  -1    2.44    0.30
   0  -5   1    2.65    0.25
   0  -5   1    2.19    0.45
  -1   5  -1   47.53    2.33
  -1   5  -1   49.50    2.26
   1  -5   1   50.73    2.22
  -2   5  -1   17.99    1.17
  -2   5  -1   17.38    0.99
   2  -5   1   18.11    1.06
  -3   5  -1   60.12    2.44
  -3   5  -1   60.30    2.83
  -3   5  -1   59.83    2.77
   3  -5   1   62.20    2.75
  -4   5  -1    8.51    0.57
  -4   5  -1    8.41    0.65
  -4   5  -1    8.44    0.90
  -5   5  -1   17.50    1.12
  -5   5  -1   18.95    1.33
  -5   5  -1   18.01    1.02
  -6   5  -1    7.27    0.75
  -6   5  -1    6.57    0.77
  -6   5  -1    6.45    0.87
  -6   5  -1    7.38    0.97
  -7   5  -1   -0.74    0.60
  -7   5  -1    0.04    0.52
  -7   5  -1    0.28    0.49
  -8   5  -1    1.75    0.72
  -8   5  -1    1.43    0.72
 -11  -4   1   10.61    1.26
 -10  -4   1   23.94    1.79
 -10  -4   1   27.31    1.61
   9   4  -1   -0.53    0.52
  -9  -4   1    0.29    0.38
   8   4  -1  183.34    7.62
  -8  -4   1  181.97    7.50
  -8  -4   1  154.44    7.59
   7   4  -1   17.28    0.88
   7   4  -1   15.35    0.97
  -7  -4   1   15.32    0.99
  -7  -4   1   16.85    1.29
  -7  -4   1   17.12    1.26
   6   4  -1   65.06    3.02
  -6  -4   1   66.03    2.96
  -6  -4   1   66.78    3.10
  -6  -4   1   66.68    3.17
   5   4  -1   43.82    2.07
   5   4  -1   41.15    2.04
  -5  -4   1   42.59    2.10
  -5  -4   1   43.70    2.21
  -5  -4   1   41.85    1.99
   4   4  -1   33.56    1.70
   4   4  -1   35.04    1.71
  -4  -4   1   35.07    1.65
  -4  -4   1   34.93    1.71
  -4  -4   1   33.28    1.82
   3   4  -1   41.46    1.95
   3   4  -1   40.14    1.91
  -3  -4   1   39.91    1.85
   2   4  -1   24.06    1.29
   2   4  -1   24.70    1.31
  -2  -4   1   26.23    1.24
  -2  -4   1   26.44    1.21
   1   4  -1   67.62    2.95
   1   4  -1   64.23    2.91
  -1  -4   1   68.41    2.89
  -1  -4   1   67.61    2.74
   0   4  -1   84.47    3.50
   0   4  -1   77.75    3.46
   0   4  -1   81.99    3.42
   0  -4   1   80.13    3.41
   0  -4   1   80.03    3.40
  -1   4  -1   83.46    3.65
   1  -4   1   87.24    3.58
  -2   4  -1    9.95    0.48
  -2   4  -1   11.48    0.67
  -2   4  -1   10.84    0.80
   2  -4   1   11.32    0.75
  -3   4  -1   18.84    1.04
  -3   4  -1   19.24    1.04
  -3   4  -1   19.00    1.15
   3  -4   1   19.91    1.13
  -4   4  -1   35.23    1.67
  -4   4  -1   36.98    1.80
  -4   4  -1   38.05    1.90
  -4   4  -1   37.40    1.80
  -5   4  -1    0.30    0.37
  -5   4  -1    0.40    0.43
  -5   4  -1    0.22    0.24
  -5   4  -1   -0.34    0.25
  -5   4  -1   -0.15    0.31
  -6   4  -1    6.29    0.77
  -6   4  -1    6.55    0.64
  -6   4  -1    6.83    0.91
  -6   4  -1    6.18    0.77
  -7   4  -1    9.94    1.01
  -7   4  -1   10.36    1.11
  -7   4  -1   10.13    0.98
  -8   4  -1   16.27    1.35
  -9   4  -1    9.62    1.37
  -9   4  -1    7.25    1.31
 -11  -3   1    2.08    0.63
 -10  -3   1    5.57    0.73
 -10  -3   1    4.43    0.93
  -9  -3   1   33.29    2.04
  -9  -3   1   33.10    1.92
   8   3  -1    3.89    0.58
   8   3  -1    3.03    0.40
  -8  -3   1    5.08    0.84
  -8  -3   1    3.96    0.75
  -8  -3   1    3.13    0.61
   7   3  -1   13.73    0.84
   7   3  -1   13.26    0.81
  -7  -3   1   13.39    1.10
  -7  -3   1   12.28    0.85
  -7  -3   1   12.87    1.10
   6   3  -1  214.28    8.83
  -6  -3   1  219.40    8.81
  -6  -3   1  208.53    8.89
  -6  -3   1  218.38    8.90
   5   3  -1   34.07    1.72
  -5  -3   1   36.33    1.70
  -5  -3   1   35.07    1.80
  -5  -3   1   36.19    1.85
   4   3  -1  171.52    6.83
  -4  -3   1  164.01    6.93
  -4  -3   1  174.88    6.86
  -4  -3   1  159.85    6.86
   3   3  -1  240.47    9.74
   3   3  -1  244.86    9.67
   3   3  -1  237.84    9.67
  -3  -3   1  252.64    9.69
  -3  -3   1  233.37    9.74
  -3  -3   1  236.86    9.66
   2   3  -1   -0.05    0.23
   2   3  -1   -0.28    0.10
   2   3  -1    0.00    0.08
  -2  -3   1   -0.08    0.17
  -2  -3   1   -0.14    0.08
   1   3  -1  368.30   14.31
   1   3  -1  347.59   14.38
   1   3  -1  360.62   14.39
  -1  -3   1  369.32   14.25
  -1  -3   1  349.45   14.27
   0   3  -1   61.58    2.64
   0   3  -1   63.45    2.68
   0   3  -1   61.98    2.51
   0  -3   1   63.74    2.65
  -1   3  -1   14.26    0.83
  -1   3  -1   15.22    0.63
  -1   3  -1   14.39    0.78
   1  -3   1   14.55    0.76
   1  -3   1   15.27    0.80
  -2   3  -1  150.97    6.21
  -2   3  -1  152.21    6.23
  -2   3  -1  148.42    6.20
   2  -3   1  157.48    6.19
  -3   3  -1   11.72    0.68
  -3   3  -1   11.53    0.67
  -3   3  -1   10.32    0.75
  -3   3  -1   10.99    0.64
   3  -3   1   12.30    0.80
  -4   3  -1    6.00    0.43
  -4   3  -1    5.17    0.53
  -4   3  -1    5.54    0.44
  -4   3  -1    5.16    0.59
  -5   3  -1  126.91    5.33
  -5   3  -1  122.82    5.26
  -5   3  -1  129.93    5.37
  -5   3  -1  132.17    5.38
  -5   3  -1  123.00    5.27
  -6   3  -1    6.55    0.59
  -6   3  -1    8.52    0.61
  -6   3  -1    8.50    0.78
  -6   3  -1    7.68    0.79
  -7   3  -1   43.11    2.14
  -7   3  -1   39.78    2.02
  -7   3  -1   41.37    2.05
  -7   3  -1   38.07    1.99
  -7   3  -1   41.63    2.11
  -8   3  -1   14.08    1.22
  -8   3  -1   13.69    1.16
  -8   3  -1   14.34    1.25
  -9   3  -1    1.77    1.02
  -9   3  -1    2.55    0.74
 -10   3  -1    1.45    1.32
 -10   3  -1    2.47    0.95
 -11  -2   1   12.05    1.09
 -10  -2   1    1.84    0.75
 -10  -2   1    2.09    0.47
   9   2  -1    0.88    0.49
   9   2  -1   -0.13    0.42
  -9  -2   1    0.29    0.35
  -9  -2   1    0.44    0.56
   8   2  -1   13.31    0.93
   8   2  -1   12.36    0.82
  -8  -2   1   10.58    1.06
  -8  -2   1   12.82    1.13
   7   2  -1   24.18    1.26
   7   2  -1   23.33    1.27
  -7  -2   1   23.44    1.45
  -7  -2   1   23.78    1.50
  -7  -2   1   24.44    1.30
   6   2  -1    2.53    0.45
   6   2  -1    2.85    0.51
   6   2  -1    3.22    0.30
  -6  -2   1    1.90    0.50
  -6  -2   1    2.45    0.31
  -6  -2   1    2.53    0.53
   5   2  -1  146.44    5.86
   5   2  -1  139.11    6.01
  -5  -2   1  143.42    6.05
  -5  -2   1  144.72    6.04
  -5  -2   1  151.90    6.00
   4   2  -1  218.26    8.77
  -4  -2   1  209.50    8.78
  -4  -2   1  209.98    8.77
  -4  -2   1  230.08    8.76
   3   2  -1  101.24    4.07
   3   2  -1   99.23    4.10
   3   2  -1   97.85    4.11
  -3  -2   1  101.00    4.08
  -3  -2   1   96.36    4.09
  -3  -2   1   96.34    4.12
   2   2  -1  177.54    7.24
   2   2  -1  189.09    7.21
   2   2  -1  179.64    7.20
  -2  -2   1  172.29    7.23
  -2  -2   1  191.09    7.22
  -2  -2   1  168.38    7.18
   1   2  -1   15.33    0.78
   1   2  -1   15.83    0.80
   1   2  -1   15.56    0.72
  -1  -2   1   16.59    0.78
  -1  -2   1   15.72    0.73
   0   2  -1  210.25    8.07
   0   2  -1  198.54    8.03
   0  -2   1  191.49    8.09
   0  -2   1  206.14    8.02
  -1   2  -1  172.65    6.99
  -1   2  -1  177.09    7.01
  -1   2  -1  180.94    7.01
   1  -2   1  169.68    6.98
  -2   2  -1    8.83    0.54
  -2   2  -1    8.89    0.56
  -2   2  -1    9.09    0.54
   2  -2   1   10.11    0.60
  -3   2  -1   84.52    3.47
  -3   2  -1   84.15    3.48
  -3   2  -1   78.48    3.40
  -4   2  -1  176.16    6.79
  -4   2  -1  160.43    6.69
  -4   2  -1  156.42    6.68
   4  -2   1  166.86    6.76
  -5   2  -1   55.31    2.58
  -5   2  -1   59.44    2.66
  -5   2  -1   59.09    2.63
  -5   2  -1   60.51    2.62
  -6   2  -1   72.02    3.22
  -6   2  -1   72.73    3.16
  -6   2  -1   70.08    3.14
  -6   2  -1   70.03    3.21
  -7   2  -1    7.68    0.59
  -7   2  -1    6.75    0.90
  -7   2  -1    6.44    0.59
  -7   2  -1    7.88    0.84
  -8   2  -1   31.67    1.77
  -8   2  -1   36.90    1.99
  -8   2  -1   34.87    1.88
  -9   2  -1   23.21    1.60
  -9   2  -1   21.01    1.55
 -10   2  -1    2.76    0.76
 -10   2  -1    0.96    0.81
 -11  -1   1    1.33    0.62
 -10  -1   1    8.62    0.87
 -10  -1   1    8.36    1.23
   9   1  -1   25.64    1.52
  -9  -1   1   25.82    1.59
  -9  -1   1   23.44    1.59
   8   1  -1   27.03    1.37
   8   1  -1   26.82    1.49
  -8  -1   1   24.86    1.59
  -8  -1   1   22.76    1.40
  -8  -1   1   26.75    1.58
   7   1  -1   64.76    2.81
   7   1  -1   65.14    2.83
  -7  -1   1   63.08    2.91
  -7  -1   1   59.46    2.99
  -7  -1   1   63.73    2.87
   6   1  -1    0.64    0.34
  -6  -1   1    0.94    0.43
  -6  -1   1    0.76    0.38
  -6  -1   1    0.64    0.18
   5   1  -1   57.14    2.42
   5   1  -1   57.10    2.45
  -5  -1   1   54.62    2.56
  -5  -1   1   54.65    2.50
  -5  -1   1   55.87    2.48
   4   1  -1    2.98    0.37
   4   1  -1    2.67    0.35
   4   1  -1    2.76    0.27
  -4  -1   1    2.50    0.40
  -4  -1   1    2.65    0.40
  -4  -1   1    2.45    0.26
   3   1  -1    6.33    0.42
   3   1  -1    5.93    0.40
  -3  -1   1    5.83    0.46
  -3  -1   1    5.80    0.39
  -3  -1   1    5.88    0.46
   2   1  -1  276.59   10.70
   2   1  -1  266.26   10.86
  -2  -1   1  278.78   10.90
  -2  -1   1  276.96   10.85
  -2  -1   1  248.80   11.13
   1   1  -1    0.81    0.13
   1   1  -1    1.28    0.16
   1   1  -1    0.86    0.12
  -1  -1   1    0.84    0.14
  -1  -1   1    0.90    0.14
   0   1  -1  200.00    7.70
   0   1  -1  186.43    7.71
   0  -1   1  184.24    7.64
   0  -1   1  190.57    7.69
  -1   1  -1   17.59    0.79
  -1   1  -1   16.75    0.78
  -1   1  -1   16.57    0.76
   1  -1   1   17.78    0.80
  -2   1  -1  207.54    8.15
  -2   1  -1  205.91    8.13
   2  -1   1  203.53    8.16
   2  -1   1  199.76    8.13
  -3   1  -1    0.02    0.18
  -3   1  -1    0.06    0.09
  -3   1  -1    0.15    0.09
   3  -1   1   -0.10    0.18
  -4   1  -1    9.71    0.61
  -4   1  -1    9.28    0.66
   4  -1   1   10.32    0.69
  -5   1  -1   12.23    0.74
  -5   1  -1   12.18    0.86
  -5   1  -1   11.49    0.79
  -5   1  -1   12.47    0.72
   5  -1   1   12.40    0.82
  -6   1  -1    1.95    0.31
  -6   1  -1    1.62    0.47
  -6   1  -1    2.08    0.45
  -6   1  -1    1.74    0.26
  -7   1  -1    3.87    0.67
  -7   1  -1    2.61    0.47
  -7   1  -1    4.03    0.40
  -7   1  -1    4.35    0.73
  -8   1  -1   71.41    3.36
  -8   1  -1   69.90    3.26
  -9   1  -1    0.74    0.60
  -9   1  -1    0.56    0.51
 -10   1  -1   47.12    2.51
 -10   1  -1   43.05    2.45
 -11   0   1   20.02    1.57
 -10   0   1   -0.09    0.63
 -10   0   1    0.25    0.48
   9   0  -1   54.30    2.61
  -9   0   1   46.64    2.54
  -9   0   1   52.94    2.68
  -9   0   1   53.04    2.57
   8   0  -1   12.32    1.05
  -8   0   1   11.61    1.00
  -8   0   1    9.11    0.85
  -8   0   1   11.64    1.05
   7   0  -1    7.75    0.83
  -7   0   1    7.50    0.78
  -7   0   1    8.38    0.91
   6   0  -1   36.75    1.75
  -6   0   1   33.18    1.80
  -6   0   1   35.01    1.72
   5   0  -1   37.84    1.76
   5   0  -1   38.23    1.68
  -5   0   1   36.47    1.74
  -5   0   1   36.44    1.82
   4   0  -1    6.07    0.52
   4   0  -1    5.95    0.38
  -4   0   1    5.11    0.54
  -4   0   1    4.91    0.46
   3   0  -1  258.93   10.39
   3   0  -1  265.74   10.47
   3   0  -1  262.06   10.34
  -3   0   1  257.64   10.50
  -3   0   1  258.05   10.38
   2   0  -1    2.69    0.23
  -2   0   1    2.80    0.21
  -2   0   1    2.62    0.30
   1   0  -1    0.39    0.08
   1   0  -1    0.34    0.06
   1   0  -1    0.25    0.06
  -1   0   1    0.25    0.07
  -1   0   1    0.29    0.07
  -1   0   1    0.29    0.06
  -1   0  -1   36.93    1.53
  -1   0  -1   37.28    1.53
   1   0   1   36.68    1.53
  -2   0  -1   45.42    1.92
  -2   0  -1   47.31    1.94
  -2   0  -1   44.94    1.87
   2   0   1   46.20    1.92
   2   0   1   43.31    1.87
  -3   0  -1   22.71    1.11
  -3   0  -1   23.64    1.05
   3   0   1   23.54    1.09
  -4   0  -1   39.40    1.70
  -4   0  -1   38.05    1.78
  -4   0  -1   38.80    1.82
   4   0   1   38.08    1.71
   4   0   1   40.43    1.75
  -5   0  -1   17.71    1.11
  -5   0  -1   19.65    0.95
  -5   0  -1   17.62    1.06
  -5   0  -1   19.20    1.04
   5   0   1   18.98    1.00
  -6   0  -1   27.22    1.53
  -6   0  -1   29.46    1.61
  -6   0  -1   30.03    1.41
  -6   0  -1   30.84    1.52
   6   0   1   28.56    1.45
  -7   0  -1   11.78    0.85
  -7   0  -1   15.28    1.12
  -7   0  -1   13.27    1.06
  -8   0  -1   60.39    2.81
  -8   0  -1   62.33    2.98
  -8   0  -1   64.13    3.06
  -9   0  -1   11.71    1.06
  -9   0  -1   11.30    1.16
  -9   0  -1    7.99    0.85
 -10   0  -1    1.06    0.71
 -10   0  -1    0.95    0.48
 -11   0  -1    7.97    1.02
 -10   1   1   27.10    1.77
  -9   1   1    1.15    0.53
  -9   1   1    2.67    0.64
   8  -1  -1    1.97    0.60
  -8   1   1    2.33    0.58
  -8   1   1    1.24    0.48
   7  -1  -1   66.17    3.01
  -7   1   1   63.81    2.86
  -7   1   1   63.52    3.00
  -7   1   1   62.83    3.03
   6  -1  -1   20.92    1.25
  -6   1   1   19.79    1.22
  -6   1   1   18.45    1.08
  -6   1   1   19.88    1.09
   5  -1  -1   82.81    3.54
  -5   1   1   79.23    3.53
  -5   1   1   81.65    3.60
  -5   1   1   83.13    3.43
   4  -1  -1  309.28   12.17
  -4   1   1  287.28   12.10
  -4   1   1  302.76   12.15
  -4   1   1  301.84   12.28
  -4   1   1  320.44   12.16
   3  -1  -1   34.20    1.59
  -3   1   1   34.02    1.47
  -3   1   1   34.02    1.56
  -3   1   1   36.05    1.56
   2  -1  -1  135.88    5.54
   2  -1  -1  138.88    5.51
  -2   1   1  139.16    5.54
  -2   1   1  135.66    5.54
   1  -1  -1   70.25    2.88
   1  -1  -1   70.99    2.84
  -1   1   1   72.06    2.88
  -1   1   1   69.76    2.84
   0  -1  -1  207.19    8.53
   0  -1  -1  217.04    8.58
   0   1   1  198.46    8.50
   0   1   1  218.02    8.52
  -1  -1  -1   89.03    3.53
  -1  -1  -1   85.59    3.53
  -1  -1  -1   87.58    3.51
   1   1   1   87.57    3.53
   1   1   1   87.79    3.52
  -2  -1  -1    3.55    0.21
   2   1   1    3.33    0.21
   2   1   1    2.74    0.25
  -3  -1  -1   28.14    1.32
  -3  -1  -1   28.09    1.20
   3   1   1   27.50    1.16
   3   1   1   27.64    1.28
  -4  -1  -1  241.34   10.26
  -4  -1  -1  266.70   10.17
  -4  -1  -1  260.27   10.29
   4   1   1  257.98   10.26
   4   1   1  252.68   10.24
  -5  -1  -1   26.94    1.43
  -5  -1  -1   26.56    1.27
  -5  -1  -1   27.50    1.46
   5   1   1   28.38    1.34
   5   1   1   26.67    1.24
  -6  -1  -1  114.64    4.93
  -6  -1  -1  115.89    4.91
  -6  -1  -1  112.73    4.75
   6   1   1  113.28    4.69
   6   1   1  117.13    4.83
  -7  -1  -1   56.73    2.71
  -7  -1  -1   56.78    2.74
  -7  -1  -1   54.37    2.51
   7   1   1   56.08    2.55
  -8  -1  -1   10.57    1.02
  -8  -1  -1   10.30    1.01
  -8  -1  -1    9.19    0.72
  -9  -1  -1    8.81    0.83
  -9  -1  -1    8.54    1.08
  -9  -1  -1   10.40    1.01
 -10  -1  -1   13.09    1.07
 -10  -1  -1   12.39    1.33
 -11  -1  -1    0.67    0.87
 -11  -1  -1    0.26    0.59
 -10   2   1    0.37    0.70
  -9   2   1   13.24    1.23
  -9   2   1   13.95    1.27
   8  -2  -1   35.02    2.02
  -8   2   1   34.07    1.98
  -8   2   1   35.25    1.75
   7  -2  -1   27.13    1.65
  -7   2   1   26.05    1.54
  -7   2   1   27.33    1.38
  -7   2   1   23.77    1.44
   6  -2  -1   21.96    1.36
  -6   2   1   22.69    1.19
  -6   2   1   21.47    1.21
  -6   2   1   20.76    1.28
  -6   2   1   21.23    1.14
   5  -2  -1    1.21    0.46
  -5   2   1    1.37    0.25
  -5   2   1    1.48    0.18
  -5   2   1    1.52    0.30
  -5   2   1    1.52    0.24
  -5   2   1    1.36    0.38
   4  -2  -1   21.09    1.21
  -4   2   1   22.01    1.10
  -4   2   1   21.86    1.10
  -4   2   1   19.96    1.11
   3  -2  -1    0.90    0.27
  -3   2   1    1.06    0.17
  -3   2   1    0.58    0.23
  -3   2   1    0.84    0.16
  -3   2   1    0.74    0.15
   2  -2  -1  100.25    4.16
  -2   2   1   96.29    4.04
  -2   2   1  101.49    4.08
  -2   2   1  103.55    4.14
   1  -2  -1    1.62    0.13
   1  -2  -1    1.61    0.29
  -1   2   1    1.46    0.13
  -1   2   1    1.53    0.14
  -1   2   1    1.46    0.19
   0  -2  -1  107.21    4.39
   0  -2  -1  107.24    4.41
   0   2   1  109.09    4.39
   0   2   1  113.28    4.40
  -1  -2  -1    0.06    0.07
  -1  -2  -1    0.10    0.08
   1   2   1    0.01    0.10
   1   2   1    0.11    0.07
   1   2   1    0.04    0.08
  -2  -2  -1  263.34   10.41
  -2  -2  -1  261.90   10.39
   2   2   1  267.80   10.48
   2   2   1  256.22   10.40
   2   2   1  256.06   10.39
  -3  -2  -1  147.26    6.07
  -3  -2  -1  151.32    5.95
  -3  -2  -1  146.82    6.03
   3   2   1  148.50    6.05
   3   2   1  148.47    5.96
  -4  -2  -1  110.43    4.79
  -4  -2  -1  119.43    4.66
  -4  -2  -1  113.64    4.77
   4   2   1  113.73    4.55
   4   2   1  113.51    4.75
  -5  -2  -1   67.32    3.06
  -5  -2  -1   65.99    3.07
  -5  -2  -1   69.66    2.90
   5   2   1   70.59    2.77
  -6  -2  -1    4.56    0.38
  -6  -2  -1    4.06    0.70
  -6  -2  -1    5.91    0.73
   6   2   1    4.19    0.39
  -7  -2  -1    6.02    0.52
  -7  -2  -1    6.96    0.86
  -7  -2  -1    6.22    0.84
   7   2   1    7.12    0.54
  -8  -2  -1   40.22    2.20
  -8  -2  -1   39.34    1.91
  -8  -2  -1   43.76    2.26
   8   2   1   38.86    1.95
  -9  -2  -1   46.52    2.40
  -9  -2  -1   44.04    2.39
  -9  -2  -1   41.40    2.09
   9   2   1   43.06    2.11
 -10  -2  -1    9.16    1.56
 -10  -2  -1    5.90    0.80
 -11  -2  -1   33.94    1.92
 -11  -2  -1   34.43    2.30
 -10   3   1    9.79    1.52
  -9   3   1    3.89    0.81
  -8   3   1   16.58    1.02
  -8   3   1   17.88    1.38
   7  -3  -1    0.53    0.52
  -7   3   1    0.13    0.34
  -7   3   1    0.57    0.47
  -7   3   1    0.60    0.37
   6  -3  -1    0.92    0.53
  -6   3   1    1.11    0.44
  -6   3   1    1.29    0.33
  -6   3   1    1.34    0.21
  -6   3   1    1.36    0.28
   5  -3  -1    3.95    0.72
  -5   3   1    3.47    0.61
  -5   3   1    3.76    0.39
  -5   3   1    4.26    0.47
  -5   3   1    4.84    0.44
   4  -3  -1   18.82    1.16
  -4   3   1   18.12    0.97
  -4   3   1   18.21    0.97
  -4   3   1   18.09    0.99
  -4   3   1   17.06    0.90
   3  -3  -1   32.39    1.67
  -3   3   1   32.73    1.49
  -3   3   1   33.61    1.53
  -3   3   1   34.22    1.59
   2  -3  -1   32.13    1.56
  -2   3   1   31.93    1.42
  -2   3   1   31.52    1.35
  -2   3   1   31.54    1.49
   1  -3  -1    1.67    0.19
   1  -3  -1    1.57    0.29
  -1   3   1    1.75    0.22
  -1   3   1    1.11    0.29
  -1   3   1    1.55    0.19
   0  -3  -1    1.61    0.27
   0  -3  -1    1.57    0.17
   0  -3  -1    1.98    0.10
   0   3   1    1.47    0.19
   0   3   1    1.96    0.21
   0   3   1    1.43    0.29
  -1  -3  -1   16.72    0.91
  -1  -3  -1   18.01    0.84
   1   3   1   17.06    0.80
   1   3   1   16.98    0.88
   1   3   1   17.16    0.87
  -2  -3  -1    5.12    0.41
  -2  -3  -1    6.15    0.38
  -2  -3  -1    6.03    0.49
   2   3   1    5.87    0.33
   2   3   1    5.91    0.43
   2   3   1    5.96    0.47
  -3  -3  -1   12.11    0.83
  -3  -3  -1   12.45    0.75
  -3  -3  -1   12.20    0.65
   3   3   1   11.51    0.54
   3   3   1   12.81    0.73
   3   3   1   12.53    0.73
  -4  -3  -1   86.43    3.64
  -4  -3  -1   87.74    3.54
  -4  -3  -1   82.29    3.70
   4   3   1   80.77    3.65
   4   3   1   86.88    3.55
  -5  -3  -1   41.07    2.04
  -5  -3  -1   41.11    2.08
  -5  -3  -1   43.69    1.89
   5   3   1   42.13    1.98
  -6  -3  -1   38.40    2.01
  -6  -3  -1   38.76    2.05
  -6  -3  -1   39.18    1.78
   6   3   1   38.62    1.88
  -7  -3  -1  107.56    4.58
  -7  -3  -1  110.02    4.81
  -7  -3  -1  111.96    4.86
   7   3   1  104.84    4.67
  -8  -3  -1   -0.47    0.29
  -8  -3  -1    0.12    0.43
  -8  -3  -1    0.01    0.51
   8   3   1    0.06    0.30
   8   3   1   -0.12    0.32
  -9  -3  -1   42.88    2.27
  -9  -3  -1   40.81    2.29
  -9  -3  -1   36.21    1.92
 -10  -3  -1   10.77    1.27
 -10  -3  -1    9.54    0.90
 -11  -3  -1    0.80    0.79
 -11  -3  -1    0.13    0.58
  -9   4   1   11.77    1.40
  -9   4   1   10.42    1.41
  -8   4   1    1.02    0.64
  -8   4   1    0.44    0.59
  -7   4   1   10.14    1.00
  -7   4   1    9.33    0.73
  -7   4   1    9.07    0.86
  -7   4   1    8.66    0.59
   6  -4  -1   13.79    1.17
  -6   4   1   14.22    1.02
  -6   4   1   13.11    0.88
  -6   4   1   13.70    0.86
   5  -4  -1    0.48    0.47
  -5   4   1    0.51    0.34
  -5   4   1    0.59    0.29
  -5   4   1    0.90    0.22
  -5   4   1    0.09    0.26
   4  -4  -1  136.00    5.75
  -4   4   1  129.81    5.46
  -4   4   1  133.25    5.57
  -4   4   1  137.84    5.67
   3  -4  -1    5.12    0.70
  -3   4   1    4.61    0.38
  -3   4   1    5.18    0.48
  -3   4   1    5.70    0.68
  -3   4   1    5.44    0.42
   2  -4  -1   26.80    1.45
  -2   4   1   25.02    1.41
  -2   4   1   29.26    1.35
  -2   4   1   28.07    1.13
  -2   4   1   25.86    1.26
   1  -4  -1  308.88   12.39
  -1   4   1  308.75   12.39
  -1   4   1  310.56   12.38
  -1   4   1  308.45   12.32
   0  -4  -1    8.86    0.59
   0   4   1   10.97    0.64
   0   4   1   11.39    0.75
   0   4   1   12.20    0.64
  -1  -4  -1  157.16    6.26
  -1  -4  -1  149.51    6.11
   1   4   1  153.20    6.30
   1   4   1  155.99    6.31
   1   4   1  154.46    6.22
  -2  -4  -1   19.42    0.93
  -2  -4  -1   17.90    0.90
  -2  -4  -1   17.13    1.06
   2   4   1   17.44    0.99
   2   4   1   17.78    0.86
   2   4   1   18.00    0.97
  -3  -4  -1    1.75    0.20
  -3  -4  -1    1.63    0.32
  -3  -4  -1    1.82    0.38
   3   4   1    1.67    0.35
   3   4   1    1.91    0.18
  -4  -4  -1   60.98    2.70
  -4  -4  -1   61.15    2.62
  -4  -4  -1   58.58    2.81
   4   4   1   58.47    2.72
   4   4   1   62.64    2.66
   4   4   1   59.89    2.44
  -5  -4  -1   88.49    3.97
  -5  -4  -1   92.81    3.99
  -5  -4  -1   92.06    4.10
   5   4   1   91.63    3.99
   5   4   1   91.55    3.87
  -6  -4  -1    0.60    0.46
  -6  -4  -1    0.41    0.18
  -6  -4  -1    0.18    0.42
   6   4   1    0.32    0.22
  -7  -4  -1   26.86    1.35
  -7  -4  -1   27.62    1.72
  -7  -4  -1   27.67    1.64
   7   4   1   23.84    1.39
  -8  -4  -1   13.76    1.24
  -8  -4  -1   13.05    1.14
  -8  -4  -1   13.73    0.85
   8   4   1   11.82    0.99
  -9  -4  -1    0.90    0.45
  -9  -4  -1    0.64    0.40
   9   4   1   -0.06    0.45
 -10  -4  -1    1.35    0.66
 -10  -4  -1    0.81    0.44
 -11  -4  -1    9.77    1.30
 -11  -4  -1    7.50    0.95
  -8   5   1   22.07    1.69
  -7   5   1   15.27    1.34
  -7   5   1   15.85    1.23
  -6   5   1   24.04    1.38
  -6   5   1   25.31    1.60
  -6   5   1   22.59    1.34
  -6   5   1   25.32    1.25
  -5   5   1   33.66    1.60
  -5   5   1   33.47    1.68
  -5   5   1   33.52    1.90
   4  -5  -1   19.10    1.27
  -4   5   1   18.97    0.98
  -4   5   1   19.37    1.33
   3  -5  -1   39.82    2.07
  -3   5   1   38.30    1.83
  -3   5   1   40.19    1.63
  -3   5   1   40.78    2.04
  -3   5   1   38.91    1.79
  -3   5   1   37.87    1.89
   2  -5  -1   21.55    1.28
   2  -5  -1   22.45    1.11
  -2   5   1   21.66    1.32
  -2   5   1   22.32    1.14
  -2   5   1   20.86    1.10
   1  -5  -1    8.84    0.57
  -1   5   1    7.81    0.76
  -1   5   1    8.31    0.54
  -1   5   1    8.13    0.54
   0  -5  -1   28.77    1.31
   0   5   1   27.86    1.40
   0   5   1   29.31    1.39
   0   5   1   27.66    1.51
  -1  -5  -1  153.85    5.90
  -1  -5  -1  148.75    6.11
   1   5   1  149.18    6.18
   1   5   1  136.19    6.29
   1   5   1  155.61    6.09
  -2  -5  -1   55.43    2.51
  -2  -5  -1   58.59    2.44
   2   5   1   57.77    2.61
   2   5   1   57.23    2.46
   2   5   1   57.83    2.62
  -3  -5  -1  178.92    7.07
  -3  -5  -1  175.93    7.28
  -3  -5  -1  173.63    7.11
   3   5   1  174.44    6.99
   3   5   1  169.67    7.15
   3   5   1  172.12    7.23
  -4  -5  -1   15.63    0.88
  -4  -5  -1   16.20    1.04
  -4  -5  -1   17.03    1.20
   4   5   1   16.93    1.07
   4   5   1   15.66    0.95
   4   5   1   16.62    0.77
  -5  -5  -1  149.03    6.50
  -5  -5  -1  149.87    6.25
  -5  -5  -1  153.13    6.34
   5   5   1  149.47    6.27
   5   5   1  148.35    6.40
   5   5   1  157.41    6.00
  -6  -5  -1   25.59    1.25
  -6  -5  -1   24.21    1.51
  -6  -5  -1   24.17    1.61
   6   5   1   22.77    1.34
   6   5   1   26.11    1.42
  -7  -5  -1    0.26    0.44
  -7  -5  -1    0.19    0.27
  -7  -5  -1    0.64    0.51
   7   5   1   -0.52    0.37
  -8  -5  -1    2.51    0.63
  -8  -5  -1    1.81    0.38
  -9  -5  -1   10.93    1.11
  -9  -5  -1    8.09    0.91
  -9  -5  -1   10.85    0.98
 -10  -5  -1    2.10    0.50
 -10  -5  -1    1.76    0.67
 -11  -5  -1    3.96    0.98
 -11  -5  -1    3.56    0.66
  -8   6   1    5.83    1.02
  -7   6   1    0.15    0.58
  -6   6   1    0.58    0.41
  -6   6   1    0.26    0.37
  -6   6   1    0.16    0.48
  -5   6   1    1.93    0.38
  -5   6   1    1.82    0.37
  -5   6   1    1.56    0.44
  -4   6   1    1.26    0.24
  -4   6   1    1.94    0.60
  -3   6   1    3.45    0.47
  -2   6   1    2.31    0.32
  -2   6   1    2.23    0.57
  -1   6   1  101.99    4.31
  -1   6   1  103.44    4.34
  -1   6   1   96.80    4.43
   0  -6  -1   12.32    0.75
   0   6   1   11.64    0.98
   0   6   1   11.87    0.74
   0   6   1   12.17    0.75
  -1  -6  -1   74.17    3.02
   1   6   1   74.13    3.43
   1   6   1   77.39    3.28
   1   6   1   78.61    3.40
  -2  -6  -1   39.53    1.67
  -2  -6  -1   38.67    1.80
   2   6   1   37.43    1.94
   2   6   1   34.76    1.81
   2   6   1   37.69    1.86
  -3  -6  -1    3.68    0.52
  -3  -6  -1    3.73    0.35
   3   6   1    3.80    0.66
   3   6   1    3.25    0.40
   3   6   1    3.71    0.32
  -4  -6  -1   97.57    4.08
  -4  -6  -1   93.18    4.05
  -4  -6  -1   95.24    4.31
   4   6   1   89.39    4.17
   4   6   1   96.58    3.90
   4   6   1   95.70    4.15
  -5  -6  -1   30.20    1.61
  -5  -6  -1   28.01    1.45
  -5  -6  -1   28.91    1.81
   5   6   1   30.94    1.29
   5   6   1   26.37    1.54
   5   6   1   28.87    1.61
  -6  -6  -1    3.69    0.48
   6   6   1    2.73    0.40
  -7  -6  -1   75.51    3.44
  -7  -6  -1   78.72    3.67
  -7  -6  -1   79.72    3.84
  -8  -6  -1   42.19    2.13
  -8  -6  -1   45.78    2.43
  -8  -6  -1   46.41    2.55
  -9  -6  -1    7.68    1.00
  -9  -6  -1    8.52    0.90
 -10  -6  -1   25.26    1.79
 -10  -6  -1   25.19    1.60
  -7   7   1    1.51    0.78
  -6   7   1    2.14    0.59
  -5   7   1    2.40    0.53
  -4   7   1    3.40    0.65
  -4   7   1    2.98    0.50
  -3   7   1   21.15    1.19
  -3   7   1   22.83    1.51
  -2   7   1    0.81    0.50
  -2   7   1    0.60    0.26
   1  -7  -1   45.78    1.94
  -1   7   1   43.59    2.27
  -1   7   1   40.80    2.01
  -1   7   1   37.98    2.01
   0  -7  -1   11.70    0.79
   0   7   1   11.72    1.04
   0   7   1   12.07    0.78
   0   7   1   11.02    0.73
  -1  -7  -1    0.16    0.31
   1   7   1    0.25    0.21
   1   7   1    0.78    0.26
   1   7   1    0.39    0.45
   2   7   1    2.76    0.61
   2   7   1    3.14    0.35
   2   7   1    2.68    0.41
  -3  -7  -1   11.02    0.78
   3   7   1   11.37    1.01
   3   7   1   10.55    0.67
   3   7   1    9.75    0.76
  -4  -7  -1   18.54    1.13
  -4  -7  -1   24.22    1.27
   4   7   1   21.31    1.39
   4   7   1   17.18    1.15
   4   7   1   22.86    1.09
  -5  -7  -1   11.33    1.00
   5   7   1   11.81    1.09
   5   7   1   11.13    0.63
  -6  -7  -1   84.54    3.77
  -6  -7  -1   72.62    3.56
  -6  -7  -1   83.08    4.02
   6   7   1   81.25    3.74
   6   7   1   87.54    3.33
  -7  -7  -1    1.90    0.58
  -7  -7  -1    1.36    0.44
  -7  -7  -1    1.83    0.55
   7   7   1    1.71    0.65
  -8  -7  -1   38.82    2.18
  -8  -7  -1   35.18    2.20
  -9  -7  -1    5.38    0.94
 -10  -7  -1    1.17    0.64
  -6   8   1    0.17    0.74
  -5   8   1   46.44    2.57
  -4   8   1    0.02    0.48
  -3   8   1   54.41    2.78
  -3   8   1   51.43    2.48
  -2   8   1    4.61    0.63
  -2   8   1    4.05    0.70
   1  -8  -1    0.10    0.36
  -1   8   1    0.68    0.35
   0  -8  -1   18.02    1.06
   0   8   1   16.10    1.12
   0   8   1   16.22    1.29
   0   8   1   18.88    1.07
  -1  -8  -1   28.00    1.43
   1   8   1   25.24    1.49
   1   8   1   26.84    1.41
   1   8   1   27.44    1.71
   2   8   1    3.13    0.41
   2   8   1    2.81    0.66
   2   8   1    1.90    0.41
  -3  -8  -1    8.63    0.67
   3   8   1    8.34    1.01
   3   8   1    7.92    0.58
  -4  -8  -1   44.98    2.18
   4   8   1   47.95    2.11
   4   8   1   43.54    2.40
  -5  -8  -1   12.34    1.08
   5   8   1   10.36    0.90
   5   8   1   12.77    1.17
  -6  -8  -1    9.37    1.06
   6   8   1    7.56    0.53
   6   8   1    7.70    1.02
  -7  -8  -1    0.42    0.73
   7   8   1    1.82    0.66
  -8  -8  -1    0.34    0.58
  -9  -8  -1    5.22    0.95
  -4   9   1    6.50    1.02
  -3   9   1   14.15    1.13
  -2   9   1   -0.63    0.46
  -1   9   1   55.88    2.90
   0  -9  -1   18.64    1.15
   0   9   1   17.43    1.29
  -1  -9  -1   12.06    0.97
   1   9   1   12.62    1.10
  -2  -9  -1   43.94    2.17
   2   9   1   43.09    2.24
   2   9   1   43.59    2.43
   3   9   1    6.74    0.90
   3   9   1    9.07    0.74
  -4  -9  -1   17.84    1.12
   4   9   1   15.58    1.29
   4   9   1   17.14    1.05
  -5  -9  -1    3.73    0.70
   5   9   1    5.95    0.92
  -6  -9  -1    3.17    0.77
   6   9   1    2.35    0.66
  -7  -9  -1    2.48    0.84
   7   9   1    1.06    0.65
  -8  -9  -1   17.54    1.63
   8   9   1   17.09    1.59
  -9  -9  -1    3.31    0.99
  -3  10   1    2.11    0.70
  -2  10   1   16.61    1.26
  -1  10   1    4.21    0.79
   0  10   1   28.25    1.77
  -1 -10  -1   23.18    1.43
   1  10   1   22.60    1.58
  -2 -10  -1    0.14    0.56
   2  10   1    0.57    0.47
  -3 -10  -1   15.43    1.30
   3  10   1   14.97    1.22
   4  10   1   14.42    1.17
   5  10   1    2.12    0.60
  -6 -10  -1   24.43    1.81
   6  10   1   20.55    1.58
  -7 -10  -1   14.24    1.61
   7  10   1   11.47    1.40
   0  11   1   -0.69    0.71
   1  11   1   -0.40    0.68
   2  11   1    9.08    1.05
   3  11   1   11.44    1.12
   4  11   1    5.39    0.81
   5  11   1   16.39    1.42
   4  11  -2   -0.04    0.74
  -4 -11   2    0.80    0.90
  -3 -11   2   -0.69    0.97
   2  11  -2    6.82    1.08
   1  11  -2    8.71    1.08
   6  10  -2   11.40    1.21
   5  10  -2   19.99    1.52
   4  10  -2    7.63    0.90
   3  10  -2   40.19    2.25
  -3 -10   2   39.75    2.34
   2  10  -2    2.13    0.54
  -2 -10   2    1.88    0.77
   1  10  -2   18.74    1.39
  -1 -10   2   21.95    1.58
   0  10  -2    6.39    0.86
   0 -10   2    5.94    1.13
  -1  10  -2   -0.47    0.59
   1 -10   2    0.73    0.94
  -2  10  -2   12.54    1.18
  -8  -9   2    0.76    0.90
   7   9  -2   17.64    1.38
  -7  -9   2   18.93    1.67
   6   9  -2    6.07    0.93
  -6  -9   2    6.19    0.97
   5   9  -2   21.45    1.50
   4   9  -2   17.42    1.20
   4   9  -2   17.61    1.32
   3   9  -2    0.51    0.43
   2   9  -2    7.64    0.89
  -2  -9   2    8.34    1.03
   1   9  -2    9.32    0.93
  -1  -9   2    8.91    1.04
   0   9  -2    1.29    0.42
   0  -9   2    0.86    0.58
  -1   9  -2   34.30    2.03
   1  -9   2   34.15    1.96
  -2   9  -2   10.14    1.01
   2  -9   2   11.47    1.21
  -3   9  -2   10.88    1.06
  -4   9  -2   34.90    2.17
  -9  -8   2   11.51    1.25
  -8  -8   2   -0.03    0.58
   7   8  -2   32.55    1.95
  -7  -8   2   33.38    2.03
   6   8  -2    0.45    0.46
  -6  -8   2   -0.01    0.57
   5   8  -2    2.42    0.58
   5   8  -2    2.87    0.54
  -5  -8   2    1.44    0.61
   4   8  -2    4.04    0.75
   4   8  -2    4.30    0.56
  -4  -8   2    3.64    0.62
   3   8  -2    4.17    0.51
  -3  -8   2    3.45    0.64
   2   8  -2    5.07    0.92
   2   8  -2    4.51    0.55
   1   8  -2   10.04    1.16
  -1  -8   2    8.69    0.94
   0  -8   2   15.27    1.17
  -1   8  -2    3.02    0.64
   1  -8   2    4.10    0.68
  -2   8  -2   26.63    1.72
   2  -8   2   27.79    1.63
  -3   8  -2    1.02    0.44
   3  -8   2   -0.10    0.54
  -4   8  -2    1.52    0.56
  -5   8  -2    8.46    1.03
  -6   8  -2    2.91    0.79
  -9  -7   2   35.00    2.11
  -8  -7   2   10.58    1.10
  -7  -7   2    2.21    0.66
   6   7  -2   24.26    1.79
   6   7  -2   27.17    1.31
  -6  -7   2   27.02    1.65
   5   7  -2    6.44    0.86
   5   7  -2    6.34    0.53
  -5  -7   2    6.10    0.81
   4   7  -2    0.73    0.24
   4   7  -2    0.85    0.51
  -4  -7   2    1.36    0.48
  -4  -7   2   -0.10    0.36
   3   7  -2   31.60    1.45
   3   7  -2   30.58    1.73
   3   7  -2   23.88    1.52
  -3  -7   2   30.52    1.45
  -3  -7   2   23.20    1.44
   2   7  -2    1.11    0.25
   2   7  -2    0.44    0.35
   2   7  -2    1.15    0.51
  -2  -7   2    0.72    0.29
  -2  -7   2   -0.11    0.30
   1   7  -2   28.09    1.55
   1   7  -2   29.17    1.47
   1   7  -2   29.27    1.69
  -1  -7   2   22.82    1.40
  -1  -7   2   28.99    1.56
   0   7  -2    4.87    0.52
   0   7  -2    5.50    0.57
   0   7  -2    6.10    0.85
   0  -7   2    6.52    0.72
  -1   7  -2    0.97    0.48
  -1   7  -2    0.86    0.34
   1  -7   2    1.11    0.46
  -2   7  -2   13.51    0.94
  -2   7  -2   13.18    1.14
   2  -7   2   14.79    1.09
  -3   7  -2    0.53    0.48
  -3   7  -2    1.11    0.42
   3  -7   2    0.50    0.50
  -4   7  -2    5.39    0.85
  -5   7  -2    0.31    0.48
  -6   7  -2    8.41    1.28
  -6   7  -2    8.21    1.12
  -7   7  -2    3.32    0.88
 -10  -6   2   10.68    1.05
  -9  -6   2    1.83    0.53
  -8  -6   2    0.81    0.47
  -7  -6   2   31.41    1.87
   6   6  -2   21.08    1.43
  -6  -6   2   22.99    1.51
   5   6  -2    5.17    0.62
  -5  -6   2    6.26    0.59
   4   6  -2  158.61    6.78
   4   6  -2  156.81    6.67
  -4  -6   2  163.84    6.57
  -4  -6   2  152.18    6.61
   3   6  -2    1.83    0.52
   3   6  -2    0.86    0.28
  -3  -6   2    1.12    0.37
  -3  -6   2    0.45    0.23
   2   6  -2   81.81    3.68
   2   6  -2   85.76    3.52
   2   6  -2   79.43    3.68
  -2  -6   2   80.56    3.39
  -2  -6   2   78.05    3.55
   1   6  -2   13.57    1.08
   1   6  -2   15.79    0.86
   1   6  -2   13.98    0.91
  -1  -6   2   13.77    0.84
   0   6  -2   27.21    1.59
   0   6  -2   28.77    1.50
   0   6  -2   28.21    1.39
   0  -6   2   24.58    1.33
   0  -6   2   27.01    1.48
  -1   6  -2   53.37    2.60
  -1   6  -2   50.06    2.43
  -1   6  -2   54.46    2.52
   1  -6   2   55.01    2.48
  -2   6  -2   10.24    0.96
  -2   6  -2    8.16    0.66
   2  -6   2   10.23    0.86
  -3   6  -2    1.76    0.56
   3  -6   2    1.62    0.50
  -4   6  -2   53.55    2.70
  -5   6  -2   16.95    1.34
  -6   6  -2    8.46    1.09
  -6   6  -2    8.57    1.09
  -6   6  -2    7.63    0.71
  -7   6  -2   22.93    1.72
  -7   6  -2   22.17    1.62
  -8   6  -2    0.76    0.84
 -10  -5   2   11.10    1.01
   9   5  -2    9.92    1.19
  -9  -5   2    8.79    0.90
   8   5  -2   41.31    1.86
  -8  -5   2   40.56    2.25
   7   5  -2    3.04    0.54
  -7  -5   2    2.11    0.44
  -7  -5   2    2.84    0.62
   6   5  -2   60.11    2.92
  -6  -5   2   60.38    2.83
  -6  -5   2   65.64    2.99
   5   5  -2    1.57    0.50
   5   5  -2    0.80    0.28
  -5  -5   2    0.49    0.25
  -5  -5   2    1.73    0.49
   4   5  -2    6.42    0.54
   4   5  -2    6.57    0.76
  -4  -5   2    5.92    0.50
  -4  -5   2    6.62    0.76
   3   5  -2   15.92    0.97
   3   5  -2   16.41    1.09
  -3  -5   2   16.10    0.91
  -3  -5   2   16.66    0.97
   2   5  -2   36.72    1.87
   2   5  -2   39.23    1.88
   2   5  -2   35.53    1.66
  -2  -5   2   37.19    1.77
  -2  -5   2   37.55    1.70
   1   5  -2    1.60    0.18
   1   5  -2    1.57    0.28
   1   5  -2    1.27    0.42
  -1  -5   2    1.91    0.31
  -1  -5   2    1.94    0.20
   0   5  -2  186.75    7.44
   0   5  -2  168.48    7.16
   0   5  -2  179.38    7.48
   0   5  -2  189.99    7.55
   0  -5   2  181.87    7.43
   0  -5   2  181.57    7.41
  -1   5  -2   28.43    1.38
  -1   5  -2   26.78    1.50
   1  -5   2   27.11    1.41
   1  -5   2   27.04    1.36
  -2   5  -2  248.29    9.98
  -2   5  -2  241.23    9.97
   2  -5   2  243.07    9.88
  -3   5  -2  102.25    4.49
  -3   5  -2   98.80    4.11
  -3   5  -2  103.15    4.47
   3  -5   2  107.72    4.44
  -4   5  -2    4.30    0.45
  -4   5  -2    4.02    0.72
  -4   5  -2    3.79    0.44
  -5   5  -2   40.82    1.91
  -5   5  -2   43.62    2.20
  -5   5  -2   41.76    2.08
  -6   5  -2   10.07    1.04
  -6   5  -2    9.40    1.02
  -6   5  -2    9.59    0.89
  -6   5  -2   10.47    0.89
  -7   5  -2    0.02    0.50
  -7   5  -2    0.54    0.56
  -7   5  -2    0.11    0.61
  -8   5  -2    6.83    1.06
  -8   5  -2    7.91    1.46
 -10  -4   2    5.44    0.79
   9   4  -2    1.85    0.62
   9   4  -2    1.70    0.44
  -9  -4   2    1.77    0.50
   8   4  -2    8.36    0.74
   8   4  -2    8.07    1.00
  -8  -4   2    9.54    0.96
   7   4  -2    1.20    0.35
   7   4  -2    1.87    0.40
  -7  -4   2    1.38    0.58
  -7  -4   2    1.53    0.53
  -7  -4   2    0.89    0.35
   6   4  -2   17.89    1.07
  -6  -4   2   18.73    1.33
  -6  -4   2   17.61    1.04
  -6  -4   2   20.30    1.30
   5   4  -2    0.70    0.21
  -5  -4   2    0.35    0.20
  -5  -4   2    1.16    0.42
   4   4  -2   43.02    2.04
   4   4  -2   43.05    2.10
   4   4  -2   43.72    2.11
  -4  -4   2   46.26    2.13
  -4  -4   2   45.11    2.07
   3   4  -2   16.17    0.88
   3   4  -2   16.74    0.97
   3   4  -2   16.52    1.04
  -3  -4   2   17.15    0.93
  -3  -4   2   17.17    0.99
   2   4  -2   41.69    2.01
   2   4  -2   43.35    2.05
   2   4  -2   42.44    1.89
  -2  -4   2   44.01    2.00
  -2  -4   2   42.89    1.90
   1   4  -2   11.96    0.77
   1   4  -2   11.60    0.60
   1   4  -2   11.63    0.81
  -1  -4   2   10.98    0.75
  -1  -4   2   12.14    0.64
   0   4  -2   85.75    3.62
   0   4  -2   84.76    3.39
   0  -4   2   87.23    3.58
   0  -4   2   78.27    3.64
  -1   4  -2   30.09    1.22
  -1   4  -2   29.93    1.42
  -1   4  -2   27.37    1.46
   1  -4   2   28.72    1.43
  -2   4  -2    0.30    0.32
  -2   4  -2    0.59    0.15
   2  -4   2    0.36    0.30
  -3   4  -2    1.10    0.21
  -3   4  -2    1.09    0.23
  -3   4  -2    1.24    0.40
  -3   4  -2    1.02    0.22
   3  -4   2    1.52    0.43
  -4   4  -2   67.35    3.09
  -4   4  -2   66.81    2.93
  -4   4  -2   69.89    3.12
  -4   4  -2   72.76    3.13
  -5   4  -2   22.21    1.34
  -5   4  -2   18.66    1.15
  -5   4  -2   22.32    1.22
  -5   4  -2   20.55    1.17
  -6   4  -2    0.75    0.44
  -6   4  -2    0.85    0.48
  -6   4  -2    0.77    0.48
  -6   4  -2    0.44    0.33
  -7   4  -2   43.66    2.26
  -7   4  -2   41.63    2.18
  -8   4  -2    6.85    1.05
  -8   4  -2    7.12    1.07
  -8   4  -2    7.93    1.10
  -9   4  -2   18.85    1.64
  -9   4  -2   15.55    1.59
 -11  -3   2   -0.50    0.67
 -10  -3   2   14.53    1.11
   9   3  -2    9.63    0.92
  -9  -3   2   10.38    0.93
   8   3  -2    0.64    0.42
   8   3  -2    0.23    0.35
   8   3  -2    0.52    0.44
  -8  -3   2    0.59    0.44
  -8  -3   2   -0.44    0.44
  -8  -3   2    0.44    0.54
   7   3  -2   10.83    0.77
   7   3  -2   12.63    0.96
   7   3  -2   12.80    0.84
  -7  -3   2   10.41    0.82
  -7  -3   2   11.97    1.10
  -7  -3   2   11.12    1.04
   6   3  -2    1.59    0.24
  -6  -3   2    2.50    0.55
  -6  -3   2    2.57    0.50
  -6  -3   2    1.95    0.36
   5   3  -2    3.79    0.34
  -5  -3   2    3.66    0.61
  -5  -3   2    3.05    0.61
  -5  -3   2    2.60    0.36
   4   3  -2  154.29    6.27
   4   3  -2  149.44    6.31
   4   3  -2  154.34    6.24
  -4  -3   2  147.29    6.25
  -4  -3   2  151.37    6.31
  -4  -3   2  151.67    6.27
   3   3  -2   43.22    1.99
   3   3  -2   42.56    2.00
   3   3  -2   41.28    1.93
  -3  -3   2   45.11    1.98
  -3  -3   2   43.62    1.97
   2   3  -2   33.65    1.60
   2   3  -2   31.60    1.57
   2   3  -2   32.71    1.50
  -2  -3   2   35.70    1.57
  -2  -3   2   33.34    1.52
   1   3  -2  103.56    4.49
   1   3  -2  111.55    4.41
   1   3  -2  114.48    4.57
  -1  -3   2   99.52    4.44
  -1  -3   2  115.08    4.51
   0   3  -2    9.83    0.66
   0   3  -2   10.10    0.51
   0  -3   2   10.76    0.59
  -1   3  -2    1.05    0.19
  -1   3  -2    1.22    0.29
  -1   3  -2    1.27    0.14
   1  -3   2    1.37    0.17
   1  -3   2    1.29    0.29
  -2   3  -2  109.86    4.45
  -2   3  -2  106.94    4.45
  -2   3  -2  100.14    4.40
   2  -3   2  108.28    4.43
  -3   3  -2   21.42    1.09
  -3   3  -2   20.50    1.12
  -3   3  -2   20.90    1.11
   3  -3   2   21.48    1.18
  -4   3  -2    1.77    0.26
  -5   3  -2   79.22    3.44
  -5   3  -2   76.50    3.40
  -5   3  -2   78.70    3.44
  -5   3  -2   78.11    3.44
  -5   3  -2   80.41    3.49
  -6   3  -2   32.14    1.67
  -6   3  -2   30.52    1.65
  -6   3  -2   31.30    1.66
  -6   3  -2   31.80    1.60
  -6   3  -2   29.51    1.57
  -7   3  -2   13.14    0.93
  -7   3  -2   13.98    1.10
  -7   3  -2   13.40    1.06
  -7   3  -2   13.47    1.09
  -7   3  -2   10.88    0.86
  -8   3  -2    6.08    0.97
  -8   3  -2    5.24    0.83
  -8   3  -2    5.44    0.97
  -9   3  -2    0.94    0.72
  -9   3  -2    1.28    0.70
  -9   3  -2    0.87    0.70
 -10   3  -2    0.79    0.83
 -11  -2   2    2.60    0.65
 -10  -2   2    4.89    0.73
   9   2  -2    1.87    0.58
   9   2  -2    1.43    0.43
  -9  -2   2    1.49    0.64
  -9  -2   2    2.22    0.47
   8   2  -2   47.14    2.13
   8   2  -2   44.36    2.06
  -8  -2   2   38.17    2.13
  -8  -2   2   45.27    2.29
  -8  -2   2   41.23    2.54
   7   2  -2   27.42    1.42
   7   2  -2   27.13    1.36
  -7  -2   2   26.93    1.57
  -7  -2   2   26.86    1.61
  -7  -2   2   25.13    1.38
   6   2  -2   46.19    2.17
   6   2  -2   47.71    2.13
   6   2  -2   49.45    2.16
  -6  -2   2   47.12    2.29
  -6  -2   2   45.86    2.32
  -6  -2   2   45.97    2.21
   5   2  -2  118.59    5.07
   5   2  -2  121.92    5.15
   5   2  -2  121.52    4.95
  -5  -2   2  120.76    5.08
  -5  -2   2  121.03    5.10
  -5  -2   2  121.82    5.13
   4   2  -2   21.39    1.14
   4   2  -2   22.11    1.12
  -4  -2   2   21.53    1.20
  -4  -2   2   22.96    1.13
  -4  -2   2   21.44    1.20
   3   2  -2  122.93    5.01
   3   2  -2  120.74    5.00
  -3  -2   2  124.91    5.00
  -3  -2   2  117.60    4.98
  -3  -2   2  119.67    5.01
   2   2  -2  146.35    5.91
   2   2  -2  148.13    5.95
   2   2  -2  148.93    5.92
  -2  -2   2  139.25    5.89
  -2  -2   2  146.90    5.92
   1   2  -2   97.10    3.98
   1   2  -2   96.16    3.94
  -1  -2   2   97.60    3.98
   0   2  -2  273.32   10.94
   0   2  -2  280.30   10.97
   0  -2   2  264.14   10.96
   0  -2   2  273.81   10.82
  -1   2  -2  530.38   21.75
  -1   2  -2  547.29   21.81
   1  -2   2  535.42   21.87
   1  -2   2  543.63   21.68
  -2   2  -2  113.44    4.86
  -2   2  -2  123.88    4.92
  -2   2  -2  123.10    4.94
   2  -2   2  119.90    4.94
  -3   2  -2  266.68   10.49
  -3   2  -2  252.11   10.42
  -3   2  -2  270.34   10.52
   3  -2   2  257.47   10.52
  -4   2  -2  132.56    5.67
  -4   2  -2  132.14    5.49
  -4   2  -2  134.09    5.43
  -5   2  -2   67.23    2.99
  -5   2  -2   68.27    3.02
  -5   2  -2   65.80    2.98
  -5   2  -2   68.17    2.96
  -6   2  -2   23.34    1.28
  -6   2  -2   23.74    1.23
  -6   2  -2   23.07    1.35
  -6   2  -2   23.83    1.41
  -7   2  -2    3.07    0.60
  -7   2  -2    2.74    0.41
  -7   2  -2    2.31    0.58
  -8   2  -2    0.38    0.42
  -8   2  -2    0.81    0.55
  -8   2  -2    0.76    0.56
  -9   2  -2   18.23    1.45
  -9   2  -2   16.60    1.44
  -9   2  -2   17.89    1.38
 -10   2  -2    6.66    1.14
 -10   2  -2    5.41    1.06
 -11  -1   2    0.08    0.66
  10   1  -2    9.95    1.26
 -10  -1   2    7.52    0.88
   9   1  -2   10.54    1.07
  -9  -1   2    8.57    1.05
  -9  -1   2   10.20    0.94
   8   1  -2    6.58    0.86
   8   1  -2    6.05    0.57
  -8  -1   2    6.47    0.86
  -8  -1   2    6.38    0.84
   7   1  -2   34.03    1.70
   7   1  -2   35.34    1.61
  -7  -1   2   28.83    1.63
  -7  -1   2   33.15    1.74
  -7  -1   2   33.48    1.85
   6   1  -2    1.81    0.41
   6   1  -2    1.57    0.25
  -6  -1   2    1.65    0.47
  -6  -1   2    1.49    0.41
   5   1  -2   13.86    0.77
   5   1  -2   13.85    0.84
  -5  -1   2   13.88    0.92
  -5  -1   2   13.30    0.79
  -5  -1   2   13.82    0.86
   4   1  -2   39.61    1.76
   4   1  -2   39.35    1.76
   4   1  -2   40.43    1.76
  -4  -1   2   39.27    1.85
  -4  -1   2   38.22    1.80
  -4  -1   2   39.58    1.81
   3   1  -2   28.61    1.31
   3   1  -2   28.63    1.36
  -3  -1   2   28.28    1.33
  -3  -1   2   29.21    1.37
  -3  -1   2   28.47    1.33
   2   1  -2  120.76    4.80
   2   1  -2  115.02    4.77
  -2  -1   2  120.05    4.79
  -2  -1   2  116.09    4.79
   1   1  -2  269.94   10.72
  -1  -1   2  269.83   10.94
  -1  -1   2  273.82   10.73
   0   1  -2   44.49    1.85
   0   1  -2   45.28    1.87
   0  -1   2   43.37    1.85
   0  -1   2   46.10    1.87
  -1   1  -2   39.38    1.68
  -1   1  -2   38.83    1.62
   1  -1   2   38.90    1.61
  -2   1  -2  180.92    7.68
  -2   1  -2  191.48    7.63
  -2   1  -2  200.25    7.67
   2  -1   2  192.03    7.67
  -3   1  -2   14.63    0.78
  -3   1  -2   13.69    0.72
  -4   1  -2   98.86    4.38
  -4   1  -2  108.08    4.35
  -4   1  -2  108.78    4.44
  -5   1  -2  110.64    4.73
  -5   1  -2  113.59    4.76
  -5   1  -2  113.33    4.65
  -5   1  -2  110.26    4.71
  -6   1  -2    8.99    0.63
  -6   1  -2    9.29    0.83
  -6   1  -2    8.75    0.84
  -6   1  -2    8.81    0.61
  -7   1  -2   33.75    1.89
  -7   1  -2   35.06    1.85
  -7   1  -2   31.56    1.73
  -7   1  -2   34.48    1.65
  -8   1  -2   41.09    2.18
  -8   1  -2   40.04    1.99
  -8   1  -2   42.26    2.23
  -9   1  -2    5.27    0.85
  -9   1  -2    5.32    1.01
 -10   1  -2   19.93    1.53
 -10   1  -2   19.17    1.63
 -10   0   2    6.81    0.86
   9   0  -2   32.58    1.91
  -9   0   2   31.16    1.90
  -8   0   2    1.13    0.46
  -8   0   2    0.97    0.44
  -8   0   2    1.10    0.46
   7   0  -2   22.31    1.35
  -7   0   2   21.18    1.39
  -7   0   2   20.86    1.24
   6   0  -2    0.77    0.17
  -6   0   2    1.14    0.42
   5   0  -2    9.45    0.72
   5   0  -2    9.25    0.54
  -5   0   2    8.57    0.64
  -5   0   2    8.65    0.77
   4   0  -2    8.11    0.55
   4   0  -2    8.57    0.48
   4   0  -2    8.21    0.61
  -4   0   2    7.96    0.55
  -4   0   2    8.54    0.67
   3   0  -2  162.24    6.46
   3   0  -2  157.41    6.34
   3   0  -2  161.68    6.41
  -3   0   2  155.62    6.35
  -3   0   2  157.60    6.44
   2   0  -2   23.75    1.10
   2   0  -2   24.07    1.03
  -2   0   2   23.85    1.11
  -2   0   2   23.22    1.02
   1   0  -2   60.86    2.48
   1   0  -2   63.41    2.50
  -1   0   2   60.00    2.49
  -1   0   2   59.01    2.49
   0   0  -2  125.84    5.33
   0   0  -2  134.63    5.22
   0   0   2  132.89    5.28
   0   0   2  130.79    5.39
  -1   0  -2    6.48    0.35
  -1   0  -2    7.00    0.39
  -1   0  -2    7.29    0.32
   1   0   2    7.14    0.41
   1   0   2    7.04    0.32
  -2   0  -2    0.72    0.13
  -3   0  -2    1.88    0.22
  -3   0  -2    1.57    0.29
  -3   0  -2    1.48    0.16
  -4   0  -2  194.57    7.41
  -4   0  -2  170.74    7.34
  -4   0  -2  178.21    7.24
  -5   0  -2    0.52    0.13
  -5   0  -2    0.43    0.11
  -5   0  -2    0.62    0.34
  -5   0  -2   -0.01    0.31
  -6   0  -2  111.11    4.87
  -6   0  -2  114.52    4.86
  -6   0  -2  111.58    4.86
  -6   0  -2  116.11    4.70
  -7   0  -2   54.03    2.70
  -7   0  -2   59.96    2.58
  -7   0  -2   57.00    2.76
  -7   0  -2   58.86    2.80
  -8   0  -2   23.98    1.55
  -8   0  -2   22.68    1.21
  -8   0  -2   22.75    1.54
  -9   0  -2   17.09    1.31
  -9   0  -2   15.22    1.03
  -9   0  -2   17.53    1.43
 -10   0  -2    0.24    0.72
 -10   0  -2    0.63    0.47
 -11   0  -2    3.36    0.72
 -10   1   2    6.55    0.97
   9  -1  -2    1.81    0.70
  -9   1   2    2.68    0.63
   8  -1  -2    8.72    1.08
  -8   1   2   10.00    0.99
  -8   1   2    8.68    0.81
   7  -1  -2  126.32    5.41
  -7   1   2  126.74    5.20
  -7   1   2  124.30    5.43
  -7   1   2  125.93    5.46
   6  -1  -2    0.83    0.42
  -6   1   2    1.14    0.42
   5  -1  -2  218.88    8.67
  -5   1   2  216.77    8.49
  -5   1   2  201.74    8.63
   4  -1  -2   42.08    1.93
   4  -1  -2   43.53    1.90
  -4   1   2   38.29    1.79
  -4   1   2   40.89    1.90
  -4   1   2   41.38    1.75
   3  -1  -2  163.75    6.47
   3  -1  -2  160.71    6.49
  -3   1   2  157.69    6.37
  -3   1   2  156.62    6.45
   2  -1  -2  244.49    9.83
   2  -1  -2  245.16    9.86
  -2   1   2  247.65    9.84
  -2   1   2  253.23    9.94
   1  -1  -2    5.79    0.33
  -1   1   2    5.82    0.34
   0  -1  -2   54.30    2.20
   0  -1  -2   56.38    2.20
   0   1   2   53.12    2.16
   0   1   2   53.52    2.19
  -1  -1  -2  294.30   11.55
  -1  -1  -2  285.39   11.71
   1   1   2  280.05   11.60
  -2  -1  -2   92.53    3.74
  -2  -1  -2   90.30    3.81
   2   1   2   97.70    3.73
   2   1   2   89.57    3.78
  -3  -1  -2    7.64    0.37
  -3  -1  -2    7.61    0.38
  -3  -1  -2    7.42    0.53
   3   1   2    7.82    0.49
  -4  -1  -2  255.78   10.48
  -4  -1  -2  263.44   10.39
  -4  -1  -2  268.59   10.31
   4   1   2  253.75   10.44
  -5  -1  -2    1.04    0.40
  -5  -1  -2    1.15    0.18
  -5  -1  -2    1.36    0.39
  -5  -1  -2    1.37    0.18
   5   1   2    1.66    0.23
  -6  -1  -2   20.27    1.09
  -6  -1  -2   17.22    1.21
  -6  -1  -2   18.21    1.22
  -6  -1  -2   18.07    0.93
   6   1   2   18.74    1.02
  -7  -1  -2    2.57    0.59
  -7  -1  -2    3.23    0.64
  -7  -1  -2    2.36    0.33
  -7  -1  -2    2.08    0.42
  -8  -1  -2    2.38    0.35
  -8  -1  -2    3.40    0.69
  -8  -1  -2    3.43    0.67
  -9  -1  -2    2.31    0.41
  -9  -1  -2    3.32    0.79
  -9  -1  -2    3.26    0.65
 -10  -1  -2   10.96    1.24
 -10  -1  -2   12.50    1.08
 -11  -1  -2    5.86    1.13
 -11  -1  -2    8.17    1.00
 -10   2   2    2.98    0.80
   9  -2  -2   22.81    1.65
  -9   2   2   21.91    1.55
   8  -2  -2   10.23    1.16
  -8   2   2   10.49    1.07
  -8   2   2    9.02    0.72
   7  -2  -2   47.07    2.39
  -7   2   2   45.95    2.33
  -7   2   2   45.17    2.02
  -7   2   2   44.91    2.24
   6  -2  -2   35.68    1.91
  -6   2   2   34.40    1.82
  -6   2   2   37.47    1.80
  -6   2   2   34.61    1.59
   5  -2  -2   18.16    1.19
  -5   2   2   18.51    1.12
  -5   2   2   19.09    1.03
  -5   2   2   17.36    0.91
  -5   2   2   19.57    1.04
   4  -2  -2   86.65    3.79
  -4   2   2   88.92    3.71
  -4   2   2   85.00    3.69
  -4   2   2   86.82    3.52
  -4   2   2   89.70    3.74
   3  -2  -2  159.13    6.50
   3  -2  -2  159.08    6.42
  -3   2   2  165.42    6.48
  -3   2   2  151.92    6.40
  -3   2   2  157.71    6.38
   2  -2  -2    3.98    0.46
   2  -2  -2    3.80    0.27
  -2   2   2    3.50    0.34
  -2   2   2    3.78    0.27
  -2   2   2    3.61    0.30
   1  -2  -2  425.50   17.54
   1  -2  -2  434.21   17.38
  -1   2   2  437.68   17.22
  -1   2   2  449.54   17.41
  -1   2   2  415.44   17.24
  -1   2   2  433.91   17.36
   0  -2  -2  864.90   32.96
   0  -2  -2  800.93   33.12
   0   2   2  776.60   33.16
   0   2   2  891.94   33.40
  -1  -2  -2  204.17    8.15
   1   2   2  199.49    8.02
   1   2   2  194.38    7.98
   1   2   2  203.70    8.12
  -2  -2  -2  175.41    6.98
  -2  -2  -2  170.82    6.97
  -2  -2  -2  177.41    7.05
   2   2   2  176.53    7.03
   2   2   2  172.34    6.92
  -3  -2  -2   40.35    1.66
  -3  -2  -2   37.13    1.83
   3   2   2   39.73    1.78
   3   2   2   40.95    1.67
  -4  -2  -2   98.89    3.99
  -4  -2  -2   96.83    4.19
   4   2   2   98.99    4.13
  -5  -2  -2   30.89    1.61
  -5  -2  -2   29.89    1.63
  -5  -2  -2   31.52    1.38
   5   2   2   30.57    1.51
  -6  -2  -2   11.77    0.68
  -6  -2  -2   12.13    1.00
  -6  -2  -2   12.27    1.00
   6   2   2   12.89    0.76
  -7  -2  -2    5.18    0.83
  -7  -2  -2    4.58    0.42
  -7  -2  -2    5.31    0.80
   7   2   2    3.62    0.43
  -8  -2  -2   21.86    1.49
  -8  -2  -2   20.70    1.11
  -8  -2  -2   22.41    1.56
   8   2   2   21.03    1.22
  -9  -2  -2    5.53    0.92
  -9  -2  -2    4.71    0.59
  -9  -2  -2    5.59    0.78
 -10  -2  -2   11.75    1.03
 -10  -2  -2   10.87    1.46
 -11  -2  -2    7.74    1.25
 -11  -2  -2    6.24    0.88
  -9   3   2    7.72    1.06
   8  -3  -2    7.67    1.00
  -8   3   2    8.12    1.05
   7  -3  -2    0.51    0.56
  -7   3   2    0.95    0.39
  -7   3   2    0.64    0.48
   6  -3  -2    0.67    0.51
  -6   3   2    1.03    0.22
  -6   3   2    0.75    0.28
  -6   3   2    0.83    0.42
   5  -3  -2    8.23    0.89
  -5   3   2    7.38    0.56
  -5   3   2    7.78    0.71
  -5   3   2    7.91    0.44
  -5   3   2    7.72    0.56
   4  -3  -2   54.00    2.47
  -4   3   2   49.91    2.28
  -4   3   2   53.09    2.35
  -4   3   2   49.55    2.27
  -4   3   2   50.29    2.11
   3  -3  -2    0.98    0.35
  -3   3   2    0.71    0.24
  -3   3   2    0.90    0.17
  -3   3   2    0.70    0.16
   2  -3  -2  232.76    9.34
   2  -3  -2  236.06    9.52
  -2   3   2  235.31    9.36
  -2   3   2  229.75    9.31
  -2   3   2  244.16    9.49
   1  -3  -2   51.27    2.27
   1  -3  -2   50.27    2.09
  -1   3   2   51.80    2.23
  -1   3   2   52.15    2.10
  -1   3   2   51.93    2.09
  -1   3   2   50.80    2.14
   0  -3  -2   73.68    2.96
   0  -3  -2   74.12    2.95
   0  -3  -2   74.29    3.11
   0   3   2   73.93    3.08
   0   3   2   75.40    3.13
   0   3   2   74.21    3.07
  -1  -3  -2  176.73    7.10
  -1  -3  -2  176.32    7.16
   1   3   2  176.65    7.13
   1   3   2  181.94    7.08
   1   3   2  176.35    7.15
  -2  -3  -2   74.14    3.19
  -2  -3  -2   72.80    3.07
   2   3   2   73.70    3.09
   2   3   2   79.27    3.01
   2   3   2   72.52    3.15
  -3  -3  -2    1.29    0.37
  -3  -3  -2    1.51    0.17
   3   3   2    1.51    0.22
   3   3   2    1.71    0.32
  -4  -3  -2  127.59    5.43
  -4  -3  -2  128.40    5.21
  -4  -3  -2  129.45    5.36
   4   3   2  129.39    5.22
  -5  -3  -2   17.81    0.90
  -5  -3  -2   19.00    1.21
  -5  -3  -2   18.18    1.15
   5   3   2   17.69    1.00
  -6  -3  -2   90.80    4.10
  -6  -3  -2   92.31    4.05
  -6  -3  -2   92.10    3.80
   6   3   2   88.34    3.95
  -7  -3  -2   73.99    3.39
  -7  -3  -2   71.60    3.09
  -7  -3  -2   71.01    3.42
   7   3   2   70.39    3.22
  -8  -3  -2    0.59    0.56
  -8  -3  -2    1.28    0.52
  -8  -3  -2    1.16    0.28
   8   3   2    1.43    0.31
   8   3   2    0.72    0.33
  -9  -3  -2   56.48    2.75
  -9  -3  -2   63.21    3.20
  -9  -3  -2   68.21    3.20
 -10  -3  -2    0.33    0.42
 -10  -3  -2    0.86    0.61
 -11  -3  -2    2.09    0.83
 -11  -3  -2   -0.04    0.59
  -9   4   2    0.64    0.81
  -8   4   2    1.46    0.66
   7  -4  -2   23.54    1.52
  -7   4   2   19.68    1.08
  -7   4   2   22.36    1.39
  -7   4   2   19.30    1.26
   6  -4  -2    9.89    1.02
  -6   4   2    8.77    0.65
  -6   4   2    7.57    0.40
  -6   4   2    7.92    0.83
   5  -4  -2    0.62    0.47
  -5   4   2    0.54    0.34
  -5   4   2    0.34    0.22
   4  -4  -2   96.50    4.24
  -4   4   2   92.46    3.97
  -4   4   2   97.52    4.04
  -4   4   2   95.46    4.12
   3  -4  -2    0.41    0.40
  -3   4   2    0.48    0.12
  -3   4   2    0.72    0.24
  -3   4   2    0.40    0.15
  -3   4   2    0.18    0.17
   2  -4  -2   10.20    0.77
  -2   4   2   10.31    0.56
  -2   4   2    9.85    0.64
  -2   4   2    9.75    0.56
  -2   4   2   10.21    0.51
   1  -4  -2    1.96    0.41
  -1   4   2    1.80    0.22
  -1   4   2    1.62    0.26
  -1   4   2    2.26    0.41
   0  -4  -2   97.14    4.17
   0  -4  -2  100.02    3.95
   0  -4  -2  102.40    3.99
   0   4   2   97.63    4.20
   0   4   2   99.02    4.14
   0   4   2  102.97    4.15
  -1  -4  -2   13.74    0.79
  -1  -4  -2   14.80    0.87
   1   4   2   14.11    0.74
   1   4   2   13.80    0.85
   1   4   2   14.41    0.78
  -2  -4  -2  113.43    4.57
  -2  -4  -2  109.61    4.69
   2   4   2  111.62    4.50
   2   4   2  111.00    4.61
   2   4   2  110.49    4.65
  -3  -4  -2  166.94    6.80
  -3  -4  -2  167.64    6.94
  -3  -4  -2  166.70    6.76
   3   4   2  165.15    6.79
   3   4   2  170.42    6.65
  -4  -4  -2   29.56    1.52
  -4  -4  -2   29.91    1.64
  -4  -4  -2   29.12    1.37
   4   4   2   30.48    1.45
   4   4   2   30.91    1.20
   4   4   2   27.89    1.47
  -5  -4  -2   56.78    2.78
  -5  -4  -2   58.06    2.69
  -5  -4  -2   57.86    2.50
   5   4   2   58.47    2.54
   5   4   2   56.46    2.63
  -6  -4  -2    6.48    0.88
  -6  -4  -2    5.45    0.79
  -6  -4  -2    6.54    0.47
   6   4   2    5.70    0.50
  -7  -4  -2   27.44    1.71
  -7  -4  -2   29.40    1.67
  -7  -4  -2   26.74    1.30
   7   4   2   22.66    1.38
  -8  -4  -2   25.24    1.32
  -8  -4  -2   26.85    1.74
  -8  -4  -2   26.07    1.67
  -9  -4  -2    4.67    0.73
  -9  -4  -2    4.02    0.61
   9   4   2    3.76    0.68
 -10  -4  -2    2.43    0.51
 -10  -4  -2    3.30    0.72
 -11  -4  -2   37.38    2.06
 -11  -4  -2   34.29    2.26
  -8   5   2   28.89    1.92
  -8   5   2   31.91    2.00
  -7   5   2    2.39    0.63
  -7   5   2    1.97    0.60
   6  -5  -2   64.09    3.17
  -6   5   2   62.89    2.88
   5  -5  -2   45.45    2.37
  -5   5   2   42.74    2.01
  -5   5   2   43.54    2.30
  -5   5   2   41.75    1.83
   4  -5  -2   34.10    1.91
  -4   5   2   32.77    1.46
  -4   5   2   32.53    1.57
  -4   5   2   28.95    1.63
  -4   5   2   34.47    1.53
  -4   5   2   33.35    1.86
   3  -5  -2   18.00    1.26
  -3   5   2   17.60    0.94
  -3   5   2   18.65    1.23
  -3   5   2   17.85    0.89
  -3   5   2   17.26    1.02
   2  -5  -2   17.42    1.16
  -2   5   2   16.76    0.92
  -2   5   2   15.92    0.86
  -2   5   2   17.00    1.14
   1  -5  -2   10.15    0.85
   1  -5  -2   10.33    0.66
  -1   5   2    9.95    0.63
  -1   5   2    9.99    0.61
  -1   5   2    9.68    0.85
   0  -5  -2   94.63    3.76
   0  -5  -2   93.97    3.98
   0   5   2   87.77    4.00
   0   5   2   93.83    3.93
   0   5   2   94.34    3.93
  -1  -5  -2   21.13    0.92
   1   5   2   21.72    1.05
   1   5   2   20.97    1.10
   1   5   2   19.40    1.19
  -2  -5  -2   30.30    1.38
  -2  -5  -2   29.25    1.41
  -2  -5  -2   29.27    1.59
   2   5   2   30.34    1.37
   2   5   2   29.39    1.53
   2   5   2   29.79    1.48
  -3  -5  -2   14.14    1.04
  -3  -5  -2   14.15    0.81
  -3  -5  -2   14.87    0.90
   3   5   2   14.21    0.73
   3   5   2   15.47    0.88
   3   5   2   15.03    0.97
  -4  -5  -2    1.53    0.25
  -4  -5  -2    2.91    0.60
  -4  -5  -2    1.69    0.43
   4   5   2    1.53    0.28
   4   5   2    2.16    0.45
  -5  -5  -2    5.44    0.43
  -5  -5  -2    6.19    0.86
  -5  -5  -2    6.08    0.74
   5   5   2    5.42    0.48
   5   5   2    6.41    0.70
  -6  -5  -2    9.70    0.64
  -6  -5  -2   10.02    0.96
  -6  -5  -2   10.05    0.96
   6   5   2   10.47    0.86
  -7  -5  -2    0.79    0.48
  -7  -5  -2    0.63    0.48
  -7  -5  -2    0.85    0.24
  -8  -5  -2    0.65    0.32
  -8  -5  -2    0.00    0.47
  -9  -5  -2   39.05    2.18
  -9  -5  -2   37.35    2.27
  -9  -5  -2   39.94    1.91
 -10  -5  -2    1.30    0.61
 -10  -5  -2    1.33    0.48
 -11  -5  -2    1.45    0.65
  -8   6   2   18.34    1.63
  -7   6   2   11.75    1.15
  -6   6   2    1.05    0.48
  -6   6   2    0.42    0.45
  -5   6   2    4.47    0.84
  -5   6   2    5.47    0.61
  -5   6   2    5.93    0.40
  -5   6   2    5.31    0.58
  -5   6   2    5.67    0.57
  -4   6   2   35.94    2.04
   3  -6  -2   32.48    1.81
  -3   6   2   27.20    1.53
  -3   6   2   30.80    1.77
  -3   6   2   29.64    1.42
   2  -6  -2   52.94    2.55
  -2   6   2   49.06    2.35
  -2   6   2   50.39    2.54
  -2   6   2   50.54    2.27
   1  -6  -2   93.52    3.64
  -1   6   2   87.84    3.96
  -1   6   2   88.45    3.84
  -1   6   2   82.95    3.89
   0  -6  -2   11.83    0.68
   0   6   2   11.42    0.98
   0   6   2   12.88    0.77
   0   6   2   12.26    0.73
  -1  -6  -2  126.45    5.02
   1   6   2  128.29    5.29
   1   6   2  127.08    5.44
   1   6   2  126.99    5.38
  -2  -6  -2    5.69    0.48
  -2  -6  -2    4.60    0.40
   2   6   2    5.72    0.75
   2   6   2    5.68    0.46
   2   6   2    5.19    0.44
  -3  -6  -2    1.43    0.21
  -3  -6  -2    2.16    0.57
  -3  -6  -2    1.93    0.37
   3   6   2    2.05    0.24
   3   6   2    1.45    0.23
   3   6   2    1.14    0.45
  -4  -6  -2   23.54    1.22
  -4  -6  -2   24.98    1.39
  -4  -6  -2   25.51    1.60
   4   6   2   24.94    1.43
   4   6   2   26.98    1.15
   4   6   2   21.46    1.28
  -5  -6  -2    1.69    0.59
  -5  -6  -2    1.47    0.48
  -5  -6  -2    1.27    0.23
   5   6   2    2.15    0.52
   5   6   2    1.17    0.28
  -6  -6  -2    1.23    0.50
  -6  -6  -2   -0.07    0.45
   6   6   2   -0.02    0.34
   6   6   2    0.96    0.48
  -7  -6  -2   24.44    1.32
  -7  -6  -2   26.98    1.78
  -7  -6  -2   26.15    1.67
  -8  -6  -2   14.17    0.96
  -8  -6  -2   17.09    1.30
  -8  -6  -2   16.83    1.29
  -9  -6  -2   19.83    1.40
  -9  -6  -2   22.56    1.57
 -10  -6  -2    3.88    0.61
 -10  -6  -2    3.72    0.74
 -11  -6  -2    1.13    0.81
  -7   7   2    0.79    0.71
  -6   7   2   10.86    1.15
  -5   7   2   34.77    2.04
  -5   7   2   33.48    1.61
  -4   7   2    6.02    0.55
  -4   7   2    5.40    0.77
  -3   7   2   53.69    2.44
  -3   7   2   54.68    2.85
  -2   7   2    0.70    0.46
  -2   7   2    1.00    0.25
   1  -7  -2    1.89    0.33
  -1   7   2    1.92    0.59
  -1   7   2    1.60    0.29
   0  -7  -2   16.46    0.88
   0   7   2   14.78    0.93
   0   7   2   17.01    1.24
   0   7   2   16.40    0.98
  -1  -7  -2   16.07    0.90
   1   7   2   15.92    0.90
   1   7   2   14.18    1.17
   1   7   2   15.39    0.94
   2   7   2    2.95    0.40
   2   7   2    3.91    0.68
   2   7   2    3.98    0.36
  -3  -7  -2   99.39    4.42
  -3  -7  -2  108.07    4.34
   3   7   2  103.37    4.60
   3   7   2  101.02    4.58
   3   7   2  107.71    4.36
  -4  -7  -2   19.57    1.17
  -4  -7  -2   20.13    1.44
  -4  -7  -2   15.67    1.00
   4   7   2   19.25    1.32
   4   7   2   20.00    0.94
   4   7   2   15.81    1.04
  -5  -7  -2   65.73    3.34
  -5  -7  -2   69.92    3.08
  -5  -7  -2   63.95    2.96
   5   7   2   71.51    2.79
   5   7   2   65.81    3.12
   5   7   2   61.02    3.29
  -6  -7  -2   32.99    1.71
  -6  -7  -2   37.82    2.21
  -6  -7  -2   36.79    1.99
   6   7   2   36.39    1.99
  -7  -7  -2   10.49    1.09
  -7  -7  -2   10.42    1.09
  -7  -7  -2    8.57    0.77
   7   7   2    9.74    1.07
  -8  -7  -2   30.10    1.95
  -8  -7  -2   31.92    1.95
  -9  -7  -2    3.17    0.64
  -9  -7  -2    2.86    0.63
 -10  -7  -2   -0.75    0.70
 -10  -7  -2    0.17    0.60
  -6   8   2    2.88    0.72
  -5   8   2   16.51    1.28
  -4   8   2    1.52    0.48
  -3   8   2    1.17    0.37
  -3   8   2    1.17    0.43
  -2   8   2    2.72    0.52
  -2   8   2    0.80    0.47
  -1   8   2   15.73    0.98
   0  -8  -2    0.70    0.32
   0   8   2    0.48    0.35
   0   8   2   -0.18    0.40
   0   8   2   -0.69    0.36
  -1  -8  -2   37.31    1.68
   1   8   2   35.92    2.05
   1   8   2   34.08    1.77
   1   8   2   33.83    1.81
   2   8   2    6.89    0.51
   2   8   2    5.33    0.61
   2   8   2    5.66    0.93
  -3  -8  -2   18.74    1.01
   3   8   2   18.78    1.02
   3   8   2   17.72    1.33
   3   8   2   14.93    1.06
  -4  -8  -2   32.07    1.67
   4   8   2   33.19    1.54
   4   8   2   30.22    1.86
  -5  -8  -2    0.49    0.50
   5   8   2    0.71    0.24
   5   8   2    1.48    0.58
  -6  -8  -2    0.75    0.55
   6   8   2    0.35    0.61
  -7  -8  -2   11.93    1.18
  -7  -8  -2    9.78    1.08
   7   8   2   10.50    1.18
  -8  -8  -2    1.92    0.61
  -8  -8  -2    3.55    0.75
  -9  -8  -2    5.24    0.79
  -9  -8  -2    7.18    1.08
  -4   9   2    7.09    0.93
  -3   9   2   12.30    1.11
  -2   9   2    0.54    0.42
  -1   9   2   10.25    0.99
  -1   9   2   10.18    0.95
   0  -9  -2    9.59    0.73
   0   9   2    6.94    0.78
   0   9   2    9.02    0.91
  -1  -9  -2   33.35    1.63
   1   9   2   32.97    2.00
  -2  -9  -2    4.64    0.72
   2   9   2    4.28    0.77
   2   9   2    3.02    0.48
   3   9   2    0.49    0.47
   3   9   2   -0.12    0.40
  -4  -9  -2    0.76    0.43
   4   9   2    0.22    0.50
   4   9   2    0.43    0.37
  -5  -9  -2    3.60    0.69
   5   9   2    4.08    0.77
  -6  -9  -2    9.93    1.19
   6   9   2    9.12    1.10
  -7  -9  -2    0.58    0.70
   7   9   2    1.45    0.71
  -8  -9  -2   14.32    1.50
   8   9   2   15.01    1.43
  -9  -9  -2    1.31    0.88
  -3  10   2    8.89    1.13
  -2  10   2   12.56    1.16
  -1  10   2    0.00    0.54
   0  10   2   18.72    1.32
   1  10   2    0.47    0.49
  -2 -10  -2    4.11    0.81
   2  10   2    3.35    0.63
  -3 -10  -2   26.73    1.69
   3  10   2   32.17    1.89
   4  10   2   14.98    1.26
  -5 -10  -2    2.47    0.88
   5  10   2    1.85    0.65
  -6 -10  -2   17.73    1.56
   6  10   2   17.92    1.51
  -7 -10  -2    1.62    0.92
   7  10   2    3.35    0.88
  -8 -10  -2    3.29    1.06
   8  10   2    4.62    1.04
   0  11   2    3.82    0.75
   1  11   2    1.67    0.66
   2  11   2   22.49    1.65
   3  11   2   -0.43    0.64
   4  11   2   11.13    1.21
   5  11   2   13.49    1.33
   6  11   2    1.59    0.81
   6  10  -3    2.10    0.72
   5  10  -3    2.11    0.63
   4  10  -3   18.78    1.41
   3  10  -3   17.29    1.32
  -3 -10   3   18.94    1.57
   2  10  -3    8.40    0.91
  -2 -10   3    7.17    1.22
   1  10  -3   12.98    1.13
  -1 -10   3   14.76    1.36
   0  10  -3   -0.73    0.57
   0 -10   3    0.49    0.84
  -1  10  -3   -0.15    0.61
   1 -10   3    0.15    0.78
  -2  10  -3    1.99    0.70
   7   9  -3    4.71    0.79
  -7  -9   3    4.36    1.02
   6   9  -3   24.91    1.60
  -6  -9   3   23.34    2.18
   5   9  -3   25.28    1.64
  -5  -9   3   28.05    1.71
   4   9  -3    0.89    0.45
  -4  -9   3    0.65    0.56
   3   9  -3    4.36    0.71
   2   9  -3   12.57    1.04
  -2  -9   3   12.68    1.24
   1   9  -3    3.77    0.71
  -1  -9   3    5.44    0.96
   0   9  -3    1.35    0.46
   0  -9   3    1.34    0.66
  -1   9  -3   56.63    2.95
   1  -9   3   58.65    2.90
  -2   9  -3    0.33    0.49
   2  -9   3    0.82    0.64
  -3   9  -3   32.79    1.91
   3  -9   3   28.74    2.20
  -4   9  -3    1.86    0.70
  -8  -8   3    0.32    0.62
  -7  -8   3   15.35    1.43
   6   8  -3    5.22    0.80
  -6  -8   3    4.20    0.81
   5   8  -3    0.07    0.42
   5   8  -3    0.50    0.42
  -5  -8   3   -0.28    0.53
   4   8  -3   41.28    1.96
   4   8  -3   37.14    2.18
  -4  -8   3   40.75    2.04
   3   8  -3   31.50    1.61
   3   8  -3   30.42    1.85
  -3  -8   3   31.09    1.58
   2   8  -3   -0.19    0.40
   2   8  -3    0.43    0.42
   1   8  -3   44.40    2.52
  -1  -8   3   50.22    2.44
   0   8  -3   27.96    1.74
   0  -8   3   27.68    1.64
  -1   8  -3   13.68    1.16
   1  -8   3   15.60    1.21
  -2   8  -3   23.34    1.59
   2  -8   3   24.25    1.57
  -3   8  -3    8.29    0.89
   3  -8   3    6.59    1.07
  -4   8  -3    0.26    0.51
  -5   8  -3   28.99    1.86
  -9  -7   3   14.66    1.30
  -8  -7   3    3.23    0.67
  -7  -7   3    2.21    0.62
   6   7  -3   10.01    1.03
  -6  -7   3    9.71    1.09
   5   7  -3   15.00    1.23
  -5  -7   3   16.25    1.24
   4   7  -3    0.20    0.47
  -4  -7   3    0.80    0.48
   3   7  -3   38.52    1.84
   3   7  -3   36.38    2.06
  -3  -7   3   37.82    1.83
   2   7  -3   71.04    3.59
   2   7  -3   81.40    3.44
   2   7  -3   80.99    3.65
  -2  -7   3   79.72    3.26
  -2  -7   3   73.39    3.50
   1   7  -3   19.21    1.13
   1   7  -3   21.25    1.41
   1   7  -3   17.53    1.15
  -1  -7   3   21.90    1.35
   0   7  -3    2.84    0.42
   0   7  -3    1.98    0.34
   0   7  -3    3.49    0.66
  -1   7  -3    7.25    0.69
  -1   7  -3    6.31    0.88
   1  -7   3    6.67    0.84
  -2   7  -3    0.49    0.42
  -2   7  -3    0.52    0.49
   2  -7   3    0.07    0.47
  -3   7  -3    5.49    0.79
   3  -7   3    5.27    0.85
  -4   7  -3   31.15    1.90
   4  -7   3   31.98    1.88
  -5   7  -3   -0.30    0.49
  -6   7  -3   11.93    1.29
  -6   7  -3   13.15    1.46
  -7   7  -3    2.08    0.86
  10   6  -3    3.49    1.19
 -10  -6   3    3.32    0.66
  -9  -6   3    5.86    0.79
   8   6  -3    3.51    0.58
  -8  -6   3    4.01    0.73
  -7  -6   3   60.45    3.24
   6   6  -3    0.46    0.47
  -6  -6   3    0.02    0.47
   5   6  -3   65.84    2.91
   5   6  -3   53.24    2.78
  -5  -6   3   64.36    2.83
  -5  -6   3   52.67    2.73
   4   6  -3   55.75    2.68
   4   6  -3   51.05    2.65
  -4  -6   3   52.34    2.56
  -4  -6   3   59.15    2.59
   3   6  -3   11.28    0.84
   3   6  -3   12.87    1.05
  -3  -6   3   13.03    0.90
   2   6  -3   38.01    1.98
   2   6  -3   38.76    2.05
   2   6  -3   40.08    1.77
  -2  -6   3   38.25    1.91
  -2  -6   3   39.65    1.80
   1   6  -3    0.96    0.46
   1   6  -3    1.39    0.23
   1   6  -3    1.15    0.28
   1   6  -3    1.27    0.19
   0   6  -3   39.96    2.07
   0   6  -3   39.24    2.00
   0   6  -3   39.96    1.90
   0  -6   3   35.70    1.86
   0  -6   3   40.80    2.00
  -1   6  -3   28.90    1.67
  -1   6  -3   28.35    1.49
   1  -6   3   26.09    1.42
   1  -6   3   31.39    1.61
  -2   6  -3    9.09    0.74
  -2   6  -3   12.92    1.04
   2  -6   3   12.67    1.00
  -3   6  -3    0.49    0.47
   3  -6   3    0.95    0.47
  -4   6  -3   20.33    0.92
  -4   6  -3   22.80    0.93
  -4   6  -3   22.24    1.48
   4  -6   3   24.32    1.50
  -5   6  -3    0.24    0.16
  -5   6  -3    0.03    0.48
  -6   6  -3   -0.22    0.55
  -6   6  -3    0.66    0.38
  -6   6  -3   -0.15    0.62
  -7   6  -3   -0.37    0.62
  -7   6  -3   -0.23    0.73
  -8   6  -3    0.98    0.96
 -10  -5   3    0.53    0.55
  -9  -5   3   29.56    1.74
   8   5  -3   20.06    1.24
  -8  -5   3   22.40    1.46
  -7  -5   3    4.38    0.79
   6   5  -3   52.93    2.61
  -6  -5   3   49.90    2.55
  -6  -5   3   61.11    2.75
   5   5  -3   13.21    0.89
   5   5  -3   15.68    1.11
  -5  -5   3   11.18    0.84
  -5  -5   3   14.72    1.07
   4   5  -3    9.61    0.70
   4   5  -3   10.45    0.67
   4   5  -3    9.77    0.90
  -4  -5   3    8.15    0.65
  -4  -5   3   10.10    0.83
   3   5  -3   92.79    4.13
   3   5  -3   92.15    4.04
   3   5  -3   96.13    4.21
  -3  -5   3   99.16    4.03
  -3  -5   3   92.51    4.09
   2   5  -3   83.03    3.70
   2   5  -3   80.43    3.52
   2   5  -3   86.19    3.78
  -2  -5   3   84.09    3.65
  -2  -5   3   85.05    3.53
   1   5  -3   22.10    1.25
   1   5  -3   20.79    1.30
   1   5  -3   21.76    1.04
  -1  -5   3   23.17    1.18
  -1  -5   3   22.49    1.07
   0   5  -3  197.09    8.06
   0   5  -3  201.16    8.34
   0   5  -3  205.55    8.30
   0  -5   3  208.43    8.30
   0  -5   3  201.11    8.28
  -1   5  -3    5.23    0.70
  -1   5  -3    5.32    0.31
  -1   5  -3    6.34    0.46
   1  -5   3    4.91    0.63
   1  -5   3    4.33    0.39
  -2   5  -3   67.49    3.08
  -2   5  -3   66.58    2.73
  -2   5  -3   66.45    3.03
   2  -5   3   68.70    3.05
  -3   5  -3   26.71    1.21
  -3   5  -3   25.01    1.41
  -3   5  -3   30.34    1.62
   3  -5   3   28.48    1.54
  -4   5  -3    3.16    0.60
  -4   5  -3    2.66    0.36
  -4   5  -3    3.14    0.46
  -4   5  -3    3.22    0.45
   4  -5   3    3.38    0.64
  -5   5  -3   25.06    1.51
  -5   5  -3   23.31    1.36
  -5   5  -3   23.84    1.27
  -6   5  -3   14.18    1.23
  -6   5  -3   14.36    1.03
  -6   5  -3   13.62    1.23
  -7   5  -3    2.96    0.75
  -7   5  -3    3.68    0.81
  -7   5  -3    3.36    0.64
  -8   5  -3    2.68    1.08
  -8   5  -3    2.75    0.84
  -8   5  -3    2.83    0.83
 -10  -4   3    6.49    0.82
   9   4  -3    6.67    0.88
  -9  -4   3    5.38    0.74
   8   4  -3   18.93    1.17
   8   4  -3   17.86    1.33
  -8  -4   3   17.52    1.30
   7   4  -3   12.23    0.88
   7   4  -3    9.17    0.74
  -7  -4   3   11.24    1.05
   6   4  -3    1.22    0.29
  -6  -4   3    0.92    0.49
   5   4  -3    2.69    0.39
  -5  -4   3    2.79    0.40
  -5  -4   3    3.66    0.67
   4   4  -3  135.45    5.70
   4   4  -3  134.77    5.76
   4   4  -3  136.02    5.71
  -4  -4   3  138.63    5.73
  -4  -4   3  133.90    5.68
   3   4  -3    1.38    0.41
   3   4  -3    1.02    0.23
   3   4  -3    1.14    0.22
  -3  -4   3    1.26    0.35
  -3  -4   3    1.36    0.20
   2   4  -3  282.89   11.15
   2   4  -3  275.07   11.24
   2   4  -3  284.28   11.34
  -2  -4   3  275.27   11.12
  -2  -4   3  275.93   11.24
   1   4  -3   94.90    4.20
   1   4  -3  103.44    4.31
   1   4  -3  100.19    4.07
  -1  -4   3   99.74    4.18
  -1  -4   3   97.06    4.05
   0   4  -3   18.86    1.12
   0   4  -3   18.98    0.91
   0  -4   3   19.72    1.13
   0  -4   3   20.42    1.03
  -1   4  -3   89.69    3.61
  -1   4  -3   84.72    3.79
  -1   4  -3   92.46    3.81
   1  -4   3   87.07    3.74
   1  -4   3   89.84    3.80
  -2   4  -3    2.63    0.47
  -2   4  -3    2.25    0.22
  -2   4  -3    2.67    0.28
   2  -4   3    2.55    0.52
  -3   4  -3    0.55    0.18
  -3   4  -3    0.13    0.33
  -3   4  -3   -0.04    0.14
   3  -4   3    0.48    0.37
  -4   4  -3   69.88    3.05
  -4   4  -3   69.46    3.18
  -4   4  -3   73.45    3.21
  -4   4  -3   70.20    3.20
   4  -4   3   73.46    3.28
  -5   4  -3   16.38    0.97
  -5   4  -3   17.00    1.15
  -5   4  -3   16.68    1.02
  -5   4  -3   13.75    0.97
  -6   4  -3   33.35    1.82
  -6   4  -3   33.92    1.77
  -6   4  -3   34.78    1.84
  -6   4  -3   32.07    1.77
  -7   4  -3   62.09    2.95
  -7   4  -3   60.42    2.94
  -7   4  -3   60.38    2.88
  -8   4  -3    0.74    0.66
  -8   4  -3    0.36    0.59
  -8   4  -3    0.69    0.66
  -9   4  -3   34.48    2.14
  -9   4  -3   34.88    2.19
 -10  -3   3   15.66    1.16
   9   3  -3    5.13    0.90
  -9  -3   3    3.48    0.61
   8   3  -3    3.28    0.59
   8   3  -3    3.71    0.62
  -8  -3   3    3.69    0.71
   7   3  -3   44.19    2.14
   7   3  -3   44.13    2.09
   7   3  -3   47.58    2.20
  -7  -3   3   38.97    2.15
  -7  -3   3   46.44    2.35
   6   3  -3   43.48    2.10
  -6  -3   3   44.09    2.24
  -6  -3   3   43.66    2.11
   5   3  -3    2.55    0.36
  -5  -3   3    2.88    0.36
  -5  -3   3    3.82    0.57
   4   3  -3   57.10    2.66
   4   3  -3   58.52    2.65
  -4  -3   3   60.86    2.70
  -4  -3   3   60.15    2.66
   3   3  -3    1.07    0.20
   3   3  -3    1.42    0.38
   3   3  -3    1.18    0.21
  -3  -3   3    1.08    0.22
  -3  -3   3    1.45    0.33
   2   3  -3   15.26    0.87
   2   3  -3   14.56    0.91
   2   3  -3   14.81    0.80
  -2  -3   3   15.08    0.85
  -2  -3   3   16.15    0.86
   1   3  -3   19.33    0.93
   1   3  -3   19.48    1.05
  -1  -3   3   18.96    0.95
  -1  -3   3   19.04    0.98
   0   3  -3   66.23    2.72
   0   3  -3   63.65    2.82
   0  -3   3   66.93    2.80
  -1   3  -3  107.00    4.29
  -1   3  -3  102.55    4.40
   1  -3   3  109.14    4.39
   1  -3   3  106.15    4.43
  -2   3  -3   10.77    0.68
  -2   3  -3   10.31    0.70
   2  -3   3   10.63    0.76
  -3   3  -3   95.89    4.05
  -3   3  -3   90.49    4.24
  -3   3  -3   99.83    4.11
   3  -3   3   99.58    4.15
  -4   3  -3   12.35    0.84
  -4   3  -3   11.64    0.76
  -4   3  -3   12.55    0.75
   4  -3   3   12.38    0.96
  -5   3  -3   49.44    2.31
  -5   3  -3   50.51    2.36
  -5   3  -3   48.81    2.29
  -5   3  -3   48.72    2.35
  -5   3  -3   50.39    2.31
  -6   3  -3    3.67    0.48
  -6   3  -3    4.17    0.71
  -6   3  -3    3.63    0.46
  -6   3  -3    4.89    0.76
  -6   3  -3    5.08    0.72
  -7   3  -3    5.15    0.78
  -7   3  -3    3.36    0.58
  -7   3  -3    5.04    0.84
  -7   3  -3    5.52    0.88
  -8   3  -3    2.65    0.66
  -8   3  -3    2.68    0.67
  -8   3  -3    3.20    0.73
  -9   3  -3   22.23    1.68
  -9   3  -3   24.31    1.75
  -9   3  -3   21.67    1.61
 -10   3  -3    1.95    0.90
 -10  -2   3    2.42    0.50
   9   2  -3    5.11    0.96
  -9  -2   3    5.47    0.73
   8   2  -3  112.42    4.54
   8   2  -3  103.99    4.50
  -8  -2   3   95.87    4.61
  -8  -2   3  107.15    4.75
   7   2  -3    0.81    0.28
   7   2  -3    0.35    0.39
  -7  -2   3    0.09    0.44
   6   2  -3   34.82    1.70
   6   2  -3   35.97    1.73
   6   2  -3   35.04    1.69
  -6  -2   3   33.18    1.73
  -6  -2   3   35.01    1.88
   5   2  -3   74.78    3.22
   5   2  -3   73.03    3.29
  -5  -2   3   71.68    3.30
  -5  -2   3   76.10    3.28
   4   2  -3    0.61    0.15
   4   2  -3    0.93    0.19
  -4  -2   3    0.87    0.31
  -4  -2   3    0.66    0.15
   3   2  -3   53.60    2.40
   3   2  -3   54.71    2.42
  -3  -2   3   56.94    2.43
  -3  -2   3   53.00    2.42
   2   2  -3   45.34    2.02
   2   2  -3   47.07    2.05
   2   2  -3   45.21    2.03
  -2  -2   3   44.78    2.01
  -2  -2   3   46.55    2.04
   1   2  -3    0.05    0.21
   1   2  -3    0.05    0.07
  -1  -2   3    0.26    0.12
  -1  -2   3    0.26    0.17
   0   2  -3   68.81    2.85
   0   2  -3   68.90    2.90
   0  -2   3   69.99    2.89
  -1   2  -3   66.68    2.82
  -1   2  -3   70.50    2.88
   1  -2   3   70.93    2.95
   1  -2   3   67.95    2.86
  -2   2  -3    2.34    0.34
  -2   2  -3    2.47    0.26
   2  -2   3    2.23    0.22
   2  -2   3    2.54    0.42
  -3   2  -3   11.90    0.71
  -3   2  -3   12.98    0.71
  -3   2  -3   12.38    0.72
   3  -2   3   11.92    0.84
  -4   2  -3    0.80    0.16
  -4   2  -3    0.48    0.27
  -4   2  -3    1.16    0.18
  -5   2  -3    0.36    0.16
  -5   2  -3    0.32    0.17
  -5   2  -3    0.47    0.36
  -5   2  -3    0.82    0.31
  -6   2  -3   12.21    0.82
  -6   2  -3   13.27    0.78
  -6   2  -3   12.41    0.99
  -6   2  -3   12.94    1.05
  -6   2  -3   13.56    0.91
  -7   2  -3   21.98    1.34
  -7   2  -3   25.18    1.34
  -7   2  -3   25.24    1.38
  -7   2  -3   24.08    1.54
  -7   2  -3   24.58    1.50
  -8   2  -3    3.12    0.70
  -8   2  -3    2.72    0.44
  -8   2  -3    2.60    0.64
  -8   2  -3    2.79    0.58
  -9   2  -3   36.50    2.18
  -9   2  -3   38.20    2.20
  -9   2  -3   36.63    2.02
 -10   2  -3    4.68    0.88
 -10   2  -3    4.44    1.06
  10   1  -3   35.16    2.16
 -10  -1   3   35.44    1.96
   9   1  -3   23.15    1.57
  -9  -1   3   24.62    1.53
   8   1  -3   12.84    1.08
   8   1  -3   11.51    0.79
   7   1  -3   61.24    2.77
  -7  -1   3   60.64    2.91
  -7  -1   3   60.69    2.76
  -7  -1   3   57.08    2.79
   6   1  -3   54.19    2.39
   6   1  -3   55.01    2.48
  -6  -1   3   55.12    2.61
  -6  -1   3   52.49    2.47
  -6  -1   3   53.35    2.51
   5   1  -3    7.37    0.52
   5   1  -3    6.99    0.63
   5   1  -3    7.05    0.49
  -5  -1   3    7.21    0.54
  -5  -1   3    7.18    0.65
  -5  -1   3    7.39    0.76
   4   1  -3  102.17    4.22
   4   1  -3  104.92    4.23
   4   1  -3  101.96    4.32
  -4  -1   3  103.40    4.32
  -4  -1   3   97.02    4.42
   3   1  -3  137.27    5.51
   3   1  -3  138.36    5.46
   3   1  -3  130.04    5.43
  -3  -1   3  130.27    5.48
  -3  -1   3  132.28    5.48
   2   1  -3  139.08    5.64
   2   1  -3  137.60    5.61
  -2  -1   3  139.88    5.64
  -2  -1   3  138.60    5.63
   1   1  -3  424.88   16.72
   1   1  -3  411.50   16.59
  -1  -1   3  414.82   16.61
  -1  -1   3  402.65   16.66
   0   1  -3    3.96    0.29
   0  -1   3    4.47    0.30
  -1   1  -3  535.88   21.52
  -1   1  -3  532.09   21.31
   1  -1   3  547.20   21.29
   1  -1   3  509.59   21.50
  -2   1  -3   20.71    0.94
  -2   1  -3   21.66    1.04
   2  -1   3   21.36    1.09
  -3   1  -3   34.73    1.62
  -3   1  -3   34.26    1.57
   3  -1   3   36.20    1.70
  -4   1  -3   22.65    1.03
  -4   1  -3   22.53    1.08
  -4   1  -3   20.35    1.18
  -5   1  -3   48.95    2.39
  -5   1  -3   52.06    2.29
  -5   1  -3   53.87    2.41
  -6   1  -3   21.15    1.29
  -6   1  -3   20.95    1.09
  -6   1  -3   21.61    1.32
  -6   1  -3   20.84    1.15
  -7   1  -3   48.28    2.14
  -7   1  -3   47.06    2.35
  -7   1  -3   44.72    2.30
  -7   1  -3   42.64    2.23
  -8   1  -3   15.97    0.95
  -8   1  -3   15.82    1.29
  -8   1  -3   15.85    1.31
  -9   1  -3    8.48    0.95
  -9   1  -3    7.17    0.96
  -9   1  -3    6.22    1.08
 -10   1  -3    8.81    1.68
 -10   1  -3    7.54    1.11
 -10   1  -3    7.43    1.34
  10   0  -3    4.46    1.13
 -10   0   3    7.30    0.85
   9   0  -3    1.11    0.67
  -9   0   3    1.27    0.48
   8   0  -3   19.72    1.33
  -8   0   3   14.62    1.28
   7   0  -3    4.19    0.76
  -7   0   3    3.31    0.62
  -7   0   3    2.72    0.48
   6   0  -3   25.17    1.42
   6   0  -3   25.52    1.19
  -6   0   3   24.23    1.45
  -6   0   3   24.16    1.27
   5   0  -3  121.68    4.84
   5   0  -3  120.10    5.04
   5   0  -3  118.92    4.97
  -5   0   3  116.56    5.02
  -5   0   3  115.38    4.85
   4   0  -3    0.77    0.14
   4   0  -3    0.66    0.30
   4   0  -3    0.78    0.16
  -4   0   3    0.90    0.32
  -4   0   3    0.65    0.22
   3   0  -3  135.06    5.40
   3   0  -3  128.66    5.36
   3   0  -3  131.98    5.27
  -3   0   3  129.44    5.38
   2   0  -3    9.73    0.55
   2   0  -3    8.85    0.47
  -2   0   3    9.71    0.59
   1   0  -3   63.73    2.64
   1   0  -3   63.21    2.65
  -1   0   3   60.72    2.64
  -1   0   3   66.41    2.65
   0   0  -3  105.21    4.05
   0   0  -3   97.95    4.05
   0   0   3   96.68    4.05
   0   0   3  101.44    4.05
  -1   0  -3   27.51    1.19
  -1   0  -3   26.63    1.16
   1   0   3   23.93    1.24
   1   0   3   29.00    1.11
   1   0   3   26.25    1.14
  -2   0  -3    5.41    0.37
  -2   0  -3    5.10    0.25
  -2   0  -3    4.98    0.40
   2   0   3    5.95    0.45
  -3   0  -3  262.30   10.49
  -3   0  -3  251.23   10.40
  -3   0  -3  265.14   10.51
  -3   0  -3  270.36   10.48
  -4   0  -3   23.17    1.27
  -4   0  -3   24.34    1.11
  -4   0  -3   24.25    1.21
  -5   0  -3  149.67    6.14
  -5   0  -3  158.47    6.33
  -5   0  -3  146.79    6.29
  -6   0  -3   42.04    1.86
  -6   0  -3   40.21    2.09
  -6   0  -3   42.68    2.03
  -6   0  -3   40.14    2.07
  -7   0  -3    0.90    0.49
  -7   0  -3    1.15    0.32
  -7   0  -3    1.13    0.52
  -8   0  -3   32.81    1.92
  -8   0  -3   32.64    1.90
  -9   0  -3   14.05    1.31
  -9   0  -3   12.84    0.87
  -9   0  -3   13.72    1.20
 -10   0  -3    0.53    0.81
 -10   0  -3    0.77    0.51
 -11   0  -3    0.75    0.91
 -11   0  -3    1.90    0.67
  10  -1  -3    6.94    1.29
 -10   1   3    7.70    1.04
  -9   1   3    4.41    0.77
   8  -1  -3   23.38    1.58
   7  -1  -3   16.58    1.26
  -7   1   3   15.39    1.18
   6  -1  -3    0.16    0.40
  -6   1   3    0.00    0.23
  -6   1   3    0.33    0.39
   5  -1  -3   35.36    1.80
   5  -1  -3   37.14    1.74
  -5   1   3   34.27    1.78
   4  -1  -3   11.58    0.83
   3  -1  -3   16.73    0.67
   3  -1  -3   15.44    0.92
   3  -1  -3   15.30    0.82
  -3   1   3   15.06    0.87
  -3   1   3   14.58    0.79
   2  -1  -3    1.57    0.19
   2  -1  -3    1.41    0.09
   2  -1  -3    1.43    0.30
  -2   1   3    1.81    0.31
   1  -1  -3    2.96    0.23
   0  -1  -3  234.92    9.49
   0  -1  -3  239.88    9.55
   0   1   3  235.90    9.51
  -1  -1  -3  352.47   13.84
  -1  -1  -3  345.65   13.85
   1   1   3  330.51   13.75
   1   1   3  336.08   13.80
  -2  -1  -3  192.27    7.64
  -2  -1  -3  190.93    7.69
   2   1   3  191.01    7.67
  -3  -1  -3    3.74    0.18
  -3  -1  -3    3.47    0.44
  -3  -1  -3    4.50    0.34
   3   1   3    3.55    0.31
  -4  -1  -3   62.23    2.41
  -4  -1  -3   60.63    2.62
  -4  -1  -3   57.69    2.66
  -4  -1  -3   58.56    2.43
   4   1   3   58.23    2.60
  -5  -1  -3   47.66    2.31
  -5  -1  -3   49.84    2.26
  -5  -1  -3   49.58    2.05
  -5  -1  -3   49.16    2.03
   5   1   3   46.68    2.22
  -6  -1  -3   11.75    0.76
  -6  -1  -3   11.90    0.63
  -6  -1  -3   11.52    0.99
  -6  -1  -3   11.78    0.97
  -6  -1  -3   11.74    0.62
  -7  -1  -3   35.94    1.91
  -7  -1  -3   40.88    2.13
  -7  -1  -3   39.16    1.75
  -7  -1  -3   41.32    2.13
  -8  -1  -3   36.08    2.04
  -8  -1  -3   36.95    2.10
  -8  -1  -3   35.30    1.66
  -9  -1  -3    9.04    0.99
  -9  -1  -3    7.09    0.68
  -9  -1  -3    9.03    1.09
 -10  -1  -3   34.07    2.94
 -10  -1  -3   39.80    2.17
 -11  -1  -3    5.06    0.94
 -11  -1  -3    5.49    1.14
 -10   2   3    7.72    1.19
   9  -2  -3   34.21    2.08
  -9   2   3   34.53    2.01
   8  -2  -3    0.38    0.56
  -8   2   3    0.84    0.60
   7  -2  -3   37.03    2.04
  -7   2   3   36.17    1.86
  -7   2   3   36.62    1.98
   6  -2  -3   26.80    1.57
  -6   2   3   26.42    1.38
  -6   2   3   24.56    1.49
   5  -2  -3   -0.06    0.39
  -5   2   3    0.36    0.34
  -5   2   3    0.18    0.13
   4  -2  -3    8.07    0.76
   4  -2  -3    7.34    0.51
  -4   2   3    8.15    0.70
   3  -2  -3  105.32    4.34
   3  -2  -3  102.97    4.43
  -3   2   3  106.44    4.34
   2  -2  -3    3.66    0.28
   2  -2  -3    4.45    0.49
  -2   2   3    3.77    0.39
  -2   2   3    3.56    0.32
   1  -2  -3   60.93    2.72
   1  -2  -3   65.10    2.63
  -1   2   3   62.05    2.55
  -1   2   3   68.14    2.72
   0  -2  -3  400.06   16.54
   0  -2  -3  423.99   16.49
   0  -2  -3  412.23   16.52
   0   2   3  403.97   16.41
  -1  -2  -3  531.00   20.41
  -1  -2  -3  492.83   20.44
   1   2   3  511.96   20.67
  -2  -2  -3   58.55    2.56
  -2  -2  -3   61.63    2.39
   2   2   3   59.12    2.52
   2   2   3   57.73    2.41
  -3  -2  -3   23.81    1.26
  -3  -2  -3   23.28    1.02
  -3  -2  -3   24.86    0.97
   3   2   3   25.07    1.04
   3   2   3   23.03    1.18
  -4  -2  -3    1.79    0.17
  -4  -2  -3    1.41    0.41
   4   2   3    1.45    0.21
  -5  -2  -3   11.89    0.60
  -5  -2  -3   12.16    0.95
   5   2   3   11.92    0.74
  -6  -2  -3   26.66    1.22
  -6  -2  -3   27.99    1.59
  -6  -2  -3   25.74    1.55
   6   2   3   27.05    1.39
  -7  -2  -3    0.37    0.14
  -7  -2  -3   -0.19    0.27
  -7  -2  -3    0.14    0.46
  -7  -2  -3    0.19    0.45
   7   2   3   -0.20    0.23
  -8  -2  -3   74.70    3.14
  -8  -2  -3   75.20    3.57
  -8  -2  -3   74.64    3.55
   8   2   3   71.15    3.31
  -9  -2  -3   12.91    1.11
  -9  -2  -3   11.76    1.23
 -10  -2  -3    5.33    0.97
 -10  -2  -3    6.99    0.81
 -11  -2  -3   15.37    1.23
 -11  -2  -3   13.14    1.52
   9  -3  -3   -0.16    0.64
  -9   3   3    1.01    0.65
   8  -3  -3    6.96    1.05
  -8   3   3    6.73    1.06
   7  -3  -3   18.90    1.36
  -7   3   3   17.91    1.27
  -7   3   3   15.60    1.10
   6  -3  -3    2.32    0.62
  -6   3   3    2.33    0.51
  -6   3   3    2.40    0.35
  -6   3   3    2.98    0.35
   5  -3  -3   96.29    4.16
  -5   3   3   90.58    3.96
  -5   3   3   90.96    3.97
   4  -3  -3   46.81    2.34
  -4   3   3   47.33    2.17
  -4   3   3   49.25    2.23
  -4   3   3   47.80    2.14
   3  -3  -3  113.69    4.78
   3  -3  -3  112.34    4.60
  -3   3   3  113.07    4.61
  -3   3   3  113.43    4.71
  -3   3   3  107.76    4.58
   2  -3  -3   78.52    3.33
   2  -3  -3   75.34    3.13
  -2   3   3   75.33    3.10
  -2   3   3   70.21    3.34
  -2   3   3   78.91    3.16
  -2   3   3   77.57    3.03
   1  -3  -3   26.22    1.14
   1  -3  -3   26.33    1.30
  -1   3   3   25.43    1.16
  -1   3   3   25.67    1.13
  -1   3   3   25.97    1.07
  -1   3   3   27.35    1.26
   0  -3  -3   59.36    2.38
   0  -3  -3   57.83    2.51
   0   3   3   57.92    2.44
   0   3   3   58.75    2.48
  -1  -3  -3   10.76    0.68
  -1  -3  -3   10.81    0.62
   1   3   3   11.12    0.62
   1   3   3   11.28    0.67
   1   3   3   11.75    0.59
  -2  -3  -3   11.43    0.55
  -2  -3  -3   10.70    0.74
   2   3   3   11.56    0.64
   2   3   3   10.39    0.63
  -3  -3  -3   96.72    4.00
  -3  -3  -3   99.94    4.21
   3   3   3   98.89    4.15
   3   3   3   99.70    4.02
  -4  -3  -3  123.05    4.97
  -4  -3  -3  127.28    5.25
   4   3   3  127.93    4.99
   4   3   3  114.34    5.26
  -5  -3  -3    0.20    0.31
  -5  -3  -3    0.20    0.09
  -6  -3  -3  117.62    5.11
  -6  -3  -3  120.10    4.82
  -6  -3  -3  119.70    5.19
   6   3   3  115.08    5.03
  -7  -3  -3    1.10    0.53
  -7  -3  -3    1.33    0.54
   7   3   3    1.02    0.26
  -8  -3  -3   11.43    0.67
  -8  -3  -3   12.23    1.09
  -8  -3  -3   10.85    1.16
   8   3   3    9.45    0.76
  -9  -3  -3    8.61    0.94
  -9  -3  -3    6.28    1.10
  -9  -3  -3    9.44    0.63
 -10  -3  -3    1.38    0.60
 -10  -3  -3    1.71    0.45
 -11  -3  -3    0.77    0.57
 -11  -3  -3    2.15    0.80
  -9   4   3    5.42    1.07
   8  -4  -3    2.99    0.71
  -8   4   3    2.63    0.78
   7  -4  -3   11.68    1.13
  -7   4   3    8.26    0.72
  -7   4   3   10.65    0.86
  -7   4   3   10.64    1.07
   6  -4  -3    8.02    0.97
  -6   4   3    8.33    0.65
  -6   4   3    6.82    0.87
   5  -4  -3    0.61    0.49
  -5   4   3    1.07    0.40
   4  -4  -3   33.07    1.84
  -4   4   3   30.81    1.62
  -4   4   3   33.25    1.54
  -4   4   3   32.65    1.58
   3  -4  -3   12.97    1.03
  -3   4   3   14.08    0.80
  -3   4   3   13.44    0.81
  -3   4   3   13.38    0.72
  -3   4   3   13.22    0.61
   2  -4  -3    2.95    0.50
   2  -4  -3    2.96    0.24
  -2   4   3    2.66    0.22
  -2   4   3    2.30    0.22
  -2   4   3    3.47    0.28
   1  -4  -3   19.06    0.84
   1  -4  -3   19.59    1.13
  -1   4   3   18.49    1.08
  -1   4   3   18.69    0.90
   0  -4  -3   86.19    3.48
   0  -4  -3   87.74    3.69
   0   4   3   91.91    3.65
   0   4   3   82.24    3.69
   0   4   3   85.92    3.60
  -1  -4  -3   27.38    1.38
  -1  -4  -3   27.70    1.34
   1   4   3   29.80    1.30
   1   4   3   27.22    1.37
   1   4   3   26.98    1.32
  -2  -4  -3  140.69    5.71
  -2  -4  -3  141.66    5.88
   2   4   3  140.98    5.84
   2   4   3  141.02    5.79
   2   4   3  144.31    5.70
  -3  -4  -3   59.88    2.74
  -3  -4  -3   58.72    2.51
   3   4   3   59.25    2.57
  -4  -4  -3   86.92    3.65
  -4  -4  -3   88.24    3.94
   4   4   3   90.09    3.70
   4   4   3   88.13    3.83
  -5  -4  -3   67.90    2.92
  -5  -4  -3   67.30    3.26
  -5  -4  -3   68.60    3.15
   5   4   3   73.69    2.98
   5   4   3   69.53    3.12
  -6  -4  -3    1.35    0.51
  -6  -4  -3    1.66    0.23
  -6  -4  -3    1.23    0.56
   6   4   3    1.35    0.21
  -7  -4  -3    3.98    0.37
  -7  -4  -3    4.15    0.71
  -7  -4  -3    3.51    0.70
  -8  -4  -3   43.94    2.48
  -8  -4  -3   43.53    2.38
  -8  -4  -3   44.94    2.01
  -9  -4  -3    2.76    0.67
  -9  -4  -3    2.84    0.38
  -9  -4  -3    3.08    0.58
   9   4   3    2.31    0.42
 -10  -4  -3   18.72    1.50
 -10  -4  -3   18.39    1.30
 -11  -4  -3   24.37    1.85
 -11  -4  -3   26.05    1.60
  -8   5   3   18.89    1.61
  -8   5   3   20.42    1.58
   7  -5  -3    5.22    0.78
  -7   5   3    3.93    0.72
   6  -5  -3   11.02    1.05
  -6   5   3   10.19    0.83
  -6   5   3   12.02    1.01
   5  -5  -3    0.92    0.54
  -5   5   3    1.13    0.27
  -5   5   3    1.25    0.43
   4  -5  -3    0.36    0.49
  -4   5   3    0.20    0.08
  -4   5   3    0.31    0.08
  -4   5   3   -0.01    0.18
  -4   5   3    0.23    0.30
   3  -5  -3   20.84    1.39
  -3   5   3   21.43    1.04
  -3   5   3   20.53    0.97
  -3   5   3   21.15    1.04
  -3   5   3   21.07    1.16
   2  -5  -3   26.37    1.54
  -2   5   3   27.23    1.33
  -2   5   3   24.27    1.20
  -2   5   3   26.71    1.51
   1  -5  -3    5.65    0.70
  -1   5   3    5.65    0.63
  -1   5   3    5.49    0.43
  -1   5   3    5.49    0.40
   0  -5  -3   69.55    2.83
   0  -5  -3   68.87    3.12
   0  -5  -3   73.57    2.83
   0   5   3   70.99    3.06
   0   5   3   72.26    3.18
   0   5   3   68.83    3.03
  -1  -5  -3   27.32    1.39
  -1  -5  -3   28.06    1.45
   1   5   3   27.38    1.36
   1   5   3   25.96    1.45
   1   5   3   29.02    1.33
  -2  -5  -3   27.31    1.48
   2   5   3   25.87    1.41
   2   5   3   28.13    1.26
   2   5   3   26.28    1.38
  -3  -5  -3   63.81    3.00
  -3  -5  -3   69.71    3.16
   3   5   3   69.19    3.01
   3   5   3   71.63    2.85
   3   5   3   67.95    3.05
  -4  -5  -3    8.65    0.65
  -4  -5  -3   11.24    0.98
  -4  -5  -3   10.56    0.85
   4   5   3   10.60    0.69
   4   5   3   11.08    0.81
  -5  -5  -3    1.63    0.49
  -5  -5  -3    1.96    0.51
   5   5   3    2.22    0.44
   5   5   3    1.69    0.26
  -6  -5  -3   54.83    2.43
  -6  -5  -3   56.25    2.86
  -6  -5  -3   57.83    2.72
   6   5   3   57.81    2.53
   6   5   3   50.56    2.60
  -7  -5  -3   30.90    1.88
  -7  -5  -3   31.28    1.83
  -7  -5  -3   29.43    1.46
  -8  -5  -3    7.55    0.60
  -8  -5  -3    8.87    1.14
  -8  -5  -3    8.00    1.02
  -9  -5  -3   54.30    2.71
  -9  -5  -3   47.55    2.32
  -9  -5  -3   51.45    2.81
 -10  -5  -3   -0.18    0.43
 -10  -5  -3    0.27    0.56
 -11  -5  -3    5.02    0.95
  -7   6   3    1.06    0.61
  -6   6   3    3.09    0.58
  -6   6   3    4.54    0.74
   5  -6  -3   12.60    1.09
  -5   6   3   11.34    1.07
  -5   6   3   11.64    0.84
  -5   6   3   12.25    0.82
   4  -6  -3   54.43    2.80
  -4   6   3   50.08    2.18
  -4   6   3   52.65    2.69
   3  -6  -3    2.79    0.67
  -3   6   3    2.72    0.64
  -3   6   3    3.50    0.32
   2  -6  -3   54.00    2.67
  -2   6   3   52.01    2.48
  -2   6   3   54.39    2.35
  -2   6   3   53.22    2.66
   1  -6  -3   47.21    2.35
  -1   6   3   48.11    2.38
  -1   6   3   45.07    2.11
  -1   6   3   47.67    2.20
   0  -6  -3   40.09    2.04
   0  -6  -3   42.04    1.69
   0   6   3   41.58    1.92
   0   6   3   39.23    2.09
  -1  -6  -3   34.44    1.42
   1   6   3   33.36    1.60
   1   6   3   32.92    1.64
   1   6   3   33.34    1.79
  -2  -6  -3    0.68    0.41
   2   6   3    2.49    0.52
  -3  -6  -3    0.95    0.34
  -3  -6  -3    1.21    0.49
  -3  -6  -3    0.55    0.16
   3   6   3    1.12    0.20
   3   6   3    0.91    0.20
   3   6   3    0.81    0.44
  -4  -6  -3   20.13    1.09
  -4  -6  -3   21.48    1.29
  -4  -6  -3   21.58    1.47
   4   6   3   22.77    1.31
   4   6   3   20.71    1.21
   4   6   3   24.62    1.04
  -5  -6  -3   48.96    2.57
  -5  -6  -3   47.89    2.17
  -5  -6  -3   50.80    2.37
   5   6   3   47.65    2.31
   5   6   3   44.06    2.30
  -6  -6  -3    8.62    0.61
  -6  -6  -3    9.71    0.96
  -6  -6  -3    9.57    1.06
   6   6   3    9.70    0.90
  -7  -6  -3   12.24    1.22
  -7  -6  -3   13.07    1.15
  -7  -6  -3   12.40    0.79
   7   6   3   13.33    1.07
  -8  -6  -3    5.09    0.81
  -8  -6  -3    4.49    0.79
  -8  -6  -3    4.64    0.58
  -9  -6  -3    6.18    0.79
  -9  -6  -3    6.24    0.90
 -10  -6  -3    3.03    0.58
 -10  -6  -3    2.01    0.62
 -11  -6  -3    5.64    1.00
 -11  -6  -3    5.56    0.94
  -7   7   3   -0.99    0.75
  -6   7   3   22.43    1.52
  -5   7   3    2.44    0.54
  -4   7   3   13.15    1.11
  -3   7   3   39.15    1.79
  -2   7   3    0.53    0.46
  -2   7   3    0.40    0.26
  -1   7   3   11.40    0.73
  -1   7   3    8.83    0.72
  -1   7   3   12.60    1.06
   0  -7  -3   18.00    0.79
   0   7   3   18.35    1.33
   0   7   3   17.08    1.01
   0   7   3   16.30    0.96
  -1  -7  -3   17.29    0.88
   1   7   3   18.27    1.02
   1   7   3   16.62    1.26
   1   7   3   17.69    1.00
  -2  -7  -3   24.94    1.16
   2   7   3   25.45    1.26
   2   7   3   24.00    1.55
   2   7   3   23.52    1.32
  -3  -7  -3   79.95    3.28
  -3  -7  -3   76.99    3.60
   3   7   3   75.30    3.51
   3   7   3   77.77    3.26
   3   7   3   70.42    3.42
  -4  -7  -3    0.08    0.38
  -4  -7  -3   -0.14    0.43
  -4  -7  -3   -0.40    0.23
   4   7   3    0.10    0.16
   4   7   3    0.06    0.28
   4   7   3    0.08    0.45
  -5  -7  -3   86.27    3.85
  -5  -7  -3   96.68    4.02
  -5  -7  -3   95.60    4.30
   5   7   3   79.47    4.03
   5   7   3   91.84    4.04
  -6  -7  -3    2.75    0.68
  -6  -7  -3    2.85    0.48
  -6  -7  -3    3.03    0.67
   6   7   3    3.42    0.68
  -7  -7  -3    0.15    0.48
  -7  -7  -3    0.35    0.36
  -7  -7  -3    0.38    0.47
   7   7   3   -0.33    0.51
  -8  -7  -3   10.60    0.84
  -8  -7  -3    9.66    1.07
  -8  -7  -3   10.30    1.05
  -9  -7  -3    3.57    0.70
  -9  -7  -3    3.62    0.64
 -10  -7  -3   -0.06    0.67
 -10  -7  -3   -0.34    0.59
  -6   8   3    0.70    0.72
  -5   8   3    0.34    0.56
  -4   8   3    4.02    0.70
  -3   8   3    0.23    0.40
  -2   8   3    7.27    0.86
  -2   8   3    6.56    0.61
  -1   8   3   62.42    3.34
  -1   8   3   54.28    2.62
   0   8   3    1.52    0.33
   0   8   3    1.61    0.56
  -1  -8  -3   85.16    3.35
   1   8   3   80.03    3.83
   1   8   3   77.43    3.61
   1   8   3   79.72    3.55
  -2  -8  -3    4.01    0.23
   2   8   3    4.43    0.82
   2   8   3    4.81    0.43
   2   8   3    3.57    0.51
  -3  -8  -3   27.54    1.32
   3   8   3   22.72    1.41
   3   8   3   26.66    1.34
   3   8   3   26.44    1.66
  -4  -8  -3   22.90    1.37
   4   8   3   24.83    1.21
   4   8   3   22.33    1.54
  -5  -8  -3    0.52    0.52
   5   8   3    1.05    0.56
   5   8   3    0.73    0.23
  -6  -8  -3    1.84    0.60
  -6  -8  -3    1.15    0.61
   6   8   3    1.15    0.65
  -7  -8  -3   42.61    2.47
  -7  -8  -3   43.22    2.37
   7   8   3   40.74    2.27
  -8  -8  -3    4.23    0.83
  -8  -8  -3    2.61    0.61
   8   8   3    3.49    0.82
  -9  -8  -3   14.79    1.34
  -9  -8  -3   10.11    1.21
 -10  -8  -3   11.63    1.35
  -4   9   3    4.15    0.67
  -3   9   3    9.45    0.97
  -2   9   3    6.13    0.77
  -1   9   3   17.59    1.22
  -1   9   3   20.67    1.39
   0   9   3    3.31    0.65
   0   9   3    2.85    0.50
  -1  -9  -3    5.95    0.64
   1   9   3    6.48    0.82
   1   9   3    7.01    0.83
  -2  -9  -3    0.45    0.38
   2   9   3    0.22    0.47
   2   9   3   -0.26    0.40
   3   9   3    2.89    0.45
   3   9   3    2.85    0.70
  -4  -9  -3    1.22    0.48
   4   9   3    1.12    0.56
   4   9   3    1.82    0.36
  -5  -9  -3   31.15    1.74
   5   9   3   27.89    1.84
  -6  -9  -3    9.57    1.19
   6   9   3   10.30    1.19
  -7  -9  -3    3.35    1.22
   7   9   3    6.13    1.04
  -8  -9  -3   20.22    1.62
   8   9   3   20.55    1.71
  -9  -9  -3    1.18    0.79
  -3  10   3   21.01    1.58
  -2  10   3   -0.31    0.61
  -1  10   3   -0.54    0.53
   0  10   3   14.44    1.16
   1  10   3    2.53    0.55
  -2 -10  -3    1.44    0.67
   2  10   3    2.78    0.65
  -3 -10  -3   13.62    1.11
   3  10   3   14.54    1.23
   4  10   3    7.68    0.98
  -5 -10  -3   12.19    1.24
   5  10   3   11.42    1.20
  -6 -10  -3    6.77    1.30
   6  10   3    9.29    1.25
  -7 -10  -3    0.06    0.88
   7  10   3    1.31    0.82
  -8 -10  -3    1.22    1.00
   8  10   3    3.10    1.06
   0  11   3    6.74    1.05
   1  11   3   10.53    1.14
   2  11   3   22.42    1.60
   3  11   3    0.43    0.68
   4  11   3   13.20    1.26
   5  11   3    4.13    0.86
   6  11   3   -0.46    0.83
   5  10  -4   -1.19    0.66
   4  10  -4    4.85    0.70
   3  10  -4    4.37    0.65
  -3 -10   4    3.88    0.81
   2  10  -4    0.11    0.56
  -2 -10   4    1.52    0.72
   1  10  -4    0.88    0.55
  -1 -10   4    1.30    0.74
   0  10  -4    3.06    0.62
   0 -10   4    2.24    0.81
  -1  10  -4    4.15    0.69
   1 -10   4    3.41    0.94
  -2  10  -4    2.22    0.70
  -7  -9   4    3.25    1.00
   6   9  -4    5.62    0.85
  -6  -9   4    4.27    0.92
   5   9  -4    8.14    0.88
  -5  -9   4    7.77    1.22
   4   9  -4    0.29    0.45
  -4  -9   4    0.11    0.57
   3   9  -4    4.93    0.70
   2   9  -4    7.18    0.87
  -2  -9   4    8.93    1.10
   1   9  -4    0.55    0.41
   0   9  -4    3.21    0.56
   0  -9   4    2.83    0.74
  -1   9  -4    5.57    0.77
  -2   9  -4    2.65    0.57
   2  -9   4    2.10    0.74
  -3   9  -4   11.81    1.13
   3  -9   4   10.46    1.39
  -4   9  -4    1.66    0.74
  -8  -8   4   -0.81    0.69
  -7  -8   4    8.45    1.15
   6   8  -4    8.95    0.92
  -6  -8   4    8.80    1.15
   5   8  -4    4.28    0.78
   5   8  -4    4.69    0.71
  -5  -8   4    5.17    0.98
   4   8  -4   13.54    1.00
   4   8  -4   14.92    1.16
  -4  -8   4   15.45    1.18
   3   8  -4   33.33    1.95
  -3  -8   4   33.76    1.72
   2   8  -4   14.18    1.18
  -2  -8   4   13.18    1.16
   1   8  -4   59.43    3.02
  -1  -8   4   60.81    2.96
   0   8  -4    2.88    0.62
   0  -8   4    2.69    0.67
  -1   8  -4   30.40    1.83
   1  -8   4   31.06    1.85
  -2   8  -4    4.69    0.79
   2  -8   4    2.89    0.70
  -3   8  -4    0.52    0.51
   3  -8   4    0.85    0.59
  -4   8  -4    2.20    0.65
   4  -8   4    2.02    0.75
  -5   8  -4   16.00    1.40
  -9  -7   4    0.68    0.62
  -8  -7   4   12.18    1.14
  -7  -7   4   15.70    1.34
  -6  -7   4    3.68    0.75
   5   7  -4   47.83    2.51
  -5  -7   4   48.53    2.47
   4   7  -4    0.53    0.45
  -4  -7   4   -0.12    0.44
   3   7  -4   16.70    1.30
  -3  -7   4   18.72    1.16
   2   7  -4   16.18    1.02
   2   7  -4   19.31    1.35
  -2  -7   4   18.40    1.05
   1   7  -4    0.94    0.49
  -1  -7   4    0.68    0.51
   0   7  -4   14.40    1.08
   0   7  -4   17.71    1.27
   0   7  -4   14.48    0.98
   0  -7   4   17.67    1.24
  -1   7  -4   63.24    3.09
  -1   7  -4   63.52    3.15
   1  -7   4   68.23    3.11
  -2   7  -4    0.09    0.48
   2  -7   4    0.04    0.49
   3  -7   4   78.82    3.68
  -4   7  -4   10.51    1.05
   4  -7   4   10.65    1.13
  -5   7  -4   27.61    1.81
  -6   7  -4   44.76    2.54
   9   6  -4    2.47    0.84
  -9  -6   4    4.32    0.78
   8   6  -4    7.87    0.99
  -8  -6   4    6.67    0.82
  -7  -6   4   22.49    1.51
  -6  -6   4   -0.03    0.49
   5   6  -4   13.20    1.12
  -5  -6   4   13.03    1.10
   4   6  -4    0.69    0.28
   4   6  -4    0.89    0.50
   4   6  -4    0.51    0.39
  -4  -6   4   -0.01    0.35
  -4  -6   4    0.55    0.43
   3   6  -4    0.83    0.49
   3   6  -4    1.06    0.22
  -3  -6   4    1.30    0.44
  -3  -6   4    0.37    0.30
   2   6  -4   11.24    0.85
   2   6  -4   12.38    1.05
   2   6  -4   12.39    0.70
  -2  -6   4   12.64    0.84
  -2  -6   4   10.41    0.76
   1   6  -4    4.59    0.57
   1   6  -4    5.70    0.80
  -1  -6   4    4.76    0.48
   0   6  -4    6.11    0.80
   0   6  -4    5.60    0.35
   0   6  -4    4.62    0.46
   0  -6   4    4.19    0.46
   0  -6   4    5.60    0.74
  -1   6  -4   25.52    1.52
  -1   6  -4   24.10    1.05
  -1   6  -4   22.12    1.28
   1  -6   4   25.21    1.45
   1  -6   4   23.10    1.28
  -2   6  -4   28.36    1.65
  -2   6  -4   26.32    1.10
  -2   6  -4   23.19    1.39
   2  -6   4   27.31    1.55
  -3   6  -4    1.07    0.13
  -3   6  -4    1.15    0.52
  -3   6  -4    0.78    0.15
   3  -6   4    1.10    0.52
  -4   6  -4   19.73    0.91
  -4   6  -4   20.27    1.43
   4  -6   4   20.26    1.41
  -5   6  -4   13.33    1.21
  -5   6  -4   12.88    0.69
  -5   6  -4   12.42    0.79
  -6   6  -4    1.25    0.49
  -6   6  -4    0.44    0.61
  -7   6  -4    5.69    1.21
  -7   6  -4    7.85    1.23
 -10  -5   4    0.25    0.62
   9   5  -4   43.21    2.39
  -9  -5   4   43.16    2.29
   8   5  -4    0.26    0.52
   8   5  -4    0.65    0.63
  -8  -5   4    0.43    0.41
  -7  -5   4   25.52    2.01
   6   5  -4   12.46    0.87
  -6  -5   4   13.81    1.12
   5   5  -4    2.01    0.57
   5   5  -4    1.26    0.29
   5   5  -4    0.94    0.35
  -5  -5   4    1.83    0.52
  -5  -5   4    0.50    0.33
   4   5  -4    1.16    0.23
   4   5  -4    1.45    0.49
   4   5  -4    1.17    0.30
  -4  -5   4    1.86    0.48
   3   5  -4   32.11    1.69
   3   5  -4   32.04    1.73
   3   5  -4   30.66    1.53
  -3  -5   4   33.87    1.64
  -3  -5   4   28.53    1.54
   2   5  -4    0.20    0.24
   2   5  -4    0.19    0.41
   2   5  -4    0.09    0.14
  -2  -5   4    0.16    0.30
  -2  -5   4    0.27    0.20
   1   5  -4   23.13    1.37
   1   5  -4   23.45    1.30
   1   5  -4   22.87    1.13
  -1  -5   4   24.05    1.16
  -1  -5   4   22.51    1.19
   0   5  -4   58.24    2.76
   0   5  -4   59.46    2.52
   0  -5   4   59.89    2.67
   0  -5   4   60.79    2.78
  -1   5  -4    0.05    0.38
  -1   5  -4   -0.13    0.20
  -1   5  -4    0.37    0.12
   1  -5   4    0.30    0.38
   1  -5   4    0.11    0.17
  -2   5  -4   37.67    1.93
  -2   5  -4   37.83    1.86
  -2   5  -4   37.45    1.62
   2  -5   4   36.59    1.92
  -3   5  -4    1.35    0.22
  -3   5  -4    2.01    0.54
   3  -5   4    1.61    0.52
  -4   5  -4    1.30    0.34
  -4   5  -4    1.58    0.50
   4  -5   4    1.04    0.54
  -5   5  -4    0.69    0.51
  -5   5  -4    1.14    0.39
  -5   5  -4    1.20    0.43
  -6   5  -4   32.39    1.87
  -6   5  -4   30.79    1.67
  -6   5  -4   31.29    1.90
  -7   5  -4    3.89    0.69
  -7   5  -4    4.17    0.83
  -7   5  -4    4.64    0.84
  -8   5  -4   12.08    1.45
 -10  -4   4    0.86    0.56
   9   4  -4   -0.20    0.58
  -9  -4   4    0.51    0.44
   8   4  -4    0.98    0.59
   8   4  -4    2.69    0.58
  -8  -4   4    1.64    0.51
   7   4  -4   42.73    2.17
   7   4  -4   38.89    2.04
   7   4  -4   41.44    2.02
  -7  -4   4   42.16    2.26
   6   4  -4    2.00    0.36
  -6  -4   4    2.78    0.38
   5   4  -4  109.50    4.91
   5   4  -4  118.71    4.97
  -5  -4   4  109.20    4.90
  -5  -4   4  118.32    4.95
   4   4  -4   90.48    4.02
   4   4  -4   94.30    4.07
   4   4  -4   91.08    3.99
  -4  -4   4   91.83    3.99
  -4  -4   4   90.41    4.01
   3   4  -4   69.56    3.13
   3   4  -4   67.63    3.02
   3   4  -4   66.23    3.08
  -3  -4   4   69.77    3.04
  -3  -4   4   69.69    3.07
   2   4  -4  103.44    4.43
   2   4  -4   98.19    4.35
   2   4  -4  101.28    4.27
  -2  -4   4  101.71    4.25
  -2  -4   4  104.28    4.36
   1   4  -4    1.44    0.22
   1   4  -4    1.76    0.43
  -1  -4   4    1.73    0.33
  -1  -4   4    1.99    0.24
   0   4  -4   88.20    3.63
   0   4  -4   83.37    3.77
   0  -4   4   88.14    3.81
   0  -4   4   90.75    3.76
  -1   4  -4   84.66    3.64
  -1   4  -4   83.63    3.46
   1  -4   4   82.90    3.57
   1  -4   4   84.02    3.65
  -2   4  -4   13.73    0.93
  -2   4  -4   14.85    0.85
  -2   4  -4   13.09    0.71
   2  -4   4   14.12    0.78
   2  -4   4   14.18    0.99
  -3   4  -4    7.01    0.74
  -3   4  -4    6.01    0.51
   3  -4   4    8.20    0.83
  -4   4  -4  105.98    4.71
  -4   4  -4  109.36    4.67
  -4   4  -4  110.15    4.77
   4  -4   4  111.90    4.80
  -5   4  -4    3.27    0.52
  -5   4  -4    3.47    0.57
  -5   4  -4    3.61    0.65
  -5   4  -4    2.48    0.35
  -6   4  -4   69.68    3.13
  -6   4  -4   69.18    3.16
  -6   4  -4   66.91    3.23
  -7   4  -4    7.42    0.95
  -7   4  -4    7.70    1.09
  -7   4  -4    6.52    0.98
  -8   4  -4    1.61    0.74
  -8   4  -4    1.62    0.69
  -8   4  -4    1.13    0.68
  -9   4  -4    2.58    1.14
  -9   4  -4    2.85    0.89
 -10  -3   4    0.55    0.48
   9   3  -4    9.90    1.14
  -9  -3   4   11.31    0.94
   8   3  -4    8.51    0.81
   8   3  -4    9.43    0.94
  -8  -3   4    8.83    0.90
   7   3  -4   31.86    1.69
   7   3  -4   29.42    1.62
   7   3  -4   28.64    1.55
  -7  -3   4   30.67    1.78
   6   3  -4   49.94    2.56
   6   3  -4   55.29    2.53
   6   3  -4   58.71    2.62
  -6  -3   4   56.44    2.68
  -6  -3   4   49.86    2.51
   5   3  -4   10.35    0.67
   5   3  -4    9.16    0.69
  -5  -3   4   11.58    0.95
  -5  -3   4   10.31    0.71
   4   3  -4   20.37    1.10
   4   3  -4   20.97    1.13
  -4  -3   4   20.60    1.23
  -4  -3   4   21.28    1.13
   3   3  -4   81.39    3.56
   3   3  -4   80.40    3.52
   3   3  -4   83.67    3.55
  -3  -3   4   82.40    3.55
  -3  -3   4   79.86    3.51
   2   3  -4   11.52    0.80
   2   3  -4   10.32    0.62
   2   3  -4   10.50    0.78
  -2  -3   4    9.51    0.72
  -2  -3   4   10.36    0.72
   1   3  -4   38.78    1.75
   1   3  -4   39.09    1.84
  -1  -3   4   40.21    1.81
  -1  -3   4   38.32    1.75
   0   3  -4   90.77    3.68
   0   3  -4   83.53    3.74
   0  -3   4   91.99    3.74
  -1   3  -4    6.48    0.41
  -1   3  -4    6.76    0.60
   1  -3   4    6.17    0.44
   1  -3   4    6.91    0.63
  -2   3  -4  245.19   10.10
   2  -3   4  258.44   10.21
   2  -3   4  252.08   10.08
  -3   3  -4   70.23    3.04
  -3   3  -4   66.81    2.97
  -3   3  -4   69.59    3.08
   3  -3   4   68.85    3.11
  -4   3  -4   46.61    2.18
  -4   3  -4   48.11    2.24
  -4   3  -4   45.70    2.16
   4  -3   4   48.48    2.34
  -5   3  -4   50.16    2.38
  -5   3  -4   49.65    2.29
  -5   3  -4   49.29    2.33
  -6   3  -4   -0.47    0.31
  -6   3  -4   -0.02    0.46
  -6   3  -4    0.02    0.42
  -6   3  -4   -0.33    0.37
  -6   3  -4   -0.27    0.32
  -7   3  -4    5.72    0.86
  -7   3  -4    5.18    0.79
  -7   3  -4    5.00    0.82
  -7   3  -4    3.89    0.67
  -8   3  -4   13.74    1.17
  -8   3  -4   13.96    1.26
  -8   3  -4   13.46    1.31
  -9   3  -4    8.45    1.29
  -9   3  -4    8.29    1.23
  -9   3  -4    8.33    1.18
 -10   3  -4    5.89    1.10
 -10  -2   4    0.21    0.51
   9   2  -4    5.25    0.99
  -9  -2   4    6.27    0.74
   8   2  -4   23.97    1.49
   8   2  -4   22.16    1.29
  -8  -2   4   24.83    1.55
   7   2  -4    9.88    0.91
   7   2  -4   10.07    0.70
  -7  -2   4    9.80    0.91
   6   2  -4   24.33    1.30
   6   2  -4   18.99    1.17
   6   2  -4   22.63    1.17
   6   2  -4   22.78    1.28
  -6  -2   4   23.00    1.42
  -6  -2   4   19.52    1.21
   5   2  -4    0.96    0.39
   5   2  -4    1.10    0.22
   5   2  -4    0.54    0.21
  -5  -2   4    1.07    0.44
  -5  -2   4    0.67    0.21
   4   2  -4   20.38    1.11
   4   2  -4   22.13    1.12
  -4  -2   4   21.59    1.24
  -4  -2   4   20.03    1.11
   3   2  -4   27.16    1.32
  -3  -2   4   25.46    1.35
   2   2  -4   18.54    0.97
   2   2  -4   17.15    0.91
  -2  -2   4   14.59    0.87
  -2  -2   4   15.83    0.92
   1   2  -4   63.46    2.73
   1   2  -4   63.90    2.71
  -1  -2   4   61.27    2.69
  -1  -2   4   65.22    2.74
   0   2  -4  203.01    8.01
   0   2  -4  192.85    8.02
   0  -2   4  191.98    7.98
   0  -2   4  212.29    8.05
  -1   2  -4   44.12    1.97
  -1   2  -4   45.07    1.94
   1  -2   4   44.96    1.95
   1  -2   4   47.14    2.07
  -2   2  -4    2.93    0.29
  -2   2  -4    2.53    0.38
   2  -2   4    3.11    0.25
   2  -2   4    2.98    0.48
  -3   2  -4   35.08    1.65
  -3   2  -4   35.83    1.60
   3  -2   4   35.37    1.77
  -4   2  -4   22.02    1.12
  -4   2  -4   23.04    1.16
  -4   2  -4   23.31    1.21
   4  -2   4   21.24    1.34
  -5   2  -4   37.48    1.93
  -5   2  -4   37.65    1.76
  -5   2  -4   38.09    1.86
  -5   2  -4   39.21    1.82
  -6   2  -4   18.00    1.04
  -6   2  -4   17.75    1.07
  -6   2  -4   18.07    1.06
  -6   2  -4   18.96    1.25
  -7   2  -4   59.35    2.92
  -7   2  -4   61.71    2.72
  -7   2  -4   62.34    2.95
  -7   2  -4   59.75    2.77
  -8   2  -4    0.22    0.43
  -8   2  -4   -0.79    0.46
  -8   2  -4   -0.47    0.41
  -8   2  -4    0.52    0.58
  -9   2  -4   54.01    2.58
  -9   2  -4   54.15    2.85
  -9   2  -4   52.42    2.81
 -10   2  -4    4.87    0.93
 -10   2  -4    5.63    1.06
  10   1  -4   16.95    1.64
 -10  -1   4   18.31    1.22
   9   1  -4    1.96    0.75
  -9  -1   4    1.90    0.49
   8   1  -4    4.09    0.76
   8   1  -4    3.79    0.49
  -8  -1   4    4.32    0.72
   7   1  -4   13.85    1.09
   7   1  -4   14.68    0.84
  -7  -1   4   14.31    1.14
   6   1  -4   13.42    0.91
   6   1  -4   16.95    0.89
   6   1  -4   17.68    1.10
  -6  -1   4   15.11    0.99
  -6  -1   4   17.90    1.19
   5   1  -4   23.05    1.24
   5   1  -4   20.99    1.15
   5   1  -4   22.38    1.10
  -5  -1   4   20.59    1.14
  -5  -1   4   22.73    1.32
   4   1  -4  168.44    6.92
   4   1  -4  171.89    6.82
   4   1  -4  161.88    6.78
  -4  -1   4  166.88    6.89
  -4  -1   4  166.93    6.90
   3   1  -4   25.25    1.28
   3   1  -4   25.67    1.21
   3   1  -4   24.62    1.26
  -3  -1   4   25.73    1.27
  -3  -1   4   25.43    1.31
   2   1  -4  107.89    4.43
   2   1  -4  107.05    4.41
  -2  -1   4  105.79    4.41
  -2  -1   4  105.07    4.41
   1   1  -4   95.87    3.88
  -1  -1   4   94.95    3.87
  -1  -1   4   90.89    3.87
   0   1  -4   22.69    1.08
   0   1  -4   23.64    1.09
   0  -1   4   24.08    1.09
   0  -1   4   23.45    1.10
  -1   1  -4   20.08    0.99
   1  -1   4   18.80    0.89
   1  -1   4   19.27    1.00
  -2   1  -4  196.76    7.75
  -2   1  -4  193.65    7.61
   2  -1   4  188.23    7.76
   2  -1   4  187.46    7.59
  -3   1  -4    2.90    0.32
  -3   1  -4    3.54    0.31
   3  -1   4    3.75    0.53
  -4   1  -4   14.28    0.73
  -4   1  -4   14.12    0.81
  -4   1  -4   13.21    0.94
  -4   1  -4   14.03    0.77
   4  -1   4   14.27    1.00
  -5   1  -4  168.60    7.01
  -5   1  -4  166.61    6.99
  -5   1  -4  170.88    6.76
  -6   1  -4    4.77    0.51
  -6   1  -4    4.40    0.72
  -6   1  -4    4.71    0.38
  -7   1  -4   19.53    1.26
  -7   1  -4   24.14    1.54
  -7   1  -4   23.05    1.47
  -7   1  -4   23.95    1.21
  -7   1  -4   23.14    1.22
  -8   1  -4    7.14    1.00
  -8   1  -4    8.87    0.67
  -8   1  -4    7.17    1.03
  -8   1  -4    7.16    0.76
  -9   1  -4    0.88    0.64
  -9   1  -4    0.40    0.48
  -9   1  -4    0.81    0.51
  -9   1  -4    0.52    0.48
 -10   1  -4    3.55    0.95
 -10   1  -4    4.66    0.82
  10   0  -4    0.38    0.83
 -10   0   4    0.13    0.53
   9   0  -4    1.91    0.75
  -9   0   4    2.32    0.52
   8   0  -4   33.56    1.92
  -8   0   4   34.07    1.93
   7   0  -4   -0.10    0.48
  -7   0   4    1.17    0.51
   6   0  -4   79.23    3.48
   6   0  -4   74.97    3.49
  -6   0   4   78.96    3.53
   5   0  -4   54.22    2.50
   5   0  -4   54.68    2.31
   5   0  -4   53.85    2.51
  -5   0   4   54.48    2.55
   4   0  -4   44.87    1.88
   4   0  -4   44.14    2.05
   4   0  -4   43.20    2.03
  -4   0   4   42.44    2.06
   3   0  -4  281.93   11.22
   3   0  -4  278.95   11.07
  -3   0   4  277.23   11.20
   2   0  -4   17.06    0.87
   2   0  -4   16.75    0.80
  -2   0   4   16.77    0.92
   1   0  -4   13.66    0.71
   1   0  -4   13.74    0.75
  -1   0   4   13.17    0.74
   0   0  -4  329.53   13.25
   0   0  -4  337.00   13.05
   0   0   4  323.92   13.07
   0   0   4  313.36   13.02
   0   0   4  318.40   12.95
  -1   0  -4    9.14    0.52
   1   0   4    9.65    0.46
   1   0   4    8.79    0.57
  -2   0  -4  230.54    9.25
  -2   0  -4  231.93    9.23
   2   0   4  235.29    9.29
   2   0   4  227.51    9.16
  -3   0  -4  179.66    7.07
  -3   0  -4  171.33    7.09
  -3   0  -4  178.92    6.87
   3   0   4  165.57    7.09
  -4   0  -4   15.45    1.01
  -4   0  -4   15.99    0.70
  -4   0  -4   16.49    0.81
  -5   0  -4  122.81    5.32
  -5   0  -4  122.51    5.01
  -5   0  -4  130.84    5.31
  -5   0  -4  126.08    5.13
  -6   0  -4   12.33    0.68
  -6   0  -4   10.17    0.71
  -6   0  -4   12.28    1.03
  -7   0  -4    0.38    0.47
  -7   0  -4    0.79    0.22
  -7   0  -4    0.98    0.53
  -7   0  -4   -0.11    0.30
  -8   0  -4    7.81    0.54
  -8   0  -4    7.94    0.60
  -8   0  -4    7.06    1.00
  -8   0  -4    8.57    1.07
  -9   0  -4    8.92    0.80
  -9   0  -4    8.74    1.18
  -9   0  -4    8.02    0.64
  -9   0  -4    8.31    0.98
 -10   0  -4    0.25    0.70
 -10   0  -4    0.45    0.49
 -11   0  -4   10.43    1.17
 -11   0  -4    8.82    1.62
  10  -1  -4    5.36    1.13
 -10   1   4    8.35    1.06
   9  -1  -4    4.62    0.89
  -9   1   4    6.49    0.86
   8  -1  -4   21.91    1.57
  -8   1   4   22.77    1.50
   7  -1  -4   20.64    1.44
  -7   1   4   20.26    1.37
   6  -1  -4   12.01    1.05
  -6   1   4   12.20    0.99
   5  -1  -4   20.06    1.24
   5  -1  -4   19.39    1.07
  -5   1   4   18.81    1.19
   4  -1  -4    4.83    0.61
   4  -1  -4    5.27    0.40
  -4   1   4    4.42    0.38
  -4   1   4    4.28    0.58
   3  -1  -4   19.04    1.13
   3  -1  -4   22.60    0.88
   3  -1  -4   21.27    1.07
  -3   1   4   20.88    1.05
  -3   1   4   20.21    1.11
   2  -1  -4   35.50    1.43
   2  -1  -4   35.17    1.59
   2  -1  -4   35.00    1.64
  -2   1   4   35.52    1.62
  -2   1   4   34.34    1.59
   1  -1  -4  249.50   10.06
  -1   1   4  256.22   10.07
   0  -1  -4   17.54    0.83
   0   1   4   17.55    0.82
  -1  -1  -4  146.26    5.59
  -1  -1  -4  143.04    5.64
   1   1   4  128.69    5.61
  -2  -1  -4  143.51    5.77
  -2  -1  -4  144.56    5.84
   2   1   4  141.19    5.80
  -3  -1  -4   74.64    3.30
  -3  -1  -4   78.55    3.24
  -4  -1  -4   88.05    3.58
  -4  -1  -4   87.22    3.83
  -4  -1  -4   89.69    3.76
  -5  -1  -4   43.43    1.75
  -5  -1  -4   44.76    2.03
  -5  -1  -4   41.95    1.83
  -5  -1  -4   41.82    2.13
  -6  -1  -4    3.04    0.23
  -6  -1  -4    2.09    0.32
  -6  -1  -4    2.70    0.58
  -6  -1  -4    2.56    0.25
  -7  -1  -4   25.64    1.59
  -7  -1  -4   25.95    1.14
  -7  -1  -4   24.71    1.58
  -7  -1  -4   23.12    1.36
  -8  -1  -4   38.56    2.14
  -8  -1  -4   37.80    2.16
  -8  -1  -4   37.18    1.66
  -9  -1  -4   26.27    1.67
  -9  -1  -4   25.39    1.73
  -9  -1  -4   23.85    1.18
 -10  -1  -4   30.95    1.83
 -10  -1  -4   30.08    2.08
 -11  -1  -4    0.44    0.60
 -11  -1  -4    0.02    0.80
   9  -2  -4   19.62    1.54
  -9   2   4   19.12    1.42
   8  -2  -4    3.29    0.83
  -8   2   4    2.21    0.59
   7  -2  -4    3.95    0.76
  -7   2   4    5.07    0.86
  -7   2   4    5.80    0.68
   6  -2  -4    2.43    0.59
  -6   2   4    1.80    0.51
   5  -2  -4   11.80    1.00
   5  -2  -4   12.21    0.73
  -5   2   4   11.14    0.71
  -5   2   4   11.64    0.89
   4  -2  -4   13.38    0.77
   4  -2  -4   13.80    0.99
  -4   2   4   13.64    0.90
  -4   2   4   13.17    0.75
   3  -2  -4  184.34    7.49
   3  -2  -4  183.36    7.58
  -3   2   4  186.73    7.50
   2  -2  -4    5.51    0.57
   2  -2  -4    5.18    0.38
  -2   2   4    5.93    0.52
   1  -2  -4   32.32    1.52
   1  -2  -4   31.71    1.32
   1  -2  -4   30.94    1.41
  -1   2   4   32.93    1.46
   0  -2  -4   89.31    3.60
   0  -2  -4   90.52    3.66
   0  -2  -4   90.31    3.59
   0   2   4   84.56    3.52
   0   2   4   87.03    3.57
  -1  -2  -4    1.93    0.17
  -1  -2  -4    2.03    0.31
   1   2   4    1.96    0.19
   1   2   4    2.07    0.21
  -2  -2  -4   28.54    1.40
  -2  -2  -4   29.29    1.28
   2   2   4   28.61    1.23
   2   2   4   28.70    1.34
  -3  -2  -4   22.84    1.23
  -3  -2  -4   22.63    1.10
   3   2   4   22.84    0.96
   3   2   4   22.88    1.14
  -4  -2  -4   51.37    2.23
  -4  -2  -4   49.03    2.35
  -4  -2  -4   48.71    2.00
  -4  -2  -4   49.48    2.00
   4   2   4   50.23    2.27
  -5  -2  -4   99.77    3.87
  -5  -2  -4  104.19    4.20
  -5  -2  -4   94.58    4.25
  -5  -2  -4   93.04    3.88
   5   2   4   95.16    4.16
  -6  -2  -4  120.90    4.78
  -6  -2  -4  120.36    5.23
  -6  -2  -4  118.75    5.10
   6   2   4  117.84    5.07
  -7  -2  -4    0.00    0.48
  -7  -2  -4   -0.11    0.26
  -7  -2  -4   -0.48    0.43
  -8  -2  -4   94.39    4.37
  -8  -2  -4   93.33    3.87
  -8  -2  -4   96.34    4.42
  -9  -2  -4    0.96    0.23
  -9  -2  -4    1.26    0.62
  -9  -2  -4    1.10    0.46
 -10  -2  -4    1.93    0.48
 -10  -2  -4    1.74    0.69
 -11  -2  -4   12.46    1.58
 -11  -2  -4   15.24    1.18
   9  -3  -4    2.68    0.78
  -9   3   4    2.80    0.84
   8  -3  -4   11.37    1.19
  -8   3   4   11.88    1.16
  -7   3   4   42.29    2.18
  -7   3   4   45.93    2.32
   6  -3  -4   24.82    1.57
  -6   3   4   23.35    1.44
  -6   3   4   23.05    1.22
  -6   3   4   23.62    1.28
   5  -3  -4  100.81    4.42
  -5   3   4   99.61    4.22
  -5   3   4   97.21    4.16
  -5   3   4   96.84    4.23
   4  -3  -4    1.39    0.24
   4  -3  -4    0.54    0.37
  -4   3   4    1.05    0.39
  -4   3   4    1.73    0.24
   3  -3  -4  172.56    6.97
   3  -3  -4  171.37    7.14
  -3   3   4  169.68    6.92
  -3   3   4  174.33    6.99
   2  -3  -4   42.75    2.06
   2  -3  -4   43.17    1.87
  -2   3   4   42.14    1.81
  -2   3   4   44.00    1.92
   1  -3  -4    1.44    0.36
   1  -3  -4    1.70    0.18
  -1   3   4    1.73    0.11
  -1   3   4    1.68    0.20
  -1   3   4    2.13    0.16
   0  -3  -4   46.32    2.06
   0  -3  -4   45.03    1.93
   0   3   4   46.51    1.94
  -1  -3  -4   58.27    2.32
  -1  -3  -4   58.79    2.49
  -1  -3  -4   57.38    2.44
   1   3   4   54.93    2.43
  -2  -3  -4    0.10    0.08
  -2  -3  -4    0.21    0.27
   2   3   4    0.05    0.08
   2   3   4   -0.09    0.18
  -3  -3  -4   36.66    1.51
  -3  -3  -4   36.96    1.81
   3   3   4   37.11    1.71
   3   3   4   35.35    1.65
  -4  -3  -4  143.02    5.88
  -4  -3  -4  152.04    6.21
   4   3   4  147.80    6.12
  -5  -3  -4   20.73    0.93
  -5  -3  -4   19.89    1.34
   5   3   4   20.55    1.12
  -6  -3  -4   68.73    2.80
  -6  -3  -4   67.83    3.26
   6   3   4   67.12    3.04
  -7  -3  -4    0.75    0.54
  -7  -3  -4    1.33    0.57
  -7  -3  -4    0.37    0.27
   7   3   4    0.42    0.26
  -8  -3  -4   -0.15    0.16
  -8  -3  -4    0.42    0.54
  -8  -3  -4   -0.18    0.44
  -9  -3  -4    0.20    0.59
  -9  -3  -4    0.75    0.22
  -9  -3  -4    0.46    0.40
 -10  -3  -4   13.74    1.37
 -10  -3  -4   16.99    1.21
 -11  -3  -4   -0.75    0.70
   9  -4  -4   12.75    1.37
  -9   4   4   12.66    1.62
   8  -4  -4   -0.07    0.54
  -8   4   4    0.13    0.69
   7  -4  -4   48.89    2.54
  -7   4   4   43.75    2.24
  -7   4   4   46.35    2.40
   6  -4  -4    6.00    0.90
  -6   4   4    6.36    0.61
  -6   4   4    4.86    0.84
  -6   4   4    5.46    0.53
   5  -4  -4    1.54    0.58
  -5   4   4    1.44    0.26
  -5   4   4    1.17    0.46
   4  -4  -4   32.71    1.83
  -4   4   4   31.45    1.58
  -4   4   4   30.77    1.59
  -4   4   4   30.92    1.47
   3  -4  -4   17.48    0.89
   3  -4  -4   18.90    1.24
  -3   4   4   16.88    0.86
  -3   4   4   17.47    1.00
  -3   4   4   18.34    1.01
   2  -4  -4    3.23    0.25
   2  -4  -4    3.18    0.61
  -2   4   4    2.55    0.18
  -2   4   4    2.58    0.27
  -2   4   4    1.95    0.19
  -2   4   4    2.63    0.40
   1  -4  -4  176.39    7.45
   1  -4  -4  181.65    7.23
  -1   4   4  182.51    7.24
  -1   4   4  185.58    7.41
   0  -4  -4   68.13    2.81
   0  -4  -4   68.63    2.91
   0  -4  -4   68.72    3.01
   0   4   4   68.52    2.88
   0   4   4   69.82    2.95
  -1  -4  -4   61.98    2.70
  -1  -4  -4   61.29    2.73
  -1  -4  -4   63.30    2.50
   1   4   4   61.26    2.68
   1   4   4   62.00    2.73
   1   4   4   64.34    2.66
  -2  -4  -4  129.57    5.44
  -2  -4  -4  129.75    5.28
   2   4   4  127.74    5.38
   2   4   4  134.20    5.36
  -3  -4  -4    1.10    0.41
  -3  -4  -4    1.19    0.18
   3   4   4    1.11    0.29
  -4  -4  -4   93.43    4.10
  -4  -4  -4   90.59    3.77
   4   4   4   91.17    3.97
   4   4   4   93.05    3.82
  -5  -4  -4   11.98    1.05
  -5  -4  -4   11.28    0.60
   5   4   4   10.15    0.70
   5   4   4   11.30    0.72
  -6  -4  -4    2.51    0.63
  -6  -4  -4    2.31    0.24
   6   4   4    1.65    0.34
  -7  -4  -4    2.24    0.65
  -7  -4  -4    2.61    0.62
  -7  -4  -4    2.62    0.29
  -8  -4  -4   46.48    2.55
  -8  -4  -4   45.37    2.44
  -8  -4  -4   43.37    1.96
  -9  -4  -4    2.66    0.75
  -9  -4  -4    4.18    0.67
  -9  -4  -4    4.16    0.49
 -10  -4  -4   22.35    1.67
 -10  -4  -4   23.90    1.51
 -11  -4  -4    3.99    0.63
   8  -5  -4    2.79    0.69
   7  -5  -4   -0.18    0.48
  -7   5   4    0.26    0.60
   6  -5  -4    1.58    0.51
  -6   5   4    1.30    0.36
  -6   5   4    2.21    0.57
   5  -5  -4    6.87    0.90
  -5   5   4    6.26    0.79
   4  -5  -4   18.06    1.35
  -4   5   4   16.98    0.93
  -4   5   4   18.54    1.07
   3  -5  -4   31.01    1.78
  -3   5   4   29.41    1.51
  -3   5   4   29.37    1.43
  -3   5   4   30.08    1.23
  -3   5   4   29.48    1.34
   2  -5  -4   48.53    2.04
   2  -5  -4   48.56    2.39
  -2   5   4   47.55    2.04
  -2   5   4   49.15    2.24
   1  -5  -4    1.41    0.49
   1  -5  -4    2.00    0.18
  -1   5   4    2.25    0.28
  -1   5   4    2.15    0.51
  -1   5   4    2.03    0.23
   0  -5  -4   82.01    3.27
   0  -5  -4   81.67    3.55
   0   5   4   79.10    3.41
   0   5   4   82.77    3.47
   0   5   4   78.64    3.57
  -1  -5  -4   79.69    3.52
  -1  -5  -4   80.20    3.54
   1   5   4   86.65    3.49
   1   5   4   80.21    3.50
   1   5   4   83.10    3.59
  -2  -5  -4    0.85    0.31
  -2  -5  -4    0.64    0.39
   2   5   4    0.67    0.17
   2   5   4    0.52    0.14
   2   5   4    0.62    0.35
  -3  -5  -4   26.20    1.51
   3   5   4   25.89    1.34
   3   5   4   25.28    1.35
  -4  -5  -4   80.56    3.66
  -4  -5  -4   78.51    3.33
   4   5   4   79.56    3.51
   4   5   4   78.50    3.41
  -5  -5  -4    2.51    0.64
  -5  -5  -4    3.03    0.27
   5   5   4    3.02    0.48
  -6  -5  -4  121.73    5.38
  -6  -5  -4  120.99    5.21
  -6  -5  -4  117.00    4.90
   6   5   4  112.44    5.14
   6   5   4  123.41    4.96
  -7  -5  -4   33.72    1.89
  -7  -5  -4   33.00    1.96
   7   5   4   28.38    1.78
  -8  -5  -4   19.68    0.99
  -8  -5  -4   17.84    1.72
  -9  -5  -4   45.10    2.40
  -9  -5  -4   42.91    2.52
 -10  -5  -4   -0.80    0.54
 -10  -5  -4    0.47    0.47
 -11  -5  -4    3.79    0.81
 -11  -5  -4    2.60    0.64
   7  -6  -4    8.34    0.97
  -7   6   4    8.20    0.99
   6  -6  -4    1.11    0.50
  -6   6   4    1.51    0.54
  -6   6   4    1.43    0.48
   5  -6  -4    2.86    0.65
  -5   6   4    3.08    0.54
  -5   6   4    2.78    0.62
  -5   6   4    2.43    0.50
  -4   6   4   49.70    2.79
   3  -6  -4   12.24    1.13
  -3   6   4   13.06    1.14
  -3   6   4   12.60    0.63
   2  -6  -4   24.21    1.48
  -2   6   4   18.41    1.15
  -2   6   4   21.90    1.03
  -2   6   4   21.01    1.43
   1  -6  -4   20.77    1.33
  -1   6   4   19.25    1.00
  -1   6   4   20.04    1.33
  -1   6   4   19.25    1.06
   0  -6  -4    6.39    0.74
   0  -6  -4    6.02    0.30
   0   6   4    5.79    0.42
   0   6   4    5.05    0.77
   0   6   4    5.40    0.45
  -1  -6  -4    3.72    0.25
  -1  -6  -4    3.26    0.55
  -1  -6  -4    3.92    0.24
   1   6   4    3.38    0.60
   1   6   4    3.44    0.37
   1   6   4    4.14    0.33
  -2  -6  -4   37.62    1.94
   2   6   4   36.30    1.78
   2   6   4   36.30    1.90
  -3  -6  -4    6.45    0.80
   3   6   4    5.97    0.49
   3   6   4    6.65    0.44
   3   6   4    6.24    0.77
  -4  -6  -4   37.40    1.88
  -4  -6  -4   38.07    2.09
   4   6   4   38.89    1.89
   4   6   4   35.44    1.86
  -5  -6  -4   32.20    1.54
  -5  -6  -4   34.74    2.00
  -5  -6  -4   35.66    1.83
   5   6   4   28.62    1.68
   5   6   4   33.82    1.72
  -6  -6  -4    4.16    0.39
  -6  -6  -4    5.16    0.77
  -6  -6  -4    4.52    0.80
   6   6   4    5.27    0.74
  -7  -6  -4   33.12    1.91
  -7  -6  -4   31.00    1.53
  -7  -6  -4   32.17    2.00
   7   6   4   32.54    1.71
  -8  -6  -4    7.53    0.98
  -8  -6  -4    7.93    0.97
  -8  -6  -4    6.93    0.60
  -9  -6  -4    0.27    0.45
  -9  -6  -4    0.60    0.45
 -10  -6  -4    4.45    0.83
 -10  -6  -4    4.70    0.90
 -11  -6  -4   13.02    1.37
 -11  -6  -4   11.98    1.36
  -6   7   4   34.36    2.04
   5  -7  -4    0.88    0.47
  -5   7   4    0.66    0.46
   4  -7  -4   30.67    1.87
  -4   7   4   29.82    1.83
   3  -7  -4    5.13    0.78
  -3   7   4    4.02    0.37
  -3   7   4    3.65    0.70
   2  -7  -4    0.32    0.46
  -2   7   4    0.85    0.49
  -2   7   4    0.47    0.19
   1  -7  -4   16.66    1.27
  -1   7   4   17.29    0.92
  -1   7   4   13.98    0.95
  -1   7   4   18.14    1.31
   0  -7  -4   35.00    1.89
   0   7   4   32.16    1.65
   0   7   4   33.66    1.67
   0   7   4   35.52    1.95
  -1  -7  -4    5.34    0.29
  -1  -7  -4    5.33    0.29
  -1  -7  -4    5.42    0.28
   1   7   4    5.14    0.47
   1   7   4    4.74    0.82
   1   7   4    5.34    0.45
  -2  -7  -4   73.88    3.04
   2   7   4   74.25    3.15
   2   7   4   71.80    3.39
   2   7   4   68.70    3.21
  -3  -7  -4    7.54    0.90
  -3  -7  -4    6.01    0.69
   3   7   4    4.59    0.51
   3   7   4    5.73    0.87
   3   7   4    6.72    0.49
  -4  -7  -4    0.70    0.44
  -4  -7  -4    0.61    0.42
   4   7   4    0.08    0.31
   4   7   4    0.06    0.44
  -5  -7  -4   28.77    1.49
  -5  -7  -4   30.51    1.94
  -5  -7  -4   33.08    1.77
   5   7   4   32.16    1.74
  -6  -7  -4    0.17    0.48
  -6  -7  -4   -0.53    0.49
  -6  -7  -4    0.60    0.26
   6   7   4    0.59    0.53
  -7  -7  -4    0.25    0.31
  -7  -7  -4   -0.05    0.46
  -7  -7  -4    0.04    0.43
   7   7   4    0.01    0.50
  -8  -7  -4    1.48    0.39
  -8  -7  -4    1.87    0.46
  -9  -7  -4   17.76    1.38
  -9  -7  -4   18.99    1.40
 -10  -7  -4   -0.57    0.68
 -10  -7  -4   -0.67    0.60
  -5   8   4    2.03    0.62
  -4   8   4   16.69    1.29
  -3   8   4    3.20    0.56
  -2   8   4   41.40    2.31
  -1   8   4   30.50    1.54
  -1   8   4   30.76    1.92
   0   8   4   31.21    1.62
   0   8   4   33.17    1.97
   0   8   4   32.62    1.65
   1   8   4   76.86    3.39
   1   8   4   80.69    3.72
   1   8   4   72.60    3.41
  -2  -8  -4    1.80    0.33
  -2  -8  -4    2.05    0.20
   2   8   4    2.41    0.38
   2   8   4    1.98    0.62
   2   8   4    1.60    0.34
  -3  -8  -4   11.90    0.85
   3   8   4   13.84    0.78
   3   8   4   12.25    1.18
   3   8   4    9.54    0.80
  -4  -8  -4   38.44    1.93
  -4  -8  -4   36.00    2.20
   4   8   4   36.05    2.12
   4   8   4   39.68    1.76
  -5  -8  -4    0.00    0.51
  -5  -8  -4    0.14    0.43
   5   8   4   -0.44    0.51
  -6  -8  -4    2.60    0.71
  -6  -8  -4    2.58    0.68
   6   8   4    1.93    0.66
  -7  -8  -4   40.24    2.28
  -7  -8  -4   38.53    2.34
   7   8   4   38.43    2.17
  -8  -8  -4    0.60    0.60
  -8  -8  -4    0.84    0.54
   8   8   4    1.67    0.75
  -9  -8  -4   26.89    1.81
  -9  -8  -4   26.28    1.83
 -10  -8  -4    2.39    0.85
 -10  -8  -4    2.78    0.74
  -4   9   4   10.35    1.05
  -3   9   4   16.74    1.28
  -2   9   4    3.97    0.72
  -1   9   4    5.14    0.88
  -1   9   4    4.98    0.73
   0   9   4    6.90    0.77
   0   9   4    8.66    0.90
   1   9   4    1.06    0.52
   1   9   4    1.65    0.46
  -2  -9  -4   19.31    1.03
   2   9   4   20.32    1.46
   2   9   4   20.03    1.18
  -3  -9  -4   41.46    1.91
   3   9   4   42.84    2.65
   3   9   4   45.69    2.12
  -4  -9  -4    4.23    0.77
   4   9   4    3.56    0.57
  -5  -9  -4   72.66    3.36
  -6  -9  -4   14.78    1.34
   6   9   4   13.89    1.47
  -7  -9  -4   20.38    1.90
  -7  -9  -4   21.53    1.59
   7   9   4   24.48    1.71
  -8  -9  -4   17.28    1.55
  -8  -9  -4   20.76    1.62
   8   9   4   22.62    1.70
  -9  -9  -4   -0.94    0.80
  -9  -9  -4    0.53    0.79
  -3  10   4    1.22    0.73
  -2  10   4    1.00    0.66
  -1  10   4    1.57    0.58
   0  10   4    4.25    0.67
   1  10   4    7.58    0.89
   2  10   4    0.09    0.51
  -3 -10  -4    5.06    0.98
   3  10   4    5.61    0.89
   4  10   4   14.97    1.31
  -5 -10  -4    1.22    0.66
   5  10   4    2.03    0.67
  -6 -10  -4    1.06    0.75
   6  10   4   -0.29    0.65
  -7 -10  -4    8.11    1.43
   7  10   4    5.26    1.08
  -8 -10  -4    2.17    0.93
   8  10   4    2.51    1.00
   0  11   4    0.27    0.74
   1  11   4   16.55    1.33
   2  11   4    3.01    0.69
   3  11   4   -0.30    0.65
   4  11   4    2.00    0.71
   5  11   4    1.74    0.74
   6  11   4    2.07    0.87
   5  10  -5   -1.02    1.07
   4  10  -5    2.03    0.66
   3  10  -5    9.44    1.08
  -3 -10   5   11.19    1.36
   2  10  -5   -0.17    0.61
  -2 -10   5    0.27    0.65
   1  10  -5    1.30    0.62
   0  10  -5   33.98    2.08
   0 -10   5   35.00    2.24
  -1  10  -5   -0.66    0.68
   1 -10   5   -0.56    0.86
   6   9  -5   12.25    1.14
  -6  -9   5   14.28    1.55
   5   9  -5   -0.62    0.53
  -5  -9   5    0.56    0.76
   4   9  -5    5.31    0.75
  -4  -9   5    4.42    0.81
   3   9  -5    0.97    0.45
  -3  -9   5    1.58    0.56
   2   9  -5   25.40    1.64
  -2  -9   5   26.92    1.74
   1   9  -5   10.51    0.94
  -1  -9   5    8.46    1.05
   0   9  -5   23.62    1.54
   0  -9   5   22.22    1.62
  -1   9  -5   16.97    1.23
   1  -9   5   14.79    1.39
  -2   9  -5    1.48    0.59
  -3   9  -5    7.45    1.07
   3  -9   5    9.75    1.35
  -8  -8   5    0.27    0.75
  -7  -8   5    6.75    1.13
   6   8  -5    7.04    0.85
  -6  -8   5    7.49    1.18
   5   8  -5    0.35    0.42
  -5  -8   5    0.03    0.60
   4   8  -5   50.79    2.66
  -4  -8   5   51.66    2.54
   3   8  -5    6.22    0.80
  -3  -8   5    5.55    0.86
   2   8  -5   26.69    1.69
  -2  -8   5   28.28    1.93
   1   8  -5    4.16    0.68
  -1  -8   5    2.83    0.67
   0   8  -5    0.79    0.41
   0  -8   5    0.10    0.50
  -1   8  -5    0.22    0.41
   1  -8   5    0.24    0.53
  -2   8  -5   10.61    0.99
   2  -8   5    9.10    1.66
  -3   8  -5    8.89    1.01
   3  -8   5    7.61    1.05
  -4   8  -5    2.29    0.65
   4  -8   5    0.78    0.70
  -5   8  -5   15.54    1.54
  -8  -7   5    7.62    1.04
  -7  -7   5    2.72    0.72
  -6  -7   5   40.20    2.23
   5   7  -5   31.16    1.86
  -5  -7   5   33.29    1.91
   4   7  -5    1.21    0.50
  -4  -7   5    1.01    0.51
   3   7  -5   21.93    1.21
  -3  -7   5   21.91    1.34
   2   7  -5   21.51    1.46
   2   7  -5   21.39    1.12
   1   7  -5    0.45    0.46
   1   7  -5    0.40    0.20
  -1  -7   5    0.36    0.46
   0   7  -5   28.55    1.36
   0   7  -5   32.10    1.85
   0  -7   5   32.30    1.84
  -1   7  -5   32.32    1.90
   1  -7   5   31.75    1.84
  -2   7  -5    5.06    0.79
   2  -7   5    3.98    0.82
  -3   7  -5   35.08    2.80
   3  -7   5   46.07    2.33
  -4   7  -5    5.47    0.97
  -5   7  -5    4.85    0.83
  -6   7  -5    8.80    1.35
   9   6  -5    9.26    1.28
  -9  -6   5    9.82    1.02
  -8  -6   5    8.56    0.95
  -7  -6   5   33.30    1.97
  -6  -6   5    0.96    0.54
   5   6  -5    8.23    0.77
   5   6  -5   11.24    1.03
  -5  -6   5   10.39    1.01
   4   6  -5   32.22    1.83
   4   6  -5   30.42    1.63
  -4  -6   5   32.73    1.77
   3   6  -5   14.63    1.05
   3   6  -5   19.68    1.32
   3   6  -5   19.29    1.05
  -3  -6   5   19.46    1.19
   2   6  -5   10.17    0.63
   2   6  -5    7.52    0.71
   2   6  -5    9.90    0.99
  -2  -6   5    9.23    0.77
   1   6  -5   90.27    3.81
   1   6  -5   88.14    4.11
   1   6  -5   92.72    4.09
  -1  -6   5   87.82    3.97
  -1  -6   5   92.40    4.08
   0   6  -5    1.76    0.55
   0   6  -5    1.22    0.19
   0  -6   5    1.29    0.54
  -1   6  -5   61.28    2.54
  -1   6  -5   57.14    2.80
  -1   6  -5   60.63    2.91
   1  -6   5   57.00    2.74
   1  -6   5   64.52    2.93
  -2   6  -5   45.99    1.98
  -2   6  -5   45.35    2.38
   2  -6   5   48.84    2.42
  -3   6  -5    7.26    0.97
  -3   6  -5    6.71    0.44
   3  -6   5    7.41    0.90
  -4   6  -5   10.88    0.64
  -4   6  -5   13.08    1.10
  -4   6  -5   11.68    0.76
   4  -6   5   11.68    1.12
  -5   6  -5   16.29    1.01
  -5   6  -5   17.58    1.38
  -6   6  -5    0.42    0.63
  -7   6  -5    9.09    1.43
  -7   6  -5   10.55    1.38
   9   5  -5   22.61    1.70
  -9  -5   5   22.85    1.45
   8   5  -5    1.06    0.64
   8   5  -5    0.95    0.57
  -8  -5   5    1.31    0.43
  -7  -5   5    1.48    0.49
  -6  -5   5   17.17    1.28
   5   5  -5    1.97    0.37
  -5  -5   5    3.68    0.67
   4   5  -5    1.62    0.35
   4   5  -5    1.76    0.29
   4   5  -5    2.85    0.61
  -4  -5   5    2.65    0.55
   3   5  -5   69.25    3.21
   3   5  -5   69.73    3.08
   3   5  -5   69.00    3.23
  -3  -5   5   72.64    3.11
  -3  -5   5   64.27    3.11
   2   5  -5    8.69    0.71
   2   5  -5    9.97    0.91
   2   5  -5    9.15    0.61
  -2  -5   5    7.95    0.62
  -2  -5   5    9.88    0.79
   1   5  -5   23.90    1.43
   1   5  -5   24.32    1.19
  -1  -5   5   23.28    1.21
  -1  -5   5   22.88    1.25
   0   5  -5    1.48    0.25
   0   5  -5    1.81    0.49
   0  -5   5    2.10    0.51
   0  -5   5    1.38    0.22
  -1   5  -5    6.64    0.78
  -1   5  -5    7.06    0.46
   1  -5   5    7.08    0.52
   1  -5   5    7.27    0.80
  -2   5  -5    6.38    0.58
  -2   5  -5    7.78    0.49
  -2   5  -5    8.47    0.84
   2  -5   5    7.56    0.84
   2  -5   5    7.52    0.54
  -3   5  -5   10.73    0.63
  -3   5  -5   12.01    1.02
   3  -5   5   11.36    1.07
  -4   5  -5   34.32    1.64
  -4   5  -5   36.15    1.92
   4  -5   5   37.64    2.03
  -5   5  -5   15.37    1.06
  -5   5  -5   15.38    1.16
   5  -5   5   15.14    1.30
  -6   5  -5   24.62    1.57
  -6   5  -5   22.54    1.42
  -7   5  -5    0.26    0.63
  -7   5  -5   -0.08    0.56
  -8   5  -5   12.26    1.41
  -8   5  -5   11.00    1.46
 -10  -4   5    2.85    0.61
   9   4  -5    1.32    0.69
  -9  -4   5    0.96    0.46
   8   4  -5    8.55    1.03
   8   4  -5    9.22    1.08
  -8  -4   5    9.40    0.88
   7   4  -5   36.28    1.97
   7   4  -5   40.43    2.15
  -7  -4   5   40.43    2.15
   6   4  -5    2.86    0.57
  -6  -4   5    4.07    0.74
   5   4  -5   63.14    2.86
   5   4  -5   57.89    2.82
  -5  -4   5   55.73    2.81
  -5  -4   5   64.25    2.90
   4   4  -5   49.12    2.30
   4   4  -5   46.82    2.28
  -4  -4   5   50.74    2.35
  -4  -4   5   44.80    2.26
   3   4  -5   60.32    2.84
   3   4  -5   63.82    2.87
   3   4  -5   60.88    2.76
  -3  -4   5   61.70    2.79
  -3  -4   5   59.39    2.78
   2   4  -5   47.83    2.27
   2   4  -5   46.78    2.22
   2   4  -5   46.50    2.24
  -2  -4   5   45.79    2.17
  -2  -4   5   44.83    2.13
   1   4  -5    3.11    0.58
   1   4  -5    2.80    0.30
  -1  -4   5    2.59    0.30
  -1  -4   5    2.59    0.47
   0   4  -5    1.51    0.42
   0  -4   5    1.24    0.43
  -1   4  -5   26.20    1.24
  -1   4  -5   25.49    1.40
   1  -4   5   25.73    1.29
   1  -4   5   26.19    1.46
  -2   4  -5   14.33    0.97
  -2   4  -5   14.44    0.76
   2  -4   5   14.20    0.80
   2  -4   5   13.97    1.04
  -3   4  -5    7.47    0.75
  -3   4  -5    5.46    0.51
   3  -4   5    7.73    0.84
  -4   4  -5   58.96    2.79
  -4   4  -5   60.58    2.76
  -4   4  -5   59.73    2.78
   4  -4   5   60.59    2.91
  -5   4  -5    1.83    0.36
  -5   4  -5    2.59    0.56
  -5   4  -5    1.79    0.36
   5  -4   5    2.94    0.69
  -6   4  -5    4.12    0.74
  -6   4  -5    3.69    0.63
  -6   4  -5    3.74    0.64
  -7   4  -5   13.96    1.18
  -7   4  -5   12.72    1.27
  -7   4  -5   14.65    1.22
  -8   4  -5    0.24    0.64
  -8   4  -5   -0.46    0.66
  -9   4  -5   -0.37    0.80
  -9   4  -5    1.24    0.89
 -10  -3   5    2.71    0.55
   9   3  -5   40.04    2.26
  -9  -3   5   43.62    2.26
   8   3  -5    4.73    0.80
   8   3  -5    6.84    0.94
  -8  -3   5    6.96    0.77
   7   3  -5   33.47    1.80
   7   3  -5   30.05    1.62
   7   3  -5   32.45    1.75
   6   3  -5   65.45    2.99
   6   3  -5   71.47    3.09
  -6  -3   5   68.14    3.15
  -6  -3   5   57.83    3.02
   5   3  -5    6.02    0.55
  -5  -3   5    6.26    0.59
   4   3  -5   42.11    2.01
   4   3  -5   40.59    1.96
  -4  -3   5   44.39    2.08
  -4  -3   5   38.28    1.97
   3   3  -5   73.69    3.19
   3   3  -5   72.50    3.15
   3   3  -5   72.51    3.19
  -3  -3   5   66.89    3.12
  -3  -3   5   68.86    3.14
   2   3  -5   16.30    1.02
   2   3  -5   16.36    0.91
  -2  -3   5   16.56    0.93
  -2  -3   5   16.17    0.98
   1   3  -5  127.57    5.30
   1   3  -5  131.13    5.36
  -1  -3   5  126.41    5.27
  -1  -3   5  129.10    5.35
   0   3  -5  199.69    7.94
   0   3  -5  195.55    7.99
   0  -3   5  204.03    8.00
   0  -3   5  187.53    8.04
  -1   3  -5   30.59    1.52
  -1   3  -5   31.05    1.43
   1  -3   5   31.73    1.61
   1  -3   5   30.47    1.45
  -2   3  -5  242.63    9.99
  -2   3  -5  252.05   10.05
   2  -3   5  251.83   10.03
   2  -3   5  253.87   10.18
  -3   3  -5    0.98    0.19
  -3   3  -5    0.90    0.17
  -3   3  -5    1.05    0.34
   3  -3   5    1.05    0.44
  -4   3  -5   37.69    1.91
  -4   3  -5   39.55    1.84
  -4   3  -5   37.54    1.87
   4  -3   5   39.95    2.06
  -5   3  -5   41.95    2.12
  -5   3  -5   42.97    2.09
  -5   3  -5   43.15    2.04
   5  -3   5   45.36    2.31
  -6   3  -5    0.42    0.32
  -6   3  -5    0.52    0.42
  -6   3  -5    0.66    0.52
  -6   3  -5    0.73    0.15
  -7   3  -5    2.97    0.68
  -7   3  -5    2.54    0.55
  -7   3  -5    2.42    0.67
  -8   3  -5    4.54    0.84
  -8   3  -5    5.22    1.02
  -8   3  -5    4.63    0.88
  -9   3  -5    9.64    1.32
  -9   3  -5    9.75    1.35
 -10  -2   5   -0.52    0.53
   9   2  -5    9.59    1.23
  -9  -2   5   12.08    0.94
   8   2  -5    8.62    0.75
   8   2  -5   10.02    1.02
  -8  -2   5    8.21    0.86
   7   2  -5    4.06    0.51
   7   2  -5    4.33    0.69
  -7  -2   5    4.98    0.77
   6   2  -5    6.22    0.52
   6   2  -5    6.43    0.78
   6   2  -5    7.32    0.75
  -6  -2   5    5.01    0.58
  -6  -2   5    6.65    0.84
   5   2  -5    3.15    0.56
   5   2  -5    2.80    0.36
   5   2  -5    2.18    0.27
  -5  -2   5    2.20    0.31
  -5  -2   5    2.44    0.52
   4   2  -5   66.43    3.03
   4   2  -5   70.91    3.07
  -4  -2   5   68.05    3.07
  -4  -2   5   66.70    3.03
   3   2  -5   80.88    3.36
   3   2  -5   74.20    3.34
  -3  -2   5   76.45    3.36
  -3  -2   5   76.29    3.36
   2   2  -5  194.44    7.82
  -2  -2   5  189.30    7.79
   1   2  -5    2.61    0.44
   1   2  -5    1.57    0.21
  -1  -2   5    1.68    0.32
  -1  -2   5    1.75    0.22
   0   2  -5   90.59    3.93
   0   2  -5   94.45    3.96
   0  -2   5   99.90    3.97
  -1   2  -5   14.63    0.78
  -1   2  -5   15.83    0.85
   1  -2   5   14.90    0.95
   1  -2   5   16.13    0.80
  -2   2  -5    0.14    0.22
  -2   2  -5    0.21    0.12
   2  -2   5    0.19    0.09
   2  -2   5    0.11    0.32
  -3   2  -5   19.04    0.98
  -3   2  -5   19.19    1.03
   3  -2   5   18.21    1.17
  -4   2  -5   94.10    4.08
  -4   2  -5   95.03    4.15
  -4   2  -5   95.89    3.98
   4  -2   5   99.55    4.27
  -5   2  -5    0.03    0.19
  -5   2  -5   -0.08    0.21
  -5   2  -5    0.18    0.27
  -5   2  -5    0.17    0.39
  -5   2  -5    0.06    0.10
  -6   2  -5   45.24    2.25
  -6   2  -5   46.45    2.10
  -6   2  -5   46.15    2.36
  -6   2  -5   47.88    2.20
  -7   2  -5   61.22    2.90
  -7   2  -5   57.08    2.88
  -7   2  -5   56.74    2.65
  -7   2  -5   57.41    2.58
  -8   2  -5   11.90    1.24
  -8   2  -5    9.20    0.83
  -8   2  -5   11.82    1.19
  -8   2  -5   11.94    0.94
  -9   2  -5   24.07    1.76
  -9   2  -5   26.02    1.49
 -10   2  -5    0.04    0.79
 -10   2  -5    0.39    0.74
  10   1  -5   12.65    1.58
 -10  -1   5   13.84    1.09
   9   1  -5    0.61    0.69
  -9  -1   5    0.51    0.40
   8   1  -5    1.20    0.30
   8   1  -5    0.07    0.55
  -8  -1   5    1.11    0.40
   7   1  -5   21.21    1.38
  -7  -1   5   21.21    1.41
   6   1  -5    4.26    0.52
   6   1  -5    6.61    0.80
   6   1  -5    6.40    0.48
  -6  -1   5    6.66    0.82
  -6  -1   5    4.16    0.45
   5   1  -5    0.79    0.18
   5   1  -5    0.26    0.23
   5   1  -5    0.79    0.38
  -5  -1   5    0.21    0.23
  -5  -1   5    1.18    0.39
   4   1  -5   87.52    3.83
   4   1  -5   85.46    3.69
   4   1  -5   90.61    3.77
  -4  -1   5   84.62    3.81
  -4  -1   5   90.09    3.83
   3   1  -5    4.81    0.57
   3   1  -5    5.21    0.41
   3   1  -5    5.10    0.39
  -3  -1   5    4.55    0.40
  -3  -1   5    4.72    0.60
   2   1  -5   19.39    0.98
   2   1  -5   18.27    1.04
  -2  -1   5   18.07    0.97
  -2  -1   5   18.34    1.01
   1   1  -5   15.16    0.87
   1   1  -5   15.02    0.80
  -1  -1   5   14.47    0.85
  -1  -1   5   14.50    0.79
   0   1  -5   70.37    3.02
   0   1  -5   71.41    3.01
   0  -1   5   73.79    3.02
  -1   1  -5   37.64    1.64
  -1   1  -5   37.79    1.66
   1  -1   5   38.14    1.63
   1  -1   5   36.56    1.76
  -2   1  -5  148.48    6.03
  -2   1  -5  143.43    5.91
   2  -1   5  145.54    5.87
   2  -1   5  149.68    6.07
   3  -1   5   18.92    1.14
  -4   1  -5   19.57    1.06
  -4   1  -5   19.20    1.20
  -4   1  -5   19.47    1.00
   4  -1   5   19.80    1.25
  -5   1  -5  134.26    5.54
  -5   1  -5  130.19    5.24
  -5   1  -5  125.44    5.54
  -5   1  -5  131.11    5.40
  -6   1  -5    1.66    0.54
  -6   1  -5    1.58    0.27
  -6   1  -5    1.70    0.30
  -7   1  -5   33.08    1.87
  -7   1  -5   33.63    1.49
  -7   1  -5   26.43    1.64
  -7   1  -5   33.66    1.60
  -8   1  -5    6.12    0.91
  -8   1  -5    5.42    0.57
  -8   1  -5    5.24    0.63
  -8   1  -5    7.17    1.06
  -9   1  -5   11.02    1.08
  -9   1  -5    9.39    0.84
  -9   1  -5   11.02    1.21
 -10   1  -5    7.47    1.07
 -10   1  -5    8.13    1.37
  10   0  -5   -0.46    0.82
 -10   0   5    0.32    0.60
   9   0  -5   11.70    1.32
  -9   0   5   11.90    1.03
   8   0  -5   55.08    2.77
  -8   0   5   55.35    2.76
   7   0  -5    1.72    0.30
   7   0  -5    2.35    0.63
  -7   0   5    1.97    0.51
   6   0  -5   89.77    3.96
   6   0  -5   81.71    3.93
   6   0  -5   95.06    3.71
  -6   0   5   90.09    4.01
   5   0  -5   22.85    1.06
   5   0  -5   21.96    1.33
   5   0  -5   21.36    1.21
  -5   0   5   22.89    1.35
   4   0  -5   47.30    2.04
   4   0  -5   47.78    2.22
   4   0  -5   48.14    2.22
  -4   0   5   46.33    2.24
   3   0  -5   54.51    2.44
   3   0  -5   53.76    2.30
  -3   0   5   55.37    2.47
   2   0  -5   32.65    1.55
  -2   0   5   34.04    1.60
   1   0  -5   36.47    1.67
  -1   0   5   37.59    1.69
   0   0  -5  278.53   11.19
   0   0  -5  284.65   11.18
   0   0   5  279.32   11.14
  -1   0  -5   78.30    3.19
   1   0   5   76.04    3.09
   1   0   5   72.87    3.20
  -2   0  -5  136.05    5.29
   2   0   5  129.23    5.11
   2   0   5  120.70    5.30
  -3   0  -5   26.49    1.43
  -3   0  -5   29.04    1.36
   3   0   5   27.63    1.45
  -4   0  -5    0.39    0.36
  -4   0  -5    0.24    0.06
   4   0   5    0.74    0.38
  -5   0  -5   48.65    2.24
  -5   0  -5   47.48    2.34
  -5   0  -5   48.27    2.11
  -5   0  -5   46.98    1.93
  -6   0  -5   11.13    1.00
  -6   0  -5   10.38    0.72
  -6   0  -5   10.38    0.64
  -6   0  -5   10.66    0.51
  -7   0  -5    7.91    0.44
  -7   0  -5    7.76    0.54
  -7   0  -5    8.83    0.99
  -8   0  -5    0.48    0.52
  -8   0  -5    0.96    0.18
  -8   0  -5    1.34    0.59
  -8   0  -5    1.20    0.27
  -8   0  -5    1.06    0.35
  -9   0  -5   32.70    2.01
  -9   0  -5   32.81    1.93
  -9   0  -5   30.53    1.40
  -9   0  -5   29.42    1.57
  -9   0  -5   30.93    1.57
 -10   0  -5    0.43    0.50
 -10   0  -5   -0.49    0.66
 -11   0  -5    9.54    1.49
 -11   0  -5    9.18    1.27
  10  -1  -5   18.57    1.83
 -10   1   5   19.45    1.58
   9  -1  -5    1.19    0.73
  -9   1   5    1.64    0.53
   8  -1  -5   25.37    1.76
  -8   1   5   26.05    1.61
   7  -1  -5   37.39    2.07
  -7   1   5   35.36    1.98
   6  -1  -5    0.39    0.48
   6  -1  -5    0.22    0.30
  -6   1   5    0.12    0.41
   5  -1  -5   12.52    0.81
   5  -1  -5   13.52    1.04
  -5   1   5   13.54    1.00
   4  -1  -5   67.55    2.58
   4  -1  -5   62.59    2.84
   4  -1  -5   63.96    2.90
  -4   1   5   61.42    2.87
   3  -1  -5    3.33    0.21
   3  -1  -5    3.44    0.55
  -3   1   5    3.31    0.52
  -3   1   5    2.89    0.31
   2  -1  -5  203.52    8.31
  -2   1   5  207.46    8.32
  -2   1   5  207.27    8.34
   1  -1  -5  137.50    5.51
  -1   1   5  135.45    5.53
  -1   1   5  133.42    5.54
   0  -1  -5   17.05    0.85
  -1  -1  -5  330.22   12.92
  -1  -1  -5  323.02   12.86
   1   1   5  321.31   13.01
  -2  -1  -5   25.36    1.29
  -2  -1  -5   25.73    1.19
   2   1   5   24.96    1.25
  -3  -1  -5   39.11    1.88
  -3  -1  -5   39.29    1.77
   3   1   5   38.63    1.86
  -4  -1  -5   32.56    1.70
   4   1   5   32.91    1.41
  -5  -1  -5    9.18    0.58
  -5  -1  -5    8.33    0.49
  -5  -1  -5    8.66    0.86
  -6  -1  -5   26.80    1.42
  -6  -1  -5   27.27    1.63
  -6  -1  -5   26.06    1.22
  -7  -1  -5   40.08    2.20
  -7  -1  -5   41.36    1.78
  -7  -1  -5   39.66    1.62
  -7  -1  -5   39.26    1.61
  -7  -1  -5   38.65    1.99
  -8  -1  -5    3.98    0.39
  -8  -1  -5    3.93    0.77
  -8  -1  -5    4.12    0.80
  -8  -1  -5    3.76    0.26
  -9  -1  -5   15.36    0.70
  -9  -1  -5   15.31    1.39
  -9  -1  -5   16.16    1.26
 -10  -1  -5    5.43    0.96
 -10  -1  -5    6.09    0.79
 -11  -1  -5    2.33    0.63
 -11  -1  -5    2.62    0.93
   9  -2  -5    1.00    0.71
  -9   2   5    0.21    0.58
   8  -2  -5    0.54    0.53
  -8   2   5    0.43    0.49
   7  -2  -5    0.16    0.47
  -7   2   5    0.59    0.48
   6  -2  -5    9.47    0.71
   6  -2  -5   13.20    1.09
  -6   2   5   11.41    0.99
   5  -2  -5   54.34    2.48
   5  -2  -5   53.45    2.62
  -5   2   5   51.80    2.43
  -5   2   5   54.44    2.55
   4  -2  -5   11.31    0.92
   4  -2  -5   11.14    0.70
  -4   2   5   11.44    0.86
  -4   2   5   11.10    0.68
   3  -2  -5   69.59    3.23
   3  -2  -5   74.20    3.16
  -3   2   5   74.68    3.17
   2  -2  -5    4.39    0.32
   2  -2  -5    3.66    0.54
  -2   2   5    3.38    0.48
   1  -2  -5   79.80    3.16
   1  -2  -5   78.53    3.26
   1  -2  -5   76.48    3.33
  -1   2   5   78.08    3.29
   0  -2  -5   37.38    1.61
   0   2   5   35.69    1.55
  -1  -2  -5   59.28    2.40
  -1  -2  -5   61.09    2.51
   1   2   5   54.46    2.42
   1   2   5   57.47    2.46
  -2  -2  -5    2.72    0.25
  -2  -2  -5    3.25    0.45
   2   2   5    3.05    0.28
  -3  -2  -5  189.28    7.67
  -3  -2  -5  191.54    7.55
   3   2   5  183.62    7.60
   3   2   5  184.21    7.46
  -4  -2  -5   50.71    2.27
  -4  -2  -5   51.56    2.43
   4   2   5   49.97    2.30
  -5  -2  -5  158.15    6.46
  -5  -2  -5  158.65    6.60
  -5  -2  -5  153.40    6.17
   5   2   5  152.46    6.47
  -6  -2  -5   59.58    2.72
  -6  -2  -5   60.49    2.42
  -6  -2  -5   59.56    2.92
   6   2   5   57.40    2.70
  -7  -2  -5    7.85    0.36
  -7  -2  -5    7.80    1.01
  -8  -2  -5   60.68    2.54
  -8  -2  -5   64.29    3.17
  -8  -2  -5   65.99    3.25
  -9  -2  -5    5.48    0.28
  -9  -2  -5    6.68    0.83
  -9  -2  -5    6.21    1.17
 -10  -2  -5    2.78    0.51
 -10  -2  -5    2.90    0.75
 -11  -2  -5    6.30    1.25
 -11  -2  -5    8.94    0.99
   9  -3  -5    0.83    0.76
  -9   3   5   -0.01    0.69
   8  -3  -5   18.26    1.40
  -8   3   5   18.66    1.43
   7  -3  -5    7.46    0.97
  -7   3   5    9.76    0.82
  -7   3   5    9.29    1.07
   6  -3  -5   30.71    1.83
  -6   3   5   29.89    1.52
  -6   3   5   29.35    1.69
  -6   3   5   30.73    1.56
   5  -3  -5   30.56    1.79
   5  -3  -5   31.22    1.57
  -5   3   5   32.70    1.72
  -5   3   5   31.57    1.56
  -5   3   5   30.97    1.53
   4  -3  -5    0.47    0.18
   4  -3  -5    0.50    0.39
  -4   3   5    0.90    0.40
   3  -3  -5    8.72    0.55
   3  -3  -5    8.04    0.74
  -3   3   5    8.19    0.69
   2  -3  -5    7.76    0.50
  -2   3   5    9.21    0.68
   1  -3  -5    0.08    0.09
   1  -3  -5    0.09    0.32
   1  -3  -5    0.27    0.10
   0  -3  -5   30.03    1.34
   0  -3  -5   29.18    1.46
   0  -3  -5   30.59    1.38
   0   3   5   29.34    1.31
  -1  -3  -5  359.80   13.93
  -1  -3  -5  347.88   13.81
  -1  -3  -5  335.70   13.78
   1   3   5  345.23   13.77
  -2  -3  -5   11.03    0.79
  -2  -3  -5   11.30    0.59
   2   3   5   11.23    0.66
   2   3   5   11.06    0.65
  -3  -3  -5   13.24    0.73
  -3  -3  -5   13.24    0.95
  -3  -3  -5   12.96    0.67
   3   3   5   15.99    0.83
  -4  -3  -5   69.18    2.94
  -4  -3  -5   69.40    2.71
  -4  -3  -5   64.68    3.11
   4   3   5   66.01    2.99
   4   3   5   69.74    2.77
  -5  -3  -5    0.31    0.15
  -5  -3  -5    0.07    0.43
   5   3   5    0.15    0.16
  -6  -3  -5   11.11    1.07
  -6  -3  -5   10.83    0.68
  -6  -3  -5    9.97    0.47
   6   3   5    8.33    0.67
  -7  -3  -5   22.32    1.29
  -7  -3  -5   24.20    1.00
  -7  -3  -5   25.21    1.65
   7   3   5   21.36    1.29
  -8  -3  -5    7.61    1.06
  -8  -3  -5    7.54    0.94
  -8  -3  -5    6.95    0.38
  -9  -3  -5   15.51    1.37
  -9  -3  -5   13.43    0.64
  -9  -3  -5   14.68    1.19
 -10  -3  -5   35.94    2.04
 -10  -3  -5   36.20    2.27
 -11  -3  -5   -0.55    0.58
   8  -4  -5    3.54    0.71
  -8   4   5    2.95    0.81
   7  -4  -5   50.26    2.70
  -7   4   5   51.48    2.61
   6  -4  -5    5.90    0.86
  -6   4   5    7.05    0.61
  -6   4   5    6.09    0.59
  -6   4   5    6.00    0.90
   5  -4  -5    9.29    1.02
  -5   4   5    8.66    0.63
  -5   4   5    9.86    0.91
   4  -4  -5   55.60    2.43
   4  -4  -5   53.02    2.70
  -4   4   5   51.13    2.35
  -4   4   5   56.11    2.49
   3  -4  -5    8.93    0.83
   3  -4  -5    9.68    0.57
  -3   4   5    8.57    0.50
  -3   4   5    8.56    0.73
   2  -4  -5   15.88    1.09
   2  -4  -5   14.63    0.75
  -2   4   5   13.10    0.63
  -2   4   5   14.29    0.87
   1  -4  -5  112.24    4.49
   1  -4  -5  109.30    4.71
  -1   4   5  108.94    4.43
   0  -4  -5   13.03    0.86
   0  -4  -5   11.66    0.73
   0  -4  -5   11.73    0.62
   0   4   5   12.07    0.64
  -1  -4  -5  287.59   11.43
  -1  -4  -5  288.53   11.30
  -1  -4  -5  273.52   11.43
   1   4   5  292.92   11.45
   1   4   5  283.97   11.39
  -2  -4  -5    3.40    0.25
  -2  -4  -5    3.09    0.43
  -2  -4  -5    2.69    0.54
   2   4   5    3.07    0.44
  -3  -4  -5    1.29    0.25
  -3  -4  -5    1.42    0.19
  -3  -4  -5    1.13    0.38
   3   4   5    1.03    0.20
   3   4   5    1.02    0.30
  -4  -4  -5    9.56    0.93
  -4  -4  -5   10.09    0.61
   4   4   5    9.68    0.64
   4   4   5    9.65    0.65
  -5  -4  -5    1.23    0.53
  -5  -4  -5    1.45    0.24
   5   4   5    1.51    0.30
   5   4   5    1.21    0.19
  -6  -4  -5    2.79    0.22
  -6  -4  -5    2.00    0.32
  -6  -4  -5    1.83    0.61
  -7  -4  -5    1.11    0.31
  -7  -4  -5    2.17    0.59
   7   4   5    0.39    0.30
  -8  -4  -5   15.20    1.38
  -8  -4  -5   14.31    1.25
  -8  -4  -5   15.22    0.73
  -9  -4  -5    3.77    0.69
  -9  -4  -5    3.84    0.34
  -9  -4  -5    3.45    0.77
 -10  -4  -5   12.09    1.29
 -10  -4  -5   14.39    1.12
 -11  -4  -5    1.97    0.76
 -11  -4  -5    1.52    0.59
   8  -5  -5    4.65    0.77
   7  -5  -5    3.04    0.65
  -7   5   5    3.52    0.78
   6  -5  -5    9.82    0.98
  -6   5   5   11.64    1.11
  -6   5   5   11.11    1.07
   5  -5  -5   42.15    2.31
  -5   5   5   41.94    2.09
   4  -5  -5   19.66    1.41
  -4   5   5   19.44    1.16
  -4   5   5   18.07    0.95
   3  -5  -5   89.09    4.12
   3  -5  -5   90.02    3.76
  -3   5   5   89.00    3.79
  -3   5   5   91.47    3.65
   2  -5  -5   84.40    3.78
   2  -5  -5   82.95    3.42
  -2   5   5   82.63    3.62
  -2   5   5   80.61    3.33
   1  -5  -5   39.48    1.73
   1  -5  -5   40.29    2.06
  -1   5   5   41.33    1.91
  -1   5   5   39.56    1.75
   0  -5  -5   52.87    2.21
   0  -5  -5   52.27    2.48
   0  -5  -5   53.24    2.35
   0   5   5   52.45    2.50
   0   5   5   50.74    2.29
   0   5   5   54.78    2.38
  -1  -5  -5   18.16    1.10
  -1  -5  -5   18.34    1.09
   1   5   5   18.23    0.96
   1   5   5   18.05    1.13
  -2  -5  -5    3.31    0.24
  -2  -5  -5    2.94    0.46
  -2  -5  -5    3.21    0.60
   2   5   5    2.74    0.31
   2   5   5    3.37    0.58
  -3  -5  -5   64.27    2.93
  -3  -5  -5   60.63    2.63
   3   5   5   58.68    2.76
   3   5   5   63.81    2.76
  -4  -5  -5   47.89    2.41
   4   5   5   45.97    2.20
   4   5   5   45.86    2.13
  -5  -5  -5   25.41    1.64
   5   5   5   22.67    1.32
   5   5   5   26.00    1.30
  -6  -5  -5   63.24    3.16
  -6  -5  -5   60.34    2.61
   6   5   5   57.55    2.84
   6   5   5   65.54    2.71
  -7  -5  -5    4.25    0.34
  -7  -5  -5    3.10    0.68
  -7  -5  -5    2.62    0.75
  -8  -5  -5   27.96    2.08
  -8  -5  -5   27.59    1.28
  -9  -5  -5    7.79    0.98
  -9  -5  -5    8.12    0.88
 -10  -5  -5    5.81    0.79
 -10  -5  -5    4.74    0.89
 -11  -5  -5    2.41    0.73
 -11  -5  -5    0.26    0.66
  -7   6   5    3.68    0.70
   6  -6  -5    2.03    0.53
  -6   6   5    2.22    0.63
   5  -6  -5   -0.13    0.42
  -5   6   5    0.07    0.48
  -5   6   5    0.44    0.27
   4  -6  -5   47.92    2.57
   3  -6  -5    2.86    0.70
  -3   6   5    3.09    0.64
   2  -6  -5    0.28    0.49
   2  -6  -5    0.45    0.12
  -2   6   5    0.38    0.13
  -2   6   5    0.87    0.48
   1  -6  -5   31.33    1.34
   1  -6  -5   31.07    1.76
  -1   6   5   30.36    1.56
  -1   6   5   30.72    1.44
  -1   6   5   31.66    1.80
   0  -6  -5   54.82    2.70
   0  -6  -5   56.62    2.35
   0   6   5   58.43    2.77
   0   6   5   59.03    2.59
   0   6   5   55.43    2.50
  -1  -6  -5   53.97    2.29
  -1  -6  -5   55.03    2.57
  -1  -6  -5   53.85    2.56
   1   6   5   54.74    2.64
   1   6   5   56.71    2.47
   1   6   5   54.99    2.47
  -2  -6  -5  127.24    5.54
  -2  -6  -5  129.12    5.42
   2   6   5  122.60    5.43
   2   6   5  135.19    5.54
   2   6   5  134.73    5.40
  -3  -6  -5    1.52    0.51
   3   6   5    2.01    0.30
   3   6   5    1.56    0.50
  -4  -6  -5  115.47    5.10
   4   6   5  109.19    4.91
   4   6   5  117.72    4.87
  -5  -6  -5   26.71    1.71
   5   6   5   21.36    1.33
   5   6   5   27.48    1.44
  -6  -6  -5    4.29    0.74
  -6  -6  -5    4.27    0.86
   6   6   5    4.70    0.71
  -7  -6  -5   42.44    2.00
  -7  -6  -5   45.71    2.45
  -7  -6  -5   44.26    2.57
   7   6   5   47.71    2.17
  -8  -6  -5    7.77    0.95
  -8  -6  -5    6.98    0.55
  -8  -6  -5    7.59    0.99
  -9  -6  -5    8.47    0.87
  -9  -6  -5    7.69    0.93
 -10  -6  -5   35.89    2.20
 -10  -6  -5   36.90    2.10
 -11  -6  -5    7.69    1.07
 -11  -6  -5    8.52    1.24
   6  -7  -5    6.59    0.93
  -6   7   5    7.03    1.02
   5  -7  -5    1.92    0.50
  -5   7   5    2.30    0.51
   4  -7  -5    6.98    0.86
  -4   7   5    7.82    0.86
   3  -7  -5    0.16    0.46
  -3   7   5    0.57    0.44
  -3   7   5    0.84    0.16
   2  -7  -5    8.32    0.97
  -2   7   5    9.95    0.97
  -2   7   5    6.81    0.49
   1  -7  -5    1.12    0.56
  -1   7   5    1.58    0.30
  -1   7   5    1.09    0.55
   0  -7  -5   13.98    1.16
   0   7   5   14.00    0.88
   0   7   5   16.98    1.26
   0   7   5   14.40    0.85
  -1  -7  -5    5.32    0.82
  -1  -7  -5    5.32    0.32
   1   7   5    4.94    0.48
   1   7   5    5.13    0.45
   1   7   5    6.27    0.89
  -2  -7  -5   13.42    1.11
   2   7   5   13.39    0.82
   2   7   5   14.52    1.15
   2   7   5   14.19    0.82
  -3  -7  -5   18.84    1.32
   3   7   5   18.93    1.30
   3   7   5   14.93    0.95
  -4  -7  -5    4.93    0.77
  -4  -7  -5    4.49    0.85
   4   7   5    4.22    0.71
  -5  -7  -5    6.40    0.94
  -5  -7  -5    4.47    0.87
   5   7   5    4.55    0.84
  -6  -7  -5   19.66    1.42
  -6  -7  -5   21.15    1.56
   6   7   5   19.97    1.35
  -7  -7  -5    2.15    0.60
  -7  -7  -5    1.29    0.56
   7   7   5    1.74    0.59
  -8  -7  -5    8.32    1.02
  -8  -7  -5    9.23    0.97
  -9  -7  -5   43.60    2.40
  -9  -7  -5   41.26    2.46
 -10  -7  -5    5.39    1.05
 -10  -7  -5    5.25    0.77
  -5   8   5    9.00    0.98
  -4   8   5   13.81    1.11
   3  -8  -5    4.59    0.74
  -3   8   5    5.25    0.77
   2  -8  -5   39.44    2.29
  -2   8   5   42.98    2.34
   1  -8  -5    0.17    0.54
  -1   8   5    0.00    0.27
  -1   8   5    0.38    0.45
   0   8   5   28.25    1.50
   0   8   5   31.20    1.88
   1   8   5    0.54    0.33
   1   8   5    0.70    0.49
   1   8   5    0.27    0.29
  -2  -8  -5   16.97    0.90
  -2  -8  -5   15.41    0.72
  -2  -8  -5   16.42    0.76
   2   8   5   13.87    0.99
   2   8   5   16.94    0.97
   2   8   5   16.85    1.35
  -3  -8  -5    0.23    0.52
  -3  -8  -5    0.44    0.37
   3   8   5    0.27    0.36
   3   8   5    0.52    0.50
   3   8   5   -0.10    0.26
  -4  -8  -5    2.22    0.56
  -4  -8  -5    2.30    0.69
   4   8   5    3.19    0.70
  -5  -8  -5   10.90    1.08
   5   8   5    9.88    1.12
  -6  -8  -5    2.57    0.61
  -6  -8  -5    2.26    0.65
   6   8   5    2.04    0.68
  -7  -8  -5   13.28    1.22
  -7  -8  -5   13.53    1.29
   7   8   5   14.58    1.30
  -8  -8  -5    0.04    0.57
  -8  -8  -5    0.87    0.52
   8   8   5    1.12    0.71
  -9  -8  -5   13.38    1.31
  -9  -8  -5   10.40    1.16
 -10  -8  -5    0.32    0.75
 -10  -8  -5    1.08    0.90
  -4   9   5   19.02    1.38
  -3   9   5   16.74    1.29
  -2   9   5    6.07    0.74
  -1   9   5    7.97    0.94
   0   9   5    7.49    0.75
   1   9   5    0.73    0.46
   1   9   5    0.62    0.47
   2   9   5   32.28    1.96
   2   9   5   28.89    1.61
  -3  -9  -5    9.06    0.73
   3   9   5    8.57    0.78
  -4  -9  -5   25.78    1.50
  -5  -9  -5   43.31    2.28
  -5  -9  -5   43.21    2.51
   5   9   5   42.30    3.15
  -6  -9  -5    2.95    0.77
  -6  -9  -5    2.91    0.72
  -7  -9  -5    4.91    0.86
  -7  -9  -5    4.86    0.91
   7   9   5    3.70    1.56
  -8  -9  -5    4.61    0.88
  -8  -9  -5    5.73    0.94
   8   9   5    5.14    0.99
  -9  -9  -5   -0.60    0.76
  -9  -9  -5   -0.57    0.77
  -2  10   5    7.16    1.00
  -1  10   5   14.38    1.12
   0  10   5    4.82    0.84
   1  10   5   33.52    1.99
   2  10   5    2.07    0.58
   3  10   5   31.51    2.06
   4  10   5    7.53    1.10
  -5 -10  -5    8.15    1.12
   5  10   5    7.66    1.10
  -6 -10  -5    9.97    1.35
   6  10   5    9.73    1.35
  -7 -10  -5    8.14    1.46
   7  10   5    8.53    1.46
  -8 -10  -5    1.92    0.98
   8  10   5    2.67    1.06
   0  11   5    1.06    0.78
   1  11   5    8.41    1.10
   2  11   5    6.72    1.04
   3  11   5    2.15    0.71
   4  11   5    1.23    0.74
   5  11   5   17.70    1.64
   6  11   5    1.38    0.95
   3  10  -6    5.29    0.77
  -3 -10   6    5.75    1.09
   2  10  -6    3.04    0.69
  -2 -10   6    3.79    0.83
   1  10  -6    2.39    0.68
  -1 -10   6    2.15    0.84
   0  10  -6    8.60    1.10
   0 -10   6    8.83    1.38
  -6  -9   6    0.64    0.88
   5   9  -6    3.52    0.61
  -5  -9   6    4.20    0.94
   4   9  -6   15.99    1.26
   3   9  -6    0.98    0.49
  -3  -9   6    0.54    0.57
   2   9  -6   38.12    2.12
  -2  -9   6   38.93    2.26
   1   9  -6    3.78    0.58
  -1  -9   6    3.55    0.75
   0   9  -6    7.95    0.97
   0  -9   6    9.59    1.14
  -1   9  -6   10.11    0.97
   1  -9   6    9.66    1.21
  -2   9  -6    0.08    0.58
   2  -9   6    0.23    0.66
  -3   9  -6    5.46    1.00
   3  -9   6    4.49    0.94
  -7  -8   6   10.79    1.30
  -6  -8   6    6.45    1.18
   5   8  -6    2.26    0.47
   4   8  -6   21.84    1.43
  -4  -8   6   22.37    1.52
   3   8  -6    2.33    0.50
   2   8  -6    7.03    0.76
  -2  -8   6    5.07    0.85
   1   8  -6    4.34    0.67
  -1  -8   6    3.91    0.75
   0   8  -6    0.54    0.43
   0  -8   6    0.27    0.54
   1  -8   6    1.05    0.61
  -2   8  -6    7.23    0.85
   2  -8   6    5.67    0.95
  -3   8  -6   14.74    1.25
   3  -8   6   14.67    1.28
  -4   8  -6    9.36    1.07
   4  -8   6    6.12    1.11
  -5   8  -6   15.18    1.61
  -8  -7   6   15.90    1.39
  -7  -7   6   -0.89    0.54
  -6  -7   6   25.02    1.66
   5   7  -6    3.54    0.67
  -5  -7   6    2.52    0.69
   4   7  -6    7.11    0.80
   4   7  -6    6.70    0.73
  -4  -7   6    6.47    0.97
   3   7  -6    8.05    0.90
   3   7  -6    6.99    0.73
  -3  -7   6    9.28    0.94
   2   7  -6    7.53    1.04
   2   7  -6    8.28    0.66
   1   7  -6    0.44    0.25
  -1  -7   6    0.44    0.47
   0   7  -6    5.86    0.96
   0   7  -6    6.16    0.48
   0  -7   6    5.97    0.93
  -1   7  -6   28.26    2.36
  -1   7  -6   29.12    1.32
   1  -7   6   30.40    1.79
  -2   7  -6   14.87    0.71
   2  -7   6   16.68    1.28
  -3   7  -6   17.43    1.31
  -4   7  -6    2.06    0.64
   4  -7   6    2.83    0.71
  -5   7  -6    0.79    0.67
   5  -7   6    0.21    0.61
  -6   7  -6    3.38    0.91
   9   6  -6   -0.23    0.78
  -9  -6   6    0.12    0.63
   8   6  -6    1.25    0.57
  -8  -6   6    0.22    0.52
  -7  -6   6   23.14    1.56
  -6  -6   6    5.40    0.86
  -5  -6   6    1.65    0.61
   4   6  -6   50.75    2.55
   4   6  -6   53.16    2.72
  -4  -6   6   57.71    2.65
   3   6  -6    5.22    0.52
   3   6  -6    5.24    0.83
  -3  -6   6    5.30    0.75
   2   6  -6   42.59    2.27
   2   6  -6   43.26    2.04
  -2  -6   6   43.00    2.07
   1   6  -6  108.19    4.43
   1   6  -6   97.00    4.72
   1   6  -6  109.23    4.68
  -1  -6   6   97.51    4.54
  -1  -6   6  109.82    4.71
   0   6  -6    3.13    0.64
   0   6  -6    2.61    0.36
   0  -6   6    2.82    0.63
   0  -6   6    1.65    0.32
  -1   6  -6   54.59    2.62
  -1   6  -6   52.49    2.29
   1  -6   6   47.77    2.39
   1  -6   6   54.09    2.64
  -2   6  -6    2.68    0.62
  -2   6  -6    2.20    0.33
   2  -6   6    2.30    0.35
   2  -6   6    2.98    0.65
  -3   6  -6    1.25    0.54
  -3   6  -6    0.42    0.20
   3  -6   6    0.62    0.55
  -4   6  -6   15.68    1.26
  -4   6  -6   15.87    0.87
   4  -6   6   17.65    1.32
  -5   6  -6   23.05    1.61
  -5   6  -6   23.27    1.33
   5  -6   6   25.36    1.65
  -6   6  -6    2.00    0.79
  -7   6  -6   19.57    1.78
  -7   6  -6   21.02    1.72
   9   5  -6    1.88    0.81
  -9  -5   6    3.39    0.58
   8   5  -6    3.46    0.80
   8   5  -6    4.42    0.82
  -8  -5   6    5.74    0.78
   7   5  -6   -0.14    0.43
  -7  -5   6    0.87    0.46
  -6  -5   6   12.92    1.60
   5   5  -6   25.25    1.52
   5   5  -6   19.79    1.34
  -5  -5   6   24.00    1.50
   4   5  -6    5.06    0.79
   4   5  -6    3.59    0.51
   4   5  -6    3.31    0.60
  -4  -5   6    4.83    0.76
   3   5  -6   56.01    2.57
   3   5  -6   57.48    2.72
   3   5  -6   55.35    2.72
  -3  -5   6   49.31    2.58
  -3  -5   6   58.66    2.61
   2   5  -6   21.00    1.07
   2   5  -6   18.43    1.19
   2   5  -6   21.43    1.33
  -2  -5   6   20.48    1.17
  -2  -5   6   16.80    1.09
   1   5  -6   66.15    2.87
   1   5  -6   67.14    3.05
  -1  -5   6   61.20    2.93
   0   5  -6    9.80    0.62
   0   5  -6   10.53    0.92
   0  -5   6    9.26    0.93
   0  -5   6    8.82    0.64
  -1   5  -6   44.79    2.01
  -1   5  -6   44.84    2.23
   1  -5   6   44.11    2.09
   1  -5   6   44.77    2.29
  -2   5  -6   17.05    1.10
  -2   5  -6   19.41    0.99
  -2   5  -6   19.55    1.28
   2  -5   6   19.72    1.33
   2  -5   6   19.00    1.04
  -3   5  -6   47.54    2.48
  -3   5  -6   49.25    2.42
   3  -5   6   49.95    2.53
  -4   5  -6    1.95    0.57
   4  -5   6    2.26    0.60
  -5   5  -6   47.61    2.45
   5  -5   6   50.19    2.61
  -6   5  -6   26.81    1.72
  -6   5  -6   28.82    1.66
  -7   5  -6    4.01    0.77
  -7   5  -6    3.45    0.84
  -7   5  -6    4.82    0.87
  -8   5  -6    4.23    1.01
   9   4  -6    0.27    1.01
  -9  -4   6    0.14    0.51
   8   4  -6   16.13    1.36
   8   4  -6   17.68    1.43
  -8  -4   6   18.39    1.26
   7   4  -6   17.26    1.30
  -7  -4   6   16.71    1.26
   6   4  -6    6.04    0.87
   6   4  -6    4.58    0.70
  -6  -4   6    6.62    0.88
   5   4  -6   19.01    1.25
   5   4  -6   25.22    1.31
  -5  -4   6   17.47    1.23
  -5  -4   6   25.71    1.50
   4   4  -6    0.03    0.29
  -4  -4   6    0.06    0.43
  -4  -4   6   -0.34    0.30
   3   4  -6    8.29    0.84
   3   4  -6    7.51    0.62
   3   4  -6    7.55    0.58
  -3  -4   6    8.77    0.82
   2   4  -6    5.39    0.70
   2   4  -6    4.96    0.47
   2   4  -6    5.05    0.43
  -2  -4   6    4.51    0.43
  -2  -4   6    5.03    0.63
   1   4  -6    3.35    0.63
   1   4  -6    3.89    0.40
  -1  -4   6    3.46    0.55
  -1  -4   6    3.17    0.36
   0   4  -6   23.36    1.37
   0   4  -6   24.27    1.20
   0  -4   6   23.35    1.43
   0  -4   6   25.21    1.26
  -1   4  -6   67.96    3.08
  -1   4  -6   68.89    2.97
   1  -4   6   69.10    3.02
   1  -4   6   68.96    3.17
  -2   4  -6   16.85    0.94
  -2   4  -6   18.97    1.14
   2  -4   6   19.69    0.99
   2  -4   6   17.64    1.23
  -3   4  -6   -0.29    0.25
  -3   4  -6    0.36    0.39
  -3   4  -6    0.55    0.16
   3  -4   6    0.21    0.45
  -4   4  -6   32.24    1.67
  -4   4  -6   28.85    1.61
   4  -4   6   32.75    1.85
  -5   4  -6    0.82    0.41
  -5   4  -6    1.88    0.55
   5  -4   6    1.63    0.60
  -6   4  -6    0.89    0.50
  -6   4  -6    1.29    0.58
  -7   4  -6   21.51    1.42
  -7   4  -6   21.32    1.53
  -7   4  -6   18.79    2.14
  -8   4  -6   12.36    1.39
  -8   4  -6   12.54    1.41
  -8   4  -6   13.30    1.29
  -9   4  -6    1.96    1.00
  -9   4  -6    1.73    1.12
 -10  -3   6   11.18    1.06
   9   3  -6   31.76    1.99
  -9  -3   6   32.11    1.82
   8   3  -6   -0.29    0.56
   8   3  -6    0.16    0.57
  -8  -3   6    0.70    0.40
   7   3  -6   50.21    2.41
   7   3  -6   45.95    2.35
   7   3  -6   44.56    2.26
  -7  -3   6   46.65    2.46
   6   3  -6   22.82    1.45
   6   3  -6   20.37    1.17
  -6  -3   6   21.94    1.44
   5   3  -6    2.11    0.55
  -5  -3   6    2.87    0.59
   4   3  -6   10.03    0.66
   4   3  -6    8.16    0.63
  -4  -3   6   10.43    0.92
   3   3  -6   44.66    2.07
   3   3  -6   40.46    1.99
  -3  -3   6   43.57    2.08
  -3  -3   6   40.48    2.03
   2   3  -6    0.82    0.18
   2   3  -6    1.02    0.39
  -2  -3   6    0.67    0.35
   1   3  -6  107.84    4.65
   1   3  -6  110.92    4.66
  -1  -3   6  111.26    4.66
  -1  -3   6  110.39    4.60
   0   3  -6   56.08    2.55
   0   3  -6   55.31    2.48
   0  -3   6   57.43    2.51
   0  -3   6   56.27    2.62
  -1   3  -6   24.12    1.28
  -1   3  -6   23.75    1.18
   1  -3   6   23.76    1.38
  -2   3  -6   58.13    2.55
  -2   3  -6   56.62    2.48
   2  -3   6   54.99    2.68
   2  -3   6   58.08    2.51
  -3   3  -6    1.15    0.38
   3  -3   6    0.91    0.19
   3  -3   6    0.98    0.47
  -4   3  -6    2.50    0.37
  -4   3  -6    3.05    0.58
  -4   3  -6    3.20    0.41
   4  -3   6    4.04    0.75
  -5   3  -6    2.34    0.34
  -5   3  -6    2.51    0.32
  -5   3  -6    2.27    0.46
   5  -3   6    2.96    0.65
  -6   3  -6   13.35    1.18
  -6   3  -6   14.02    0.96
  -6   3  -6   11.23    0.85
  -7   3  -6    3.03    0.70
  -7   3  -6    3.72    0.60
  -7   3  -6    2.31    0.70
  -8   3  -6   14.65    1.14
  -8   3  -6   11.15    1.89
  -8   3  -6   15.51    1.37
  -9   3  -6   10.00    1.44
  -9   3  -6   10.03    1.33
 -10  -2   6    0.42    0.62
   9   2  -6    2.76    0.80
  -9  -2   6    4.25    0.66
   8   2  -6   10.03    1.11
  -8  -2   6    9.58    0.88
   7   2  -6   22.97    1.49
   7   2  -6   23.19    1.26
  -7  -2   6   23.54    1.51
   6   2  -6    4.49    0.48
  -6  -2   6    4.59    0.77
   5   2  -6  131.88    5.90
   5   2  -6  148.82    5.89
   5   2  -6  139.91    5.82
  -5  -2   6  140.29    5.94
  -5  -2   6  133.44    5.93
   4   2  -6   40.39    1.98
   4   2  -6   41.83    1.93
   4   2  -6   43.22    2.05
  -4  -2   6   37.03    1.94
  -4  -2   6   41.21    2.07
   3   2  -6  138.44    5.62
   3   2  -6  129.41    5.56
  -3  -2   6  130.83    5.56
  -3  -2   6  131.79    5.58
   2   2  -6  158.60    6.56
  -2  -2   6  154.26    6.56
  -2  -2   6  164.03    6.56
   1   2  -6   46.15    2.03
   1   2  -6   45.64    2.05
  -1  -2   6   43.31    2.03
  -1  -2   6   41.62    2.11
   0   2  -6  185.85    7.42
   0   2  -6  180.93    7.42
   0  -2   6  191.06    7.43
   0  -2   6  173.17    7.49
  -1   2  -6   55.81    2.42
  -1   2  -6   55.56    2.43
   1  -2   6   53.08    2.54
   1  -2   6   57.40    2.41
  -2   2  -6   12.42    0.76
   2  -2   6   12.47    0.93
   2  -2   6   12.52    0.67
  -3   2  -6   25.81    1.35
  -3   2  -6   25.66    1.26
   3  -2   6   26.30    1.51
   3  -2   6   26.23    1.21
  -4   2  -6   67.41    2.83
  -4   2  -6   68.51    2.97
  -4   2  -6   67.67    3.01
  -4   2  -6   62.29    2.81
   4  -2   6   67.24    3.14
  -5   2  -6   22.46    1.16
  -5   2  -6   21.07    1.21
  -5   2  -6   22.91    1.45
  -5   2  -6   23.31    1.21
   5  -2   6   24.17    1.53
  -6   2  -6  103.15    4.36
  -6   2  -6  100.21    4.51
  -6   2  -6   97.52    4.43
  -6   2  -6  101.01    4.17
  -7   2  -6    0.49    0.55
  -7   2  -6   -0.61    0.35
  -7   2  -6    0.34    0.35
  -8   2  -6   32.34    1.59
  -8   2  -6   32.41    1.96
  -8   2  -6   30.71    1.96
  -9   2  -6    6.06    1.00
  -9   2  -6    5.81    1.15
 -10   2  -6    0.68    0.74
 -10   2  -6    1.25    0.91
 -10  -1   6    2.05    0.63
   9   1  -6    1.24    0.72
  -9  -1   6    1.20    0.45
   8   1  -6    2.39    0.67
  -8  -1   6    3.16    0.60
   7   1  -6   40.08    1.85
   7   1  -6   39.03    2.11
   6   1  -6    4.41    0.58
  -6  -1   6    5.10    0.64
   5   1  -6    4.22    0.50
   5   1  -6    6.12    0.47
  -5  -1   6    7.58    0.84
   4   1  -6   14.04    0.94
   4   1  -6   13.78    0.75
   4   1  -6   11.80    0.74
  -4  -1   6   13.20    0.94
  -4  -1   6   11.27    0.74
   3   1  -6   40.18    1.90
   3   1  -6   39.26    1.79
   3   1  -6   38.39    1.86
  -3  -1   6   38.57    1.87
  -3  -1   6   37.44    1.90
   2   1  -6    0.54    0.32
   2   1  -6    0.65    0.12
  -2  -1   6    0.69    0.33
  -2  -1   6    0.51    0.14
   1   1  -6   12.45    0.71
   1   1  -6   11.99    0.80
  -1  -1   6   11.78    0.68
  -1  -1   6   11.58    0.79
   0   1  -6  130.02    5.28
   0   1  -6  123.85    5.29
   0  -1   6  126.80    5.25
   0  -1   6  133.42    5.36
  -1   1  -6   20.58    1.01
  -1   1  -6   19.32    1.05
  -1   1  -6   19.52    1.00
   1  -1   6   20.59    0.98
   1  -1   6   20.34    1.14
  -2   1  -6  293.93   11.07
  -2   1  -6  260.49   10.84
  -2   1  -6  260.18   10.91
   2  -1   6  274.47   10.85
   2  -1   6  279.25   11.07
  -3   1  -6   33.67    1.60
  -3   1  -6   34.71    1.55
  -3   1  -6   35.37    1.69
   3  -1   6   36.22    1.82
   3  -1   6   34.65    1.50
  -4   1  -6  133.92    5.64
   4  -1   6  134.71    5.75
  -5   1  -6   27.25    1.48
  -5   1  -6   29.25    1.68
  -5   1  -6   30.02    1.45
   5  -1   6   30.76    1.72
  -6   1  -6    3.31    0.34
  -6   1  -6    2.34    0.30
  -6   1  -6    3.46    0.68
  -6   1  -6    3.16    0.50
  -7   1  -6   32.87    1.66
  -7   1  -6   35.11    1.57
  -7   1  -6   33.84    1.98
  -8   1  -6   21.08    1.51
  -8   1  -6   18.00    1.14
  -8   1  -6   19.93    1.08
  -8   1  -6   19.03    1.49
  -9   1  -6    2.31    0.63
  -9   1  -6    2.69    0.76
 -10   1  -6   35.32    2.37
 -10   1  -6   37.66    2.27
  10   0  -6    0.04    0.93
 -10   0   6   -0.11    0.63
   9   0  -6    9.21    1.23
  -9   0   6    9.84    1.01
   8   0  -6   12.32    1.25
  -8   0   6   14.46    1.11
   7   0  -6   27.84    1.69
   7   0  -6   28.91    1.31
   6   0  -6    5.46    0.61
   6   0  -6    8.46    0.86
   6   0  -6    7.68    0.47
  -6   0   6    9.21    0.92
  -6   0   6    5.49    0.61
   5   0  -6    3.68    0.68
   5   0  -6    3.60    0.32
  -5   0   6    4.26    0.62
   4   0  -6    0.12    0.11
   4   0  -6    0.03    0.19
  -4   0   6    0.35    0.40
   3   0  -6    3.15    0.33
   3   0  -6    3.53    0.30
  -3   0   6    3.01    0.58
  -2   0   6    4.87    0.51
   1   0  -6   25.91    1.26
  -1   0   6   25.17    1.28
   0   0  -6   35.90    1.65
   0   0   6   35.44    1.70
   0   0   6   37.42    1.62
  -1   0  -6   55.37    2.38
   1   0   6   55.17    2.31
   1   0   6   53.73    2.43
  -2   0  -6    9.21    0.57
   2   0   6    8.66    0.46
   2   0   6    8.71    0.70
  -3   0  -6   54.58    2.76
  -3   0  -6   60.46    2.77
   3   0   6   64.72    2.79
   3   0   6   63.36    2.45
  -4   0  -6   22.90    1.19
  -4   0  -6   21.85    1.35
   4   0   6   24.10    1.41
  -5   0  -6   10.09    0.60
  -5   0  -6    9.56    0.65
  -5   0  -6    9.02    0.92
  -6   0  -6   98.50    4.38
  -6   0  -6   95.62    4.25
  -7   0  -6   29.37    1.44
  -7   0  -6   29.65    1.81
  -8   0  -6   20.56    1.15
  -8   0  -6   22.48    1.59
  -9   0  -6   91.46    4.57
  -9   0  -6  100.83    4.54
 -10   0  -6    1.15    0.70
 -10   0  -6    1.06    0.54
 -11   0  -6   18.54    1.46
 -11   0  -6   13.38    1.79
   9  -1  -6    2.14    0.71
  -9   1   6    1.34    0.54
   8  -1  -6   19.34    1.43
  -8   1   6   17.64    1.32
   7  -1  -6   16.24    1.28
  -7   1   6   16.81    1.42
   6  -1  -6    0.48    0.46
   6  -1  -6   -0.21    0.36
  -6   1   6    0.34    0.43
   5  -1  -6   64.91    3.06
   5  -1  -6   67.00    3.14
  -5   1   6   71.52    3.15
   4  -1  -6   48.71    2.26
   4  -1  -6   48.85    1.97
   4  -1  -6   47.66    2.33
  -4   1   6   47.96    2.31
   3  -1  -6    1.80    0.44
   3  -1  -6    1.63    0.24
   3  -1  -6    1.72    0.16
  -3   1   6    1.63    0.42
  -3   1   6    1.54    0.25
   2  -1  -6  197.61    8.18
  -2   1   6  205.71    8.21
   1  -1  -6    0.40    0.15
  -1   1   6    0.61    0.29
   0  -1  -6  181.49    7.23
   0   1   6  182.11    7.28
   0   1   6  173.62    7.22
  -1  -1  -6   53.06    2.27
   1   1   6   49.93    2.23
   1   1   6   49.76    2.24
  -2  -1  -6   32.48    1.45
  -2  -1  -6   31.44    1.53
   2   1   6   31.69    1.32
   2   1   6   29.27    1.51
   2   1   6   30.49    1.43
  -3  -1  -6    3.46    0.58
  -3  -1  -6    3.74    0.32
   3   1   6    3.12    0.29
   3   1   6    3.33    0.55
  -4  -1  -6   10.32    0.89
  -4  -1  -6   10.36    0.65
   4   1   6    9.98    0.55
  -5  -1  -6   56.88    2.57
  -5  -1  -6   55.03    2.40
  -5  -1  -6   57.83    2.75
  -6  -1  -6   29.49    1.53
  -6  -1  -6   30.22    1.40
  -6  -1  -6   32.57    1.83
  -7  -1  -6   12.64    0.70
  -7  -1  -6   12.39    1.19
  -8  -1  -6    4.42    0.41
  -8  -1  -6    3.81    0.78
  -9  -1  -6    6.15    0.82
  -9  -1  -6    5.20    1.05
 -10  -1  -6    8.52    0.90
 -10  -1  -6    6.45    1.11
 -11  -1  -6    7.59    0.99
 -11  -1  -6    5.93    1.10
   9  -2  -6    3.90    0.84
  -9   2   6    2.82    0.75
   8  -2  -6   34.07    2.08
  -8   2   6   34.56    2.00
  -7   2   6    8.24    0.96
   6  -2  -6   58.92    2.88
   6  -2  -6   54.76    2.70
  -6   2   6   60.34    2.82
   5  -2  -6   15.15    1.13
   5  -2  -6   13.26    0.86
  -5   2   6   15.26    1.09
  -5   2   6   13.94    0.85
   4  -2  -6   90.23    3.93
   4  -2  -6   88.90    4.04
  -4   2   6   93.49    3.97
  -4   2   6   91.33    3.94
   3  -2  -6  116.80    4.86
   3  -2  -6  113.10    4.95
  -3   2   6  114.87    4.88
  -3   2   6  119.08    4.89
   2  -2  -6    9.72    0.43
   2  -2  -6    9.46    0.78
   2  -2  -6   10.19    0.61
  -2   2   6    9.78    0.77
   1  -2  -6   92.71    4.10
   1  -2  -6  100.03    3.93
   1  -2  -6   97.10    4.04
  -1   2   6   98.50    4.08
   0  -2  -6   37.65    1.64
   0  -2  -6   35.32    1.63
  -1  -2  -6   55.01    2.35
   1   2   6   51.00    2.27
  -2  -2  -6  196.36    7.83
  -2  -2  -6  197.06    7.70
   2   2   6  182.20    7.74
  -3  -2  -6   65.94    2.95
  -3  -2  -6   64.87    2.79
   3   2   6   64.42    2.61
  -4  -2  -6   72.96    3.24
  -4  -2  -6   76.68    3.41
  -5  -2  -6   77.41    3.41
  -5  -2  -6   79.02    3.59
  -6  -2  -6    0.39    0.10
  -6  -2  -6    0.60    0.48
  -6  -2  -6    0.22    0.19
  -7  -2  -6   10.66    1.11
  -7  -2  -6    9.68    0.49
  -7  -2  -6    7.32    0.65
  -8  -2  -6    8.63    1.09
  -9  -2  -6    3.48    0.76
  -9  -2  -6    3.97    0.72
 -10  -2  -6    0.28    0.58
 -10  -2  -6    0.46    0.44
 -11  -2  -6    8.76    0.99
 -11  -2  -6    6.26    1.09
   9  -3  -6    3.12    0.83
  -9   3   6    3.60    0.90
   8  -3  -6   10.86    1.08
  -8   3   6    9.45    1.12
   7  -3  -6    7.45    0.95
  -7   3   6   10.59    0.89
  -7   3   6    8.29    0.99
   6  -3  -6    0.84    0.39
   6  -3  -6    0.67    0.50
  -6   3   6    1.02    0.35
  -6   3   6    0.95    0.32
  -6   3   6    0.78    0.49
   5  -3  -6   18.53    1.09
   5  -3  -6   18.64    1.37
  -5   3   6   20.07    1.08
  -5   3   6   19.21    1.26
   4  -3  -6    5.37    0.46
   4  -3  -6    4.98    0.80
  -4   3   6    6.48    0.78
   3  -3  -6    7.80    0.51
   3  -3  -6    6.60    0.79
  -3   3   6    8.29    0.73
   2  -3  -6   67.04    3.10
   2  -3  -6   69.44    2.97
  -2   3   6   71.04    3.03
   1  -3  -6   82.14    3.36
   1  -3  -6   76.26    3.47
   1  -3  -6   81.14    3.25
   0  -3  -6    1.82    0.22
   0  -3  -6    2.30    0.42
   0  -3  -6    2.06    0.37
   0   3   6    1.78    0.17
  -1  -3  -6  457.17   17.63
  -1  -3  -6  420.37   17.27
   1   3   6  429.49   17.24
  -2  -3  -6    8.22    0.46
  -2  -3  -6    7.41    0.57
  -2  -3  -6    7.53    0.68
   2   3   6    7.24    0.50
  -3  -3  -6  250.85   10.13
  -3  -3  -6  246.22    9.94
  -4  -3  -6  150.68    6.27
  -4  -3  -6  142.06    6.17
   4   3   6  145.28    6.13
   4   3   6  151.50    5.86
  -5  -3  -6    0.45    0.47
  -5  -3  -6   -0.15    0.15
   5   3   6   -0.15    0.17
  -6  -3  -6   85.50    3.70
  -6  -3  -6   86.15    3.96
   6   3   6   80.06    3.71
  -7  -3  -6   18.75    1.13
  -7  -3  -6   22.03    1.52
   7   3   6   16.70    1.11
  -8  -3  -6    2.28    0.72
  -9  -3  -6   55.47    2.90
  -9  -3  -6   56.93    3.05
 -10  -3  -6   19.25    1.53
 -10  -3  -6   19.87    1.40
 -11  -3  -6    0.87    0.75
 -11  -3  -6    1.03    0.63
   8  -4  -6    9.09    1.01
  -8   4   6    6.47    1.25
   7  -4  -6    0.70    0.50
  -7   4   6    0.72    0.66
   6  -4  -6    1.82    0.56
  -6   4   6    1.20    0.56
  -6   4   6    2.03    0.39
   5  -4  -6    2.19    0.61
  -5   4   6    1.39    0.29
  -5   4   6    2.15    0.55
  -5   4   6    1.51    0.29
   4  -4  -6    4.15    0.80
   4  -4  -6    4.46    0.42
  -4   4   6    3.83    0.36
  -4   4   6    4.32    0.74
   3  -4  -6   62.85    2.70
   3  -4  -6   60.85    2.96
  -3   4   6   58.48    2.57
  -3   4   6   64.13    2.78
   2  -4  -6    8.91    0.90
   2  -4  -6   10.56    0.60
  -2   4   6    9.72    0.76
  -2   4   6    9.80    0.46
   1  -4  -6   40.50    1.71
   1  -4  -6   38.61    1.99
   1  -4  -6   40.33    1.77
   0  -4  -6   25.85    1.37
   0  -4  -6   25.03    1.21
   0  -4  -6   23.35    1.14
   0   4   6   23.39    1.13
  -1  -4  -6   55.36    2.41
  -1  -4  -6   59.39    2.55
  -1  -4  -6   56.80    2.54
   1   4   6   55.26    2.45
  -2  -4  -6    4.24    0.30
  -2  -4  -6    5.70    0.63
   2   4   6    4.56    0.36
  -3  -4  -6   33.23    1.49
  -3  -4  -6   34.04    1.77
  -3  -4  -6   32.96    1.50
   3   4   6   32.89    1.54
   3   4   6   31.24    1.58
  -4  -4  -6    0.03    0.42
  -4  -4  -6    0.33    0.13
  -4  -4  -6    0.44    0.11
   4   4   6    0.55    0.16
   4   4   6    0.35    0.24
  -5  -4  -6  140.01    6.10
  -5  -4  -6  144.12    5.84
   5   4   6  131.81    5.89
   5   4   6  144.07    5.64
  -6  -4  -6   84.88    3.63
  -6  -4  -6   84.01    3.93
   6   4   6   76.64    3.63
  -7  -4  -6   34.74    1.78
  -7  -4  -6   37.55    2.16
   7   4   6   29.98    1.73
  -8  -4  -6  102.34    4.87
  -9  -4  -6    2.59    0.68
  -9  -4  -6    3.59    0.65
 -10  -4  -6   16.72    1.45
 -10  -4  -6   18.22    1.28
 -11  -4  -6    6.84    1.05
 -11  -4  -6    8.10    0.99
   8  -5  -6    6.53    1.09
   7  -5  -6    0.59    0.52
  -7   5   6    1.02    0.73
   6  -5  -6   30.23    1.83
  -6   5   6   28.69    1.76
   5  -5  -6    6.60    0.89
  -5   5   6    7.44    0.56
  -5   5   6    8.14    0.91
   4  -5  -6   26.15    1.28
   4  -5  -6   24.71    1.63
  -4   5   6   23.69    1.15
  -4   5   6   25.05    1.44
   3  -5  -6   60.96    2.89
   3  -5  -6   64.09    3.11
  -3   5   6   65.29    2.56
   2  -5  -6    2.41    0.27
   2  -5  -6    3.11    0.62
   1  -5  -6   10.44    0.58
   1  -5  -6   10.04    0.93
  -1   5   6   10.10    0.55
   0  -5  -6    6.88    0.61
   0  -5  -6    6.59    0.77
   0  -5  -6    6.80    0.42
   0   5   6    6.43    0.44
  -1  -5  -6    2.87    0.51
  -1  -5  -6    2.55    0.47
   1   5   6    3.23    0.62
   1   5   6    2.80    0.28
  -2  -5  -6    4.44    0.57
  -2  -5  -6    4.36    0.28
  -2  -5  -6    3.64    0.68
   2   5   6    4.06    0.35
   2   5   6    3.86    0.62
  -3  -5  -6   35.30    1.90
  -3  -5  -6   34.86    1.64
  -3  -5  -6   35.65    1.58
   3   5   6   35.79    1.74
   3   5   6   34.55    1.71
  -4  -5  -6   22.85    1.33
  -4  -5  -6   27.58    1.29
  -4  -5  -6   27.65    1.65
   4   5   6   25.35    1.34
   4   5   6   27.50    1.37
  -5  -5  -6   16.87    1.30
  -5  -5  -6   16.50    0.89
   5   5   6   16.28    0.95
   5   5   6   13.93    0.93
  -6  -5  -6   35.04    2.06
  -6  -5  -6   37.47    1.74
   6   5   6   30.41    1.75
   6   5   6   35.95    1.63
  -7  -5  -6    0.81    0.58
  -7  -5  -6   -0.52    0.34
  -8  -5  -6    2.34    0.66
  -8  -5  -6    3.24    0.77
  -9  -5  -6    4.22    0.78
  -9  -5  -6    5.29    0.80
 -10  -5  -6   12.48    1.04
 -10  -5  -6   11.26    1.19
 -11  -5  -6   -0.03    0.65
   7  -6  -6   25.04    1.67
   6  -6  -6    2.13    0.53
  -6   6   6    0.86    0.65
   5  -6  -6   13.45    1.16
   4  -6  -6   19.79    1.42
   3  -6  -6    0.26    0.44
   3  -6  -6    0.65    0.20
   2  -6  -6   43.95    2.32
   2  -6  -6   43.13    1.85
  -2   6   6   40.37    1.76
   1  -6  -6   38.63    1.72
   1  -6  -6   39.14    2.13
  -1   6   6   42.64    2.19
  -1   6   6   39.17    1.75
   0  -6  -6    1.27    0.20
   0  -6  -6    1.63    0.50
   0   6   6    2.06    0.56
   0   6   6    1.62    0.24
  -1  -6  -6   59.03    2.86
  -1  -6  -6   61.77    2.60
  -1  -6  -6   64.80    2.86
   1   6   6   61.98    2.94
   1   6   6   61.78    2.74
  -2  -6  -6   44.32    2.15
  -2  -6  -6   43.67    2.23
  -2  -6  -6   45.50    1.84
   2   6   6   46.93    2.25
   2   6   6   42.93    2.08
  -3  -6  -6   11.87    0.62
  -3  -6  -6   10.57    1.04
  -3  -6  -6   11.05    0.81
   3   6   6   10.87    0.72
   3   6   6   10.99    0.96
  -4  -6  -6  104.37    4.72
  -4  -6  -6  108.64    4.38
   4   6   6  106.71    4.48
   4   6   6   96.78    4.48
  -5  -6  -6    2.61    0.69
  -5  -6  -6    3.23    0.37
   5   6   6    3.03    0.53
  -6  -6  -6    0.97    0.61
  -6  -6  -6    1.18    0.29
   6   6   6    1.15    0.44
  -7  -6  -6    5.26    0.59
  -7  -6  -6    5.75    0.97
   7   6   6    7.30    0.77
  -8  -6  -6   22.20    1.66
  -8  -6  -6   22.54    1.59
  -9  -6  -6   -0.77    0.47
  -9  -6  -6    0.69    0.44
 -10  -6  -6   13.68    1.18
 -10  -6  -6   14.68    1.27
 -11  -6  -6    3.22    0.85
   6  -7  -6    0.97    0.63
  -6   7   6   -0.35    0.63
   5  -7  -6    3.46    0.56
  -5   7   6    2.03    0.50
   4  -7  -6    2.86    0.58
  -4   7   6    4.52    0.67
   3  -7  -6   42.34    2.40
  -3   7   6   44.69    2.41
   2  -7  -6   11.56    1.12
  -2   7   6   11.17    0.60
   1  -7  -6   11.22    1.12
   1  -7  -6   11.54    0.56
  -1   7   6   11.71    1.12
  -1   7   6   11.42    0.68
   0  -7  -6  123.31    5.45
   0  -7  -6  122.89    4.99
   0   7   6  120.31    5.18
   0   7   6  131.88    5.55
  -1  -7  -6    2.22    0.25
  -1  -7  -6    2.61    0.60
   1   7   6    2.95    0.64
   1   7   6    2.05    0.32
  -2  -7  -6   51.69    2.51
  -2  -7  -6   48.48    2.38
   2   7   6   49.45    2.51
   2   7   6   46.66    2.29
  -3  -7  -6   21.54    1.46
  -3  -7  -6   21.37    0.99
   3   7   6   21.50    1.40
   3   7   6   19.15    1.15
  -4  -7  -6    4.52    0.87
  -4  -7  -6    5.00    0.56
   4   7   6    4.66    0.74
  -5  -7  -6   16.04    1.38
   5   7   6   15.65    1.18
  -6  -7  -6   99.81    4.37
  -6  -7  -6   98.94    4.87
  -6  -7  -6  105.74    4.62
   6   7   6  102.72    4.44
  -7  -7  -6    0.56    0.45
  -7  -7  -6    1.04    0.57
   7   7   6    1.02    0.54
  -8  -7  -6   36.44    2.18
  -8  -7  -6   38.64    2.33
  -9  -7  -6   15.35    1.29
  -9  -7  -6   14.25    1.22
 -10  -7  -6    9.56    1.07
 -10  -7  -6    9.01    1.15
   5  -8  -6    5.23    0.96
  -5   8   6    5.04    0.94
   4  -8  -6    1.27    0.54
  -4   8   6    1.69    0.52
   3  -8  -6   12.04    1.06
  -3   8   6   14.21    1.08
   2  -8  -6    5.97    0.86
  -2   8   6    5.89    0.47
  -2   8   6    6.43    0.83
   1  -8  -6    3.83    0.89
  -1   8   6    4.58    0.47
  -1   8   6    4.00    0.72
   0   8   6    7.51    0.61
  -1  -8  -6    4.68    0.81
  -1  -8  -6    4.41    0.27
   1   8   6    4.49    0.85
   1   8   6    3.86    0.53
  -2  -8  -6   15.41    0.76
   2   8   6   13.67    0.96
   2   8   6   16.22    1.30
  -3  -8  -6   -0.25    0.40
  -3  -8  -6   -0.10    0.50
   3   8   6   -0.40    0.36
   3   8   6    0.89    0.58
  -4  -8  -6   32.86    2.03
  -4  -8  -6   31.98    1.79
   4   8   6   32.98    1.97
  -5  -8  -6   16.54    1.30
   5   8   6   14.70    1.24
  -6  -8  -6   15.04    1.34
  -6  -8  -6   15.57    1.36
   6   8   6   16.59    1.32
  -7  -8  -6    9.18    1.01
   7   8   6   10.04    1.17
  -8  -8  -6    8.28    1.00
  -8  -8  -6    8.66    1.16
   8   8   6    8.51    1.20
  -9  -8  -6    0.97    0.67
  -9  -8  -6    1.61    0.64
 -10  -8  -6    5.38    0.95
 -10  -8  -6    8.36    1.44
  -4   9   6   11.57    1.16
  -3   9   6    0.98    0.60
  -2   9   6   18.78    1.33
  -1   9   6    7.16    0.85
   0   9   6    3.62    0.68
   0   9   6    2.91    0.60
   1   9   6    0.45    0.44
   1   9   6    1.24    0.52
  -2  -9  -6   23.82    1.02
   2   9   6   25.67    1.72
  -3  -9  -6    6.99    0.39
  -3  -9  -6    7.03    0.77
  -3  -9  -6    7.67    0.51
   3   9   6    7.31    1.14
  -4  -9  -6    2.02    0.58
  -4  -9  -6    2.12    0.64
   4   9   6    2.60    1.19
  -5  -9  -6   19.89    1.54
  -5  -9  -6   19.70    1.48
   5   9   6   19.79    1.61
  -6  -9  -6    2.25    0.59
  -6  -9  -6    1.61    0.69
   6   9   6    1.99    0.78
  -7  -9  -6    0.39    0.54
  -7  -9  -6    0.33    0.64
   7   9   6    1.54    0.86
  -8  -9  -6    1.95    0.67
  -8  -9  -6    0.52    0.74
   8   9   6    1.66    1.03
  -9  -9  -6    3.04    0.87
  -9  -9  -6    4.58    0.83
  -2  10   6   25.37    1.74
  -1  10   6    5.03    0.90
   0  10   6   69.29    3.48
   1  10   6   34.41    2.10
   2  10   6   10.52    1.07
   3  10   6   14.21    1.39
   4  10   6    1.79    0.72
  -5 -10  -6    0.77    0.67
   5  10   6    0.26    0.66
  -6 -10  -6    2.29    0.88
   6  10   6    2.78    0.92
  -7 -10  -6   11.39    1.55
  -7 -10  -6    9.44    1.23
   7  10   6   13.59    1.60
  -8 -10  -6   -0.15    0.97
  -8 -10  -6    0.98    0.98
   0  11   6    4.81    0.86
   1  11   6    1.35    0.76
   2  11   6   24.64    1.71
   3  11   6   15.16    1.41
   4  11   6    2.90    0.83
   5  11   6   34.81    2.32
   6  11   6    1.35    1.02
   5   9  -7   20.27    1.45
   4   9  -7    4.22    0.63
   3   9  -7    2.40    0.57
  -3  -9   7    2.67    0.62
   2   9  -7   42.90    2.37
  -2  -9   7   44.76    2.49
   1   9  -7    0.66    0.53
  -1  -9   7    0.54    0.58
   0   9  -7    8.62    0.93
   0  -9   7    7.80    1.04
  -1   9  -7   11.44    1.08
   1  -9   7   11.12    1.32
  -2   9  -7    0.33    0.64
   2  -9   7    0.53    0.73
  -7  -8   7   15.31    1.52
  -6  -8   7   15.69    1.54
   5   8  -7    0.35    0.48
  -5  -8   7    0.05    0.68
   4   8  -7    9.03    0.87
  -4  -8   7    9.21    1.16
   3   8  -7    7.40    0.79
   2   8  -7    2.49    0.53
  -2  -8   7    2.22    0.56
   1   8  -7    7.06    0.80
  -1  -8   7    6.64    0.88
   0   8  -7   33.10    1.96
   0  -8   7   35.97    2.05
  -1   8  -7    1.46    0.55
   1  -8   7    1.31    0.58
  -2   8  -7   33.37    1.96
   2  -8   7   33.59    2.09
  -3   8  -7   16.24    1.31
   3  -8   7   14.82    1.40
  -4   8  -7   26.23    1.85
   4  -8   7   25.34    1.89
   8   7  -7    6.72    0.98
  -8  -7   7    5.55    1.07
  -7  -7   7    4.07    0.77
  -6  -7   7   10.82    1.14
  -5  -7   7    0.00    0.61
   4   7  -7    0.28    0.37
  -4  -7   7   -0.72    0.53
   3   7  -7    1.26    0.44
   3   7  -7    0.99    0.46
  -3  -7   7    1.63    0.59
   2   7  -7   14.05    1.13
   2   7  -7   14.49    0.94
  -2  -7   7   14.07    1.20
   1   7  -7    0.14    0.32
   1   7  -7    0.40    0.42
   0   7  -7   18.67    1.30
   0  -7   7   13.91    1.40
  -1   7  -7   12.11    1.10
  -1   7  -7   11.63    0.72
  -2   7  -7    0.25    0.25
  -2   7  -7    0.55    0.49
   2  -7   7    0.03    0.47
  -3   7  -7   10.22    1.08
   3  -7   7    9.19    1.04
  -4   7  -7    0.98    0.60
   4  -7   7    0.77    0.53
  -5   7  -7    5.27    0.94
   5  -7   7    5.49    0.96
  -6   7  -7   12.19    1.55
   8   6  -7    5.12    1.02
  -8  -6   7    5.70    0.90
   7   6  -7   11.94    1.05
  -7  -6   7   11.89    1.10
  -6  -6   7    0.69    0.52
  -5  -6   7    6.45    0.91
   4   6  -7   44.82    2.31
   4   6  -7   38.91    2.05
  -4  -6   7   42.89    2.22
   3   6  -7    0.81    0.53
   3   6  -7    0.51    0.39
  -3  -6   7    0.12    0.44
   2   6  -7   56.89    2.82
   2   6  -7   56.27    2.61
  -2  -6   7   56.89    2.64
   1   6  -7    0.56    0.48
   1   6  -7    0.81    0.27
  -1  -6   7    0.58    0.51
   0   6  -7   11.12    1.03
   0   6  -7   10.16    0.69
   0  -6   7    9.69    1.01
  -1   6  -7    7.14    0.90
   1  -6   7    8.25    0.93
  -2   6  -7    2.70    0.64
  -2   6  -7    2.50    0.37
   2  -6   7    2.32    0.64
  -3   6  -7    4.54    0.80
  -3   6  -7    2.74    0.43
   3  -6   7    3.86    0.73
  -4   6  -7    1.42    0.61
   4  -6   7    1.28    0.51
  -5   6  -7   16.46    1.47
   5  -6   7   16.33    1.33
  -6   6  -7    0.45    0.70
  -7   6  -7   16.91    1.80
  -7   6  -7   18.36    2.05
  -9  -5   7    2.10    0.61
   8   5  -7   21.66    1.64
   8   5  -7   21.55    1.51
  -8  -5   7   19.99    1.44
   7   5  -7   -0.06    0.43
  -7  -5   7   -0.07    0.43
  -6  -5   7   74.98    3.57
  -5  -5   7   31.73    1.86
   4   5  -7   30.57    1.74
   4   5  -7   36.35    2.05
  -4  -5   7   35.66    1.90
   3   5  -7   46.40    2.46
   3   5  -7   53.14    2.54
   3   5  -7   47.76    2.35
  -3  -5   7   52.34    2.44
   2   5  -7    5.35    0.53
   2   5  -7    4.36    0.60
  -2  -5   7    6.62    0.76
   1   5  -7   45.36    2.25
   1   5  -7   46.35    2.09
  -1  -5   7   38.95    2.07
   0   5  -7   75.35    3.22
   0   5  -7   73.63    3.37
   0  -5   7   75.35    3.46
   0  -5   7   68.48    3.26
  -1   5  -7    1.49    0.49
  -1   5  -7    0.56    0.21
   1  -5   7    0.88    0.26
   1  -5   7    0.98    0.51
  -2   5  -7   86.13    3.82
   2  -5   7   85.99    3.93
   2  -5   7   82.76    3.71
  -3   5  -7   54.95    2.64
  -3   5  -7   53.06    2.42
   3  -5   7   54.64    2.76
  -4   5  -7    7.85    0.61
  -4   5  -7    7.40    0.93
   4  -5   7    8.50    0.95
  -5   5  -7   27.22    1.45
  -5   5  -7   30.47    1.74
   5  -5   7   30.25    1.86
  -6   5  -7    4.02    0.76
  -7   5  -7   16.92    1.50
  -7   5  -7   18.80    1.53
  -7   5  -7   18.97    1.54
  -8   5  -7   -0.47    0.82
  -9  -4   7    8.44    0.92
   8   4  -7   11.93    1.31
  -8  -4   7   12.38    1.00
   7   4  -7   15.02    1.26
  -7  -4   7   14.74    1.15
   6   4  -7    2.33    0.60
   6   4  -7    2.66    0.50
  -6  -4   7    1.77    0.56
   5   4  -7   22.65    1.30
  -5  -4   7   20.91    1.43
   4   4  -7   11.31    0.77
   4   4  -7    8.86    0.77
  -4  -4   7   11.77    1.01
   3   4  -7    9.93    0.77
   3   4  -7   12.37    1.00
   3   4  -7    9.50    0.71
  -3  -4   7   11.40    0.94
   2   4  -7   59.26    2.66
   2   4  -7   56.97    2.54
  -2  -4   7   49.96    2.51
  -2  -4   7   54.22    2.55
   1   4  -7   42.36    2.02
   1   4  -7   45.42    2.17
  -1  -4   7   42.89    2.04
  -1  -4   7   41.66    2.03
   0   4  -7    7.25    0.51
   0   4  -7    6.80    0.76
   0  -4   7    5.71    0.81
   0  -4   7    7.19    0.51
  -1   4  -7  144.28    6.13
  -1   4  -7  145.56    6.09
   1  -4   7  145.93    6.25
   1  -4   7  150.46    6.10
  -2   4  -7   39.87    1.92
  -2   4  -7   41.34    2.03
   2  -4   7   40.71    1.88
   2  -4   7   40.85    2.16
  -3   4  -7   60.05    2.76
  -3   4  -7   58.35    2.64
   3  -4   7   60.25    2.67
   3  -4   7   61.05    2.95
  -4   4  -7   61.66    2.76
  -4   4  -7   67.16    2.90
  -4   4  -7   56.70    2.90
   4  -4   7   66.12    3.13
  -5   4  -7    1.72    0.52
   5  -4   7    1.58    0.60
  -6   4  -7   15.79    1.15
  -6   4  -7   14.55    1.28
  -6   4  -7   13.57    0.95
  -7   4  -7   16.16    1.43
  -7   4  -7   15.83    1.26
  -7   4  -7   15.80    1.39
  -8   4  -7    3.24    1.03
  -8   4  -7    3.75    0.89
  -9   4  -7   25.65    2.15
   9   3  -7    4.18    0.94
  -9  -3   7    5.05    0.76
   8   3  -7   14.46    1.32
  -8  -3   7   17.37    1.20
   7   3  -7    0.26    0.45
   7   3  -7    0.10    0.55
  -7  -3   7    0.48    0.36
   6   3  -7    0.25    0.34
   6   3  -7    0.77    0.50
  -6  -3   7    0.69    0.51
   5   3  -7    0.27    0.47
   5   3  -7   -0.24    0.36
  -5  -3   7    0.48    0.49
   4   3  -7    0.83    0.48
  -4  -3   7    2.20    0.53
   3   3  -7   74.12    3.25
   3   3  -7   69.45    3.19
  -3  -3   7   68.31    3.20
  -3  -3   7   71.49    3.22
   2   3  -7    0.24    0.19
   2   3  -7    0.73    0.39
  -2  -3   7    0.46    0.39
  -2  -3   7    0.21    0.20
   1   3  -7   10.56    0.64
   1   3  -7    9.35    0.80
  -1  -3   7    8.77    0.76
  -1  -3   7    8.22    0.61
   0   3  -7   28.76    1.48
   0   3  -7   28.26    1.39
   0  -3   7   26.86    1.57
   0  -3   7   27.11    1.38
  -1   3  -7    0.78    0.37
   1  -3   7    0.39    0.37
   1  -3   7    0.53    0.15
  -2   3  -7   32.39    1.59
  -2   3  -7   30.26    1.59
   2  -3   7   30.06    1.46
   2  -3   7   32.26    1.75
  -3   3  -7   42.38    1.96
  -3   3  -7   45.30    2.03
   3  -3   7   39.80    2.02
   3  -3   7   44.36    2.25
  -4   3  -7   32.64    1.71
  -4   3  -7   34.03    1.76
  -4   3  -7   36.22    1.71
   4  -3   7   35.88    1.99
  -5   3  -7   47.71    2.49
  -5   3  -7   53.33    2.40
  -5   3  -7   53.78    2.51
  -5   3  -7   51.32    2.33
   5  -3   7   56.42    2.77
  -6   3  -7   95.86    4.50
  -6   3  -7   97.56    4.19
  -6   3  -7  102.74    4.58
  -7   3  -7    6.39    0.81
  -7   3  -7    5.24    0.96
  -8   3  -7   45.24    2.49
  -8   3  -7   38.39    2.79
  -9   3  -7    3.84    0.98
  -9   3  -7    4.14    0.93
   9   2  -7    2.19    0.86
  -9  -2   7    3.06    0.52
   8   2  -7   15.89    1.37
  -8  -2   7   15.75    1.15
   7   2  -7    5.77    0.94
   7   2  -7    5.14    0.62
  -7  -2   7    5.82    0.80
   6   2  -7   38.52    1.89
  -6  -2   7   38.89    2.12
   5   2  -7   72.28    3.04
   5   2  -7   68.21    2.90
   5   2  -7   53.29    2.90
  -5  -2   7   54.30    2.89
  -5  -2   7   69.25    3.06
   4   2  -7   10.51    0.92
   4   2  -7   10.04    0.68
   4   2  -7    8.47    0.66
  -4  -2   7    7.47    0.66
  -4  -2   7   10.58    0.94
   3   2  -7  107.13    4.66
   3   2  -7  112.94    4.65
   3   2  -7  107.88    4.67
  -3  -2   7  102.60    4.64
  -3  -2   7  109.49    4.66
   2   2  -7   10.98    0.69
   2   2  -7   11.32    0.89
  -2  -2   7   10.80    0.70
  -2  -2   7   11.78    0.88
   1   2  -7    7.34    0.50
  -1  -2   7    6.71    0.50
  -1  -2   7    7.20    0.68
   0   2  -7   20.81    1.11
   0  -2   7   17.96    1.19
  -1   2  -7    8.87    0.67
  -1   2  -7    8.14    0.63
   1  -2   7    9.09    0.82
   1  -2   7    9.21    0.55
  -2   2  -7    2.74    0.47
   2  -2   7    2.58    0.54
   2  -2   7    2.80    0.27
  -3   2  -7   34.14    1.70
  -3   2  -7   34.51    1.60
  -3   2  -7   32.76    1.62
   3  -2   7   34.31    1.54
   3  -2   7   34.88    1.87
  -4   2  -7   69.49    2.96
  -4   2  -7   70.06    3.17
  -4   2  -7   68.37    3.00
   4  -2   7   71.72    3.32
  -5   2  -7    0.04    0.24
  -5   2  -7    0.84    0.31
  -5   2  -7   -0.19    0.27
  -5   2  -7    0.89    0.47
   5  -2   7    0.28    0.50
  -6   2  -7   18.68    1.03
  -6   2  -7   19.59    1.40
  -6   2  -7   18.81    1.11
  -7   2  -7    4.93    0.69
  -7   2  -7    7.53    0.66
  -7   2  -7    6.31    0.96
  -8   2  -7    0.64    0.37
  -8   2  -7    0.61    0.54
  -9   2  -7    3.07    0.79
  -9   2  -7    3.93    0.92
 -10   2  -7   14.46    1.60
 -10   2  -7   13.46    1.60
   9   1  -7   25.01    1.83
  -9  -1   7   25.89    1.56
   8   1  -7    0.21    0.64
  -8  -1   7    0.66    0.40
   7   1  -7   73.92    3.14
   7   1  -7   70.49    3.40
  -7  -1   7   73.01    3.47
   6   1  -7   18.89    1.29
   6   1  -7   17.86    1.13
  -6  -1   7   18.42    1.32
   5   1  -7  107.56    4.43
   5   1  -7  100.33    4.58
  -5  -1   7   98.63    4.57
  -5  -1   7  110.54    4.63
   4   1  -7   56.75    2.67
   4   1  -7   61.64    2.59
  -4  -1   7   58.13    2.75
  -4  -1   7   54.80    2.68
   3   1  -7   13.54    0.96
   3   1  -7   12.13    0.77
   3   1  -7   12.58    0.74
  -3  -1   7   11.52    0.77
  -3  -1   7   12.06    0.95
   2   1  -7  124.00    5.25
   2   1  -7  127.20    5.27
  -2  -1   7  122.33    5.25
  -2  -1   7  126.91    5.27
   1   1  -7   71.70    3.19
   1   1  -7   75.68    3.18
  -1  -1   7   70.17    3.16
   0   1  -7   16.50    1.02
   0   1  -7   17.97    1.04
   0  -1   7   17.60    1.08
   0  -1   7   17.54    0.91
  -1   1  -7  158.29    6.41
  -1   1  -7  151.09    6.42
   1  -1   7  161.50    6.36
   1  -1   7  156.12    6.51
  -2   1  -7  120.70    5.14
  -2   1  -7  125.58    5.05
   2  -1   7  121.70    5.28
   2  -1   7  129.75    5.06
  -3   1  -7   42.29    1.95
  -3   1  -7   38.29    1.85
  -3   1  -7   41.04    1.75
   3  -1   7   39.07    1.71
   3  -1   7   39.89    2.06
  -4   1  -7   77.75    3.40
   4  -1   7   74.50    3.52
  -5   1  -7    4.96    0.43
  -5   1  -7    4.07    0.77
   5  -1   7    3.75    0.73
  -6   1  -7    3.62    0.70
  -6   1  -7    2.44    0.33
  -6   1  -7    3.03    0.43
  -7   1  -7    0.97    0.13
  -7   1  -7    1.15    0.32
  -7   1  -7    1.31    0.55
  -8   1  -7    1.54    0.40
  -8   1  -7    1.39    0.62
  -9   1  -7    5.38    0.89
  -9   1  -7    6.11    1.02
 -10   1  -7   10.48    1.42
 -10   1  -7   11.10    1.20
   9   0  -7    4.94    0.94
  -9   0   7    4.32    0.78
   8   0  -7    5.91    1.04
  -8   0   7    6.20    0.76
   7   0  -7    0.04    0.17
   7   0  -7    0.32    0.50
  -7   0   7    0.35    0.42
   6   0  -7    2.50    0.64
   6   0  -7    2.82    0.30
  -6   0   7    3.10    0.63
   5   0  -7   13.36    1.03
   5   0  -7   12.04    0.65
   5   0  -7    9.63    0.77
  -5   0   7   11.15    1.02
   4   0  -7   26.62    1.23
   4   0  -7   24.66    1.36
  -4   0   7   26.97    1.52
   3   0  -7  178.27    7.52
   3   0  -7  181.47    7.36
  -3   0   7  187.51    7.55
   2   0  -7  148.69    6.20
  -2   0   7  151.00    6.22
   1   0  -7    9.58    0.62
  -1   0   7    9.26    0.60
  -1   0   7    9.16    0.74
   0   0  -7  343.21   13.57
   0   0   7  331.56   13.59
   0   0   7  344.51   13.52
  -1   0  -7    1.38    0.16
   1   0   7    1.34    0.20
   1   0   7    0.92    0.35
  -2   0  -7   10.49    0.66
   2   0   7   10.48    0.82
  -3   0  -7   88.10    3.71
   3   0   7   84.14    3.80
   3   0   7   85.55    3.45
  -4   0  -7   31.24    1.75
  -4   0  -7   33.14    1.60
   4   0   7   31.09    1.77
  -5   0  -7    2.58    0.33
  -5   0  -7    3.08    0.62
  -6   0  -7  107.47    4.78
  -6   0  -7  113.76    4.96
  -6   0  -7  110.97    4.63
  -7   0  -7   15.12    1.28
  -7   0  -7   13.46    0.82
  -8   0  -7   42.22    2.40
  -8   0  -7   41.00    1.96
  -9   0  -7   14.01    1.19
  -9   0  -7   13.29    1.28
 -10   0  -7    9.61    1.23
 -10   0  -7    7.96    0.97
   9  -1  -7    0.98    0.74
  -9   1   7   -0.27    0.53
   8  -1  -7    2.59    0.68
  -8   1   7    1.73    0.55
   7  -1  -7    4.04    0.88
  -7   1   7    4.99    0.82
   6  -1  -7    1.76    0.56
  -6   1   7    1.37    0.55
   5  -1  -7    7.22    0.65
   5  -1  -7    9.79    0.93
  -5   1   7    9.69    0.93
   4  -1  -7   37.49    1.96
   4  -1  -7   38.44    1.58
   4  -1  -7   36.02    1.81
  -4   1   7   39.13    1.96
   3  -1  -7    0.33    0.16
   3  -1  -7    0.22    0.10
  -3   1   7    0.56    0.37
  -3   1   7    0.40    0.16
   2  -1  -7   45.67    2.14
  -2   1   7   46.95    2.19
  -2   1   7   49.29    2.24
  -1   1   7   75.76    3.32
  -1   1   7   76.98    3.33
   0  -1  -7   53.39    2.39
   0   1   7   55.07    2.42
   0   1   7   55.07    2.44
  -1  -1  -7   37.28    1.71
   1   1   7   37.04    1.73
   1   1   7   37.73    1.77
  -2  -1  -7  282.96   11.19
  -2  -1  -7  291.05   11.11
   2   1   7  275.05   11.09
   2   1   7  265.76   10.95
   2   1   7  270.79   11.16
  -3  -1  -7    7.54    0.60
  -3  -1  -7    7.95    0.79
   3   1   7    7.76    0.37
   3   1   7    7.89    0.75
   3   1   7    8.12    0.50
  -4  -1  -7   65.46    2.88
  -4  -1  -7   65.73    3.03
   4   1   7   64.34    3.04
  -5  -1  -7  131.90    5.76
  -5  -1  -7  133.91    5.60
  -6  -1  -7   21.69    1.22
  -6  -1  -7   22.71    1.46
  -6  -1  -7   22.56    1.09
  -7  -1  -7   34.94    1.99
  -7  -1  -7   32.25    1.44
  -7  -1  -7   25.54    1.54
  -8  -1  -7    5.85    0.95
  -8  -1  -7    4.48    0.48
  -9  -1  -7    1.69    0.60
  -9  -1  -7    2.04    0.51
 -10  -1  -7   16.51    1.27
 -10  -1  -7   16.44    1.54
 -11  -1  -7    1.71    0.69
 -11  -1  -7    2.35    0.87
   9  -2  -7    5.21    0.99
  -9   2   7    6.59    1.15
   8  -2  -7    6.50    0.96
  -8   2   7    6.73    0.92
   7  -2  -7   16.10    1.35
  -7   2   7   17.44    1.29
   6  -2  -7   60.77    3.03
  -6   2   7   62.27    2.97
   5  -2  -7    2.48    0.34
   5  -2  -7    3.20    0.65
  -5   2   7    2.69    0.61
   4  -2  -7  100.78    4.49
   4  -2  -7   99.71    4.37
  -4   2   7  108.73    4.47
  -4   2   7   98.77    4.39
   3  -2  -7   14.15    0.84
   3  -2  -7   15.02    1.09
  -3   2   7   15.25    0.87
  -3   2   7   15.65    1.06
   2  -2  -7   15.12    1.04
   2  -2  -7   16.51    0.71
   2  -2  -7   15.31    0.86
  -2   2   7   15.37    1.01
  -2   2   7   14.88    0.88
   1  -2  -7   19.71    1.15
  -1   2   7   23.09    1.21
   0  -2  -7   76.83    3.08
   0  -2  -7   70.68    3.07
   0   2   7   69.26    3.04
  -1  -2  -7    2.01    0.22
  -1  -2  -7    1.78    0.38
   1   2   7    2.00    0.40
  -2  -2  -7   16.32    0.85
  -2  -2  -7   16.42    1.03
   2   2   7   16.31    0.96
  -3  -2  -7   27.46    1.29
  -3  -2  -7   27.27    1.49
   3   2   7   24.37    1.40
  -4  -2  -7    0.31    0.43
  -4  -2  -7    0.07    0.12
  -5  -2  -7   54.50    2.72
  -5  -2  -7   54.09    2.48
   5   2   7   54.27    2.34
  -6  -2  -7    1.05    0.17
  -6  -2  -7    0.86    0.56
  -7  -2  -7    0.28    0.13
  -7  -2  -7    0.09    0.53
  -8  -2  -7    1.00    0.57
  -8  -2  -7    0.60    0.16
  -9  -2  -7   11.42    1.23
  -9  -2  -7   12.97    1.08
 -10  -2  -7    0.65    0.50
 -10  -2  -7    0.45    0.60
 -11  -2  -7   15.01    1.27
 -11  -2  -7   13.46    1.50
   8  -3  -7   39.19    2.33
  -8   3   7   41.74    2.29
   7  -3  -7    2.78    0.63
  -7   3   7    2.86    0.69
   6  -3  -7   19.98    1.42
  -6   3   7   18.92    1.36
   5  -3  -7    6.93    0.87
   5  -3  -7    6.40    0.60
  -5   3   7    7.67    0.62
  -5   3   7    7.20    0.86
   4  -3  -7   16.12    1.22
   4  -3  -7   17.17    0.95
  -4   3   7   14.45    0.93
  -4   3   7   16.37    1.17
   3  -3  -7    1.79    0.31
   3  -3  -7    1.81    0.53
  -3   3   7    1.81    0.47
   2  -3  -7  205.40    8.19
   2  -3  -7  189.31    8.30
  -2   3   7  209.72    8.24
   1  -3  -7   24.58    1.42
   1  -3  -7   25.79    1.18
   1  -3  -7   26.17    1.24
  -1   3   7   25.10    1.15
   0  -3  -7   94.17    4.12
   0  -3  -7  102.98    4.02
   0  -3  -7   98.71    4.03
   0   3   7   90.07    3.91
  -1  -3  -7  114.80    4.47
  -1  -3  -7  106.65    4.37
  -1  -3  -7  108.00    4.45
   1   3   7   93.65    4.38
  -2  -3  -7    0.42    0.34
  -2  -3  -7    0.55    0.13
   2   3   7    0.34    0.11
  -3  -3  -7   45.55    2.21
  -3  -3  -7   46.37    2.01
   3   3   7   42.49    2.06
   3   3   7   45.73    1.94
  -5  -3  -7    2.50    0.64
  -5  -3  -7    2.59    0.29
   5   3   7    2.56    0.33
  -6  -3  -7   11.33    0.74
  -6  -3  -7   13.23    0.53
  -6  -3  -7   13.64    1.21
   6   3   7   10.83    0.75
  -7  -3  -7   15.69    1.04
  -7  -3  -7   21.14    1.55
  -8  -3  -7    1.31    0.59
  -9  -3  -7   35.73    2.24
  -9  -3  -7   37.52    2.15
 -10  -3  -7   -0.26    0.49
 -10  -3  -7    0.82    0.58
 -11  -3  -7    5.93    1.01
 -11  -3  -7    6.13    1.06
   8  -4  -7    0.43    0.65
  -8   4   7    1.05    0.83
   7  -4  -7    0.82    0.54
  -7   4   7    1.45    0.72
   6  -4  -7   26.80    1.66
  -6   4   7   23.11    1.35
  -6   4   7   26.47    1.66
   5  -4  -7    9.35    0.69
  -5   4   7    8.69    0.72
  -5   4   7   11.43    1.05
  -5   4   7   10.39    0.69
   4  -4  -7   44.49    2.08
   4  -4  -7   43.98    2.36
  -4   4   7   41.72    1.95
  -4   4   7   45.80    2.22
   3  -4  -7   56.44    2.49
   3  -4  -7   54.49    2.75
  -3   4   7   52.29    2.33
  -3   4   7   58.97    2.61
   2  -4  -7    9.48    0.91
   2  -4  -7    8.91    0.59
   1  -4  -7   55.43    2.70
   1  -4  -7   59.14    2.50
   0  -4  -7   78.67    3.33
   0  -4  -7   80.00    3.31
   0  -4  -7   76.93    3.47
  -1  -4  -7    0.69    0.15
  -1  -4  -7    0.89    0.35
  -1  -4  -7    0.89    0.38
   1   4   7    0.71    0.17
  -2  -4  -7  102.20    4.16
  -2  -4  -7  100.82    4.41
  -2  -4  -7   95.29    4.29
   2   4   7  111.27    4.33
  -3  -4  -7   48.26    2.09
  -3  -4  -7   49.10    2.38
  -3  -4  -7   46.53    2.13
   3   4   7   45.74    2.19
   3   4   7   49.72    2.14
  -4  -4  -7    1.88    0.57
  -4  -4  -7    2.02    0.37
   4   4   7    1.60    0.30
   4   4   7    1.82    0.27
  -5  -4  -7  152.79    6.22
  -5  -4  -7  155.61    6.52
  -5  -4  -7  146.00    5.92
   5   4   7  145.34    6.31
  -6  -4  -7    1.14    0.61
  -6  -4  -7    1.01    0.23
   6   4   7    0.66    0.26
  -7  -4  -7   56.12    2.91
  -7  -4  -7   49.82    2.48
  -8  -4  -7   41.53    2.76
  -9  -4  -7    4.52    0.72
  -9  -4  -7    6.82    0.95
 -10  -4  -7    8.90    1.13
 -10  -4  -7   10.62    1.01
 -11  -4  -7    8.21    1.38
 -11  -4  -7   10.84    1.07
   7  -5  -7    2.88    0.60
  -7   5   7    2.62    0.85
   6  -5  -7   30.40    1.89
  -6   5   7   31.65    1.88
   5  -5  -7    9.80    1.01
  -5   5   7   10.44    1.05
  -5   5   7   10.56    0.66
   4  -5  -7    0.75    0.62
   4  -5  -7    1.15    0.29
  -4   5   7    0.82    0.51
  -4   5   7    1.15    0.19
   3  -5  -7   16.16    0.90
   3  -5  -7   15.30    1.25
   2  -5  -7    0.33    0.38
   1  -5  -7    0.59    0.16
   1  -5  -7    0.83    0.41
   0  -5  -7    0.75    0.14
   0  -5  -7    0.97    0.46
   0  -5  -7    0.91    0.33
   0   5   7    0.99    0.19
  -1  -5  -7   75.58    3.41
  -1  -5  -7   77.39    3.37
  -1  -5  -7   75.10    3.21
   1   5   7   79.62    3.44
   1   5   7   74.25    3.26
  -2  -5  -7    8.85    0.77
  -2  -5  -7    9.77    0.50
  -2  -5  -7   10.22    0.88
   2   5   7   10.46    0.84
   2   5   7    9.77    0.63
  -3  -5  -7   18.57    0.91
  -3  -5  -7   18.20    1.05
  -3  -5  -7   18.41    1.28
   3   5   7   18.76    1.12
   3   5   7   17.76    1.01
  -4  -5  -7   59.47    2.91
  -4  -5  -7   60.07    2.57
  -4  -5  -7   57.52    2.48
   4   5   7   54.81    2.64
   4   5   7   59.02    2.58
  -5  -5  -7   19.37    1.04
  -5  -5  -7   19.92    1.47
   5   5   7   20.64    1.07
   5   5   7   16.93    1.08
  -6  -5  -7   22.58    1.67
  -6  -5  -7   21.80    1.21
   6   5   7   23.61    1.14
  -7  -5  -7    0.28    0.34
  -7  -5  -7    0.97    0.58
  -8  -5  -7    0.54    0.40
  -9  -5  -7   15.35    1.33
  -9  -5  -7   16.72    1.26
 -10  -5  -7   12.47    1.27
 -10  -5  -7   17.55    1.17
 -11  -5  -7    4.91    0.95
 -11  -5  -7    4.79    0.71
   7  -6  -7   20.98    1.53
   6  -6  -7    5.42    0.83
   5  -6  -7   10.11    0.89
   4  -6  -7    8.77    0.95
   3  -6  -7    0.78    0.29
   2  -6  -7    8.10    0.53
   2  -6  -7    9.62    1.03
   1  -6  -7   31.54    1.43
   1  -6  -7   31.34    1.83
  -1   6   7   30.47    1.39
   0  -6  -7    5.03    0.37
   0  -6  -7    4.19    0.77
   0   6   7    4.26    0.37
   0   6   7    4.70    0.82
  -1  -6  -7   57.50    2.81
  -1  -6  -7   59.70    2.74
  -1  -6  -7   60.05    2.53
   1   6   7   60.98    2.88
   1   6   7   57.19    2.61
  -2  -6  -7    2.25    0.52
  -2  -6  -7    1.79    0.51
   2   6   7    1.86    0.28
   2   6   7    1.82    0.53
  -3  -6  -7    9.69    0.80
  -3  -6  -7    8.98    0.97
  -3  -6  -7   10.00    0.55
   3   6   7    9.55    0.94
   3   6   7    9.72    0.66
  -4  -6  -7    5.46    0.88
  -4  -6  -7    5.46    0.42
  -4  -6  -7    5.70    0.57
   4   6   7    4.60    0.47
   4   6   7    6.38    0.76
  -5  -6  -7    3.08    0.39
  -5  -6  -7    3.49    0.77
   5   6   7    3.47    0.65
  -6  -6  -7    8.26    1.08
  -6  -6  -7    9.91    0.67
   6   6   7    9.36    0.83
  -7  -6  -7    3.27    0.55
  -7  -6  -7    2.83    0.73
   7   6   7    4.07    0.65
  -8  -6  -7   25.42    1.81
  -8  -6  -7   25.63    1.69
  -9  -6  -7    0.61    0.48
  -9  -6  -7   -0.71    0.52
 -10  -6  -7   27.89    1.63
 -10  -6  -7   23.89    1.78
   6  -7  -7   24.03    1.65
  -6   7   7   25.15    1.63
   5  -7  -7   15.04    1.20
  -5   7   7   14.43    1.15
   4  -7  -7    0.71    0.46
  -4   7   7    0.60    0.42
   3  -7  -7   71.99    3.64
  -3   7   7   76.75    3.66
   2  -7  -7    4.37    0.77
   2  -7  -7    3.78    0.37
   1  -7  -7   27.08    1.75
   1  -7  -7   27.19    1.24
  -1   7   7   29.87    1.80
  -1   7   7   26.30    1.28
   0  -7  -7   31.83    1.45
   0  -7  -7   33.61    1.92
   0   7   7   33.33    1.97
   0   7   7   32.14    1.55
  -1  -7  -7    0.96    0.53
  -1  -7  -7   -0.02    0.14
  -1  -7  -7   -0.25    0.42
   1   7   7    0.02    0.20
   1   7   7   -0.35    0.47
  -2  -7  -7   31.14    1.78
  -2  -7  -7   30.22    1.71
   2   7   7   29.78    1.56
   2   7   7   33.80    1.89
  -3  -7  -7   21.80    1.49
  -3  -7  -7   22.41    0.99
  -3  -7  -7   21.27    1.30
   3   7   7   22.57    1.48
   3   7   7   19.82    1.18
  -4  -7  -7    0.24    0.49
  -4  -7  -7    0.06    0.17
   4   7   7    0.48    0.49
   4   7   7   -0.25    0.32
  -5  -7  -7   45.61    2.14
  -5  -7  -7   47.05    2.61
   5   7   7   48.80    2.36
  -6  -7  -7    3.80    0.52
   6   7   7    2.92    0.62
  -7  -7  -7   20.13    1.42
  -7  -7  -7   19.17    1.67
  -7  -7  -7   18.18    1.48
   7   7   7   18.89    1.28
  -8  -7  -7   16.88    1.40
  -8  -7  -7   18.65    1.46
  -9  -7  -7    1.73    0.61
  -9  -7  -7    1.59    0.54
 -10  -7  -7    3.58    0.68
 -10  -7  -7    5.63    1.10
  -5   8   7    1.48    0.67
   4  -8  -7   53.38    2.79
  -4   8   7   52.33    2.80
   3  -8  -7    0.45    0.51
  -3   8   7    1.62    0.48
   2  -8  -7    6.87    0.90
  -2   8   7    6.98    0.85
   1  -8  -7   14.50    1.26
  -1   8   7   15.27    1.25
   0  -8  -7    0.66    0.11
   0  -8  -7    0.97    0.59
   0   8   7    1.09    0.50
   0   8   7    0.68    0.28
  -1  -8  -7   25.76    1.18
  -1  -8  -7   25.78    1.72
   1   8   7   28.38    1.77
   1   8   7   25.00    1.34
  -2  -8  -7   31.66    1.44
  -2  -8  -7   31.80    1.88
  -2  -8  -7   30.65    1.81
   2   8   7   33.33    1.97
   2   8   7   31.84    1.64
  -3  -8  -7   14.49    1.30
  -3  -8  -7   14.02    0.63
   3   8   7   12.77    0.89
   3   8   7   14.39    1.26
  -4  -8  -7   66.94    3.39
   4   8   7   66.62    3.25
  -5  -8  -7    2.49    0.45
   5   8   7    2.10    0.69
  -6  -8  -7   55.31    2.59
  -6  -8  -7   55.37    3.05
  -6  -8  -7   58.07    2.94
   6   8   7   57.22    2.81
  -7  -8  -7   24.91    1.75
  -7  -8  -7   24.91    1.72
  -8  -8  -7   13.04    1.16
  -8  -8  -7   13.41    1.31
   8   8   7   12.06    1.26
  -9  -8  -7   16.83    1.38
  -9  -8  -7   14.39    1.29
   3  -9  -7    2.20    0.64
  -3   9   7    0.22    0.63
   2  -9  -7   18.59    1.45
  -2   9   7   19.97    1.38
   1  -9  -7    1.46    0.57
  -1   9   7    1.46    0.51
   0  -9  -7   15.41    1.37
   0   9   7   20.66    1.45
   1   9   7    0.60    0.52
   1   9   7    1.13    0.43
  -2  -9  -7   22.72    1.25
   2   9   7   22.39    1.50
   2   9   7   25.03    1.68
  -3  -9  -7    2.55    0.56
   3   9   7    1.98    0.74
  -4  -9  -7    0.43    0.58
  -4  -9  -7    0.80    0.56
   4   9   7    0.75    0.71
  -5  -9  -7   15.93    1.39
  -5  -9  -7   16.11    1.39
   5   9   7   17.48    1.47
  -6  -9  -7    3.33    0.67
  -6  -9  -7    3.88    0.82
   6   9   7    3.24    0.86
  -7  -9  -7   -0.30    0.58
  -7  -9  -7    0.08    0.66
   7   9   7    0.20    0.76
  -8  -9  -7   23.41    1.82
  -8  -9  -7   25.50    1.69
   8   9   7   25.74    2.49
  -9  -9  -7   20.77    1.88
  -9  -9  -7   19.89    1.58
  -2  10   7    2.78    0.77
  -1  10   7    4.99    0.78
   0  10   7    2.06    0.63
   1  10   7    3.94    0.74
   2  10   7    2.14    0.66
   3  10   7    0.61    0.63
   4  10   7    3.01    0.83
  -5 -10  -7    0.70    0.72
   5  10   7    1.58    0.74
  -6 -10  -7    0.58    0.65
  -6 -10  -7    1.16    0.84
   6  10   7    2.51    0.90
  -7 -10  -7    9.01    1.27
  -7 -10  -7   12.90    1.62
   7  10   7   14.25    1.74
   1  11   7    8.73    1.20
   2  11   7    1.55    0.75
   3  11   7    2.16    0.80
   4  11   7   10.48    1.37
   5  11   7   15.78    1.66
   4   9  -8   -0.91    0.72
   3   9  -8    5.35    0.99
  -3  -9   8    6.71    0.98
   2   9  -8    4.32    0.62
  -2  -9   8    2.67    0.67
   1   9  -8    3.09    0.60
   0   9  -8    0.77    0.59
   0  -9   8   -0.18    0.60
  -1   9  -8    3.00    0.70
   1  -9   8    2.61    0.78
  -2   9  -8    3.19    0.80
   2  -9   8    2.45    0.80
  -5  -8   8   20.15    1.62
   4   8  -8   17.92    1.25
  -4  -8   8   18.54    1.54
   3   8  -8    8.14    0.86
  -3  -8   8    8.98    0.94
   2   8  -8    2.80    0.52
  -2  -8   8    2.67    0.58
   1   8  -8   14.83    1.16
  -1  -8   8   15.44    1.25
   0   8  -8   14.19    1.10
   0  -8   8   13.86    1.19
  -1   8  -8   21.64    1.53
   1  -8   8   21.25    1.56
  -2   8  -8   23.10    1.56
   2  -8   8   21.63    1.60
  -3   8  -8    1.09    0.66
   3  -8   8    0.53    0.63
  -4   8  -8    9.68    1.39
   4  -8   8    8.62    1.30
   7   7  -8    2.51    0.55
  -7  -7   8    1.71    0.70
  -6  -7   8    3.97    0.80
  -5  -7   8   10.92    1.23
   4   7  -8   26.51    1.59
  -4  -7   8   22.87    1.94
   3   7  -8   32.35    1.81
   3   7  -8   28.45    1.70
  -3  -7   8   30.23    1.80
   2   7  -8   95.38    4.28
   2   7  -8   88.69    4.04
  -2  -7   8   91.91    4.35
   1   7  -8    1.91    0.52
   1   7  -8    1.86    0.42
  -1  -7   8    1.65    0.51
   0   7  -8   57.38    2.89
   0   7  -8   56.15    2.61
   0  -7   8   58.97    2.96
  -1   7  -8    6.60    0.88
   1  -7   8    5.04    0.81
  -2   7  -8    5.00    0.82
   2  -7   8    6.46    0.85
  -3   7  -8   31.15    1.90
   3  -7   8   29.66    1.92
  -4   7  -8    3.07    0.76
   4  -7   8    3.59    0.73
  -5   7  -8    0.49    0.78
   8   6  -8   -0.13    0.60
  -8  -6   8    0.02    0.61
  -7  -6   8    1.53    0.59
  -6  -6   8    1.66    0.57
  -5  -6   8    3.00    0.70
  -4  -6   8   24.74    1.59
   3   6  -8    1.53    0.48
   3   6  -8    0.95    0.49
  -3  -6   8    1.04    0.52
   2   6  -8    3.01    0.56
   1   6  -8    8.34    0.92
   1   6  -8    7.39    0.69
  -1  -6   8    6.99    0.92
   0   6  -8   15.65    1.23
   0   6  -8   13.34    0.90
   0  -6   8   13.95    1.18
  -1   6  -8    0.43    0.49
  -1   6  -8    0.18    0.29
   1  -6   8    0.51    0.46
  -2   6  -8   40.64    1.92
  -2   6  -8   41.09    2.21
  -3   6  -8    8.22    0.71
  -3   6  -8    9.41    1.10
   3  -6   8   10.49    1.07
  -4   6  -8   17.64    1.41
   4  -6   8   18.18    1.36
   5  -6   8   32.08    2.01
  -6   6  -8    0.81    0.76
   8   5  -8    5.98    1.10
  -8  -5   8    5.84    0.90
   7   5  -8    2.36    0.63
  -7  -5   8    2.31    0.51
   6   5  -8   42.74    2.34
  -6  -5   8   43.93    2.35
  -5  -5   8    0.77    0.82
  -4  -5   8   16.68    1.28
   3   5  -8    7.68    0.73
   3   5  -8   10.64    1.02
  -3  -5   8   10.78    0.97
   2   5  -8    2.88    0.62
   2   5  -8    1.87    0.33
   2   5  -8    1.00    0.52
  -2  -5   8    2.11    0.56
   1   5  -8    1.50    0.30
   1   5  -8    1.56    0.55
  -1  -5   8    1.06    0.51
   0   5  -8    9.67    0.67
   0   5  -8   10.66    1.02
   0  -5   8   10.40    1.03
  -1   5  -8   23.66    1.48
  -1   5  -8   22.77    1.21
   1  -5   8   24.46    1.55
   1  -5   8   21.25    1.23
  -2   5  -8    9.54    0.98
  -2   5  -8    9.23    0.66
   2  -5   8    9.58    0.99
   2  -5   8    7.67    0.68
  -3   5  -8   23.80    1.47
  -3   5  -8   20.32    1.20
   3  -5   8   23.73    1.56
  -4   5  -8   -0.31    0.31
  -4   5  -8   -0.03    0.52
   4  -5   8    0.27    0.51
  -5   5  -8    1.50    0.61
  -5   5  -8    1.15    0.38
   5  -5   8    0.63    0.48
  -6   5  -8    6.88    0.96
  -6   5  -8    9.86    1.14
   6  -5   8    8.27    0.97
  -7   5  -8    0.68    0.70
  -7   5  -8    1.36    0.84
  -7   5  -8    0.81    0.79
  -9  -4   8   -1.22    0.64
  -8  -4   8   34.71    1.96
   7   4  -8   18.04    1.33
  -7  -4   8   17.44    1.25
   6   4  -8    3.90    0.74
  -6  -4   8    5.16    0.76
   5   4  -8   28.34    1.56
   5   4  -8   26.50    1.73
  -5  -4   8   26.79    1.67
   4   4  -8   26.39    1.58
   4   4  -8   33.37    1.73
  -4  -4   8   34.20    1.82
   3   4  -8    5.39    0.63
   3   4  -8    6.05    0.59
   2   4  -8   91.75    4.01
   2   4  -8   95.81    4.08
  -2  -4   8   83.26    3.99
  -2  -4   8   91.66    3.98
   1   4  -8   52.88    2.53
   1   4  -8   52.33    2.44
  -1  -4   8   50.85    2.45
   0   4  -8   77.00    3.40
   0   4  -8   76.38    3.33
   0  -4   8   73.62    3.33
   0  -4   8   73.13    3.50
  -1   4  -8   22.58    1.36
  -1   4  -8   22.27    1.18
   1  -4   8   23.19    1.49
   1  -4   8   22.70    1.17
  -2   4  -8    4.84    0.76
  -2   4  -8    4.76    0.46
   2  -4   8    5.02    0.43
   2  -4   8    5.08    0.81
  -3   4  -8   20.61    1.27
  -3   4  -8   20.18    1.11
   3  -4   8   20.57    1.10
   3  -4   8   19.86    1.44
  -4   4  -8    2.08    0.39
  -4   4  -8    1.70    0.49
   4  -4   8    2.10    0.60
  -5   4  -8    6.00    0.77
  -5   4  -8    6.16    0.83
  -6   4  -8   10.88    0.95
  -6   4  -8   11.82    1.06
  -6   4  -8   12.83    1.19
   6  -4   8   12.17    1.12
  -7   4  -8   12.19    1.14
  -7   4  -8   10.84    1.18
  -8   4  -8    0.47    0.81
  -8   4  -8    0.06    0.68
   9   3  -8    8.23    1.41
  -9  -3   8    6.13    0.95
   8   3  -8    1.03    0.73
  -8  -3   8    0.64    0.43
   7   3  -8    1.43    0.60
   7   3  -8    2.35    0.54
  -7  -3   8    0.97    0.41
   6   3  -8   43.61    2.24
   6   3  -8   37.86    1.99
  -6  -3   8   40.14    2.21
   5   3  -8    3.98    0.80
   5   3  -8    4.89    0.54
  -5  -3   8    3.35    0.68
   4   3  -8   13.71    0.91
   4   3  -8   13.66    1.15
  -4  -3   8   14.70    1.13
   3   3  -8   97.16    4.05
   3   3  -8   88.59    4.01
   3   3  -8   83.87    3.93
  -3  -3   8   85.78    3.97
  -3  -3   8   90.58    3.98
   2   3  -8   -0.26    0.23
  -2  -3   8   -0.35    0.24
  -2  -3   8    0.48    0.42
   1   3  -8   87.18    3.82
   1   3  -8   92.62    3.88
  -1  -3   8   85.67    3.82
  -1  -3   8   85.89    3.82
   0   3  -8   10.28    0.85
   0   3  -8   10.97    0.70
   0  -3   8    9.97    0.95
   0  -3   8    9.63    0.68
  -1   3  -8   11.29    0.72
  -1   3  -8   11.31    0.89
   1  -3   8   11.88    0.69
   1  -3   8   12.16    1.02
  -2   3  -8   59.05    2.66
  -2   3  -8   60.10    2.69
   2  -3   8   59.64    2.90
   2  -3   8   60.23    2.65
  -3   3  -8    8.36    0.76
  -3   3  -8    8.50    0.58
   3  -3   8    8.10    0.97
   3  -3   8    8.85    0.55
  -4   3  -8    5.54    0.68
  -4   3  -8    5.29    0.69
   4  -3   8    6.32    0.89
  -5   3  -8   63.45    2.94
  -5   3  -8   68.77    2.95
  -5   3  -8   65.38    3.08
   5  -3   8   69.64    3.37
  -6   3  -8    2.07    0.63
  -6   3  -8    1.64    0.47
   6  -3   8    1.14    0.54
  -7   3  -8    8.59    1.11
  -7   3  -8    8.07    0.85
  -8   3  -8   13.05    1.32
  -8   3  -8   16.76    1.48
  -9   3  -8    0.38    0.83
  -9   3  -8   -0.12    0.77
   9   2  -8    0.85    0.79
  -9  -2   8   -0.19    0.54
   8   2  -8   11.36    1.26
  -8  -2   8   10.71    0.91
   7   2  -8   15.75    1.06
   7   2  -8   17.23    1.39
  -7  -2   8   16.67    1.21
   6   2  -8    4.28    0.54
  -6  -2   8    4.34    0.74
   5   2  -8   37.32    1.84
   5   2  -8   37.55    2.00
  -5  -2   8   36.52    2.03
   4   2  -8    4.50    0.80
   4   2  -8    3.74    0.45
  -4  -2   8    3.39    0.65
   3   2  -8   28.48    1.40
   3   2  -8   23.74    1.37
   3   2  -8   27.01    1.53
  -3  -2   8   21.18    1.34
  -3  -2   8   28.67    1.55
   2   2  -8    1.52    0.47
  -2  -2   8    2.02    0.49
   1   2  -8   16.36    1.10
   1   2  -8   15.85    0.90
  -1  -2   8   15.48    1.06
  -1  -2   8   17.21    0.94
   0   2  -8   11.94    0.92
   0   2  -8   12.00    0.71
   0  -2   8   10.34    0.89
   0  -2   8   14.49    0.77
  -1   2  -8   96.89    4.10
  -1   2  -8   98.05    4.07
  -1   2  -8   93.92    4.13
   1  -2   8   96.26    4.25
  -2   2  -8   33.58    1.73
  -2   2  -8   33.41    1.64
  -2   2  -8   35.72    1.67
   2  -2   8   36.11    1.90
   2  -2   8   35.59    1.62
  -3   2  -8   34.95    1.65
  -3   2  -8   32.42    1.71
   3  -2   8   35.45    1.59
   3  -2   8   37.21    1.97
  -4   2  -8   58.33    2.60
  -4   2  -8   60.01    2.52
  -4   2  -8   55.07    2.68
   4  -2   8   58.14    2.90
  -5   2  -8    2.41    0.41
  -5   2  -8    1.98    0.34
   5  -2   8    3.85    0.77
  -6   2  -8   45.38    1.97
  -6   2  -8   46.72    2.44
  -6   2  -8   41.32    2.14
  -7   2  -8   25.03    1.91
  -7   2  -8   20.88    1.27
  -7   2  -8   24.50    1.15
  -8   2  -8    3.51    0.71
  -9   2  -8    8.90    1.23
  -9   2  -8    5.94    1.01
   9   1  -8   10.18    1.39
  -9  -1   8    8.71    0.94
   8   1  -8   17.64    1.39
  -8  -1   8   16.69    1.19
   7   1  -8   35.05    2.02
   7   1  -8   35.86    1.83
  -7  -1   8   36.68    2.03
   6   1  -8    3.96    0.72
   6   1  -8    3.61    0.45
   5   1  -8   19.10    1.04
  -5  -1   8   19.56    1.34
   4   1  -8    0.12    0.28
  -4  -1   8    0.27    0.26
  -4  -1   8    1.12    0.52
   3   1  -8   18.27    1.11
   3   1  -8   23.07    1.32
  -3  -1   8   17.65    1.11
  -3  -1   8   22.58    1.33
   2   1  -8    3.90    0.41
   2   1  -8    5.21    0.70
  -2  -1   8    4.48    0.39
  -2  -1   8    5.71    0.63
   1   1  -8  150.12    6.08
   1   1  -8  142.86    6.07
  -1  -1   8  149.28    6.07
  -1  -1   8  138.88    6.01
   0   1  -8    0.16    0.14
   0   1  -8    0.56    0.34
   0  -1   8    0.27    0.36
   0  -1   8    0.34    0.14
  -1   1  -8   99.36    4.16
  -1   1  -8   97.94    4.19
   1  -1   8   99.40    4.10
   1  -1   8   95.98    4.27
  -2   1  -8   10.90    0.83
  -2   1  -8   11.02    0.65
   2  -1   8   10.32    0.91
   2  -1   8   10.63    0.60
  -3   1  -8   49.87    2.29
   3  -1   8   48.56    2.43
   3  -1   8   45.84    2.04
  -4   1  -8    0.99    0.24
   4  -1   8    0.79    0.49
  -5   1  -8    3.83    0.47
   5  -1   8    5.59    0.90
  -6   1  -8    0.86    0.55
  -6   1  -8    1.21    0.28
  -7   1  -8    6.15    0.65
  -8   1  -8   32.33    2.02
  -9   1  -8    2.98    0.74
  -9   1  -8    2.41    0.70
 -10   1  -8   31.87    2.06
 -10   1  -8   26.60    2.04
   9   0  -8   11.19    1.39
  -9   0   8   10.20    1.01
   8   0  -8   15.32    1.33
  -8   0   8   13.77    1.09
   7   0  -8    1.95    0.37
  -7   0   8    2.43    0.53
   6   0  -8   40.60    2.15
  -6   0   8   38.16    2.19
   5   0  -8   27.24    1.65
   5   0  -8   34.51    1.50
   5   0  -8   34.12    1.85
  -5   0   8   34.26    1.87
   4   0  -8    1.87    0.24
  -4   0   8    1.27    0.48
   3   0  -8  146.03    5.68
   3   0  -8  136.04    5.84
  -3   0   8  131.13    5.81
  -3   0   8  138.51    5.85
   2   0  -8    3.47    0.37
  -2   0   8    4.98    0.68
  -2   0   8    3.71    0.38
   1   0  -8   93.92    3.99
  -1   0   8   90.92    4.01
  -1   0   8   93.97    3.97
   0   0  -8   62.47    2.72
   0   0   8   63.34    2.68
   0   0   8   58.34    2.77
  -1   0  -8    0.20    0.12
   1   0   8    0.32    0.12
   1   0   8    0.49    0.35
   2   0   8   37.53    1.61
   2   0   8   35.17    1.86
  -3   0  -8   32.66    1.59
   3   0   8   30.40    1.73
   3   0   8   31.70    1.36
  -4   0  -8    0.07    0.17
  -4   0  -8    0.26    0.44
   4   0   8    0.09    0.42
  -5   0  -8   71.50    3.39
  -5   0  -8   67.64    3.19
   5   0   8   74.13    3.45
  -6   0  -8   19.23    1.23
  -6   0  -8   24.90    1.53
  -6   0  -8   23.71    1.18
  -7   0  -8    1.16    0.27
  -7   0  -8    1.15    0.60
  -8   0  -8   29.70    2.24
  -8   0  -8   33.97    1.62
  -9   0  -8    0.83    0.58
 -10   0  -8    0.83    0.61
 -10   0  -8    0.74    0.71
   9  -1  -8   -0.54    0.73
  -9   1   8    0.69    0.60
   8  -1  -8    1.35    0.64
  -8   1   8    2.64    0.53
   7  -1  -8   25.53    1.66
  -7   1   8   26.21    1.62
   6  -1  -8   16.59    1.28
  -6   1   8   17.45    1.28
   5  -1  -8    4.41    0.77
  -5   1   8    5.62    0.83
   4  -1  -8   68.81    3.20
   4  -1  -8   70.56    2.81
   4  -1  -8   63.33    3.06
  -4   1   8   71.73    3.21
   3  -1  -8    1.59    0.20
   3  -1  -8    1.05    0.20
  -3   1   8    1.70    0.48
   2  -1  -8   14.12    0.84
  -2   1   8   15.76    1.05
  -2   1   8   15.01    0.89
   1  -1  -8   29.95    1.50
  -1   1   8   31.73    1.63
  -1   1   8   31.57    1.57
   0  -1  -8    8.21    0.53
   0   1   8    8.27    0.72
   0   1   8    8.91    0.59
  -1  -1  -8   68.47    2.92
   1   1   8   69.61    2.99
   1   1   8   63.71    3.08
  -2  -1  -8  246.24   10.09
  -2  -1  -8  253.32   10.00
   2   1   8  244.21   10.07
   2   1   8  251.50   10.00
   2   1   8  243.88    9.84
  -3  -1  -8    9.99    0.87
  -3  -1  -8    9.34    0.60
   3   1   8    8.90    0.57
   3   1   8    9.01    0.46
   3   1   8    8.80    0.84
  -4  -1  -8  196.43    8.01
  -4  -1  -8  202.29    8.18
   4   1   8  187.04    8.14
  -5  -1  -8   31.42    1.60
  -5  -1  -8   31.83    1.87
  -6  -1  -8   90.33    4.10
  -6  -1  -8   83.49    3.84
  -6  -1  -8   89.29    3.70
  -7  -1  -8   74.74    3.68
  -8  -1  -8    0.54    0.37
  -9  -1  -8    4.80    0.87
 -10  -1  -8   34.11    2.21
 -10  -1  -8   33.79    2.04
 -11  -1  -8    0.83    0.85
 -11  -1  -8    2.37    0.73
   8  -2  -8    1.91    0.63
  -8   2   8    3.39    0.68
   7  -2  -8   19.89    1.46
  -7   2   8   19.08    1.39
   6  -2  -8    3.60    0.79
  -6   2   8    3.65    0.68
   5  -2  -8    0.71    0.48
   5  -2  -8   -0.24    0.36
  -5   2   8    0.35    0.50
   4  -2  -8    0.86    0.46
   4  -2  -8    0.34    0.26
  -4   2   8    0.33    0.25
  -4   2   8    0.68    0.48
   3  -2  -8    0.58    0.44
   3  -2  -8    0.02    0.20
  -3   2   8    0.50    0.44
  -3   2   8    0.36    0.20
   2  -2  -8   25.30    1.50
   2  -2  -8   27.35    1.22
   2  -2  -8   26.93    1.34
  -2   2   8   27.02    1.49
  -2   2   8   25.96    1.37
   1  -2  -8    2.10    0.39
   1  -2  -8    1.23    0.23
  -1   2   8    1.99    0.28
   0  -2  -8   84.76    3.38
   0  -2  -8   76.69    3.37
   0   2   8   75.27    3.35
  -1  -2  -8    5.54    0.61
  -1  -2  -8    5.42    0.40
   1   2   8    5.35    0.58
  -2  -2  -8  128.89    5.34
  -2  -2  -8  129.52    5.20
   2   2   8  119.83    5.27
  -3  -2  -8   36.04    1.83
   3   2   8   33.31    1.79
  -4  -2  -8    1.60    0.53
  -4  -2  -8    2.14    0.25
   4   2   8    2.21    0.29
  -5  -2  -8   17.04    1.32
  -5  -2  -8   16.98    0.98
   5   2   8   17.92    0.90
  -6  -2  -8   94.00    4.18
  -6  -2  -8   84.34    3.61
  -6  -2  -8   84.72    3.84
  -7  -2  -8    0.49    0.58
  -7  -2  -8    1.20    0.23
  -8  -2  -8   97.09    3.97
  -9  -2  -8   67.52    3.51
 -10  -2  -8   14.18    1.36
 -10  -2  -8   14.43    1.20
 -11  -2  -8   31.73    1.87
 -11  -2  -8   30.40    2.23
   8  -3  -8    9.93    1.20
  -8   3   8   11.30    1.27
   7  -3  -8    1.36    0.52
  -7   3   8    2.25    0.66
   6  -3  -8   18.25    1.40
  -6   3   8   21.84    1.45
   5  -3  -8   15.72    1.21
   5  -3  -8   14.00    0.98
  -5   3   8   15.78    1.22
  -5   3   8   14.00    0.98
   4  -3  -8    0.26    0.27
   4  -3  -8    0.86    0.49
  -4   3   8    0.39    0.48
  -4   3   8    0.44    0.28
   3  -3  -8   20.63    1.38
   3  -3  -8   19.44    1.10
  -3   3   8   20.63    1.29
  -3   3   8   20.38    1.13
   2  -3  -8   11.68    0.98
   2  -3  -8   12.15    0.72
  -2   3   8   11.08    0.92
   1  -3  -8   25.88    1.22
   1  -3  -8   24.08    1.43
   1  -3  -8   25.32    1.25
  -1   3   8   24.72    1.21
   0  -3  -8   44.79    1.95
   0  -3  -8   41.52    2.06
   0  -3  -8   41.82    1.92
   0   3   8   41.32    1.87
  -1  -3  -8    2.88    0.51
  -1  -3  -8    2.46    0.26
   1   3   8    2.59    0.42
  -2  -3  -8   17.13    1.12
  -2  -3  -8   17.37    0.86
   2   3   8   15.02    0.97
  -3  -3  -8    1.83    0.24
  -3  -3  -8    2.10    0.53
   3   3   8    2.17    0.38
  -4  -3  -8   13.57    1.13
  -4  -3  -8   13.71    0.77
   4   3   8   12.84    0.61
  -5  -3  -8   15.18    1.28
  -5  -3  -8   15.08    0.87
  -6  -3  -8   16.71    1.39
  -6  -3  -8   15.19    0.92
  -7  -3  -8    9.67    1.18
   7   3   8   10.46    0.59
  -8  -3  -8   10.07    1.14
  -9  -3  -8    8.16    1.04
 -10  -3  -8   27.52    1.89
 -10  -3  -8   27.09    1.70
 -11  -3  -8    2.86    0.69
   8  -4  -8    6.15    1.06
  -8   4   8    4.35    1.01
   7  -4  -8    9.10    0.95
  -7   4   8    7.80    1.21
   6  -4  -8   24.43    1.61
  -6   4   8   25.12    1.70
   5  -4  -8    0.10    0.44
   5  -4  -8    0.27    0.35
  -5   4   8    0.09    0.55
   4  -4  -8   97.40    4.28
   4  -4  -8   99.19    4.56
  -4   4   8   96.35    4.33
  -4   4   8  105.71    4.41
   3  -4  -8   20.99    1.14
   3  -4  -8   20.06    1.43
  -3   4   8   23.26    1.39
   2  -4  -8   67.94    3.31
   2  -4  -8   71.36    3.09
  -2   4   8   72.94    2.90
   1  -4  -8   77.29    3.21
   1  -4  -8   73.57    3.40
  -1   4   8   72.49    2.96
   0  -4  -8   38.82    1.80
   0  -4  -8   38.15    2.00
   0  -4  -8   41.07    1.84
  -1  -4  -8   25.63    1.25
  -1  -4  -8   27.32    1.42
  -1  -4  -8   24.67    1.41
  -2  -4  -8   53.86    2.24
  -2  -4  -8   50.90    2.41
  -2  -4  -8   54.06    2.52
   2   4   8   52.12    2.37
  -3  -4  -8    7.46    0.47
  -3  -4  -8    6.96    0.83
  -3  -4  -8    7.26    0.67
   3   4   8    7.00    0.64
   3   4   8    6.32    0.50
  -4  -4  -8   40.69    2.17
  -4  -4  -8   39.76    1.81
  -4  -4  -8   38.38    1.79
   4   4   8   38.03    1.90
   4   4   8   39.50    1.75
  -5  -4  -8   61.23    2.62
  -5  -4  -8   59.68    2.98
   5   4   8   52.64    2.66
   5   4   8   58.00    2.37
  -6  -4  -8    0.92    0.60
  -6  -4  -8    1.08    0.25
  -7  -4  -8   18.15    1.48
  -7  -4  -8   14.44    0.96
  -8  -4  -8    4.50    0.91
  -9  -4  -8   -0.31    0.50
 -10  -4  -8    1.60    0.61
 -10  -4  -8    0.93    0.53
 -11  -4  -8    3.63    0.82
 -11  -4  -8    5.33    1.01
   7  -5  -8    1.50    0.64
  -7   5   8    2.89    0.90
   6  -5  -8    6.66    0.87
  -6   5   8    8.04    1.16
   5  -5  -8    8.24    0.80
   5  -5  -8    8.85    0.84
  -5   5   8    7.93    1.06
   4  -5  -8    1.08    0.51
   4  -5  -8    0.74    0.33
  -4   5   8    1.23    0.25
  -4   5   8    1.08    0.54
   3  -5  -8    5.08    0.82
   3  -5  -8    5.04    0.49
   2  -5  -8   53.76    2.38
   2  -5  -8   52.77    2.71
   1  -5  -8    7.93    0.93
   1  -5  -8    9.04    0.57
   0  -5  -8   65.01    3.18
   0  -5  -8   71.16    2.97
   0  -5  -8   70.37    3.00
  -1  -5  -8  274.41   10.87
  -1  -5  -8  269.27   10.94
  -1  -5  -8  265.59   10.75
   1   5   8  264.37   10.80
  -2  -5  -8  157.06    6.66
  -2  -5  -8  161.62    6.75
   2   5   8  155.24    6.60
   2   5   8  167.82    6.69
  -3  -5  -8  194.67    8.11
  -3  -5  -8  185.91    7.87
  -3  -5  -8  191.00    7.76
   3   5   8  206.15    7.93
   3   5   8  189.07    7.95
  -4  -5  -8   12.17    0.80
  -4  -5  -8   12.02    1.13
   4   5   8   10.49    0.74
   4   5   8   11.90    0.85
  -5  -5  -8   39.81    1.81
  -5  -5  -8   38.93    2.22
   5   5   8   38.87    1.74
   5   5   8   32.85    1.84
  -6  -5  -8   38.73    2.25
  -6  -5  -8   35.34    1.73
   6   5   8   34.94    1.72
  -7  -5  -8    2.63    0.40
  -7  -5  -8    3.16    0.77
  -8  -5  -8    4.45    0.86
  -9  -5  -8   32.90    2.12
  -9  -5  -8   33.36    1.97
 -10  -5  -8    2.46    0.54
 -10  -5  -8    1.76    0.66
 -11  -5  -8    7.42    1.03
   6  -6  -8   -0.06    0.60
   5  -6  -8    0.51    0.46
   4  -6  -8    2.55    0.44
   4  -6  -8    3.64    0.67
   3  -6  -8    6.91    0.56
   3  -6  -8    5.11    0.80
   2  -6  -8    5.35    0.47
   2  -6  -8    4.89    0.85
   1  -6  -8   29.20    1.80
   0  -6  -8    0.86    0.29
   0  -6  -8    0.88    0.55
   0  -6  -8    1.39    0.40
   0   6   8    1.23    0.24
  -1  -6  -8   34.43    1.94
  -1  -6  -8   35.99    1.84
  -1  -6  -8   35.61    1.63
   1   6   8   37.08    1.98
   1   6   8   33.59    1.65
  -2  -6  -8   14.90    0.80
  -2  -6  -8   13.94    1.06
  -2  -6  -8   14.59    1.12
   2   6   8   14.74    0.87
   2   6   8   15.45    1.18
  -3  -6  -8   15.81    0.77
  -3  -6  -8   15.30    1.06
  -3  -6  -8   15.17    1.23
   3   6   8   14.46    0.90
   3   6   8   17.11    1.16
  -4  -6  -8   47.33    2.21
  -4  -6  -8   49.93    2.62
  -4  -6  -8   49.66    2.17
   4   6   8   45.73    2.30
   4   6   8   51.82    2.36
  -5  -6  -8   92.66    3.74
  -5  -6  -8   90.43    4.20
   5   6   8   88.76    3.75
   5   6   8   75.22    3.79
  -6  -6  -8    2.60    0.76
  -6  -6  -8    3.15    0.42
   6   6   8    3.85    0.65
  -7  -6  -8   54.42    2.62
  -7  -6  -8   57.61    3.09
  -8  -6  -8   20.89    1.61
  -9  -6  -8    3.95    0.72
 -10  -6  -8   20.08    1.69
 -10  -6  -8   24.47    1.55
  -6   7   8    1.48    1.21
   5  -7  -8    0.56    0.59
   4  -7  -8    3.91    0.61
   3  -7  -8   22.32    1.53
  -3   7   8   23.61    1.57
   2  -7  -8    4.32    0.78
   2  -7  -8    4.08    0.46
   1  -7  -8   14.85    1.26
   1  -7  -8   13.95    0.79
  -1   7   8   15.14    1.29
   0  -7  -8    1.02    0.59
   0   7   8    1.40    0.58
   0   7   8    1.19    0.31
  -1  -7  -8    0.91    0.55
  -1  -7  -8    1.27    0.48
   1   7   8    1.68    0.34
   1   7   8    1.90    0.63
  -2  -7  -8    1.45    0.55
  -2  -7  -8    0.92    0.53
   2   7   8    1.39    0.56
   2   7   8    1.19    0.24
  -3  -7  -8   16.00    1.15
  -3  -7  -8   17.04    1.31
  -3  -7  -8   15.77    0.74
   3   7   8   17.37    1.30
   3   7   8   14.85    0.98
  -4  -7  -8   31.86    1.65
  -4  -7  -8   33.96    2.02
  -4  -7  -8   34.54    1.50
   4   7   8   27.43    1.63
   4   7   8   34.48    1.87
  -5  -7  -8   11.85    0.75
  -5  -7  -8   11.62    1.21
   5   7   8   12.13    1.08
  -6  -7  -8   44.74    2.59
  -6  -7  -8   42.62    2.09
   6   7   8   45.25    2.20
  -7  -7  -8    0.78    0.56
   7   7   8    2.00    0.53
  -8  -7  -8    2.57    0.65
  -8  -7  -8    1.82    0.60
  -9  -7  -8   10.48    1.07
  -9  -7  -8    8.17    1.04
   4  -8  -8    0.16    0.62
  -4   8   8   -0.85    0.61
   3  -8  -8   21.71    1.46
  -3   8   8   22.17    1.50
   2  -8  -8   10.19    1.04
  -2   8   8   12.28    1.05
   1  -8  -8    5.43    0.46
   1  -8  -8    4.61    0.86
  -1   8   8    6.73    0.87
   0  -8  -8    2.27    0.33
   0  -8  -8    3.73    0.77
   0   8   8    3.37    0.45
  -1  -8  -8   48.58    2.58
   1   8   8   51.89    2.74
   1   8   8   46.65    2.27
  -2  -8  -8    2.06    0.35
  -2  -8  -8    1.63    0.63
  -2  -8  -8    1.63    0.61
   2   8   8    1.24    0.35
   2   8   8    1.94    0.70
  -3  -8  -8   30.23    1.87
  -3  -8  -8   30.21    1.73
   3   8   8   32.82    1.95
   3   8   8   25.99    1.57
  -4  -8  -8   23.54    1.18
  -4  -8  -8   26.87    1.79
   4   8   8   27.50    1.73
  -5  -8  -8    1.60    0.29
  -5  -8  -8    0.82    0.57
   5   8   8    1.54    0.69
  -6  -8  -8    1.25    0.53
  -6  -8  -8    0.43    0.38
   6   8   8    1.35    0.64
  -7  -8  -8    3.97    0.82
   7   8   8    3.57    0.77
  -8  -8  -8    6.09    1.01
  -8  -8  -8    5.02    0.97
  -9  -8  -8    0.39    0.65
  -9  -8  -8    1.15    0.68
   3  -9  -8   14.51    1.25
  -3   9   8   13.88    1.23
   2  -9  -8    0.36    0.55
  -2   9   8    0.52    0.58
   1  -9  -8   24.47    1.70
  -1   9   8   25.91    1.68
   0  -9  -8   26.22    1.85
   0   9   8   30.26    1.89
  -1  -9  -8    3.03    0.76
   1   9   8    2.15    0.50
   1   9   8    3.93    0.76
   2   9   8   34.28    2.04
   2   9   8   38.17    2.23
  -3  -9  -8    2.40    0.72
   3   9   8    3.13    0.82
  -4  -9  -8    2.43    0.72
  -4  -9  -8    2.65    0.74
  -5  -9  -8   21.13    1.62
  -5  -9  -8   21.38    1.62
   5   9   8   18.93    1.61
  -6  -9  -8   11.67    1.37
  -6  -9  -8   10.56    1.09
   6   9   8    9.86    1.34
  -7  -9  -8    4.05    0.74
  -7  -9  -8    6.73    1.14
   7   9   8    5.41    1.00
  -8  -9  -8    3.55    0.78
  -8  -9  -8    6.88    1.31
  -2  10   8   18.43    2.00
  -1  10   8    0.44    0.72
   0  10   8   12.68    1.27
   1  10   8    3.78    0.76
   2  10   8    0.36    0.63
   3  10   8   -0.22    0.66
   4  10   8   22.04    1.83
  -5 -10  -8    5.53    1.14
  -5 -10  -8    4.15    0.88
   5  10   8    5.43    1.02
  -6 -10  -8   22.32    1.74
   6  10   8   22.93    1.92
  -7 -10  -8    7.44    1.25
  -7 -10  -8    7.75    1.22
   7  10   8   10.51    1.82
   1  11   8   -0.12    0.85
   2  11   8   26.23    1.84
   3  11   8    1.67    0.81
   4  11   8   10.98    1.49
   5  11   8    3.39    1.06
   2   9  -9    3.45    0.67
  -2  -9   9    5.77    1.10
   1   9  -9    3.43    0.70
  -1  -9   9    3.00    0.69
   0   9  -9    1.55    0.67
   0  -9   9   -0.32    0.69
  -5  -8   9    0.23    0.82
   3   8  -9    3.05    0.52
  -3  -8   9    2.15    0.55
   2   8  -9    0.43    0.47
  -2  -8   9    0.30    0.49
   1   8  -9   11.53    1.06
  -1  -8   9   10.70    1.04
   0   8  -9    3.28    0.60
   0  -8   9    3.61    0.65
  -1   8  -9    3.41    0.64
   1  -8   9    1.03    0.53
   2  -8   9    4.55    0.94
  -3   8  -9    0.86    0.78
   3  -8   9    0.62    0.65
  -6  -7   9    7.00    1.09
  -5  -7   9   15.19    1.41
  -4  -7   9    0.72    0.61
   3   7  -9   18.23    1.26
   2   7  -9   21.50    2.11
   2   7  -9   22.28    1.42
  -2  -7   9   20.27    1.49
   1   7  -9   13.07    1.07
  -1  -7   9   12.06    1.10
   0   7  -9   28.54    1.74
   0  -7   9   28.91    1.79
  -1   7  -9    4.24    0.81
   1  -7   9    2.30    0.57
  -2   7  -9   10.43    1.13
   2  -7   9   11.84    1.08
  -3   7  -9    7.27    1.07
   3  -7   9    6.13    0.89
  -4   7  -9    4.38    0.92
   4  -7   9    4.42    0.87
  -5   7  -9    6.46    1.08
   5  -7   9    6.67    1.09
   7   6  -9   23.23    1.57
  -7  -6   9   24.40    1.63
   6   6  -9    6.91    0.80
  -6  -6   9    5.95    0.94
  -5  -6   9    6.25    0.98
  -4  -6   9   22.94    1.52
   3   6  -9    1.94    0.52
  -3  -6   9    0.96    0.61
   2   6  -9   22.26    1.42
   2   6  -9   19.25    1.29
  -2  -6   9   21.36    1.48
   1   6  -9    8.89    0.94
   1   6  -9    9.28    0.84
  -1  -6   9    9.31    0.97
   0   6  -9    1.16    0.39
   0  -6   9    0.74    0.45
  -1   6  -9    5.85    0.86
  -1   6  -9    5.10    0.66
   1  -6   9    5.56    0.80
  -2   6  -9   53.84    2.56
  -2   6  -9   56.01    2.86
   2  -6   9   57.43    2.92
  -3   6  -9    1.22    0.63
   3  -6   9   -0.03    0.43
   4  -6   9   88.45    4.22
  -5   6  -9    6.27    1.15
   5  -6   9    4.24    0.76
  -6   6  -9    5.21    1.01
   6  -6   9    4.56    0.80
   8   5  -9   -0.38    0.65
  -8  -5   9   -0.72    0.64
   7   5  -9    3.93    0.77
  -7  -5   9    5.50    0.77
   6   5  -9    2.32    0.55
  -6  -5   9    2.43    0.55
   5   5  -9    0.29    0.37
  -5  -5   9   -0.46    0.43
  -4  -5   9    1.57    0.57
   3   5  -9   -0.10    0.55
  -3  -5   9    0.31    0.49
   2   5  -9   13.73    1.07
   2   5  -9   18.32    1.26
  -2  -5   9   16.05    1.17
   1   5  -9    2.78    0.39
   1   5  -9    3.19    0.66
  -1  -5   9    2.75    0.67
   0   5  -9   46.46    2.26
   0   5  -9   43.47    2.09
   0  -5   9   44.09    2.35
   0  -5   9   36.89    2.01
  -1   5  -9   18.72    1.29
  -1   5  -9   18.54    1.09
   1  -5   9   15.45    1.08
   1  -5   9   20.90    1.42
  -2   5  -9   27.86    1.47
  -2   5  -9   29.46    1.69
   2  -5   9   26.86    1.48
   2  -5   9   28.73    1.81
  -3   5  -9    9.44    1.00
  -3   5  -9    7.47    0.71
   3  -5   9    7.58    0.73
   3  -5   9    8.61    1.08
  -4   5  -9    2.67    0.67
  -4   5  -9    2.26    0.42
   4  -5   9    2.29    0.58
  -5   5  -9    0.61    0.57
  -5   5  -9    1.22    0.60
   5  -5   9    1.15    0.49
   6  -5   9   57.74    3.07
  -7   5  -9   14.52    1.50
   8   4  -9    6.88    1.29
  -8  -4   9    6.71    0.86
   7   4  -9   10.13    1.14
  -7  -4   9   10.37    0.91
   6   4  -9    7.03    0.87
  -6  -4   9    8.21    0.83
   5   4  -9   13.52    1.15
  -5  -4   9   13.71    1.17
   4   4  -9    7.61    1.10
   4   4  -9    6.82    0.76
  -4  -4   9    8.86    0.96
   3   4  -9   13.86    1.04
   3   4  -9   15.09    1.09
  -3  -4   9   18.78    1.24
   2   4  -9   21.09    1.21
  -2  -4   9   18.12    1.20
  -2  -4   9   24.12    1.42
   1   4  -9    1.60    0.53
   1   4  -9    0.70    0.30
  -1  -4   9    0.21    0.33
  -1  -4   9    0.91    0.50
   0   4  -9   40.39    2.02
   0   4  -9   38.83    1.91
   0  -4   9   38.40    2.14
   0  -4   9   37.21    1.89
  -1   4  -9   12.57    0.84
  -1   4  -9   14.69    1.09
   1  -4   9   11.60    0.80
   1  -4   9   13.35    1.15
  -2   4  -9    4.38    0.50
  -2   4  -9    5.46    0.79
   2  -4   9    3.44    0.44
   2  -4   9    5.02    0.83
  -3   4  -9    0.10    0.27
  -3   4  -9    0.46    0.43
   3  -4   9   -0.10    0.45
   3  -4   9    0.05    0.27
  -4   4  -9   17.62    1.03
  -4   4  -9   20.05    1.24
  -4   4  -9   18.24    1.22
   4  -4   9   15.26    1.50
  -5   4  -9   11.23    0.81
  -5   4  -9   10.59    1.01
  -5   4  -9   10.09    0.99
   5  -4   9   11.10    1.08
  -6   4  -9    2.65    0.63
  -6   4  -9    2.49    0.62
   6  -4   9    1.65    0.58
  -7   4  -9   26.09    1.79
  -8   4  -9    2.37    0.87
  -8   4  -9    3.22    0.97
   8   3  -9    3.20    0.87
  -8  -3   9    4.18    0.74
  -7  -3   9    6.93    0.77
   6   3  -9   57.05    2.75
   6   3  -9   50.70    2.59
  -6  -3   9   52.81    2.73
   5   3  -9    1.33    0.54
   5   3  -9    1.62    0.44
   4   3  -9  113.31    5.00
   4   3  -9  113.39    4.96
  -4  -3   9  111.77    4.99
   3   3  -9   33.24    1.81
   3   3  -9   26.50    1.59
   3   3  -9   34.09    1.65
  -3  -3   9   32.37    1.76
  -3  -3   9   25.43    1.58
   2   3  -9   35.21    1.82
   2   3  -9   37.36    1.99
  -2  -3   9   34.81    1.84
  -2  -3   9   39.23    1.96
   1   3  -9  142.53    5.97
   1   3  -9  140.03    6.01
  -1  -3   9  141.16    5.97
   0   3  -9    1.77    0.49
   0   3  -9    0.65    0.22
   0  -3   9    1.32    0.51
   0  -3   9    0.87    0.24
  -1   3  -9    7.92    0.75
  -1   3  -9    6.83    0.58
   1  -3   9    7.66    0.55
   1  -3   9    6.72    0.89
  -2   3  -9   95.15    4.11
  -2   3  -9   89.18    4.15
  -2   3  -9   99.49    4.15
   2  -3   9   98.94    4.10
   2  -3   9   96.48    4.36
  -3   3  -9    7.90    0.77
  -3   3  -9    8.04    0.83
  -3   3  -9    8.30    0.61
   3  -3   9    7.81    0.97
   3  -3   9    7.77    0.56
  -4   3  -9   12.47    0.97
  -4   3  -9   11.87    0.78
  -4   3  -9   12.27    0.92
   4  -3   9   12.19    1.15
  -5   3  -9   28.75    1.57
  -5   3  -9   28.63    1.50
   5  -3   9   28.09    1.89
  -6   3  -9    0.83    0.54
  -6   3  -9    0.54    0.44
   6  -3   9    1.20    0.49
  -7   3  -9   16.35    1.35
  -7   3  -9   16.05    1.07
  -8   3  -9    0.99    0.67
  -9   3  -9    4.62    1.07
  -9   3  -9    3.52    0.90
   9   2  -9    2.28    0.89
  -9  -2   9    0.98    0.74
   8   2  -9   13.21    1.33
  -8  -2   9   14.98    1.05
  -7  -2   9    4.78    0.63
   6   2  -9   13.27    0.96
  -6  -2   9   15.43    1.16
   5   2  -9   19.99    1.14
  -5  -2   9   18.53    1.36
   4   2  -9    2.82    0.61
  -4  -2   9    2.46    0.61
   3   2  -9    0.44    0.44
   3   2  -9    0.49    0.26
  -3  -2   9    0.38    0.43
   2   2  -9   95.74    4.20
   2   2  -9   95.47    4.22
  -2  -2   9   90.61    4.15
  -2  -2   9   99.38    4.22
   1   2  -9   18.18    1.05
   1   2  -9   19.02    1.25
  -1  -2   9   19.74    1.22
  -1  -2   9   18.22    1.04
   0   2  -9   77.02    3.53
   0   2  -9   81.69    3.50
   0  -2   9   79.54    3.45
   0  -2   9   77.59    3.62
  -1   2  -9  241.12   10.14
  -1   2  -9  252.87   10.14
   1  -2   9  262.16   10.10
   1  -2   9  240.81   10.26
  -2   2  -9    3.40    0.33
  -2   2  -9    2.51    0.52
  -2   2  -9    2.98    0.55
   2  -2   9    2.95    0.61
  -3   2  -9  126.08    5.36
  -3   2  -9  128.45    5.25
  -3   2  -9  124.86    5.34
   3  -2   9  128.67    5.23
   3  -2   9  128.38    5.60
  -4   2  -9   40.85    2.03
  -4   2  -9   43.03    1.91
  -4   2  -9   40.47    2.09
   4  -2   9   41.58    2.30
  -5   2  -9    7.55    0.65
   5  -2   9    7.07    0.99
  -6   2  -9   10.36    0.82
  -6   2  -9   12.14    1.15
  -6   2  -9   11.47    0.74
  -7   2  -9   14.41    1.34
  -8   2  -9    2.17    0.61
  -9   2  -9   21.01    1.71
  -9   2  -9   23.36    1.81
   9   1  -9   -1.16    0.77
  -9  -1   9   -0.14    0.69
   8   1  -9    5.79    1.09
  -8  -1   9    5.14    0.72
   7   1  -9   -0.11    0.57
  -7  -1   9    1.30    0.40
   6   1  -9    0.09    0.50
   6   1  -9    0.73    0.29
  -6  -1   9    0.64    0.44
   5   1  -9    0.51    0.25
  -5  -1   9    0.15    0.44
   4   1  -9    8.35    0.62
  -4  -1   9    9.77    0.98
   3   1  -9   54.09    2.36
   3   1  -9   47.51    2.39
  -3  -1   9   46.39    2.39
  -3  -1   9   53.16    2.52
   2   1  -9    0.68    0.45
  -2  -1   9    0.84    0.45
   1   1  -9   55.69    2.59
   1   1  -9   53.85    2.51
  -1  -1   9   53.26    2.55
  -1  -1   9   53.55    2.48
   0   1  -9   64.80    2.99
   0   1  -9   65.32    2.92
   0  -1   9   66.38    2.89
   0  -1   9   64.91    3.05
  -1   1  -9   15.59    0.87
  -1   1  -9   15.73    1.07
   1  -1   9   15.93    0.90
   1  -1   9   16.54    1.15
  -2   1  -9  188.23    7.64
  -2   1  -9  184.73    7.66
   2  -1   9  186.88    7.52
   2  -1   9  184.36    7.79
   3  -1   9   37.01    2.03
   3  -1   9   35.76    1.61
  -4   1  -9    2.59    0.39
   4  -1   9    4.62    0.83
  -5   1  -9  108.99    4.95
  -5   1  -9  116.98    5.10
   5  -1   9  115.48    5.18
  -6   1  -9   27.50    1.51
  -6   1  -9   30.39    1.85
  -7   1  -9   55.63    2.61
  -8   1  -9   27.39    1.60
  -8   1  -9   31.44    1.95
  -9   1  -9    0.48    0.60
 -10   1  -9   23.22    1.91
 -10   1  -9   26.30    1.87
   9   0  -9    8.74    1.35
  -9   0   9    8.56    0.99
   8   0  -9    1.71    0.63
  -8   0   9    1.32    0.45
   7   0  -9    1.61    0.57
  -7   0   9    1.48    0.43
   6   0  -9   26.79    1.75
   6   0  -9   26.72    1.26
  -6   0   9   28.08    1.68
   5   0  -9   16.23    1.24
   5   0  -9   16.14    0.85
  -5   0   9   16.46    1.25
   4   0  -9   35.58    2.00
   4   0  -9   44.73    1.87
  -4   0   9   45.69    2.21
  -4   0   9   35.75    2.01
   3   0  -9   70.86    2.87
   3   0  -9   57.64    2.91
  -3   0   9   63.74    3.00
  -3   0   9   68.24    3.08
   2   0  -9    0.45    0.16
  -2   0   9    0.35    0.20
  -2   0   9    1.29    0.42
   1   0  -9   54.46    2.46
  -1   0   9   53.05    2.53
  -1   0   9   52.56    2.42
   0   0  -9    0.75    0.16
   0   0   9    0.77    0.41
   0   0   9    1.10    0.19
  -1   0  -9    0.27    0.13
   1   0   9   -0.02    0.12
   1   0   9    0.32    0.37
  -2   0  -9    6.38    0.46
   2   0   9    6.43    0.43
   2   0   9    6.02    0.76
  -3   0  -9   16.39    0.92
   3   0   9   14.89    0.75
   3   0   9   15.91    1.20
  -4   0  -9  143.95    6.05
  -4   0  -9  142.59    6.16
   4   0   9  142.75    6.20
  -5   0  -9    2.05    0.64
   5   0   9    2.09    0.61
  -6   0  -9   40.02    2.26
  -6   0  -9   42.79    1.99
  -6   0  -9   44.31    2.40
  -7   0  -9    0.77    0.51
  -7   0  -9    0.92    0.30
  -8   0  -9    4.02    0.79
  -8   0  -9    3.75    0.60
  -9   0  -9    5.30    0.93
 -10   0  -9    5.50    0.99
 -10   0  -9    5.35    1.08
   8  -1  -9   11.43    1.20
  -8   1   9   14.25    1.15
   7  -1  -9   57.11    2.93
  -7   1   9   58.24    2.92
   6  -1  -9   21.37    1.47
  -6   1   9   21.74    1.45
   5  -1  -9   84.98    3.98
  -5   1   9   87.38    3.97
   4  -1  -9    5.60    0.35
   4  -1  -9    5.61    0.82
   4  -1  -9    3.95    0.45
  -4   1   9    5.56    0.85
   3  -1  -9    2.32    0.26
  -3   1   9    2.21    0.54
   2  -1  -9   84.89    3.75
  -2   1   9   86.85    3.83
   1  -1  -9   12.42    0.78
  -1   1   9   12.92    0.81
   0   1   9    1.30    0.43
   0   1   9    1.66    0.26
  -1  -1  -9  124.59    5.10
   1   1   9  122.23    5.13
   1   1   9  120.64    5.15
   1   1   9  118.61    5.00
  -2  -1  -9   16.66    0.94
  -2  -1  -9   19.18    1.19
   2   1   9   17.19    1.15
   2   1   9   17.03    0.87
   2   1   9   17.76    1.07
  -3  -1  -9   56.59    2.70
  -3  -1  -9   55.23    2.50
   3   1   9   55.56    2.29
   3   1   9   53.67    2.66
  -4  -1  -9   19.75    1.38
  -4  -1  -9   19.46    1.08
   4   1   9   18.78    1.36
  -5  -1  -9    6.95    0.54
  -5  -1  -9    8.75    0.89
  -6  -1  -9    8.26    0.68
  -6  -1  -9   11.59    1.14
  -7  -1  -9    2.05    0.34
  -7  -1  -9    3.09    0.71
  -8  -1  -9   11.23    1.17
  -8  -1  -9   10.40    0.73
  -9  -1  -9    4.52    0.89
 -10  -1  -9   25.97    1.68
 -10  -1  -9   23.22    1.76
   8  -2  -9    7.38    1.09
  -8   2   9    8.39    1.01
   7  -2  -9    3.43    0.70
  -7   2   9    4.89    0.81
   6  -2  -9   17.60    1.31
  -6   2   9   19.38    1.37
   5  -2  -9   20.10    1.42
  -5   2   9   20.25    1.42
   4  -2  -9   21.05    1.27
   4  -2  -9   25.90    1.57
  -4   2   9   27.64    1.59
   3  -2  -9  142.48    5.37
   3  -2  -9  128.87    5.82
   3  -2  -9  132.40    5.73
   3  -2  -9  137.10    5.37
  -3   2   9  141.27    5.81
  -3   2   9  130.86    5.79
   2  -2  -9   20.69    0.99
   2  -2  -9   18.18    1.06
  -2   2   9   19.77    1.28
  -2   2   9   19.04    1.11
   1  -2  -9   63.45    2.55
   1  -2  -9   56.82    2.60
  -1   2   9   56.09    2.60
  -1   2   9   55.39    2.65
   0  -2  -9  193.32    7.35
   0  -2  -9  173.92    7.34
   0   2   9  176.38    7.33
   0   2   9  174.06    7.41
  -1  -2  -9    0.14    0.13
  -1  -2  -9    0.16    0.33
   1   2   9    0.05    0.32
   1   2   9    0.21    0.15
  -2  -2  -9   79.78    3.40
   2   2   9   73.86    3.27
   2   2   9   70.60    3.32
  -3  -2  -9   68.52    3.09
  -3  -2  -9   66.18    2.87
   3   2   9   59.09    2.99
   3   2   9   65.86    2.68
   3   2   9   65.88    2.88
  -4  -2  -9    3.33    0.33
  -4  -2  -9    4.22    0.80
   4   2   9    2.74    0.63
   4   2   9    3.63    0.33
  -5  -2  -9   26.61    1.35
  -5  -2  -9   25.62    1.72
   5   2   9   26.79    1.29
  -6  -2  -9   54.50    2.84
  -6  -2  -9   51.13    2.48
  -7  -2  -9   14.51    1.34
  -7  -2  -9   13.79    0.76
  -8  -2  -9   17.10    1.44
  -9  -2  -9    1.01    0.54
 -10  -2  -9   12.04    1.27
 -10  -2  -9   11.97    1.10
   8  -3  -9    0.28    0.66
  -8   3   9    0.28    0.77
   7  -3  -9    2.28    0.57
  -7   3   9    1.60    0.68
   6  -3  -9   -0.34    0.42
  -6   3   9    0.32    0.52
   5  -3  -9   10.93    1.03
  -5   3   9   11.65    1.11
   4  -3  -9   34.96    1.98
   4  -3  -9   32.98    1.71
  -4   3   9   37.03    1.96
  -4   3   9   31.42    1.68
   3  -3  -9    0.84    0.26
   3  -3  -9    1.48    0.54
  -3   3   9    0.46    0.26
  -3   3   9    1.33    0.54
   2  -3  -9  157.54    6.13
   2  -3  -9  149.92    6.56
   2  -3  -9  155.95    6.43
  -2   3   9  154.71    6.50
   1  -3  -9   17.32    1.21
   1  -3  -9   19.24    0.99
   1  -3  -9   17.71    0.98
  -1   3   9   18.53    1.01
   0  -3  -9    9.26    0.71
   0  -3  -9    7.49    0.51
   0   3   9    7.83    0.64
  -1  -3  -9   47.72    2.18
  -1  -3  -9   52.48    2.32
   1   3   9   45.63    2.19
  -2  -3  -9   18.40    1.17
   2   3   9   16.14    1.06
  -3  -3  -9    7.40    0.88
  -4  -3  -9   80.42    3.67
  -4  -3  -9   74.81    3.34
   4   3   9   77.36    3.13
  -5  -3  -9   31.47    1.91
  -5  -3  -9   29.13    1.50
  -6  -3  -9   94.38    4.36
  -6  -3  -9   87.30    3.96
  -7  -3  -9   16.54    0.78
  -7  -3  -9   18.21    1.49
  -8  -3  -9    4.89    0.79
  -9  -3  -9   21.41    1.62
 -10  -3  -9    0.80    0.63
 -10  -3  -9    0.92    0.54
 -11  -3  -9    3.34    0.84
 -11  -3  -9    2.29    0.85
   7  -4  -9   26.27    1.67
  -7   4   9   25.08    1.82
   6  -4  -9    6.09    0.79
  -6   4   9    5.83    1.05
   5  -4  -9   13.58    1.14
  -5   4   9   14.38    1.27
  -5   4   9   14.83    0.86
   4  -4  -9   26.08    1.41
   4  -4  -9   26.43    1.88
  -4   4   9   29.28    1.70
   3  -4  -9    0.85    0.48
   3  -4  -9    0.78    0.26
  -3   4   9    0.72    0.51
   2  -4  -9    0.28    0.21
   2  -4  -9    0.76    0.49
   1  -4  -9    2.31    0.58
   1  -4  -9    1.91    0.32
   1  -4  -9    1.34    0.24
  -1   4   9    1.53    0.20
   0  -4  -9   38.13    2.01
   0  -4  -9   38.07    1.79
   0  -4  -9   41.70    1.86
   0   4   9   37.50    1.65
  -1  -4  -9    6.34    0.69
  -1  -4  -9    5.76    0.41
  -1  -4  -9    5.19    0.74
  -2  -4  -9   25.37    1.45
  -2  -4  -9   27.94    1.58
  -3  -4  -9   15.68    1.22
  -3  -4  -9   16.31    0.85
  -3  -4  -9   15.02    1.03
   3   4   9   16.69    0.99
  -4  -4  -9   16.54    0.91
  -4  -4  -9   17.98    1.35
  -4  -4  -9   17.52    1.02
   4   4   9   16.52    0.93
  -5  -4  -9   11.02    0.68
  -5  -4  -9   10.84    1.19
  -5  -4  -9   10.54    0.75
   5   4   9   11.49    0.52
  -6  -4  -9    1.04    0.26
  -6  -4  -9    0.70    0.63
  -7  -4  -9    0.05    0.54
  -8  -4  -9    4.45    0.88
   8   4   9    4.53    0.46
  -9  -4  -9   12.35    1.23
 -10  -4  -9    9.37    1.09
 -10  -4  -9    9.93    1.02
 -11  -4  -9   19.43    1.66
   7  -5  -9   -0.35    0.69
  -7   5   9    0.40    0.88
   6  -5  -9   19.44    1.32
  -6   5   9   15.60    1.51
   5  -5  -9    7.58    0.82
  -5   5   9    6.32    1.09
   4  -5  -9    0.66    0.42
   4  -5  -9    0.49    0.42
   3  -5  -9   10.95    0.77
   2  -5  -9   59.03    2.95
   2  -5  -9   58.44    2.62
   1  -5  -9    1.47    0.28
   1  -5  -9    1.89    0.51
   1  -5  -9    1.72    0.43
   0  -5  -9   20.78    1.37
   0  -5  -9   20.57    1.17
   0  -5  -9   20.95    1.08
  -1  -5  -9   43.00    2.04
  -1  -5  -9   39.56    2.09
  -1  -5  -9   39.67    1.86
  -2  -5  -9    8.36    0.87
  -2  -5  -9    8.18    0.54
  -2  -5  -9    8.94    0.88
   2   5   9    6.91    0.54
   2   5   9    9.03    0.92
  -3  -5  -9   17.85    1.16
  -3  -5  -9   18.09    0.92
  -3  -5  -9   19.21    1.38
   3   5   9   17.03    1.03
   3   5   9   20.14    1.19
  -4  -5  -9    0.73    0.54
  -4  -5  -9    0.85    0.38
   4   5   9    0.23    0.35
  -5  -5  -9    1.54    0.24
  -5  -5  -9    1.88    0.37
  -5  -5  -9    1.52    0.66
   5   5   9    1.90    0.36
  -6  -5  -9   16.69    0.97
  -6  -5  -9   18.34    1.43
  -7  -5  -9    1.52    0.43
  -7  -5  -9    2.00    0.73
  -8  -5  -9   -0.30    0.48
  -9  -5  -9   29.87    1.99
 -10  -5  -9    1.09    0.59
 -10  -5  -9    0.54    0.70
   6  -6  -9    8.07    1.02
   5  -6  -9    0.64    0.50
   4  -6  -9   36.09    2.07
   3  -6  -9   18.73    1.38
   2  -6  -9   46.87    2.13
   2  -6  -9   45.62    2.79
   1  -6  -9   37.34    2.11
   1  -6  -9   36.36    1.72
   0  -6  -9    0.27    0.53
   0  -6  -9    0.77    0.38
  -1  -6  -9   29.16    1.63
  -1  -6  -9   29.22    1.43
  -1  -6  -9   30.39    1.76
   1   6   9   32.44    1.81
   1   6   9   28.09    1.44
  -2  -6  -9    4.71    0.41
  -2  -6  -9    3.89    0.75
  -2  -6  -9    4.21    0.72
   2   6   9    3.40    0.39
   2   6   9    5.04    0.81
  -3  -6  -9    0.04    0.45
  -3  -6  -9    0.26    0.43
  -3  -6  -9    0.01    0.12
   3   6   9    0.62    0.46
   3   6   9   -0.01    0.24
  -4  -6  -9    6.01    0.95
  -4  -6  -9    5.98    0.71
  -4  -6  -9    5.43    0.47
   4   6   9    5.89    0.81
  -5  -6  -9   38.35    1.85
  -5  -6  -9   41.99    1.94
  -5  -6  -9   44.21    2.46
   5   6   9   42.11    2.02
  -6  -6  -9    3.51    0.50
  -6  -6  -9    5.42    1.00
   6   6   9    3.86    0.63
  -7  -6  -9   86.75    4.26
  -7  -6  -9   78.48    4.11
  -8  -6  -9    3.20    0.70
  -9  -6  -9   23.45    1.68
  -9  -6  -9   24.68    1.60
 -10  -6  -9    5.68    0.97
   5  -7  -9    0.37    0.65
   4  -7  -9    3.65    0.60
   3  -7  -9    1.71    0.52
   2  -7  -9    0.52    0.44
   2  -7  -9    0.60    0.30
   1  -7  -9    1.89    0.28
  -1   7   9    2.99    0.66
   0  -7  -9    8.26    1.01
   0  -7  -9    7.34    0.57
   0   7   9    9.09    1.04
  -1  -7  -9   29.31    1.43
  -1  -7  -9   31.07    1.70
  -1  -7  -9   29.81    1.82
   1   7   9   28.29    1.46
   1   7   9   30.27    1.87
  -2  -7  -9    1.33    0.59
  -2  -7  -9    1.50    0.55
  -2  -7  -9    1.87    0.33
   2   7   9    0.92    0.58
   2   7   9    1.03    0.28
  -3  -7  -9   25.62    1.59
  -3  -7  -9   28.66    1.79
   3   7   9   30.26    1.77
   3   7   9   25.20    1.43
  -4  -7  -9    0.56    0.60
  -4  -7  -9    1.76    0.29
  -4  -7  -9    1.38    0.47
   4   7   9    1.43    0.61
   4   7   9    0.91    0.37
  -5  -7  -9   44.98    2.08
  -5  -7  -9   45.71    2.61
   5   7   9   45.73    2.30
  -6  -7  -9    2.62    0.72
  -6  -7  -9    4.25    0.53
   6   7   9    3.19    0.63
  -7  -7  -9    2.36    0.64
   7   7   9    2.85    0.55
  -8  -7  -9   -0.85    0.56
  -9  -7  -9   16.57    1.51
  -9  -7  -9   19.69    1.51
 -10  -7  -9    1.17    0.79
 -10  -7  -9    2.41    0.73
   4  -8  -9    2.81    0.67
  -4   8   9    3.11    0.65
   3  -8  -9    0.44    0.56
  -3   8   9    0.68    0.55
   2  -8  -9    6.77    0.94
  -2   8   9   10.28    1.01
   1  -8  -9    0.16    0.50
  -1   8   9    0.78    0.47
   0  -8  -9    1.70    0.63
   0   8   9    1.31    0.59
   0   8   9    1.31    0.29
  -1  -8  -9    6.32    1.01
   1   8   9    8.59    0.67
  -2  -8  -9    1.08    0.60
  -2  -8  -9    0.49    0.26
  -2  -8  -9    0.42    0.56
   2   8   9    1.27    0.33
   2   8   9    0.64    0.59
  -3  -8  -9    1.89    0.31
  -3  -8  -9    2.31    0.68
  -3  -8  -9    2.26    0.67
   3   8   9    3.08    0.81
  -4  -8  -9    1.37    0.64
  -4  -8  -9    0.86    0.20
   4   8   9    1.10    0.67
  -5  -8  -9    0.41    0.54
  -5  -8  -9    0.33    0.28
   5   8   9    0.40    0.63
  -6  -8  -9    0.78    0.49
   6   8   9    0.37    0.63
  -7  -8  -9   17.17    1.41
   7   8   9   16.56    1.37
  -8  -8  -9    5.91    0.98
  -8  -8  -9    4.65    0.87
  -9  -8  -9    7.95    1.14
  -9  -8  -9    7.29    1.12
   3  -9  -9   16.09    1.44
  -3   9   9   19.62    1.36
   2  -9  -9   -0.22    0.62
  -2   9   9   -0.09    0.64
   1  -9  -9   11.76    1.22
  -1   9   9   14.28    1.20
   0  -9  -9   11.95    1.26
   0   9   9   13.64    1.18
  -1  -9  -9   18.59    1.60
   1   9   9   22.15    1.64
  -2  -9  -9   13.80    1.39
   2   9   9   18.20    1.49
   2   9   9   14.84    1.50
  -3  -9  -9    0.97    0.63
   3   9   9    0.46    0.68
  -4  -9  -9    2.01    0.68
  -5  -9  -9    7.85    1.12
   5   9   9    6.96    1.27
  -6  -9  -9    1.03    0.95
   6   9   9    1.60    0.81
  -7  -9  -9   16.49    1.57
  -7  -9  -9   14.84    1.35
   7   9   9   15.11    1.60
  -8  -9  -9   13.19    1.33
  -8  -9  -9   14.15    1.55
   1 -10  -9   -0.64    0.74
  -1  10   9    0.06    0.80
   0  10   9    3.67    0.72
   1  10   9    6.85    1.05
   2  10   9    3.60    0.79
   3  10   9   23.39    1.86
   4  10   9   15.68    1.67
  -5 -10  -9    4.37    0.86
   5  10   9    4.91    1.03
  -6 -10  -9   32.67    2.15
  -6 -10  -9   34.73    2.30
   6  10   9   33.09    2.34
  -7 -10  -9   -1.21    0.80
  -7 -10  -9    0.61    1.00
   2  11   9   10.86    1.46
   3  11   9    1.25    0.98
   4  11   9    2.19    1.04
   3   8 -10    3.08    0.62
  -3  -8  10    5.23    0.89
   2   8 -10    0.77    0.56
  -2  -8  10    1.75    0.58
   1   8 -10    9.11    1.04
  -1  -8  10    8.35    0.96
   0   8 -10   12.37    1.15
   0  -8  10   13.74    1.14
  -1   8 -10    1.32    0.64
   1  -8  10    0.66    0.60
  -2   8 -10   12.66    1.37
   2  -8  10   10.24    1.22
   6   7 -10    6.12    0.98
  -6  -7  10    5.54    0.97
  -5  -7  10   26.94    1.90
  -4  -7  10    1.59    0.73
  -3  -7  10   10.87    0.97
   2   7 -10    7.11    0.82
  -2  -7  10    6.27    0.82
   1   7 -10   11.84    1.04
  -1  -7  10   12.52    1.08
   0   7 -10    2.60    0.59
   0  -7  10    2.00    0.51
   1  -7  10    4.77    0.83
  -2   7 -10   10.04    1.17
   2  -7  10   10.19    1.03
  -3   7 -10    0.68    0.68
   3  -7  10    0.38    0.55
  -4   7 -10   19.59    1.74
   4  -7  10   20.96    1.53
   7   6 -10   40.24    2.24
   6   6 -10    0.43    0.49
  -6  -6  10    0.80    0.60
   5   6 -10   48.43    2.63
  -5  -6  10   54.24    2.73
  -4  -6  10   16.70    1.38
  -3  -6  10   -0.45    0.54
   2   6 -10   10.98    0.98
  -2  -6  10    9.23    0.98
   1   6 -10   19.05    1.31
  -1  -6  10   17.19    1.32
   0   6 -10    0.44    0.54
   0   6 -10    1.55    0.51
   0  -6  10    1.08    0.43
  -1   6 -10   53.90    2.68
  -1   6 -10   49.24    2.47
   1  -6  10   52.10    2.74
  -2   6 -10    2.94    0.69
   2  -6  10    3.09    0.60
  -3   6 -10    2.74    0.75
   3  -6  10    3.53    0.70
  -4   6 -10    8.34    1.16
   4  -6  10    7.38    0.92
  -5   6 -10    9.47    1.37
   5  -6  10    7.04    1.00
   7   5 -10    0.35    0.55
  -7  -5  10    0.20    0.56
   6   5 -10   22.97    1.51
  -6  -5  10   23.31    1.55
   5   5 -10   13.20    1.10
  -5  -5  10   14.13    1.16
   4   5 -10   -0.35    0.37
  -4  -5  10    0.64    0.48
  -3  -5  10   59.88    2.96
   1   5 -10   26.56    1.50
   1   5 -10   31.45    1.75
  -1  -5  10   26.41    1.80
   0   5 -10   35.59    1.87
   0   5 -10   39.89    2.06
   0  -5  10   35.81    2.58
  -1   5 -10   -0.44    0.39
  -1   5 -10    0.58    0.53
   1  -5  10   -0.01    0.43
  -2   5 -10   25.26    1.58
  -2   5 -10   24.08    1.40
   2  -5  10   24.06    1.41
   2  -5  10   25.65    1.67
  -3   5 -10   25.49    1.59
  -3   5 -10   23.17    1.38
   3  -5  10   23.32    1.37
   3  -5  10   26.14    1.68
  -4   5 -10    4.69    0.82
  -4   5 -10    5.64    0.99
  -4   5 -10    6.88    1.01
  -5   5 -10    1.52    0.69
  -5   5 -10    0.69    0.65
   5  -5  10    1.29    0.49
  -6   5 -10    2.80    0.81
   6  -5  10    2.78    0.60
  -7   5 -10    3.48    0.83
   8   4 -10    1.10    0.92
  -8  -4  10   -0.52    0.69
  -7  -4  10    2.28    0.51
   6   4 -10   11.53    1.07
  -6  -4  10    9.78    0.97
   5   4 -10    4.60    0.80
  -5  -4  10    6.49    0.81
   4   4 -10   67.55    3.31
  -4  -4  10   68.68    3.34
  -3  -4  10    1.02    0.53
   2   4 -10   28.03    1.69
   2   4 -10   23.63    1.48
  -2  -4  10   28.82    1.63
   1   4 -10   13.70    0.98
  -1  -4  10   11.14    0.86
  -1  -4  10   15.90    1.24
   0   4 -10    3.41    0.53
   0  -4  10    3.62    0.39
   0  -4  10    4.71    0.73
  -1   4 -10   13.91    1.05
  -1   4 -10   11.40    0.85
   1  -4  10   11.02    0.84
   1  -4  10   13.08    1.16
  -2   4 -10   33.72    1.76
  -2   4 -10   36.59    1.90
   2  -4  10   33.40    1.73
   2  -4  10   36.57    2.07
  -3   4 -10    0.72    0.49
  -3   4 -10    0.38    0.35
  -3   4 -10    0.77    0.50
   3  -4  10    0.34    0.32
  -4   4 -10   60.48    2.87
  -4   4 -10   62.71    2.91
  -4   4 -10   60.67    2.96
   4  -4  10   67.09    3.25
  -5   4 -10   27.94    1.67
  -5   4 -10   29.28    1.63
  -5   4 -10   24.45    1.45
   5  -4  10   28.98    1.82
  -6   4 -10   28.34    1.79
  -6   4 -10   26.41    1.60
   6  -4  10   24.90    1.71
  -7   4 -10   38.83    2.28
  -8   4 -10    8.08    1.29
   8   3 -10    1.98    0.89
  -8  -3  10    2.13    0.59
  -7  -3  10   16.59    1.17
  -6  -3  10   25.07    1.55
   5   3 -10   10.01    0.85
   5   3 -10    9.62    1.02
  -5  -3  10   10.23    1.01
   4   3 -10    9.32    1.18
   4   3 -10   11.93    0.88
  -4  -3  10   10.02    1.05
   3   3 -10    1.37    0.40
   3   3 -10    0.78    0.48
  -3  -3  10    1.40    0.54
   2   3 -10   10.23    0.83
  -2  -3  10    9.95    0.84
   1   3 -10    0.62    0.49
   1   3 -10   -0.35    0.30
  -1  -3  10   -0.56    0.31
  -1  -3  10    0.72    0.48
   0   3 -10   27.08    1.52
   0   3 -10   29.34    1.68
   0  -3  10   29.85    1.51
   0  -3  10   29.77    1.78
  -1   3 -10    2.74    0.57
  -1   3 -10    2.21    0.33
  -1   3 -10    2.29    0.57
   1  -3  10    1.76    0.29
   1  -3  10    2.43    0.61
  -2   3 -10   27.29    1.47
  -2   3 -10   26.59    1.55
  -2   3 -10   25.05    1.39
   2  -3  10   26.97    1.70
   2  -3  10   26.88    1.36
  -3   3 -10   14.60    0.93
  -3   3 -10   14.60    1.16
  -3   3 -10   15.47    1.06
   3  -3  10   15.51    1.30
   3  -3  10   15.73    0.88
  -4   3 -10   10.22    0.88
  -4   3 -10    9.99    0.97
  -4   3 -10    9.02    0.73
   4  -3  10   10.50    1.06
  -5   3 -10    6.73    0.79
   5  -3  10    7.07    0.94
  -6   3 -10    8.41    0.98
  -6   3 -10    6.63    0.79
   6  -3  10    6.31    0.85
  -7   3 -10    1.14    0.55
  -8   3 -10    2.53    0.79
   8   2 -10   41.44    2.50
  -8  -2  10   44.53    2.24
   7   2 -10    0.40    0.57
  -7  -2  10    0.88    0.44
   6   2 -10   18.03    1.38
  -6  -2  10   23.14    1.41
   5   2 -10   25.50    1.37
  -5  -2  10   24.97    1.61
   4   2 -10    0.87    0.36
  -4  -2  10    1.41    0.53
   3   2 -10   18.30    1.32
   3   2 -10   19.20    1.09
  -3  -2  10   17.19    1.29
   2   2 -10   25.16    1.51
   2   2 -10   30.62    1.70
  -2  -2  10   26.75    1.50
  -2  -2  10   30.37    1.68
   1   2 -10    0.36    0.25
   1   2 -10    0.60    0.47
  -1  -2  10    0.34    0.26
   0   2 -10   11.89    1.00
   0   2 -10   10.37    0.75
   0  -2  10   11.63    0.75
   0  -2  10   12.96    1.10
  -1   2 -10    0.54    0.22
  -1   2 -10    0.58    0.43
   1  -2  10    1.25    0.45
  -2   2 -10    4.17    0.73
  -2   2 -10    3.07    0.39
   2  -2  10    3.81    0.37
   2  -2  10    3.76    0.73
  -3   2 -10   26.38    1.51
  -3   2 -10   25.71    1.37
   3  -2  10   26.69    1.72
   4  -2  10    0.18    0.48
   4  -2  10    0.49    0.18
   5  -2  10   -0.14    0.46
  -6   2 -10    8.69    1.03
   6  -2  10    7.03    0.94
  -7   2 -10    3.71    0.76
  -8   2 -10    0.15    0.52
  -9   2 -10   10.57    1.25
   8   1 -10    2.15    0.73
  -8  -1  10    0.95    0.54
  -7  -1  10    3.39    0.63
   6   1 -10   26.49    1.70
   6   1 -10   27.27    1.82
  -6  -1  10   27.86    1.66
   5   1 -10    2.29    0.47
  -5  -1  10    2.21    0.59
   4   1 -10   34.10    1.70
  -4  -1  10   33.71    1.94
   3   1 -10   67.83    3.30
  -3  -1  10   79.83    3.42
  -3  -1  10   68.07    3.30
   2   1 -10   37.14    1.96
  -2  -1  10   42.20    2.12
  -2  -1  10   39.46    1.98
   1   1 -10   70.85    3.28
  -1  -1  10   76.43    3.30
   0   1 -10   -0.17    0.20
   0   1 -10    0.20    0.38
   0  -1  10    0.39    0.43
   0  -1  10    0.09    0.19
  -1   1 -10   15.78    0.94
   1  -1  10   16.29    1.22
   1  -1  10   16.61    0.91
  -2   1 -10    7.35    0.57
   2  -1  10    9.42    0.58
   2  -1  10    9.38    0.96
  -3   1 -10    1.22    0.19
   3  -1  10    1.05    0.20
   3  -1  10    1.06    0.54
   4  -1  10    9.10    1.04
   4  -1  10    8.49    0.50
  -5   1 -10   72.00    3.50
   5  -1  10   72.88    3.61
  -6   1 -10    1.25    0.57
  -6   1 -10    0.09    0.35
  -7   1 -10   40.16    2.03
  -7   1 -10   42.13    2.39
  -8   1 -10   12.51    1.21
  -9   1 -10    5.18    1.02
   8   0 -10   24.88    1.69
  -8   0  10   23.72    1.54
   7   0 -10    6.30    0.91
  -7   0  10    8.00    0.81
   6   0 -10   18.79    1.46
  -6   0  10   20.84    1.39
   5   0 -10   27.42    1.66
   5   0 -10   27.34    1.28
  -5   0  10   21.73    1.74
   4   0 -10    6.17    0.52
  -4   0  10    5.69    0.85
   3   0 -10    7.80    0.71
  -3   0  10    8.67    0.74
   2   0 -10    3.05    0.35
  -2   0  10    4.26    0.77
  -2   0  10    2.45    0.35
   1   0 -10    2.13    0.37
  -1   0  10    2.77    0.34
   0   0 -10   16.46    0.97
   0   0  10   17.73    0.97
   0   0  10   17.73    1.21
  -1   0 -10   77.14    3.44
   1   0  10   80.70    3.60
  -2   0 -10    3.69    0.36
   2   0  10    4.24    0.35
   2   0  10    4.79    0.75
   3   0  10  130.81    5.77
   3   0  10  134.14    5.37
  -4   0 -10    0.75    0.42
  -4   0 -10    0.38    0.24
   4   0  10    1.31    0.58
   4   0  10    0.81    0.14
  -5   0 -10   66.72    3.17
  -5   0 -10   57.89    2.88
   5   0  10   61.95    3.17
  -6   0 -10   43.87    2.42
  -7   0 -10    0.58    0.54
  -7   0 -10   -0.28    0.34
  -8   0 -10    9.70    1.06
  -8   0 -10    9.42    0.98
  -9   0 -10    9.79    1.17
 -10   0 -10    8.40    1.10
 -10   0 -10    8.43    1.23
   8  -1 -10    5.82    1.15
  -8   1  10    9.77    1.05
   7  -1 -10   11.35    1.11
  -7   1  10   13.89    1.14
   6  -1 -10    0.65    0.46
  -6   1  10    0.64    0.44
   4  -1 -10    4.70    0.69
  -4   1  10    2.87    0.63
   3  -1 -10    2.75    0.31
  -3   1  10    1.93    0.59
   2  -1 -10   24.63    1.38
  -2   1  10   28.25    1.61
   1  -1 -10    7.03    0.57
   0  -1 -10    0.60    0.18
   0   1  10    0.95    0.22
   0   1  10    1.36    0.28
   0   1  10    1.51    0.47
  -1  -1 -10   49.14    2.30
   1   1  10   53.31    2.39
   1   1  10   50.46    2.46
   1   1  10   49.82    2.37
  -2  -1 -10    1.13    0.49
  -2  -1 -10    0.72    0.13
   2   1  10    0.71    0.17
   2   1  10    0.74    0.45
  -3  -1 -10   20.96    1.41
  -3  -1 -10   20.16    1.12
   3   1  10   19.56    0.95
   3   1  10   20.81    1.39
  -4  -1 -10    8.43    1.00
  -4  -1 -10    6.76    0.55
   4   1  10    8.71    0.39
   4   1  10    8.88    1.04
  -5  -1 -10    5.76    0.95
  -5  -1 -10    4.34    0.48
   5   1  10    5.23    0.93
  -6  -1 -10    6.70    0.99
  -7  -1 -10   11.36    1.67
  -7  -1 -10   12.64    0.80
  -8  -1 -10   19.33    1.12
  -8  -1 -10   21.41    1.58
  -9  -1 -10    1.31    0.56
 -10  -1 -10   26.61    1.94
   8  -2 -10    1.40    0.73
  -8   2  10    1.75    0.70
   7  -2 -10    3.68    0.66
  -7   2  10    3.44    0.68
   6  -2 -10    6.70    0.84
  -6   2  10    8.13    0.94
   5  -2 -10    3.20    0.63
   4  -2 -10    1.28    0.57
  -4   2  10    1.61    0.56
   3  -2 -10   70.88    3.30
   3  -2 -10   64.12    3.10
   3  -2 -10   71.78    2.81
   3  -2 -10   66.79    2.89
  -3   2  10   63.59    3.16
  -3   2  10   74.81    3.29
   2  -2 -10    1.11    0.32
  -2   2  10    0.54    0.46
   1  -2 -10   98.74    3.88
   1  -2 -10   86.62    3.94
  -1   2  10   88.61    4.01
  -1   2  10   89.59    3.94
   0  -2 -10   26.34    1.40
   0  -2 -10   29.70    1.51
   0   2  10   28.32    1.45
   0   2  10   27.22    1.51
  -1  -2 -10   31.36    1.58
  -1  -2 -10   35.05    1.74
   1   2  10   31.43    1.70
   1   2  10   31.72    1.60
  -2  -2 -10    8.31    0.88
  -2  -2 -10    6.78    0.50
   2   2  10    7.69    0.86
   2   2  10    8.28    0.55
  -3  -2 -10   13.25    0.81
  -3  -2 -10   13.92    1.14
   3   2  10   13.14    0.69
   3   2  10   12.51    1.07
   3   2  10   13.72    0.82
  -4  -2 -10    3.02    0.38
  -4  -2 -10    3.66    0.72
   4   2  10    4.07    0.24
   4   2  10    3.14    0.69
   4   2  10    3.84    0.20
   4   2  10    4.26    0.37
  -5  -2 -10   19.58    1.45
  -5  -2 -10   16.44    1.01
  -6  -2 -10   41.00    2.15
  -6  -2 -10   49.91    2.61
  -7  -2 -10    1.44    0.38
  -8  -2 -10   58.68    3.17
  -9  -2 -10    1.94    0.57
 -10  -2 -10    1.33    0.66
   7  -3 -10   16.28    1.33
  -7   3  10   15.80    1.42
   6  -3 -10    0.88    0.46
  -6   3  10    0.61    0.54
   5  -3 -10   24.09    1.57
   4  -3 -10   12.97    1.31
  -4   3  10   14.15    1.19
   3  -3 -10   11.28    0.79
   3  -3 -10   13.91    1.15
  -3   3  10   11.20    0.82
  -3   3  10   14.43    1.15
   2  -3 -10   10.22    0.73
   2  -3 -10   13.07    1.09
  -2   3  10    9.38    0.74
   1  -3 -10    3.37    0.66
   1  -3 -10    3.05    0.37
  -1   3  10    2.15    0.37
  -1   3  10    4.05    0.59
   0  -3 -10    3.79    0.60
   0  -3 -10    3.07    0.35
   0   3  10    3.35    0.57
  -1  -3 -10  144.85    5.68
  -1  -3 -10  129.20    5.57
   1   3  10  127.71    5.57
  -2  -3 -10   35.34    1.71
  -2  -3 -10   39.58    1.99
   2   3  10   34.34    1.84
  -3  -3 -10  135.18    5.63
  -3  -3 -10  132.16    5.36
   3   3  10  118.48    5.47
  -4  -3 -10   69.91    3.35
  -4  -3 -10   67.50    3.02
   4   3  10   67.88    2.83
  -5  -3 -10    0.20    0.22
  -5  -3 -10    0.39    0.57
   5   3  10    0.50    0.20
  -6  -3 -10  125.69    5.60
  -6  -3 -10  118.79    5.23
  -7  -3 -10   10.13    0.58
  -8  -3 -10    0.76    0.50
  -8  -3 -10    0.57    0.12
  -9  -3 -10    4.13    0.77
 -10  -3 -10   19.52    1.62
   7  -4 -10    5.94    0.76
  -7   4  10    7.88    1.35
   6  -4 -10    4.78    0.79
  -6   4  10    5.30    1.01
   5  -4 -10    3.55    0.63
   4  -4 -10    2.17    0.50
   4  -4 -10    2.68    0.55
  -4   4  10    1.96    0.66
   3  -4 -10    0.29    0.43
   3  -4 -10   -0.66    0.35
   2  -4 -10    0.04    0.46
   2  -4 -10   -0.16    0.27
  -2   4  10   -0.01    0.27
   1  -4 -10   13.75    1.15
   1  -4 -10   12.76    0.81
   1  -4 -10   14.39    0.83
   0  -4 -10   12.80    0.82
   0  -4 -10   15.11    1.14
   0  -4 -10   16.47    1.00
   0   4  10   14.76    0.85
  -1  -4 -10    6.53    0.78
  -1  -4 -10    5.35    0.77
  -1  -4 -10    4.93    0.42
   1   4  10    5.29    0.57
  -2  -4 -10   56.42    2.57
  -2  -4 -10   48.31    2.30
  -2  -4 -10   49.01    2.44
  -3  -4 -10   25.26    1.47
  -3  -4 -10   26.85    1.41
  -3  -4 -10   28.18    1.68
  -4  -4 -10   10.13    1.10
  -4  -4 -10    9.50    0.65
   4   4  10   11.20    0.72
  -5  -4 -10   48.88    2.28
  -5  -4 -10   51.84    2.74
   5   4  10   48.41    2.00
  -6  -4 -10    7.98    1.10
  -6  -4 -10    6.50    0.55
  -6  -4 -10    7.54    0.64
  -7  -4 -10   15.32    1.38
   7   4  10   15.39    0.92
  -8  -4 -10   42.51    2.54
  -9  -4 -10    8.42    1.10
 -10  -4 -10   14.11    1.40
   6  -5 -10    8.98    1.01
  -6   5  10    5.84    1.03
   5  -5 -10    2.23    0.49
   4  -5 -10    0.28    0.53
   4  -5 -10    0.32    0.42
   3  -5 -10    2.73    0.42
   3  -5 -10    3.88    0.69
   2  -5 -10   12.66    1.10
   2  -5 -10   10.25    0.77
   1  -5 -10   13.58    1.17
   1  -5 -10   14.81    0.89
   1  -5 -10   13.88    0.81
   0  -5 -10   41.04    1.92
   0  -5 -10   38.89    2.13
   0  -5 -10   37.73    1.83
  -1  -5 -10    1.37    0.49
  -1  -5 -10    1.91    0.56
  -1  -5 -10    0.97    0.21
  -2  -5 -10   12.62    1.04
  -2  -5 -10   13.57    1.14
  -2  -5 -10   12.55    0.76
  -3  -5 -10    4.91    0.39
  -3  -5 -10    5.09    0.87
  -3  -5 -10    4.80    0.76
   3   5  10    4.84    0.76
  -4  -5 -10    1.23    0.62
  -4  -5 -10    1.20    0.45
  -4  -5 -10    1.14    0.21
   4   5  10    1.22    0.42
  -5  -5 -10   17.16    1.07
  -5  -5 -10   18.04    1.01
  -5  -5 -10   19.05    1.53
   5   5  10   17.97    0.99
  -6  -5 -10   20.33    1.54
  -6  -5 -10   19.39    1.10
  -7  -5 -10   25.29    1.84
  -8  -5 -10    0.38    0.51
  -9  -5 -10   41.34    2.50
 -10  -5 -10    4.24    0.83
 -10  -5 -10    3.03    0.66
   6  -6 -10    7.29    1.10
   5  -6 -10   13.59    1.18
   4  -6 -10   40.08    2.22
   3  -6 -10    1.90    0.49
   3  -6 -10    1.87    0.44
   2  -6 -10   42.40    2.03
   2  -6 -10   43.63    2.40
   1  -6 -10    3.75    0.50
   1  -6 -10    4.22    0.81
   0  -6 -10   13.87    1.19
   0  -6 -10   14.12    0.86
   0  -6 -10   14.98    1.00
  -1  -6 -10   11.47    0.76
  -1  -6 -10   13.56    1.03
  -1  -6 -10   12.10    1.11
  -2  -6 -10   41.54    2.03
  -2  -6 -10   44.43    2.33
  -2  -6 -10   41.10    2.27
   2   6  10   52.26    2.42
  -3  -6 -10    0.13    0.45
  -3  -6 -10   -0.12    0.51
   3   6  10   -0.29    0.46
   3   6  10   -0.47    0.26
  -4  -6 -10   33.88    1.82
  -4  -6 -10   37.79    2.16
   4   6  10   40.17    1.90
   4   6  10   30.36    1.76
  -5  -6 -10   27.48    1.47
  -5  -6 -10   29.64    1.97
  -5  -6 -10   30.51    1.45
   5   6  10   29.56    1.55
  -6  -6 -10   14.40    1.40
  -6  -6 -10   14.97    0.95
   6   6  10   16.48    0.96
  -7  -6 -10   13.02    1.28
  -8  -6 -10    0.77    0.53
  -9  -6 -10    0.94    0.67
 -10  -6 -10    0.40    0.83
 -10  -6 -10    1.92    0.71
   5  -7 -10    0.34    0.70
   4  -7 -10    0.91    0.59
   3  -7 -10   18.63    1.39
   2  -7 -10    6.83    0.84
   1  -7 -10    4.28    0.80
   1  -7 -10    3.77    0.55
   0  -7 -10   36.53    2.17
   0  -7 -10   34.62    1.76
   0   7  10   44.06    2.56
  -1  -7 -10   20.15    1.34
  -1  -7 -10   18.30    1.04
  -1  -7 -10   18.95    1.51
   1   7  10   22.15    1.55
  -2  -7 -10   83.99    4.09
  -2  -7 -10   85.34    3.81
  -2  -7 -10   92.26    4.12
   2   7  10  103.25    4.28
   2   7  10   84.93    3.90
  -3  -7 -10   42.68    2.02
  -3  -7 -10   45.28    2.41
  -3  -7 -10   41.77    2.25
   3   7  10   49.67    2.42
   3   7  10   39.39    2.10
  -4  -7 -10    0.28    0.48
  -4  -7 -10   -0.17    0.54
   4   7  10    0.22    0.55
  -5  -7 -10   31.47    1.66
  -5  -7 -10   33.75    1.60
   5   7  10   34.54    1.87
  -6  -7 -10    6.19    0.65
  -6  -7 -10    5.77    0.99
   6   7  10    7.63    0.90
  -7  -7 -10    0.27    0.53
   7   7  10    0.78    0.43
  -8  -7 -10    6.24    0.98
  -9  -7 -10    7.04    1.03
  -9  -7 -10    5.48    1.14
   4  -8 -10    0.46    0.75
  -4   8  10    1.05    0.72
   3  -8 -10    2.18    0.63
  -3   8  10    1.68    0.59
   2  -8 -10    5.75    0.87
  -2   8  10    6.26    0.82
   1  -8 -10   20.40    1.59
  -1   8  10   23.70    1.61
   0  -8 -10    2.73    0.71
   0   8  10    2.64    0.65
  -1  -8 -10   24.86    2.06
   1   8  10   26.48    1.41
   1   8  10   30.18    1.87
  -2  -8 -10    1.38    0.69
  -2  -8 -10    1.34    0.31
  -2  -8 -10    1.64    0.67
   2   8  10    0.78    0.39
   2   8  10    1.99    0.70
  -3  -8 -10    0.38    0.58
  -3  -8 -10    0.70    0.33
  -3  -8 -10    0.44    0.61
   3   8  10    1.18    0.72
  -4  -8 -10   14.66    1.21
  -4  -8 -10   13.42    1.54
   4   8  10   14.60    1.39
  -5  -8 -10   22.58    1.69
   5   8  10   23.70    1.66
  -6  -8 -10    0.26    0.51
   6   8  10    0.53    0.65
  -7  -8 -10   29.89    1.96
  -8  -8 -10    5.93    1.08
  -8  -8 -10    6.20    1.04
  -9  -8 -10   10.74    1.23
  -9  -8 -10   12.39    1.33
   2  -9 -10   10.72    1.14
  -2   9  10    8.39    1.11
   1  -9 -10    4.18    0.76
  -1   9  10    4.79    0.79
   0  -9 -10   -0.20    0.59
   0   9  10    0.28    0.58
  -1  -9 -10    0.74    0.68
   1   9  10    1.24    0.63
  -2  -9 -10    2.47    0.94
   2   9  10    4.46    0.87
  -3  -9 -10   14.71    1.41
   3   9  10   18.00    1.57
  -4  -9 -10    1.08    0.64
   4   9  10    1.65    0.74
  -5  -9 -10   20.95    1.68
   5   9  10   22.94    1.81
  -6  -9 -10    6.21    0.99
   6   9  10    6.09    1.06
  -7  -9 -10    0.48    0.87
  -8  -9 -10    4.66    1.00
  -8  -9 -10    4.43    0.85
   0 -10 -10    5.37    0.96
  -1 -10 -10    8.73    1.38
   1  10  10    9.15    1.21
   2  10  10    1.74    0.74
   3  10  10   14.52    1.60
  -4 -10 -10    2.12    0.83
   4  10  10    3.76    1.01
  -5 -10 -10    1.03    0.71
   5  10  10    0.05    0.95
  -6 -10 -10    3.67    0.84
  -6 -10 -10    5.24    1.26
   6  10  10    4.31    1.17
   2   8 -11    7.46    1.02
  -2  -8  11    9.21    1.05
   1   8 -11   17.53    1.43
  -1  -8  11   19.41    1.47
   0   8 -11    2.62    0.69
   0  -8  11    2.67    0.66
  -1   8 -11    9.68    1.23
   1  -8  11    6.82    1.07
  -5  -7  11    7.29    1.24
   4   7 -11    0.33    0.50
  -3  -7  11    0.31    0.58
  -2  -7  11    7.26    0.85
   1   7 -11    2.06    0.54
  -1  -7  11    1.93    0.52
   0   7 -11    4.17    0.80
   0  -7  11    4.01    0.76
  -1   7 -11   18.45    1.41
   1  -7  11   19.06    1.36
  -2   7 -11    2.74    0.75
   2  -7  11    3.01    0.60
  -3   7 -11   43.10    2.43
   3  -7  11   37.92    2.34
   6   6 -11    0.13    0.54
  -6  -6  11    1.36    0.64
   5   6 -11    6.00    0.85
  -5  -6  11    6.97    0.97
   4   6 -11    0.39    0.41
  -4  -6  11    0.68    0.56
   3   6 -11    0.76    0.41
  -2  -6  11    2.37    0.50
   1   6 -11   15.81    1.21
  -1  -6  11   13.39    1.15
   0   6 -11    5.85    0.79
   0  -6  11    4.35    0.70
  -1   6 -11   13.52    1.23
   1  -6  11   13.43    1.13
  -2   6 -11   14.04    1.32
   2  -6  11   15.22    1.18
  -3   6 -11    0.86    0.66
   3  -6  11    0.45    0.49
  -4   6 -11   26.67    1.86
   4  -6  11   26.98    1.77
  -5   6 -11   17.17    1.83
   5  -6  11   13.58    1.28
   7   5 -11    0.25    0.59
  -6  -5  11    1.77    0.59
   5   5 -11    0.40    0.41
  -5  -5  11    0.67    0.46
   4   5 -11    0.55    0.38
  -4  -5  11    0.53    0.53
   3   5 -11   40.09    2.23
  -3  -5  11   41.19    2.22
   2   5 -11    2.15    0.53
  -2  -5  11    2.71    0.58
   1   5 -11   52.79    2.73
  -1  -5  11   54.06    2.82
   0   5 -11   15.96    1.11
   0  -5  11   18.17    1.34
  -1   5 -11   11.79    1.12
   1  -5  11   11.23    1.04
  -2   5 -11    5.00    0.83
  -2   5 -11    5.61    0.94
  -2   5 -11    6.67    0.98
   2  -5  11    5.67    0.80
  -3   5 -11    2.53    0.57
  -3   5 -11    2.35    0.71
  -3   5 -11    3.18    0.73
   3  -5  11    2.68    0.60
  -4   5 -11    1.11    0.66
  -4   5 -11    0.77    0.67
   4  -5  11    1.69    0.48
  -5   5 -11    4.93    0.89
  -5   5 -11    3.68    0.86
   5  -5  11    3.82    0.64
   6  -5  11   32.66    2.07
  -7  -4  11   15.53    1.21
  -6  -4  11    0.04    0.47
   5   4 -11   22.31    1.44
  -5  -4  11   21.12    1.45
   4   4 -11    1.33    0.46
  -4  -4  11    0.96    0.49
   3   4 -11   14.80    1.21
  -3  -4  11   15.15    1.23
   2   4 -11   11.82    1.11
   1   4 -11    5.75    0.83
   1   4 -11    4.11    0.60
   0   4 -11   -0.41    0.41
   0   4 -11    0.02    0.46
   0  -4  11    1.09    0.83
   0  -4  11   -0.15    0.48
  -1   4 -11   20.73    1.26
  -1   4 -11   23.17    1.51
  -1   4 -11   24.66    1.51
   1  -4  11   22.00    1.30
  -2   4 -11   44.34    2.36
  -2   4 -11   47.65    2.31
  -2   4 -11   44.69    2.22
   2  -4  11   46.95    2.52
   2  -4  11   43.06    2.17
  -3   4 -11   17.06    1.21
  -3   4 -11   19.45    1.39
  -3   4 -11   21.61    1.37
   3  -4  11   21.43    1.49
   3  -4  11   19.26    1.14
  -4   4 -11   58.13    2.90
  -4   4 -11   63.91    2.93
  -4   4 -11   62.15    3.03
   4  -4  11   67.48    3.31
  -5   4 -11    0.22    0.55
  -5   4 -11   -0.03    0.60
   5  -4  11    0.71    0.48
  -6   4 -11    7.15    1.18
   6  -4  11    6.04    0.88
  -7   4 -11    9.91    1.14
  -7  -3  11    1.60    0.53
  -6  -3  11   12.51    1.00
  -5  -3  11    1.14    0.42
   4   3 -11    4.66    0.81
  -4  -3  11    6.44    0.80
   3   3 -11   10.59    1.43
   3   3 -11   11.16    0.91
  -3  -3  11   12.36    1.10
   2   3 -11    0.62    0.47
  -2  -3  11    0.17    0.44
   1   3 -11   12.03    0.97
  -1  -3  11   16.38    1.26
  -1  -3  11   11.66    0.88
   0   3 -11   55.35    2.69
   0   3 -11   50.23    2.54
   0  -3  11   56.48    2.81
   0  -3  11   52.68    2.51
  -1   3 -11    2.44    0.61
  -1   3 -11    1.35    0.35
   1  -3  11    1.74    0.34
   1  -3  11    2.61    0.63
  -2   3 -11   57.78    2.71
  -2   3 -11   58.85    2.86
   2  -3  11   60.39    3.04
   2  -3  11   59.56    2.69
  -3   3 -11   22.48    1.33
  -3   3 -11   21.82    1.46
  -3   3 -11   20.80    1.22
   3  -3  11   21.06    1.14
   3  -3  11   22.92    1.62
  -4   3 -11    0.80    0.38
  -4   3 -11    1.53    0.50
  -4   3 -11    1.07    0.58
   4  -3  11    1.86    0.57
   5  -3  11   19.57    1.47
  -6   3 -11   43.27    2.37
   6  -3  11   38.40    2.33
  -7   3 -11    1.52    0.55
  -8   3 -11   15.36    1.42
   8   2 -11    6.76    1.10
   7   2 -11    0.12    0.60
  -7  -2  11    2.02    0.50
  -6  -2  11   12.13    1.02
   5   2 -11    6.48    0.78
  -5  -2  11    4.84    0.76
   4   2 -11   -0.06    0.42
  -4  -2  11    0.75    0.48
   3   2 -11   17.81    1.33
   3   2 -11   18.69    1.10
  -3  -2  11   17.88    1.33
   2   2 -11   25.02    1.57
   2   2 -11   34.55    1.83
  -2  -2  11   35.45    1.83
  -2  -2  11   25.78    1.59
   1   2 -11    0.26    0.43
   1   2 -11   -0.34    0.32
  -1  -2  11    0.12    0.46
   0   2 -11  133.28    5.91
   0   2 -11  142.44    6.01
   0  -2  11  141.71    6.10
   0  -2  11  140.93    5.91
  -1   2 -11    1.86    0.54
  -1   2 -11    1.43    0.29
   1  -2  11    2.45    0.64
   1  -2  11    1.87    0.29
  -2   2 -11    0.02    0.44
   2  -2  11    0.18    0.23
   2  -2  11    0.50    0.52
  -3   2 -11    2.44    0.34
   3  -2  11    2.23    0.65
   3  -2  11    2.84    0.38
  -4   2 -11    6.25    0.63
   4  -2  11    8.40    1.00
  -5   2 -11   10.79    1.11
   5  -2  11   10.38    1.10
  -6   2 -11   19.04    1.42
   6  -2  11   18.04    1.43
  -7   2 -11   24.02    1.66
  -8   2 -11    0.09    0.57
  -9   2 -11    6.33    1.16
   8   1 -11    0.96    0.79
  -8  -1  11   -1.08    0.62
   7   1 -11   12.69    1.21
  -7  -1  11   13.72    1.04
   6   1 -11   18.86    1.39
  -6  -1  11   19.87    1.35
   5   1 -11   18.54    1.07
  -5  -1  11   16.27    1.28
  -3  -1  11    2.96    0.64
   2   1 -11   59.28    2.99
  -2  -1  11   71.18    3.15
  -2  -1  11   63.23    3.01
   1   1 -11   36.02    1.88
  -1  -1  11   41.43    2.12
  -1  -1  11   35.13    1.82
   0  -1  11    4.77    0.81
   0  -1  11    4.92    0.50
   1  -1  11    1.69    0.54
   1  -1  11    1.58    0.27
  -2   1 -11   98.11    4.41
   2  -1  11  102.50    4.31
   2  -1  11  105.97    4.65
  -3   1 -11    0.05    0.25
   3  -1  11    0.33    0.49
   3  -1  11    0.59    0.18
   4  -1  11   14.24    0.75
   4  -1  11   15.48    1.31
  -5   1 -11   14.51    1.19
   5  -1  11   13.94    1.31
  -6   1 -11    3.82    0.76
   6  -1  11    4.26    0.83
  -7   1 -11    2.12    0.58
  -8   1 -11    1.05    0.48
  -9   1 -11    1.51    0.66
   8   0 -11    6.71    1.21
  -8   0  11    6.03    0.93
   7   0 -11    0.17    0.57
  -7   0  11    0.50    0.48
   6   0 -11   16.29    1.30
  -6   0  11   17.35    1.21
   5   0 -11   27.42    1.72
  -5   0  11   27.48    1.70
   4   0 -11    0.94    0.26
  -4   0  11    1.12    0.60
  -3   0  11   31.71    1.86
   2   0 -11   17.38    1.13
  -2   0  11   19.86    1.11
  -1   0  11    0.40    0.48
   0   0 -11   92.30    4.19
   0   0  11   99.02    4.15
   0   0  11   96.94    4.31
  -1   0 -11   92.94    4.20
   1   0  11   99.51    4.37
   1   0  11   99.22    4.15
  -2   0 -11   14.75    0.94
   2   0  11   18.56    1.31
   2   0  11   17.41    0.93
  -3   0 -11  121.23    5.30
   3   0  11  130.68    5.58
   3   0  11  124.37    5.12
  -4   0 -11   15.21    1.26
  -4   0 -11   11.85    0.87
   4   0  11   14.53    0.68
   4   0  11   14.37    1.26
  -5   0 -11   28.17    1.82
   5   0  11   26.24    1.83
  -7   0 -11    0.33    0.46
  -7   0 -11    0.41    0.43
  -8   0 -11   18.29    1.43
  -9   0 -11    5.24    0.95
   7  -1 -11    0.87    0.56
  -7   1  11    1.72    0.51
   6  -1 -11    2.69    0.60
  -6   1  11    3.70    0.67
   5  -1 -11    3.35    0.69
  -5   1  11    4.06    0.74
   4  -1 -11    4.73    0.38
   4  -1 -11    3.69    0.83
  -4   1  11    4.46    0.82
   3  -1 -11   38.61    1.73
  -3   1  11   35.77    2.06
   2  -1 -11   17.07    1.04
  -2   1  11   16.72    1.08
   1  -1 -11   93.51    4.28
  -1   1  11  100.60    4.36
  -1   1  11  101.69    4.31
   0  -1 -11   -0.01    0.22
   0   1  11    0.42    0.20
   0   1  11    0.90    0.48
  -1  -1 -11   87.16    3.87
   1   1  11   88.84    3.98
   1   1  11   89.79    3.79
  -2  -1 -11   51.34    2.40
  -2  -1 -11   41.18    2.12
   2   1  11   45.10    2.38
   2   1  11   45.52    2.04
  -3  -1 -11    4.23    0.83
   3   1  11    2.97    0.30
   3   1  11    3.45    0.72
  -4  -1 -11    4.39    0.81
   4   1  11    4.39    0.79
   4   1  11    4.74    0.28
  -5  -1 -11   47.28    2.39
  -5  -1 -11   52.58    2.74
   5   1  11   51.33    2.75
  -6  -1 -11    0.53    0.54
  -7  -1 -11   45.81    2.58
  -7  -1 -11   44.05    2.10
  -8  -1 -11   14.94    1.35
  -9  -1 -11   18.97    1.48
 -10  -1 -11   27.01    1.88
   7  -2 -11    3.23    0.62
  -7   2  11    3.88    0.71
   6  -2 -11   24.83    1.62
  -6   2  11   25.78    1.62
   5  -2 -11   -0.26    0.39
  -5   2  11    0.94    0.46
   4  -2 -11   34.54    2.02
  -4   2  11   35.79    2.02
   3  -2 -11   25.29    1.10
   3  -2 -11   19.98    1.36
   3  -2 -11   24.88    1.58
  -3   2  11   26.53    1.62
   2  -2 -11    6.17    0.60
  -2   2  11    5.62    0.57
   1  -2 -11   12.57    0.88
  -1   2  11   11.24    0.94
  -1   2  11    8.87    0.75
   0  -2 -11    0.36    0.17
   0  -2 -11    1.00    0.45
   0   2  11    0.75    0.23
   0   2  11    1.19    0.46
  -1  -2 -11    2.13    0.28
  -1  -2 -11    3.57    0.61
   1   2  11    3.30    0.61
   1   2  11    2.90    0.39
  -2  -2 -11    0.01    0.45
   2   2  11    0.38    0.46
   2   2  11    0.66    0.16
   2   2  11    0.56    0.21
  -3  -2 -11   46.88    2.40
   3   2  11   44.08    1.94
   3   2  11   41.91    2.32
   3   2  11   45.46    2.13
  -4  -2 -11   26.92    1.73
  -4  -2 -11   24.90    1.33
   4   2  11   26.57    1.33
   4   2  11   25.56    1.10
   4   2  11   25.29    1.68
  -5  -2 -11   19.36    1.16
  -5  -2 -11   22.80    1.61
  -6  -2 -11    9.31    1.12
  -7  -2 -11    0.88    0.46
  -7  -2 -11    0.66    0.28
  -8  -2 -11    9.06    1.00
  -9  -2 -11    0.32    0.51
 -10  -2 -11    4.22    0.79
   7  -3 -11   14.02    1.24
  -7   3  11   15.66    1.33
   6  -3 -11   16.91    1.23
  -6   3  11   16.40    1.39
   5  -3 -11   33.99    1.98
  -5   3  11   34.49    2.00
   4  -3 -11    8.72    0.92
  -4   3  11    7.30    1.03
   3  -3 -11   12.38    0.96
   3  -3 -11   13.41    1.23
   2  -3 -11   39.58    2.09
   2  -3 -11   45.40    2.35
  -2   3  11   46.83    2.15
   1  -3 -11    1.55    0.55
   1  -3 -11    1.50    0.39
  -1   3  11    1.40    0.45
   0  -3 -11    5.67    0.53
   0   3  11    6.61    0.58
  -1  -3 -11   34.12    1.74
  -1  -3 -11   40.92    1.95
   1   3  11   35.76    1.84
   1   3  11   36.72    1.89
  -2  -3 -11    5.58    0.83
   2   3  11    4.89    0.77
   2   3  11    4.38    0.44
  -3  -3 -11   46.12    2.36
   3   3  11   44.87    2.12
   3   3  11   40.70    2.25
  -4  -3 -11   18.52    1.03
  -4  -3 -11   19.24    1.45
   4   3  11   18.76    1.08
   4   3  11   18.03    0.85
  -5  -3 -11    0.81    0.26
  -5  -3 -11    1.22    0.55
   5   3  11    1.12    0.23
  -6  -3 -11    1.24    0.64
  -6  -3 -11    0.16    0.34
   6   3  11    0.84    0.26
  -7  -3 -11    2.83    0.75
  -8  -3 -11   -0.61    0.48
  -9  -3 -11    2.79    0.63
 -10  -3 -11   18.00    1.52
   6  -4 -11    5.25    0.86
  -6   4  11    4.29    0.92
   5  -4 -11   -0.25    0.46
  -5   4  11   -0.52    0.61
   4  -4 -11   18.65    1.32
   3  -4 -11   34.34    1.84
   3  -4 -11   33.76    2.00
  -3   4  11   35.13    1.71
   2  -4 -11    3.28    0.39
   2  -4 -11    4.59    0.80
  -2   4  11    3.98    0.58
   1  -4 -11   59.91    3.01
   1  -4 -11   58.62    2.80
   1  -4 -11   66.59    2.71
  -1   4  11   61.82    2.68
   0  -4 -11   55.78    2.64
   0  -4 -11   63.74    2.70
   0  -4 -11   56.88    2.85
   0   4  11   56.35    2.54
  -1  -4 -11   27.60    1.50
  -1  -4 -11   22.10    1.25
  -1  -4 -11   24.72    1.50
   1   4  11   22.58    1.29
  -2  -4 -11   96.89    4.33
  -2  -4 -11  107.58    4.45
  -2  -4 -11   91.03    4.18
  -3  -4 -11    0.24    0.50
  -4  -4 -11   18.48    1.45
  -4  -4 -11   18.54    1.02
   4   4  11   18.73    1.03
  -5  -4 -11   11.88    0.79
  -5  -4 -11   13.44    1.32
  -6  -4 -11   14.07    1.33
  -6  -4 -11   11.19    0.80
  -7  -4 -11   24.01    1.77
  -8  -4 -11   15.21    1.33
  -9  -4 -11   -0.14    0.62
 -10  -4 -11   24.37    1.78
   6  -5 -11    2.79    0.69
   5  -5 -11    6.44    0.84
   4  -5 -11    3.26    0.60
   3  -5 -11   10.20    0.91
   3  -5 -11   10.22    0.97
   2  -5 -11   31.67    1.88
   2  -5 -11   29.74    1.56
   1  -5 -11   -0.12    0.41
   1  -5 -11   -0.28    0.29
   1  -5 -11    0.31    0.28
   0  -5 -11    5.87    0.87
   0  -5 -11    6.25    0.52
   0  -5 -11    6.79    0.77
  -1  -5 -11    2.98    0.44
  -1  -5 -11    4.83    0.76
  -2  -5 -11    2.05    0.60
  -2  -5 -11    2.01    0.62
  -3  -5 -11    9.43    1.10
  -3  -5 -11    8.48    0.95
   3   5  11    9.85    0.95
  -4  -5 -11   46.65    2.39
  -4  -5 -11   52.18    2.74
  -4  -5 -11   49.35    2.26
   4   5  11   52.38    2.34
  -5  -5 -11    0.22    0.57
  -5  -5 -11    0.26    0.41
  -5  -5 -11   -0.16    0.26
   5   5  11    0.24    0.32
  -6  -5 -11   52.63    2.38
  -6  -5 -11   56.16    3.38
  -6  -5 -11   54.23    2.52
  -7  -5 -11    1.18    0.54
  -8  -5 -11    3.85    0.69
  -9  -5 -11   14.62    1.32
 -10  -5 -11    2.67    0.85
   5  -6 -11    4.98    0.93
   4  -6 -11   13.01    1.12
   3  -6 -11    0.95    0.46
   2  -6 -11    5.37    0.72
   2  -6 -11    7.87    0.88
   1  -6 -11    1.34    0.65
   1  -6 -11    1.56    0.35
   0  -6 -11    0.24    0.39
   0  -6 -11    0.90    0.30
   0  -6 -11    0.21    0.47
  -1  -6 -11    4.72    0.83
  -1  -6 -11    6.14    0.91
  -1  -6 -11    3.51    0.50
  -2  -6 -11   17.63    1.06
  -2  -6 -11   20.62    1.40
  -2  -6 -11   20.65    1.43
  -3  -6 -11    0.26    0.57
  -3  -6 -11    0.23    0.48
  -3  -6 -11    0.10    0.28
   3   6  11    0.15    0.55
  -4  -6 -11   15.03    0.84
  -4  -6 -11   15.31    1.41
  -4  -6 -11   13.73    1.15
   4   6  11   15.58    1.18
  -5  -6 -11    9.55    1.17
  -5  -6 -11    8.69    0.69
  -5  -6 -11    9.60    0.90
   5   6  11   10.30    0.91
  -6  -6 -11   -0.01    0.52
  -6  -6 -11   -0.14    0.35
  -6  -6 -11   -0.31    0.51
   6   6  11    0.01    0.32
  -7  -6 -11    6.93    0.96
  -8  -6 -11    3.80    0.69
  -9  -6 -11   -0.31    0.70
 -10  -6 -11   11.85    1.20
 -10  -6 -11   10.86    1.35
   4  -7 -11    3.57    0.68
   3  -7 -11    6.66    0.85
   2  -7 -11   11.44    1.05
   1  -7 -11    3.39    0.70
   1  -7 -11    5.60    1.08
   0  -7 -11   24.87    1.41
   0  -7 -11   28.21    1.85
   0   7  11   30.72    1.87
  -1  -7 -11    9.23    1.09
  -1  -7 -11    9.08    1.00
  -1  -7 -11    8.40    0.68
   1   7  11    9.86    1.14
  -2  -7 -11   66.76    3.17
  -2  -7 -11   71.40    3.46
  -2  -7 -11   69.53    3.51
   2   7  11   84.28    3.66
  -3  -7 -11    0.61    0.59
  -3  -7 -11    0.01    0.56
   3   7  11    1.11    0.65
  -4  -7 -11    7.72    1.11
  -4  -7 -11    7.47    0.99
   4   7  11    9.15    1.10
  -5  -7 -11    7.99    0.89
  -5  -7 -11    8.26    0.64
  -5  -7 -11    7.22    1.06
   5   7  11    8.34    1.03
  -6  -7 -11    1.67    0.64
   6   7  11    2.24    0.57
  -7  -7 -11    0.23    0.57
  -8  -7 -11    1.40    0.65
  -9  -7 -11   10.70    1.37
   3  -8 -11    0.08    0.70
  -3   8  11    0.66    0.67
   2  -8 -11   28.18    1.86
  -2   8  11   34.10    1.94
   1  -8 -11    5.93    0.96
  -1   8  11    5.85    0.92
   0  -8 -11    4.80    0.93
   0   8  11    4.59    0.83
  -1  -8 -11    7.66    1.10
   1   8  11    8.52    1.12
  -2  -8 -11    0.37    0.64
  -2  -8 -11   -0.10    0.54
  -2  -8 -11    0.48    0.60
   2   8  11    0.20    1.05
  -3  -8 -11    0.19    0.58
  -3  -8 -11    0.50    0.65
   3   8  11    1.32    0.74
  -4  -8 -11   17.69    1.51
  -4  -8 -11   16.58    1.38
   4   8  11   21.42    1.65
  -5  -8 -11    7.19    1.03
   5   8  11    6.78    1.18
  -6  -8 -11   16.13    1.42
  -7  -8 -11   32.64    2.14
  -8  -8 -11    1.34    0.74
   2  -9 -11    1.00    0.75
  -2   9  11    0.94    0.77
   1  -9 -11   -0.03    0.68
  -1   9  11   -0.03    0.70
   0  -9 -11    2.98    0.77
   0   9  11    4.38    0.75
  -1  -9 -11    4.43    0.92
   1   9  11    7.07    1.02
  -2  -9 -11    4.33    0.93
   2   9  11    4.67    0.90
  -3  -9 -11    5.78    1.05
  -3  -9 -11    8.38    1.26
   3   9  11    9.24    1.32
  -4  -9 -11    0.14    0.60
   4   9  11    0.13    0.78
  -5  -9 -11   29.66    2.05
   5   9  11   32.18    2.19
  -6  -9 -11    3.08    0.75
   6   9  11    2.47    0.95
  -7  -9 -11    6.16    1.12
  -8  -9 -11    9.03    1.31
   0 -10 -11    0.29    0.87
   0  10  11    2.58    0.85
  -1 -10 -11    5.12    1.13
   1  10  11    7.54    1.38
  -2 -10 -11   -0.46    0.91
   2  10  11    0.75    0.86
   3  10  11    5.35    1.13
  -4 -10 -11   -0.12    0.76
   4  10  11    0.93    0.90
  -5 -10 -11    2.59    0.86
   5  10  11    1.41    1.03
  -6 -10 -11    1.86    0.81
   3   7 -12    4.74    0.82
  -3  -7  12    4.18    0.71
   2   7 -12   10.19    1.00
  -2  -7  12   13.43    1.14
  -1  -7  12    0.12    0.58
   0   7 -12    8.28    1.10
   0  -7  12    9.26    1.04
  -1   7 -12   14.66    1.28
   1  -7  12   12.41    1.15
  -2   7 -12    1.32    0.85
  -2   7 -12    3.12    0.82
   2  -7  12    2.72    0.65
   5   6 -12   -0.33    0.54
  -5  -6  12   -0.26    0.65
   4   6 -12    5.84    0.77
   3   6 -12    7.81    0.80
  -3  -6  12    6.45    0.87
   2   6 -12    0.61    0.40
  -2  -6  12    0.56    0.49
   1   6 -12   36.07    2.11
  -1  -6  12   38.72    2.18
   0   6 -12    5.35    0.85
   0  -6  12    6.14    0.77
  -1   6 -12    8.30    1.06
  -1   6 -12    6.37    1.05
   1  -6  12    8.04    0.86
  -2   6 -12   11.97    1.31
  -2   6 -12   14.66    1.31
   2  -6  12   13.74    1.13
  -3   6 -12    0.92    0.74
  -3   6 -12    1.30    0.70
   3  -6  12   -0.20    0.55
  -4   6 -12   -0.26    0.82
  -4   6 -12    1.62    0.83
   4  -6  12    0.90    0.65
   6   5 -12   27.66    1.79
  -6  -5  12   29.34    1.79
   5   5 -12   10.45    0.93
  -5  -5  12   11.27    1.14
   4   5 -12    7.90    0.85
  -4  -5  12    9.60    1.01
   3   5 -12    9.46    0.91
   2   5 -12    1.96    0.46
  -2  -5  12    0.94    0.41
   1   5 -12    8.99    0.95
  -1  -5  12   11.65    1.01
   0   5 -12   -0.15    0.44
   0  -5  12    0.15    0.42
  -1   5 -12    5.45    0.97
  -1   5 -12    6.69    0.95
   1  -5  12    6.57    0.82
  -2   5 -12    0.61    0.57
   2  -5  12    0.05    0.42
  -3   5 -12    8.64    1.13
  -3   5 -12    5.65    1.56
   3  -5  12    6.64    0.87
  -4   5 -12   11.19    1.29
   4  -5  12   10.59    1.02
  -5   5 -12    9.55    1.55
   5  -5  12   10.10    1.04
  -6   5 -12    1.68    0.69
   6  -5  12    1.22    0.71
  -6  -4  12    1.95    0.56
   5   4 -12   35.46    2.04
  -5  -4  12   36.21    2.07
   4   4 -12   14.37    1.09
  -4  -4  12   12.60    1.10
   3   4 -12    7.59    0.83
  -3  -4  12    6.86    0.87
   2   4 -12   11.86    1.07
  -2  -4  12   12.56    1.10
   1   4 -12    0.93    0.45
  -1  -4  12    1.67    0.50
   0   4 -12    4.41    0.83
   0  -4  12    6.89    0.85
  -1   4 -12   11.31    1.13
   1  -4  12   12.08    1.09
  -2   4 -12    3.59    0.73
   2  -4  12    3.55    0.70
   2  -4  12    4.87    0.77
  -3   4 -12    6.95    0.97
   3  -4  12    5.83    0.83
   3  -4  12    5.24    0.76
  -4   4 -12   11.26    1.12
  -4   4 -12   11.06    1.23
   4  -4  12   11.33    1.05
   5  -4  12   13.86    1.16
  -6   4 -12    0.77    0.54
   6  -4  12   -0.15    0.61
  -7   4 -12    2.12    0.68
  -7  -3  12    2.89    0.66
  -6  -3  12   12.19    1.01
  -5  -3  12    2.01    0.49
  -4  -3  12    1.51    0.44
   3   3 -12   44.03    2.38
  -3  -3  12   44.03    2.36
   2   3 -12   24.98    1.63
  -2  -3  12   25.87    1.70
   0   3 -12   35.51    1.95
   0  -3  12   33.48    2.43
   0  -3  12   30.52    1.69
  -1   3 -12    5.95    0.79
  -1   3 -12    9.04    1.01
   1  -3  12    7.33    1.47
   1  -3  12    7.00    0.73
  -2   3 -12   57.95    2.85
   2  -3  12   59.53    3.32
   2  -3  12   54.91    2.60
  -3   3 -12    0.51    0.56
   3  -3  12    0.46    0.47
   3  -3  12    1.32    0.35
   4  -3  12    2.67    0.62
   4  -3  12    3.10    0.55
   5  -3  12    2.56    0.57
  -6   3 -12   11.69    1.07
   6  -3  12    8.37    1.00
  -7   3 -12    3.04    0.64
   7   2 -12    5.50    1.02
  -7  -2  12    2.94    0.60
  -6  -2  12   -0.44    0.44
  -5  -2  12   17.98    1.26
   4   2 -12   22.41    1.40
  -4  -2  12   23.76    1.52
   3   2 -12   10.74    0.84
  -3  -2  12    8.15    0.97
   1   2 -12    6.95    0.91
  -1  -2  12    4.74    0.51
   0   2 -12    4.05    0.81
   0  -2  12    4.80    0.85
   0  -2  12    3.72    0.52
  -1   2 -12   17.14    1.27
   1  -2  12   16.13    1.31
   1  -2  12   15.06    0.98
   2  -2  12   14.63    1.26
   2  -2  12   13.75    0.85
  -3   2 -12   24.87    1.52
   3  -2  12   25.82    1.30
   3  -2  12   26.59    1.77
   4  -2  12   71.30    3.59
  -5   2 -12    0.48    0.48
   5  -2  12    0.12    0.43
  -6   2 -12   44.46    2.43
   6  -2  12   40.16    2.45
  -7   2 -12   11.67    1.15
  -8   2 -12   23.12    1.64
   7   1 -12    9.51    1.12
  -7  -1  12    6.58    0.94
   6   1 -12    4.41    0.82
  -6  -1  12    4.90    0.75
  -5  -1  12   10.22    0.91
   4   1 -12   21.97    1.29
  -4  -1  12   22.59    1.50
  -3  -1  12    0.05    0.43
  -1  -1  12    4.02    0.59
   0  -1  12    2.00    0.60
   0  -1  12    1.27    0.32
   1  -1  12    0.13    0.27
   1  -1  12    0.50    0.53
   2  -1  12   15.40    0.89
   2  -1  12   14.81    1.28
   3  -1  12    1.20    0.25
   3  -1  12    1.23    0.57
   4  -1  12    7.08    0.99
   4  -1  12    7.80    0.51
  -5   1 -12   22.76    1.60
   5  -1  12   21.63    1.63
  -6   1 -12    0.60    0.43
   6  -1  12   -0.79    0.46
  -7   1 -12    5.89    0.86
  -8   1 -12    2.07    0.59
  -9   1 -12    5.55    1.11
   7   0 -12    1.75    0.66
  -7   0  12    3.06    0.59
   6   0 -12   18.51    1.42
  -6   0  12   19.96    1.34
  -5   0  12    1.82    0.46
   4   0 -12    4.21    0.58
  -4   0  12    4.91    0.77
  -3   0  12    2.74    1.03
  -2   0  12   18.50    1.17
  -1   0  12    1.77    0.37
   0   0  12   23.14    1.54
   0   0  12   23.67    1.28
   1   0  12    3.08    0.44
   1   0  12    3.56    0.71
  -2   0 -12   32.38    1.78
   2   0  12   38.84    2.12
   2   0  12   37.57    1.72
  -3   0 -12   37.01    1.99
  -3   0 -12   26.14    1.55
   3   0  12   31.78    1.96
   3   0  12   32.02    1.47
  -4   0 -12    8.98    1.05
   4   0  12    6.51    0.42
   4   0  12    6.49    0.98
   5   0  12    2.65    0.76
  -6   0 -12    1.43    0.55
   6   0  12    1.24    0.58
  -7   0 -12   11.59    1.05
  -7   0 -12   10.31    0.91
  -8   0 -12    4.12    0.82
  -9   0 -12   12.08    1.32
   7  -1 -12    2.94    0.67
  -7   1  12    2.25    0.59
   6  -1 -12   14.73    1.21
  -6   1  12   14.91    1.18
   5  -1 -12    1.32    0.51
  -5   1  12    1.04    0.47
   4  -1 -12   49.71    2.63
   4  -1 -12   50.51    2.20
  -4   1  12   51.47    2.65
  -3   1  12    5.54    0.85
  -2   1  12   52.06    2.54
   1  -1 -12   26.86    1.64
  -1   1  12   32.48    1.66
  -1   1  12   37.77    1.93
   0   1  12    2.54    0.64
   0   1  12    1.31    0.29
  -1  -1 -12   51.59    2.37
  -1  -1 -12   38.72    2.12
   1   1  12   44.26    2.09
   1   1  12   45.22    2.37
  -2  -1 -12   16.25    1.23
   2   1  12   14.43    1.27
   2   1  12   13.94    0.83
  -3  -1 -12   16.46    1.29
   3   1  12   12.80    0.75
   3   1  12   14.27    1.30
  -4  -1 -12   46.18    2.43
   4   1  12   40.05    1.77
   4   1  12   41.60    2.40
  -5  -1 -12   52.36    2.79
   5   1  12   50.15    2.83
  -6  -1 -12   16.49    1.38
  -7  -1 -12   64.46    3.38
  -8  -1 -12    0.15    0.50
  -9  -1 -12   11.57    1.17
   7  -2 -12    0.44    0.68
  -7   2  12    1.57    0.63
   6  -2 -12    9.11    0.94
  -6   2  12   10.30    1.03
   5  -2 -12    2.35    0.53
   4  -2 -12   11.32    1.06
  -4   2  12   11.27    1.10
   3  -2 -12    3.23    0.34
   3  -2 -12    4.09    0.54
   3  -2 -12    3.95    0.73
  -3   2  12    4.03    0.73
   2  -2 -12    2.92    0.50
  -2   2  12    3.37    0.66
   1  -2 -12    3.79    0.55
  -1   2  12    5.53    0.59
   0  -2 -12    9.94    0.96
   0   2  12   10.28    0.99
   0   2  12    8.23    0.65
  -1  -2 -12   10.50    0.82
  -1  -2 -12   16.22    1.15
   1   2  12   14.00    0.84
   1   2  12   13.97    1.11
   1   2  12   12.38    0.88
  -2  -2 -12    8.00    0.95
   2   2  12    6.53    0.57
   2   2  12    6.00    0.49
   2   2  12    7.65    0.92
  -3  -2 -12   71.67    3.32
   3   2  12   62.93    3.23
   3   2  12   68.68    3.06
   3   2  12   64.61    2.84
  -4  -2 -12    0.25    0.29
  -4  -2 -12    0.45    0.54
   4   2  12    0.51    0.63
   4   2  12    0.30    0.13
  -5  -2 -12   77.40    3.68
  -5  -2 -12   88.72    4.08
  -6  -2 -12   27.56    1.89
  -7  -2 -12    2.64    0.72
  -8  -2 -12   15.20    1.30
  -9  -2 -12    4.91    0.97
 -10  -2 -12    0.72    0.84
   6  -3 -12   12.10    1.04
  -6   3  12   12.36    1.23
   5  -3 -12    2.78    0.57
  -5   3  12    2.86    0.66
   4  -3 -12    7.26    0.82
  -4   3  12    6.97    0.94
   3  -3 -12    0.62    0.44
   2  -3 -12    9.85    0.72
   2  -3 -12    9.74    1.00
  -2   3  12    9.32    0.94
   1  -3 -12    0.47    0.49
   1  -3 -12    0.13    0.39
  -1   3  12    0.32    0.45
   0  -3 -12    0.21    0.42
   0   3  12   -0.19    0.30
   0   3  12    0.80    0.47
  -1  -3 -12   30.94    1.74
  -1  -3 -12   41.62    2.01
   1   3  12   33.69    1.82
   1   3  12   37.18    1.92
  -2  -3 -12    0.97    0.56
   2   3  12    1.07    0.52
  -3  -3 -12   15.93    1.30
   3   3  12   13.73    1.25
   3   3  12   14.84    0.93
  -4  -3 -12    2.05    0.67
  -4  -3 -12    2.75    0.38
   4   3  12    2.61    0.47
   4   3  12    2.07    0.25
  -5  -3 -12    0.15    0.58
   5   3  12    0.19    0.28
  -6  -3 -12    0.66    0.57
  -7  -3 -12   21.33    1.65
  -8  -3 -12   22.22    1.63
  -9  -3 -12    5.11    1.00
 -10  -3 -12   30.08    1.93
   6  -4 -12    4.96    0.71
  -6   4  12    3.80    0.91
   5  -4 -12    0.22    0.47
   4  -4 -12   13.23    1.05
  -4   4  12   14.31    1.13
   3  -4 -12   15.98    1.22
  -3   4  12   16.23    1.10
   2  -4 -12   17.21    1.32
  -2   4  12   17.76    1.10
   1  -4 -12   56.79    2.81
   1  -4 -12   61.58    3.10
   1  -4 -12   67.48    2.77
  -1   4  12   63.49    2.76
   0  -4 -12    1.64    0.56
   0  -4 -12    1.25    0.47
   0   4  12    0.94    0.41
  -1  -4 -12   28.15    1.70
  -1  -4 -12   32.15    1.70
  -1  -4 -12   24.39    1.43
   1   4  12   28.25    1.52
  -2  -4 -12    7.71    0.87
  -2  -4 -12    5.63    0.89
   2   4  12    5.07    0.77
  -3  -4 -12    1.46    0.62
  -4  -4 -12   15.75    1.41
  -4  -4 -12   15.93    0.94
   4   4  12   15.82    0.98
  -5  -4 -12   13.33    1.31
  -5  -4 -12   12.27    0.78
   5   4  12   12.58    0.89
  -6  -4 -12   14.50    1.33
   6   4  12   12.99    0.92
  -7  -4 -12   26.24    1.84
  -7  -4 -12   23.49    1.33
  -8  -4 -12   10.48    1.13
  -9  -4 -12    0.61    0.60
 -10  -4 -12    1.30    0.86
   5  -5 -12   10.16    1.03
   4  -5 -12    2.67    0.51
   3  -5 -12   19.78    1.37
   2  -5 -12   24.30    1.61
   1  -5 -12    5.15    0.56
   1  -5 -12    3.67    0.43
   0  -5 -12   26.38    1.69
   0  -5 -12   29.55    1.53
   0  -5 -12   24.16    1.41
  -1  -5 -12   38.10    2.15
  -1  -5 -12   35.36    1.84
  -1  -5 -12   42.04    2.09
  -2  -5 -12    2.76    0.69
  -2  -5 -12    2.06    0.61
  -3  -5 -12   52.03    2.76
  -3  -5 -12   58.14    2.95
   3   5  12   60.12    2.74
  -4  -5 -12   10.09    1.05
  -4  -5 -12   10.53    0.72
  -4  -5 -12   12.11    1.26
   4   5  12   12.28    0.95
  -5  -5 -12   13.40    1.30
  -5  -5 -12   12.47    0.80
  -5  -5 -12   12.72    1.08
   5   5  12   12.56    0.82
  -6  -5 -12   76.06    3.74
  -6  -5 -12   66.22    3.15
  -7  -5 -12   -0.28    0.50
  -8  -5 -12    6.19    1.05
  -9  -5 -12    5.48    1.09
 -10  -5 -12    0.76    1.02
   5  -6 -12    3.06    0.86
   4  -6 -12    0.71    0.55
   3  -6 -12    1.19    0.51
   2  -6 -12    2.21    0.53
   1  -6 -12    8.14    0.81
   1  -6 -12    8.89    0.96
   0  -6 -12    8.18    0.77
   0  -6 -12   11.04    0.91
  -1  -6 -12    4.34    0.88
  -1  -6 -12    3.53    0.58
  -1  -6 -12    5.97    0.93
  -2  -6 -12   47.60    2.46
  -2  -6 -12   41.97    2.14
  -2  -6 -12   42.55    2.44
   2   6  12   51.79    2.54
  -3  -6 -12    5.12    1.05
  -3  -6 -12    4.44    0.79
   3   6  12    5.16    0.99
  -4  -6 -12   29.99    1.96
  -4  -6 -12   27.37    1.72
   4   6  12   31.46    1.74
  -5  -6 -12   10.48    0.77
  -5  -6 -12    9.98    1.38
  -5  -6 -12   12.03    1.08
   5   6  12   10.80    0.97
  -6  -6 -12   -0.37    0.46
  -6  -6 -12   -0.63    0.41
  -6  -6 -12    0.43    0.42
  -7  -6 -12   13.43    1.28
  -8  -6 -12   15.10    1.32
  -9  -6 -12    3.24    0.72
   4  -7 -12    1.03    0.80
   3  -7 -12    3.11    0.64
   2  -7 -12    3.30    0.61
   1  -7 -12   19.28    1.44
   0  -7 -12    3.72    0.79
   0  -7 -12    2.79    0.48
  -1  -7 -12    1.02    0.41
  -1  -7 -12    0.33    0.54
  -2  -7 -12    8.74    1.18
  -2  -7 -12    7.48    1.08
   2   7  12    9.98    1.19
  -3  -7 -12    1.94    0.71
  -3  -7 -12    1.33    0.71
   3   7  12    2.02    0.75
  -4  -7 -12    0.41    0.63
  -4  -7 -12    0.28    0.60
   4   7  12    1.10    0.67
  -5  -7 -12    2.07    0.62
  -5  -7 -12    2.21    0.73
   5   7  12    2.49    0.67
  -6  -7 -12   19.31    1.53
  -6  -7 -12   15.27    1.11
   6   7  12   17.75    1.21
  -7  -7 -12    4.26    0.85
  -8  -7 -12    7.41    1.08
  -9  -7 -12   23.52    1.80
   3  -8 -12    4.78    0.81
  -3   8  12    3.87    1.11
   2  -8 -12   23.03    1.60
  -2   8  12   22.21    1.59
   1  -8 -12    0.53    0.61
  -1   8  12    0.28    0.61
   0  -8 -12   12.14    1.25
   0   8  12   13.27    1.26
  -1  -8 -12   11.34    1.24
  -1  -8 -12    9.71    1.18
   1   8  12   12.02    1.34
  -2  -8 -12    1.87    1.18
  -2  -8 -12    1.65    0.68
   2   8  12    1.65    0.72
  -3  -8 -12    1.62    0.83
  -3  -8 -12    3.03    0.77
   3   8  12    3.54    0.90
  -4  -8 -12    8.19    1.19
  -4  -8 -12    5.57    0.94
   4   8  12    8.53    1.32
  -5  -8 -12    3.29    0.77
  -5  -8 -12    3.17    0.74
   5   8  12    3.28    0.87
  -6  -8 -12   17.48    1.60
  -7  -8 -12    5.56    1.08
  -8  -8 -12    2.78    0.82
   1  -9 -12    2.55    0.78
  -1   9  12    2.60    0.82
   0  -9 -12   11.94    1.36
   0   9  12   13.88    1.45
  -1  -9 -12    0.75    0.73
   1   9  12    0.96    0.67
  -2  -9 -12   33.01    2.33
   2   9  12   42.14    2.49
  -3  -9 -12   12.26    1.48
  -3  -9 -12   12.10    1.51
   3   9  12   15.12    1.59
  -4  -9 -12    5.20    0.98
  -4  -9 -12    4.82    0.98
   4   9  12    3.60    1.05
  -5  -9 -12   20.95    1.68
   5   9  12   18.55    3.12
  -6  -9 -12    0.92    0.72
  -7  -9 -12    3.18    0.82
   1  10  12    9.00    1.42
  -2 -10 -12    0.08    0.99
   2  10  12    1.73    0.90
  -3 -10 -12    2.70    1.08
   3  10  12    3.24    1.09
  -4 -10 -12    6.31    1.20
   4  10  12    7.33    1.34
  -5 -10 -12    4.50    1.00
   1   7 -13    2.99    0.62
   0   7 -13   15.18    1.45
   0  -7  13   18.08    1.53
   3   6 -13    0.34    0.50
  -3  -6  13    0.20    0.64
   2   6 -13    7.45    0.86
  -2  -6  13    6.27    0.92
   1   6 -13   11.98    1.04
  -1  -6  13    9.55    1.01
   0   6 -13    2.52    0.61
   0  -6  13    3.11    0.57
  -1   6 -13    6.20    1.10
   1  -6  13    5.07    0.88
  -2   6 -13    7.95    1.22
   2  -6  13   11.50    1.03
  -3   6 -13    0.70    0.86
  -3   6 -13   -0.30    0.80
   3  -6  13    0.60    0.64
   5   5 -13    9.41    1.03
  -5  -5  13   10.68    1.10
   4   5 -13    5.95    0.75
   3   5 -13    7.69    0.78
  -3  -5  13    5.65    0.92
   2   5 -13    5.85    0.74
  -2  -5  13    5.91    0.78
   1   5 -13    3.81    0.72
  -1  -5  13    5.30    0.72
   0   5 -13    1.98    0.59
  -1   5 -13   13.43    1.28
   1  -5  13   14.79    1.16
  -2   5 -13    8.87    1.12
   2  -5  13    9.28    0.93
  -3   5 -13   30.41    2.00
   3  -5  13   29.60    1.84
  -4   5 -13    9.24    1.38
   4  -5  13    8.63    0.98
   5  -5  13   11.39    1.16
  -6  -4  13    3.89    0.69
  -5  -4  13   11.92    1.08
   4   4 -13    4.79    0.71
  -4  -4  13    4.27    0.69
   3   4 -13    1.19    0.39
   2   4 -13    3.85    0.63
  -2  -4  13    3.28    0.67
   1   4 -13   17.84    1.27
  -1  -4  13   16.67    1.32
   0   4 -13    0.21    0.42
   0  -4  13   -0.15    0.40
  -1   4 -13   34.60    2.02
   1  -4  13   35.02    2.06
  -2   4 -13    0.04    0.48
   2  -4  13   -0.01    0.42
  -3   4 -13    5.69    1.01
   3  -4  13    5.28    0.79
   4  -4  13   22.27    1.58
   5  -4  13    1.08    0.57
  -6   4 -13    1.09    0.63
   6  -4  13    0.76    0.70
  -6  -3  13    4.53    0.84
  -5  -3  13    0.47    0.48
  -4  -3  13   13.04    1.06
   2   3 -13    7.80    0.91
  -2  -3  13    6.78    0.89
   1   3 -13   62.05    3.10
  -1  -3  13   62.37    3.19
   0   3 -13    0.62    0.50
   0  -3  13   -0.05    0.38
   1  -3  13    5.36    0.79
   1  -3  13    7.22    0.89
  -2   3 -13    5.06    0.92
   2  -3  13    4.29    0.77
   2  -3  13    5.25    0.72
   3  -3  13    2.39    0.58
   3  -3  13    2.18    0.44
   4  -3  13    3.32    0.61
   5  -3  13    5.98    0.82
  -6   3 -13   18.72    1.35
   6  -3  13   14.49    1.32
  -7   3 -13    0.32    0.64
  -6  -2  13   -0.63    0.54
  -5  -2  13   25.17    1.53
  -4  -2  13    3.44    0.63
  -3  -2  13   24.74    1.59
  -2  -2  13   33.31    2.06
   0  -2  13   14.74    1.30
   0  -2  13   13.47    1.01
   1  -2  13   38.42    1.92
   1  -2  13   36.33    2.81
   2  -2  13    3.07    0.40
   2  -2  13    3.38    0.85
   3  -2  13   35.97    2.18
   4  -2  13   46.87    2.60
   4  -2  13   45.25    2.09
  -5   2 -13    4.79    0.76
   5  -2  13    5.46    0.78
  -6   2 -13   34.03    2.03
   6  -2  13   32.81    2.04
  -7   2 -13    7.82    1.02
  -8   2 -13    7.29    1.07
   6   1 -13    3.68    0.70
  -6  -1  13    4.41    0.77
  -5  -1  13    8.07    0.81
  -4  -1  13    3.03    0.56
   3   1 -13    5.00    0.72
  -2  -1  13    0.38    0.49
  -1  -1  13   32.24    1.97
   0  -1  13   45.92    2.27
   0  -1  13   49.94    2.63
   1  -1  13    6.07    0.97
   1  -1  13    5.33    0.61
   2  -1  13   67.81    3.41
   2  -1  13   68.45    3.04
   3  -1  13    6.13    0.54
   3  -1  13    5.12    0.94
  -4   1 -13   38.44    2.19
   4  -1  13   34.70    1.63
   4  -1  13   35.14    2.18
  -5   1 -13   17.07    1.37
   5  -1  13   15.99    1.40
  -6   1 -13    6.92    0.86
   6  -1  13    5.47    0.86
  -7   1 -13   11.91    1.15
  -8   1 -13   15.47    1.29
   6   0 -13    3.87    0.70
  -6   0  13    3.81    0.58
   5   0 -13    0.58    0.47
  -5   0  13    1.33    0.42
  -4   0  13    4.50    0.71
  -3   0  13    5.93    0.80
  -2   0  13    6.04    1.04
  -1   0  13    5.86    0.61
  -1   0  13    7.86    0.99
   0   0  13   24.70    1.47
   0   0  13   29.82    1.78
   1   0  13   -0.42    0.31
   1   0  13    0.42    0.54
   2   0  13    2.31    0.42
   2   0  13    2.17    0.67
  -3   0 -13    6.40    0.95
   3   0  13    5.01    0.97
   4   0  13    3.12    0.78
   4   0  13    3.21    0.33
  -5   0 -13    3.19    0.69
   5   0  13    2.73    0.74
  -6   0 -13   28.44    1.85
   6   0  13   26.63    1.88
  -7   0 -13   10.73    1.02
  -8   0 -13    2.93    0.58
  -9   0 -13    9.56    1.23
   6  -1 -13    2.68    0.61
  -6   1  13    2.77    0.54
   5  -1 -13   16.16    1.26
  -5   1  13   18.77    1.27
   4  -1 -13   24.59    1.59
   4  -1 -13   26.82    1.37
  -4   1  13   22.74    1.55
   3  -1 -13    0.88    0.30
  -2   1  13   90.06    4.17
  -1   1  13    2.42    0.43
  -1   1  13    3.87    0.75
   0  -1 -13   24.63    1.46
   0   1  13   18.47    1.18
   0   1  13   21.39    1.53
  -1  -1 -13    7.48    0.95
   1   1  13    7.00    0.97
   1   1  13    6.20    0.60
  -2  -1 -13   15.38    1.27
   2   1  13   12.90    1.23
   2   1  13   12.03    0.79
  -3  -1 -13    1.05    0.56
   3   1  13    1.36    0.68
  -4  -1 -13    6.45    1.02
   4   1  13    6.73    1.06
   4   1  13    7.28    0.44
  -5  -1 -13    7.38    1.01
   5   1  13    6.59    1.09
  -6  -1 -13    5.20    0.74
  -7  -1 -13   13.10    1.11
  -8  -1 -13    3.25    0.60
  -9  -1 -13    1.76    0.70
   6  -2 -13   22.65    1.56
  -6   2  13   24.26    1.56
   5  -2 -13   10.22    0.98
  -5   2  13   11.89    1.05
   4  -2 -13   19.61    1.42
  -4   2  13   22.07    1.46
   3  -2 -13   14.41    0.90
   3  -2 -13   14.28    1.14
   3  -2 -13   12.39    0.75
   2  -2 -13    2.77    0.54
  -2   2  13    3.28    0.68
   1  -2 -13    8.73    0.93
  -1   2  13    9.11    1.03
   0  -2 -13   86.01    3.66
   0   2  13   75.00    3.55
   0   2  13   78.34    3.69
   1   2  13   13.43    1.20
   1   2  13   10.66    0.83
   1   2  13   12.01    0.79
  -2  -2 -13   95.08    4.08
   2   2  13   81.79    3.69
   2   2  13   83.42    4.01
  -3  -2 -13   72.49    3.36
   3   2  13   64.26    3.29
   3   2  13   62.58    2.84
  -4  -2 -13   21.96    1.57
   4   2  13   17.74    0.88
   4   2  13   18.26    1.53
   5   2  13   35.07    2.21
  -6  -2 -13    2.93    0.72
  -7  -2 -13   11.54    1.21
  -8  -2 -13   12.18    1.15
  -9  -2 -13    1.14    0.66
   6  -3 -13   -0.01    0.67
  -6   3  13    1.35    0.69
   5  -3 -13    3.57    0.55
   4  -3 -13   -0.03    0.43
   3  -3 -13   14.35    1.13
  -3   3  13   14.46    1.24
   2  -3 -13   30.93    1.48
   2  -3 -13   28.41    1.79
  -2   3  13   29.16    1.71
   1  -3 -13   18.58    1.20
   1  -3 -13   17.76    1.58
  -1   3  13   17.76    1.29
   0  -3 -13   12.10    1.05
   0   3  13   10.83    1.08
  -1  -3 -13   52.97    2.57
   1   3  13   46.91    2.50
  -2  -3 -13    3.27    0.72
   2   3  13    1.88    0.37
   2   3  13    2.94    0.67
  -3  -3 -13    4.28    0.82
   3   3  13    3.37    0.76
   3   3  13    3.78    0.52
  -4  -3 -13   16.01    1.38
   4   3  13   15.48    0.96
   4   3  13   11.61    1.27
   4   3  13   13.66    0.73
  -5  -3 -13   10.62    0.81
   5   3  13   13.34    0.88
  -6  -3 -13   10.77    1.19
  -7  -3 -13   29.26    1.96
  -8  -3 -13    3.77    0.64
  -9  -3 -13   29.59    1.97
   5  -4 -13    2.16    0.60
   4  -4 -13    5.23    0.76
   3  -4 -13    9.21    0.91
  -3   4  13    9.74    0.98
   2  -4 -13    8.43    0.93
  -2   4  13   11.12    0.95
   1  -4 -13    3.32    0.68
   1  -4 -13    4.65    0.79
  -1   4  13    3.32    0.57
   0  -4 -13    1.63    0.59
   0  -4 -13    2.01    0.56
   0   4  13    1.25    0.49
  -1  -4 -13   -0.28    0.43
  -1  -4 -13   -0.24    0.52
   1   4  13    0.22    0.47
  -2  -4 -13    0.87    0.60
   2   4  13    0.53    0.52
  -3  -4 -13   32.41    2.01
   3   4  13   29.40    1.70
  -4  -4 -13    0.17    0.57
   4   4  13   -0.03    0.38
   4   4  13    0.24    0.41
  -5  -4 -13    9.83    0.77
   5   4  13    8.86    0.82
  -6  -4 -13   15.88    1.45
   6   4  13   17.89    1.12
  -7  -4 -13   10.12    1.10
  -8  -4 -13   14.41    1.23
  -9  -4 -13    1.23    0.77
   5  -5 -13   14.77    1.27
   4  -5 -13    0.35    0.57
   3  -5 -13   24.37    1.58
   2  -5 -13    5.61    0.76
   1  -5 -13    2.00    0.40
   0  -5 -13   14.86    1.13
  -1  -5 -13   11.48    1.14
  -1  -5 -13   12.16    1.15
  -2  -5 -13    8.57    1.04
  -2  -5 -13    8.69    1.05
  -3  -5 -13   46.59    2.59
  -3  -5 -13   42.18    2.46
   3   5  13   54.53    2.48
  -4  -5 -13    0.89    0.62
  -4  -5 -13    0.71    0.60
   4   5  13    0.73    0.50
  -5  -5 -13    5.74    0.62
  -5  -5 -13    5.77    1.04
  -5  -5 -13    5.99    0.97
   5   5  13    6.42    0.66
  -6  -5 -13    7.73    1.03
  -6  -5 -13    6.87    0.94
   6   5  13    8.07    0.99
  -7  -5 -13    1.41    0.58
  -8  -5 -13   -0.40    0.64
  -9  -5 -13    3.39    0.75
   4  -6 -13    7.31    1.02
   3  -6 -13    7.04    0.88
   2  -6 -13    1.43    0.51
   1  -6 -13   33.59    2.00
   0  -6 -13    2.32    0.53
   0  -6 -13    2.30    0.61
  -1  -6 -13   39.47    2.15
  -2  -6 -13   38.20    2.26
  -2  -6 -13   35.73    2.20
   2   6  13   46.01    2.37
  -3  -6 -13    6.43    1.04
  -3  -6 -13    4.87    1.00
   3   6  13    7.01    1.11
  -4  -6 -13   37.01    2.24
  -4  -6 -13   33.98    2.02
  -5  -6 -13    5.06    0.99
  -5  -6 -13    4.40    0.72
  -5  -6 -13    5.09    0.95
   5   6  13    4.92    0.83
  -6  -6 -13    0.41    0.55
  -6  -6 -13    0.36    0.52
  -7  -6 -13   23.60    1.80
  -8  -6 -13    0.77    0.72
  -9  -6 -13    4.72    0.91
   3  -7 -13    6.16    1.01
   2  -7 -13   12.06    1.15
   1  -7 -13    0.55    0.56
   0  -7 -13    6.22    0.97
  -1  -7 -13    1.15    0.63
  -1  -7 -13    0.58    0.62
   1   7  13    0.99    0.66
  -2  -7 -13   -0.37    0.98
  -2  -7 -13   -0.49    0.56
   2   7  13    0.10    0.66
  -3  -7 -13   14.47    1.46
  -3  -7 -13   13.37    1.41
   3   7  13   16.93    1.52
  -4  -7 -13   18.46    1.57
  -4  -7 -13   22.75    1.77
   4   7  13   23.39    1.65
  -5  -7 -13    1.61    0.68
  -5  -7 -13    2.26    0.67
   5   7  13    1.66    0.69
  -6  -7 -13   55.76    3.12
  -7  -7 -13    0.87    0.66
  -8  -7 -13   12.35    1.35
   2  -8 -13    2.30    0.74
  -2   8  13    0.97    0.77
   1  -8 -13    1.71    0.67
  -1   8  13    0.61    0.66
   0  -8 -13   -0.18    0.66
   0   8  13    0.16    0.65
  -1  -8 -13    3.68    0.85
  -1  -8 -13    2.94    0.85
   1   8  13    4.74    0.88
  -2  -8 -13   13.73    1.39
  -2  -8 -13   14.00    1.50
   2   8  13   14.85    1.50
  -3  -8 -13    1.08    1.29
   3   8  13    1.20    0.80
  -4  -8 -13    5.60    1.02
  -4  -8 -13    7.69    1.21
   4   8  13    7.94    1.40
  -5  -8 -13    5.21    0.94
  -5  -8 -13    5.88    1.11
   5   8  13    8.68    1.37
  -7  -8 -13    1.80    0.79
  -8  -8 -13    2.56    0.96
   0  -9 -13    4.08    0.96
  -1  -9 -13    1.73    0.82
   1   9  13    3.34    0.90
  -2  -9 -13   29.19    2.31
   2   9  13   38.05    2.37
  -3  -9 -13    5.44    1.00
  -3  -9 -13    5.11    1.15
   3   9  13    7.24    1.26
  -4  -9 -13    6.12    1.21
  -4  -9 -13    4.97    1.17
   4   9  13    4.77    1.13
  -5  -9 -13    1.59    0.82
  -6  -9 -13    0.74    0.84
   2   6 -14   16.31    1.44
   1   6 -14    7.34    0.90
  -1  -6  14    6.75    0.99
   0   6 -14    0.44    0.55
   0  -6  14    0.15    0.64
  -1   6 -14    1.66    0.68
   1  -6  14    1.11    0.65
  -2   6 -14    0.99    0.73
   2  -6  14    0.92    0.83
  -4  -5  14    3.84    0.85
   3   5 -14    5.94    0.80
  -3  -5  14    4.66    0.94
   2   5 -14    5.93    0.77
  -2  -5  14    4.97    0.88
   1   5 -14    1.91    0.45
  -1  -5  14    1.39    0.54
   0   5 -14   21.80    1.49
   0  -5  14   22.14    1.50
  -1   5 -14   12.27    1.20
   1  -5  14   10.35    1.03
  -2   5 -14    8.36    1.10
   2  -5  14    7.54    0.92
  -3   5 -14   22.70    1.81
   3  -5  14   20.57    1.54
   4  -5  14    3.76    0.72
  -5  -4  14    0.17    0.63
   3   4 -14    5.32    0.73
  -3  -4  14    4.70    0.67
   2   4 -14    9.23    0.85
  -2  -4  14    7.76    0.88
   1   4 -14   30.87    1.85
  -1  -4  14   31.68    1.93
   0   4 -14    0.66    0.40
   0  -4  14    0.64    0.46
  -1   4 -14   27.70    1.76
   1  -4  14   27.03    1.74
  -2   4 -14   12.95    1.30
   2  -4  14   12.63    1.09
   3  -4  14    2.00    0.52
   4  -4  14   11.32    1.07
   5  -4  14    5.09    0.73
  -3  -3  14    5.94    0.87
  -2  -3  14    3.78    0.72
  -1  -3  14   13.15    1.14
   0  -3  14    0.48    0.44
   1  -3  14    0.93    0.41
   2  -3  14    1.17    0.49
   3  -3  14    7.50    0.97
   4  -3  14    6.53    0.81
  -5   3 -14   11.45    1.13
   5  -3  14   14.04    1.13
  -6   3 -14    6.14    0.96
   6  -3  14    5.44    0.78
  -5  -2  14   24.00    1.53
  -4  -2  14    0.27    0.45
  -3  -2  14   14.04    1.26
  -2  -2  14    2.24    0.61
  -1  -2  14    2.09    0.61
   0  -2  14    7.15    0.93
   1  -2  14    9.74    1.03
   1  -2  14    7.75    0.86
   2  -2  14    4.29    0.70
   2  -2  14    3.41    0.72
   3  -2  14   28.80    1.88
   4  -2  14    3.63    0.73
  -5   2 -14   15.95    1.24
   5  -2  14   14.28    1.22
  -6   2 -14    1.87    0.53
   6  -2  14    0.22    0.61
  -7   2 -14    0.48    0.63
  -6  -1  14   11.28    1.02
  -5  -1  14   -0.87    0.49
  -4  -1  14   11.79    0.95
   3   1 -14   33.76    2.32
  -2  -1  14    1.46    0.62
   0  -1  14   13.41    1.87
   1  -1  14   46.90    2.26
   2  -1  14   48.96    2.37
   2  -1  14   53.61    2.88
   3  -1  14    1.29    0.34
   3  -1  14    0.96    0.57
  -4   1 -14   13.42    1.13
   4  -1  14   11.63    1.17
  -5   1 -14   11.70    1.03
   5  -1  14   10.56    1.11
  -6   1 -14    0.62    0.45
   6  -1  14    0.04    0.54
  -7   1 -14   24.27    1.67
  -8   1 -14   11.58    1.20
   6   0 -14    0.39    0.64
  -6   0  14    0.46    0.62
   5   0 -14    5.41    0.72
  -5   0  14    4.77    0.78
  -4   0  14    4.03    0.66
  -3   0  14    7.06    1.21
  -2   0  14   17.42    1.48
  -1   0  14    0.32    0.57
   0   0  14   42.04    2.29
   0   0  14   36.26    1.98
   1   0  14    0.35    0.40
   1   0  14    0.28    0.58
   2   0  14    2.35    0.71
   2   0  14    2.86    0.39
   3   0  14   44.35    2.09
   3   0  14   47.37    2.69
  -4   0 -14   29.24    1.82
   4   0  14   24.91    1.25
   4   0  14   26.27    1.83
  -5   0 -14    3.43    0.63
   5   0  14    3.65    0.74
  -6   0 -14   42.79    2.45
   6   0  14   39.96    2.48
  -7   0 -14    2.26    0.49
  -8   0 -14   24.98    1.69
   6  -1 -14   -0.37    0.64
  -6   1  14    0.57    0.60
   5  -1 -14   11.83    1.07
  -5   1  14   14.04    1.14
   4  -1 -14    4.21    0.62
   3  -1 -14    4.96    0.89
  -3   1  14    4.22    0.86
   2  -1 -14    3.27    0.67
  -2   1  14    3.12    0.76
   1  -1 -14    0.68    0.57
  -1   1  14    0.24    0.55
   0  -1 -14    0.56    0.56
   0   1  14    0.89    0.65
  -1  -1 -14    2.95    0.72
   1   1  14    2.69    0.73
   1   1  14    2.37    0.40
   2   1  14   22.03    1.27
   2   1  14   24.78    1.70
  -3  -1 -14    0.26    0.53
   3   1  14    0.07    0.26
   3   1  14   -0.33    0.55
  -4  -1 -14    4.78    0.91
   4   1  14    4.88    0.41
   4   1  14    4.04    0.89
  -5  -1 -14   17.96    1.43
   5   1  14   15.64    1.48
  -6  -1 -14    0.65    0.44
  -7  -1 -14    3.67    0.73
  -8  -1 -14    7.71    0.98
   5  -2 -14   -0.32    0.53
   4  -2 -14   18.85    1.35
   3  -2 -14    6.91    0.80
   3  -2 -14    5.82    0.73
  -3   2  14    7.25    1.16
   2  -2 -14    2.01    0.56
  -2   2  14    2.45    0.71
   1  -2 -14   14.51    1.20
  -1   2  14   13.88    1.27
   0  -2 -14   22.14    1.45
   0   2  14   18.99    1.49
   0   2  14   15.52    1.12
  -1  -2 -14    2.99    0.72
   1   2  14    2.60    0.71
   1   2  14    1.93    0.36
  -2  -2 -14   46.92    2.47
   2   2  14   42.20    2.48
  -3  -2 -14    9.16    1.13
   3   2  14    8.84    1.19
   3   2  14    7.57    0.63
   4   2  14   15.30    0.78
   4   2  14   14.58    1.45
  -5  -2 -14    1.68    0.54
  -6  -2 -14    1.11    0.50
  -7  -2 -14    0.84    0.53
  -8  -2 -14    3.73    0.64
  -9  -2 -14    2.29    0.79
   5  -3 -14   10.64    1.04
   4  -3 -14   23.02    1.52
   3  -3 -14    1.14    0.47
  -3   3  14    0.90    0.64
   2  -3 -14   78.67    3.89
  -2   3  14   85.05    3.78
   1  -3 -14   14.22    1.17
   1  -3 -14   14.54    1.14
  -1   3  14   14.26    1.25
   0  -3 -14   42.42    2.18
   0   3  14   38.74    2.19
  -1  -3 -14   43.73    2.27
   1   3  14   37.46    2.19
  -2  -3 -14    1.29    0.64
   2   3  14    1.03    0.34
   2   3  14    1.38    0.66
  -3  -3 -14   44.01    2.40
   3   3  14   38.73    1.87
   3   3  14   37.86    2.31
   3   3  14   41.26    2.29
  -4  -3 -14   13.74    1.50
   4   3  14   12.68    0.72
   4   3  14   14.43    0.99
   4   3  14   11.16    1.35
  -5  -3 -14    4.85    0.88
  -6  -3 -14   39.55    2.39
  -7  -3 -14   14.82    1.33
  -8  -3 -14   15.55    1.33
  -9  -3 -14   18.75    1.48
   5  -4 -14    0.88    0.72
   4  -4 -14    3.63    0.62
   3  -4 -14    4.56    0.72
  -3   4  14    3.93    0.97
   2  -4 -14    1.49    0.52
  -2   4  14    1.75    0.58
   1  -4 -14    6.24    0.85
   1  -4 -14    6.81    0.90
  -1   4  14    7.17    0.93
   0  -4 -14   13.62    1.16
   0  -4 -14   13.18    1.14
   0   4  14   12.15    1.09
  -1  -4 -14    9.21    1.04
  -1  -4 -14    9.40    1.10
   1   4  14    8.02    1.02
  -2  -4 -14   20.39    1.54
   2   4  14   16.51    1.36
  -3  -4 -14   56.88    3.00
  -4  -4 -14    6.26    1.24
   4   4  14    5.63    0.51
   4   4  14    7.14    0.83
  -5  -4 -14   85.51    4.21
   5   4  14   83.39    3.85
  -6  -4 -14    3.34    0.72
  -7  -4 -14   13.23    1.26
  -8  -4 -14   12.09    1.29
  -9  -4 -14    0.36    0.79
   4  -5 -14    2.14    0.67
   3  -5 -14    1.55    0.55
   2  -5 -14    1.05    0.48
   1  -5 -14    0.17    0.33
   1  -5 -14    0.43    0.45
   0  -5 -14    3.19    0.67
   0  -5 -14    3.16    0.66
  -1  -5 -14   12.26    1.17
  -1  -5 -14   12.26    1.21
  -2  -5 -14    3.28    0.79
  -2  -5 -14    2.53    0.72
  -3  -5 -14    6.49    1.08
  -3  -5 -14    8.11    1.19
  -4  -5 -14    3.66    0.80
   4   5  14    3.61    0.65
  -5  -5 -14    0.93    0.58
  -5  -5 -14   -0.17    0.61
   5   5  14    0.39    0.43
  -6  -5 -14    0.44    0.56
  -6  -5 -14    0.41    0.61
  -7  -5 -14   30.82    2.06
  -8  -5 -14    1.75    0.74
  -9  -5 -14   17.11    1.67
   3  -6 -14   -0.14    0.65
   2  -6 -14   14.17    1.21
   1  -6 -14   15.23    1.23
   0  -6 -14    6.57    0.92
   0  -6 -14    5.65    0.89
  -1  -6 -14   14.91    1.29
  -1  -6 -14   14.75    1.33
  -2  -6 -14    2.29    0.72
  -3  -6 -14    7.76    1.07
  -3  -6 -14    7.71    1.24
   3   6  14   10.16    1.28
  -4  -6 -14   -0.38    0.59
  -4  -6 -14    0.97    0.70
   4   6  14    0.22    0.62
  -5  -6 -14    0.28    0.65
  -5  -6 -14   -0.69    0.54
   5   6  14    0.41    0.51
  -6  -6 -14    3.42    0.76
  -6  -6 -14    1.66    0.69
  -7  -6 -14   11.31    1.24
  -8  -6 -14    0.65    0.74
   2  -7 -14    5.30    0.77
   1  -7 -14   17.06    1.35
   0  -7 -14   16.56    1.40
  -1  -7 -14    0.84    0.65
  -1  -7 -14   -0.38    0.56
   1   7  14   -0.14    0.71
  -2  -7 -14    7.65    1.25
  -2  -7 -14    8.51    1.27
   2   7  14   10.61    1.40
  -3  -7 -14    8.63    1.49
  -3  -7 -14    7.58    1.33
   3   7  14    9.40    1.38
  -4  -7 -14    1.86    0.86
  -4  -7 -14    0.92    0.69
   4   7  14    2.39    0.84
  -5  -7 -14   21.60    1.71
  -5  -7 -14   25.22    1.85
  -6  -7 -14    7.12    1.14
  -7  -7 -14    7.83    1.21
  -8  -7 -14    3.52    0.91
   1  -8 -14   10.59    1.22
  -1   8  14   10.90    1.28
   0  -8 -14    2.06    0.75
   0   8  14    3.34    0.78
  -1  -8 -14    7.04    1.27
   1   8  14    8.33    1.38
  -2  -8 -14   36.63    2.46
  -2  -8 -14   38.44    2.37
   2   8  14   44.80    2.59
  -3  -8 -14    5.41    1.06
  -3  -8 -14    6.42    1.25
   3   8  14    8.50    1.42
  -4  -8 -14   26.54    2.07
  -4  -8 -14   26.67    1.99
   4   8  14   33.49    2.19
  -5  -8 -14   -0.52    0.71
  -6  -8 -14   13.27    1.57
  -7  -8 -14   10.93    1.45
  -1  -9 -14    0.03    0.92
   1   9  14   -1.18    0.95
  -2  -9 -14    3.93    1.15
   2   9  14    5.99    1.17
  -3  -9 -14    0.10    0.90
  -3  -9 -14   -0.20    1.06
   3   9  14    1.84    1.01
  -4  -9 -14    1.42    0.96
   4   9  14    0.87    1.17
  -5  -9 -14    1.50    0.86
   2   5 -15   -0.01    0.59
  -2  -5  15    0.05    0.71
   1   5 -15    7.29    0.85
  -1  -5  15    4.74    0.97
   0   5 -15    3.76    0.82
   0  -5  15    5.21    0.93
  -1   5 -15    0.30    0.54
  -2   5 -15    6.46    1.15
   2  -5  15    5.56    1.01
  -3  -4  15   -0.26    0.64
  -2  -4  15   13.15    1.19
  -1  -4  15   23.86    1.65
   0   4 -15   17.15    1.27
   0  -4  15   16.72    1.21
   1  -4  15   19.18    1.45
   2  -4  15    2.79    0.59
   3  -4  15    7.03    0.97
   4  -4  15   10.26    1.13
  -4  -3  15    6.52    1.03
  -3  -3  15    8.62    1.05
  -2  -3  15    3.62    0.62
  -1  -3  15    5.73    0.81
   0  -3  15    4.95    0.84
   1  -3  15    6.94    0.90
   2  -3  15   24.03    1.59
   3  -3  15   32.40    1.97
   4  -3  15    0.66    0.60
  -5   3 -15   50.10    2.73
   5  -3  15   48.32    2.68
  -5  -2  15    0.49    0.64
  -3  -2  15   -0.77    0.54
  -2  -2  15    1.49    0.52
  -1  -2  15    6.67    0.94
   0  -2  15    2.13    0.58
   1  -2  15    4.46    0.81
   2  -2  15   -0.13    0.47
   3  -2  15    4.03    0.80
   4  -2  15   11.23    1.09
  -5   2 -15    0.10    0.47
   5  -2  15    0.78    0.62
  -6   2 -15    1.80    0.58
   6  -2  15    1.67    0.72
  -5  -1  15    3.57    0.61
  -3  -1  15    4.60    0.90
  -2  -1  15   19.13    1.55
  -1  -1  15   26.94    1.82
   0  -1  15    9.78    1.16
   1  -1  15   10.44    1.16
   2  -1  15    0.03    0.48
   2  -1  15    0.89    0.55
   3  -1  15    3.59    0.77
  -4   1 -15    0.08    0.44
   4  -1  15    0.88    0.50
  -5   1 -15    2.19    0.56
   5  -1  15    2.02    0.60
  -6   1 -15    8.20    0.97
   6  -1  15    8.72    1.13
  -7   1 -15    0.43    0.66
   5   0 -15   26.05    1.69
  -3   0  15   56.34    3.04
  -2   0  15   13.10    1.31
  -1   0  15    3.78    1.01
   1   0  15    3.80    0.56
   2   0  15   16.06    1.10
   2   0  15   19.74    1.54
  -3   0 -15   54.11    2.83
   3   0  15   49.75    2.88
  -4   0 -15    1.00    0.47
   4   0  15    1.43    0.57
  -5   0 -15   44.95    2.49
   5   0  15   41.21    2.57
  -6   0 -15   16.60    1.33
   6   0  15   17.31    1.44
  -7   0 -15    2.36    0.62
   5  -1 -15    3.30    0.67
   4  -1 -15    1.75    0.54
  -4   1  15    3.34    0.91
   3  -1 -15    1.20    0.64
  -3   1  15    0.89    0.78
   2  -1 -15    0.77    0.62
  -2   1  15    0.99    0.71
   1  -1 -15   48.08    2.46
  -1   1  15   42.86    2.54
   0  -1 -15    7.25    1.09
   0   1  15    6.21    1.15
  -1  -1 -15   19.01    1.43
   1   1  15   16.35    1.48
   1   1  15   13.29    1.03
  -2  -1 -15   57.75    2.81
   2   1  15   46.27    2.36
   2   1  15   49.52    2.81
  -3  -1 -15    3.77    0.79
   3   1  15    1.58    1.18
   3   1  15    1.87    0.36
  -4  -1 -15   86.49    4.10
   4   1  15   79.31    4.11
  -5  -1 -15    8.74    1.02
   5   1  15    6.25    1.11
  -6  -1 -15   13.50    1.21
  -7  -1 -15   24.26    1.63
  -8  -1 -15    1.90    0.67
   5  -2 -15   -0.80    0.65
   4  -2 -15   -0.27    0.54
  -4   2  15    0.71    0.97
   3  -2 -15   -0.08    0.47
  -3   2  15    0.25    0.73
   2  -2 -15    7.56    1.02
  -2   2  15    6.83    1.18
   1  -2 -15    2.54    0.69
  -1   2  15    2.91    0.82
   0  -2 -15    6.53    1.07
   0   2  15    6.86    1.16
  -1  -2 -15    4.80    0.84
   1   2  15    4.50    0.92
   1   2  15    3.25    0.50
  -2  -2 -15    0.53    0.59
   2   2  15    0.56    0.67
   2   2  15   -0.07    0.39
   3   2  15   11.27    0.82
   3   2  15   12.80    1.31
  -4  -2 -15    2.47    0.69
   4   2  15    1.38    0.44
  -5  -2 -15    1.61    0.53
   5   2  15    1.26    0.69
  -6  -2 -15   53.97    2.96
  -7  -2 -15   10.20    1.08
  -8  -2 -15   31.55    2.01
   4  -3 -15    1.45    0.60
   3  -3 -15   15.58    1.17
  -3   3  15   14.70    1.47
   2  -3 -15   14.20    1.14
   2  -3 -15   15.99    1.39
  -2   3  15   16.00    1.43
   1  -3 -15    5.21    0.75
   1  -3 -15    4.84    0.97
  -1   3  15    5.05    0.88
   0  -3 -15   17.61    1.37
   0   3  15   16.05    1.41
  -1  -3 -15    0.60    0.59
   1   3  15    0.68    0.66
   1   3  15   -0.06    0.51
  -2  -3 -15    0.60    0.59
   2   3  15   -0.66    0.40
   2   3  15   -0.14    0.61
  -3  -3 -15    1.00    0.65
   3   3  15    0.55    0.72
   3   3  15    0.10    0.34
  -4  -3 -15    2.35    0.73
   4   3  15    1.02    0.82
  -5  -3 -15    5.64    0.92
  -6  -3 -15    9.93    1.11
  -7  -3 -15   17.29    1.43
  -8  -3 -15    2.09    0.68
   4  -4 -15   25.83    1.65
   3  -4 -15    0.52    0.56
   2  -4 -15    4.13    0.67
  -2   4  15    6.07    1.14
   1  -4 -15   25.26    1.51
   1  -4 -15   24.89    1.66
  -1   4  15   24.30    1.59
   0  -4 -15    2.42    0.58
   0  -4 -15    1.65    0.65
   0   4  15    1.80    0.65
  -1  -4 -15    2.70    0.73
  -1  -4 -15    2.84    0.66
   1   4  15    2.89    0.75
  -2  -4 -15   49.74    2.62
   2   4  15   42.41    2.44
  -3  -4 -15    3.91    0.83
   3   4  15    2.39    0.43
  -4  -4 -15   43.43    2.59
   4   4  15   45.35    2.17
  -5  -4 -15   15.53    1.40
  -6  -4 -15    4.67    0.95
  -7  -4 -15   12.12    1.19
  -8  -4 -15    1.53    0.80
   3  -5 -15    1.21    0.65
   2  -5 -15   27.83    1.75
   1  -5 -15    0.86    0.50
   0  -5 -15   26.98    1.76
  -1  -5 -15   33.61    2.02
  -1  -5 -15   32.79    2.05
  -2  -5 -15    7.33    1.13
  -2  -5 -15    8.44    1.24
  -3  -5 -15   13.24    1.44
  -3  -5 -15   11.49    1.24
  -4  -5 -15   10.12    1.22
  -4  -5 -15    8.01    1.21
   4   5  15   10.12    1.10
  -5  -5 -15    0.26    0.70
  -5  -5 -15    1.09    0.58
  -6  -5 -15   16.21    1.39
  -6  -5 -15   11.03    1.37
  -7  -5 -15   19.63    1.58
  -8  -5 -15    1.06    0.82
   2  -6 -15    5.32    1.01
   1  -6 -15    2.86    0.64
   0  -6 -15    0.28    0.57
  -1  -6 -15    2.28    0.70
  -1  -6 -15    1.37    0.71
  -2  -6 -15   12.49    1.26
  -2  -6 -15   13.62    1.42
  -3  -6 -15   10.84    1.44
  -3  -6 -15    7.47    1.89
   3   6  15   12.56    1.45
  -4  -6 -15   10.00    1.29
  -4  -6 -15    8.09    1.32
   4   6  15   10.53    1.26
  -5  -6 -15    8.86    1.20
  -5  -6 -15    9.84    1.35
  -6  -6 -15    5.40    0.87
  -7  -6 -15   25.05    1.83
  -8  -6 -15    9.50    1.39
   1  -7 -15    5.32    0.86
   0  -7 -15    1.27    0.67
  -1  -7 -15    0.92    0.65
   1   7  15    0.86    0.82
  -2  -7 -15    5.35    1.00
  -2  -7 -15    4.59    0.97
   2   7  15    6.20    1.12
  -3  -7 -15   10.25    1.43
  -3  -7 -15    9.32    1.35
   3   7  15   11.12    1.53
  -4  -7 -15    0.99    1.05
  -4  -7 -15    2.19    0.83
   4   7  15    1.45    0.88
  -5  -7 -15    4.69    0.96
  -5  -7 -15    3.11    0.97
  -6  -7 -15    7.78    1.30
  -7  -7 -15    3.87    0.86
   0  -8 -15    7.45    1.23
   0   8  15    6.25    1.08
  -1  -8 -15   21.34    1.82
   1   8  15   25.98    2.06
  -2  -8 -15    4.41    0.98
   2   8  15    2.98    1.06
  -3  -8 -15    9.78    1.60
  -3  -8 -15   10.31    1.51
   3   8  15   11.68    1.67
  -4  -8 -15   10.32    1.55
  -4  -8 -15   12.63    1.68
  -6  -8 -15   -1.28    0.86
  -2  -4  16    6.87    0.98
  -1  -4  16    0.28    0.65
   0  -4  16    6.34    0.98
   1  -4  16    0.05    0.63
   2  -4  16    1.56    0.70
  -3  -3  16    2.26    0.72
  -2  -3  16    0.86    0.65
  -1  -3  16   16.69    1.41
   0  -3  16    8.38    1.08
   1  -3  16   -0.34    0.58
   2  -3  16   30.39    1.92
   3  -3  16    1.46    0.64
   4  -3  16   10.37    1.11
  -4  -2  16   -0.05    0.76
  -3  -2  16   -0.30    0.64
  -2  -2  16   33.42    2.09
  -1  -2  16   14.24    1.27
   0  -2  16   36.11    2.21
   1  -2  16   45.76    2.56
   2  -2  16    0.66    0.55
   3  -2  16   17.31    1.45
  -4   2 -16   13.87    1.23
   4  -2  16   12.95    1.22
  -5   2 -16    4.78    0.96
   5  -2  16    6.92    1.05
  -4  -1  16    0.15    0.76
  -3  -1  16    4.12    0.85
  -2  -1  16    2.69    0.72
  -1  -1  16    7.82    1.08
   0  -1  16    2.20    0.63
   1  -1  16    0.35    0.53
   2  -1  16    6.39    0.99
  -3   1 -16   19.87    1.49
   3  -1  16   18.14    1.48
  -4   1 -16    0.66    0.51
   4  -1  16    1.07    0.58
  -5   1 -16   20.06    1.50
   5  -1  16   21.56    1.60
  -6   1 -16    5.67    0.98
   6  -1  16    6.09    1.19
  -4   0  16    7.67    1.41
  -3   0  16    8.36    1.27
  -2   0  16    0.09    0.65
  -1   0  16    1.86    0.75
   0   0  16    2.92    0.82
  -1   0 -16   10.26    1.17
   1   0  16    9.07    1.16
  -2   0 -16    2.96    0.74
   2   0  16    3.89    0.82
  -3   0 -16   20.51    1.51
   3   0  16   17.91    1.53
  -4   0 -16    8.19    0.99
   4   0  16    8.64    1.06
  -5   0 -16    4.91    0.88
   5   0  16    5.87    1.10
  -6   0 -16    1.14    0.60
   6   0  16    0.68    0.67
  -7   0 -16    3.14    0.73
   4  -1 -16    3.48    0.70
  -3   1  16    0.16    0.75
   2  -1 -16   17.87    1.48
  -2   1  16   14.86    1.55
   1  -1 -16   24.34    1.68
  -1   1  16   19.85    1.65
   0  -1 -16    1.48    0.69
   0   1  16    1.21    1.17
  -1  -1 -16   58.31    3.32
   1   1  16   59.34    3.48
  -2  -1 -16    4.65    0.97
   2   1  16    3.96    0.91
  -3  -1 -16    5.82    0.97
   3   1  16    5.18    1.02
  -4  -1 -16    4.22    0.89
   4   1  16    6.67    1.09
  -5  -1 -16   -0.26    0.45
   5   1  16   -0.27    0.62
  -6  -1 -16    0.16    0.59
  -7  -1 -16   14.15    1.26
   4  -2 -16   -1.06    0.65
   3  -2 -16    5.76    0.85
  -3   2  16    5.80    1.05
   2  -2 -16   14.17    1.49
  -2   2  16   12.35    1.46
   1  -2 -16    8.05    1.20
  -1   2  16    8.60    1.28
   0  -2 -16   36.36    2.12
   0   2  16   33.50    2.20
  -1  -2 -16    0.78    0.65
   1   2  16    0.36    0.74
  -2  -2 -16    1.37    0.70
   2   2  16    1.16    0.78
  -3  -2 -16   37.58    2.29
  -4  -2 -16    0.11    0.51
   4   2  16   -0.19    0.69
  -5  -2 -16    5.96    0.85
   5   2  16    3.66    0.94
  -6  -2 -16   12.52    1.19
  -7  -2 -16    1.39    0.68
   3  -3 -16    1.84    0.61
   2  -3 -16    7.19    0.88
  -2   3  16    7.80    1.33
   1  -3 -16    1.15    0.44
   1  -3 -16    1.26    0.69
  -1   3  16    0.42    0.73
   0  -3 -16    0.43    0.64
   0   3  16    0.41    0.73
  -1  -3 -16    0.38    0.68
   1   3  16    0.25    0.72
  -2  -3 -16   33.85    2.36
   2   3  16   30.86    2.10
  -3  -3 -16    0.64    0.65
   3   3  16   -0.96    0.70
  -4  -3 -16   19.55    1.53
   4   3  16   13.25    2.28
  -5  -3 -16   10.15    1.15
  -6  -3 -16    6.29    0.97
  -7  -3 -16    9.00    1.15
   3  -4 -16    0.85    0.67
   2  -4 -16   -0.23    0.57
   1  -4 -16    8.44    0.92
  -1   4  16    5.58    1.27
   0  -4 -16    9.19    1.19
   0  -4 -16    7.60    0.94
   0   4  16    8.59    1.18
  -1  -4 -16    9.23    1.29
  -1  -4 -16    9.66    1.03
   1   4  16    8.39    1.24
  -2  -4 -16   19.22    1.63
  -2  -4 -16   17.73    1.40
   2   4  16   16.52    1.54
  -3  -4 -16    0.96    0.70
  -4  -4 -16    8.98    1.27
   4   4  16    8.92    1.13
  -5  -4 -16    2.91    0.73
  -6  -4 -16   -0.27    0.61
  -7  -4 -16    1.68    0.73
   2  -5 -16   32.34    1.96
   1  -5 -16    0.59    0.56
   0  -5 -16   18.39    1.43
  -1  -5 -16    3.41    0.86
  -1  -5 -16    3.93    0.78
  -2  -5 -16    7.89    1.18
  -2  -5 -16    8.30    1.33
  -3  -5 -16   11.74    1.31
  -3  -5 -16   14.45    1.52
  -4  -5 -16    1.18    0.87
  -4  -5 -16    0.73    0.68
   4   5  16    0.77    1.04
  -5  -5 -16    2.81    0.72
  -5  -5 -16    2.17    0.89
  -6  -5 -16    7.43    1.14
  -6  -5 -16    5.61    1.16
  -7  -5 -16    0.66    0.73
   1  -6 -16    4.55    0.77
   0  -6 -16    2.65    0.68
  -1  -6 -16   -0.02    0.94
  -1  -6 -16    1.22    0.64
  -2  -6 -16   13.47    1.40
  -2  -6 -16   12.63    1.49
  -3  -6 -16   10.68    1.38
  -3  -6 -16   11.89    1.40
   3   6  16   12.03    1.55
  -4  -6 -16   22.27    1.79
  -4  -6 -16   19.93    1.79
  -5  -6 -16   28.96    2.08
  -6  -6 -16    1.03    0.77
  -7  -6 -16   27.27    2.02
   0  -7 -16    1.26    0.79
  -1  -7 -16    4.61    0.97
   1   7  16    6.36    1.16
  -2  -7 -16    0.97    0.81
   2   7  16    0.18    0.96
  -3  -7 -16    5.72    1.14
  -3  -7 -16    5.19    1.13
   3   7  16    5.43    1.19
  -4  -7 -16   -0.44    0.90
  -4  -7 -16    0.49    0.83
  -5  -7 -16    0.80    0.84
  -6  -7 -16    5.30    1.05
  -2  -8 -16    2.68    1.16
   2   8  16    2.41    1.18
  -3  -8 -16    3.98    1.19
  -4  -8 -16   -1.26    0.95
  -1  -3  17    2.48    0.74
   0  -3  17    3.07    0.74
   1  -3  17   -0.52    0.71
   2  -3  17    4.79    0.78
  -2  -2  17    8.24    1.14
  -1  -2  17    4.92    0.98
   0  -2  17   20.39    1.60
   1  -2  17    8.70    1.08
   2  -2  17    2.74    0.67
   3  -2  17   13.02    1.27
   4  -2  17    2.37    0.76
  -3  -1  17    4.68    1.04
  -2  -1  17    2.33    0.80
  -1  -1  17    4.67    0.92
   0  -1  17    0.09    0.60
   1  -1  17    0.57    0.60
  -2   1 -17    6.14    0.98
   2  -1  17    6.24    1.03
  -3   1 -17   16.04    1.35
   3  -1  17   15.83    1.45
  -4   1 -17    8.31    1.01
   4  -1  17   10.64    1.16
  -5   1 -17   42.95    2.46
   5  -1  17   42.09    2.49
  -3   0  17    0.44    0.83
   2   0 -17    1.40    0.88
  -2   0  17    0.46    0.74
   1   0 -17    4.46    0.93
  -1   0  17    4.01    0.88
   0   0 -17    1.16    0.71
   0   0  17    1.09    0.74
  -1   0 -17    3.48    0.80
   1   0  17    3.15    0.81
  -2   0 -17    1.04    0.62
   2   0  17   -0.07    0.62
  -3   0 -17   18.49    1.44
   3   0  17   15.78    1.55
  -4   0 -17    1.24    0.53
   4   0  17    2.67    0.71
  -5   0 -17   -0.73    0.62
   5   0  17    0.53    0.73
  -6   0 -17    0.31    0.70
   6   0  17    1.95    0.85
  -3   1  17   -0.34    0.89
  -2   1  17    7.47    1.37
  -1   1  17    1.29    0.79
   0  -1 -17    4.08    0.88
   0   1  17    2.37    0.85
  -1  -1 -17   11.82    1.29
   1   1  17    9.90    1.39
  -2  -1 -17    0.77    0.65
   2   1  17    0.61    0.72
  -3  -1 -17    5.45    0.97
   3   1  17    6.53    1.20
  -4  -1 -17    2.17    0.64
   4   1  17    3.50    0.86
  -5  -1 -17    2.70    0.62
   5   1  17    2.46    0.77
  -6  -1 -17    0.19    0.64
   3  -2 -17   26.75    1.75
  -3   2  17   28.38    2.88
   2  -2 -17    0.55    0.58
  -2   2  17    0.99    0.88
   1  -2 -17   26.21    1.83
  -1   2  17   21.21    1.86
   0  -2 -17   13.26    1.55
   0   2  17   13.90    1.60
  -1  -2 -17   21.70    1.71
   1   2  17   18.86    1.77
  -2  -2 -17    7.42    1.15
   2   2  17    8.15    1.24
  -3  -2 -17   14.41    1.40
   3   2  17   13.38    1.56
  -4  -2 -17    8.82    1.06
   4   2  17    5.77    1.11
  -5  -2 -17   27.14    1.79
   5   2  17   21.98    1.92
  -6  -2 -17    6.19    1.02
  -7  -2 -17    8.59    1.38
   2  -3 -17    1.73    0.62
   1  -3 -17   17.17    1.30
   0  -3 -17    1.51    0.77
   0   3  17    0.88    0.92
   1   3  17   24.21    1.92
  -2  -3 -17    8.96    1.33
   2   3  17    9.35    1.41
  -3  -3 -17   35.34    2.19
   3   3  17   29.02    2.23
  -4  -3 -17   41.66    2.40
   4   3  17   33.64    2.44
  -5  -3 -17   -0.27    0.62
  -6  -3 -17   21.84    1.63
  -7  -3 -17   12.37    1.33
   2  -4 -17   -0.48    0.66
   1  -4 -17    1.91    0.61
   0  -4 -17    8.18    0.98
  -1  -4 -17    1.97    0.61
  -1  -4 -17    1.61    0.82
   1   4  17    0.93    0.87
  -2  -4 -17   14.90    1.54
  -2  -4 -17   13.33    1.27
   2   4  17   11.57    1.54
  -3  -4 -17   16.89    1.65
  -4  -4 -17   10.05    1.34
  -5  -4 -17   14.32    1.42
  -6  -4 -17   23.28    1.78
  -7  -4 -17    3.50    0.87
   1  -5 -17   10.09    1.08
   0  -5 -17   11.45    1.13
  -1  -5 -17    1.28    0.89
  -1  -5 -17    1.53    0.64
  -2  -5 -17    1.24    0.87
  -2  -5 -17    0.67    0.69
  -3  -5 -17    1.07    0.81
  -3  -5 -17    0.53    0.74
  -4  -5 -17    3.95    1.00
  -4  -5 -17    4.64    0.99
  -5  -5 -17    9.15    1.35
  -5  -5 -17    6.27    1.17
  -6  -5 -17   26.09    1.99
   0  -6 -17    0.72    0.74
  -1  -6 -17    4.10    0.85
  -2  -6 -17   15.22    1.57
  -2  -6 -17   14.69    1.70
  -3  -6 -17    0.40    0.81
  -3  -6 -17    0.94    0.82
  -4  -6 -17   21.49    1.92
  -4  -6 -17   19.67    1.86
  -5  -6 -17    1.22    0.81
  -5  -6 -17    1.93    1.30
  -6  -6 -17    3.18    1.01
  -2  -7 -17    8.73    1.54
   2   7  17    8.57    1.50
  -3  -7 -17   12.46    1.84
  -3  -7 -17   12.44    1.74
  -4  -7 -17    1.03    1.03
  -4  -7 -17    1.51    1.02
   1  -2  18    1.93    0.77
   2  -2  18    2.93    0.80
  -1  -1  18   16.28    1.55
   0  -1  18    0.73    0.74
  -1   1 -18    5.15    0.92
   1  -1  18    4.08    0.89
  -2   1 -18   22.01    1.69
   2  -1  18   21.31    1.73
  -3   1 -18    1.16    0.68
   3  -1  18    2.99    0.77
  -4   1 -18    5.32    1.04
   1   0 -18    0.73    0.88
  -1   0  18    0.31    0.87
   0   0 -18   41.24    2.45
   0   0  18   34.92    2.43
  -1   0 -18   14.15    1.41
   1   0  18   12.16    1.43
  -2   0 -18    2.62    0.72
   2   0  18    2.57    0.86
  -3   0 -18   19.51    1.54
   3   0  18   19.59    1.62
   5   0  18   14.85    1.55
  -2   1  18   11.23    1.74
   1  -1 -18   12.75    1.63
  -1   1  18   11.61    1.66
   0  -1 -18   -0.22    0.72
   0   1  18    0.79    0.83
  -1  -1 -18    0.15    0.70
   1   1  18    0.77    0.85
  -2  -1 -18    6.51    1.29
   2   1  18    6.73    1.36
  -3  -1 -18    5.95    0.99
   3   1  18    7.98    1.37
  -4  -1 -18    1.19    0.65
   4   1  18    2.27    0.91
  -5  -1 -18   23.73    1.72
   5   1  18   18.52    1.93
  -1   2  18   -0.56    0.97
   0  -2 -18   12.13    1.55
   0   2  18   12.06    1.63
  -1  -2 -18    7.68    1.34
   1   2  18    5.16    1.11
  -2  -2 -18    1.38    0.78
   2   2  18    2.33    0.95
  -3  -2 -18   10.30    1.25
   3   2  18    9.14    1.53
  -4  -2 -18    0.31    0.65
   4   2  18   -0.71    0.89
   5   2  18    3.36    1.02
   1  -3 -18    1.51    0.67
   0  -3 -18    3.49    0.64
   0   3  18    3.05    1.16
  -1  -3 -18    9.68    1.48
   1   3  18    9.21    1.60
  -2  -3 -18    1.68    0.85
   2   3  18    2.90    1.06
  -3  -3 -18    1.15    0.77
   3   3  18    0.08    0.95
  -4  -3 -18    5.58    1.13
  -5  -3 -18    2.22    0.84
  -6  -3 -18    2.28    0.81
   0  -4 -18    8.86    1.08
  -1  -4 -18    4.81    0.84
  -1  -4 -18    3.73    1.07
  -2  -4 -18    2.76    0.77
  -2  -4 -18    2.78    0.96
   2   4  18    0.97    1.15
  -3  -4 -18    3.24    0.96
  -4  -4 -18    0.65    0.76
  -5  -4 -18    1.65    0.79
  -1  -5 -18    0.65    0.72
  -2  -5 -18    7.35    1.24
  -2  -5 -18    5.89    1.19
  -3  -5 -18    4.07    1.06
  -3  -5 -18    4.48    1.07
  -4  -5 -18    4.71    1.15
  -5  -5 -18    0.60    1.10
  -5  -5 -18    0.49    0.88
  -3  -6 -18    2.23    0.98
  -3  -6 -18    0.29    1.04
  -1  -1 -19    1.13    0.91
   1   1  19    1.27    1.07
  -2  -1 -19    8.33    1.31
   2   1  19    9.24    1.62
   3   1  19    2.59    0.97
  -1  -2 -19    1.49    0.95
   1   2  19   -0.16    1.03
  -2  -2 -19    2.20    0.93
   2   2  19    2.64    1.11
  -3  -2 -19   19.85    1.72
   3   2  19   18.89    2.04
  -2  -3 -19   13.65    1.67
   2   3  19   14.45    2.00
  -3  -3 -19    3.72    1.02
   3   3  19    2.43    1.18
   0   0   0    0.00    0.00
;
_shelx_hkl_checksum              50834
_shelx_res_file
;
TITL    rr15 in P-1
    shelx.res
    created by SHELXL-2018/1 at 14:45:27 on 09-Mar-2018
CELL 0.71073   7.5237   7.5739  12.5089  79.629  79.596  75.895
ZERR    2.00   0.0004   0.0004   0.0007   0.002   0.002   0.002
LATT  1
SFAC    C   H   N   O   S   CL  BR
UNIT    22 22 6 4 2 2 2
temp -173.15
L.S.    20
acta
conf
bond $h
htab
HTAB O1B N1A
EQIV $1 x+1, y, z
HTAB C5B Br1_$1
EQIV $2 -x, -y+2, -z+1
HTAB N4A N3A_$2
EQIV $3 -x, -y+1, -z+1
HTAB N4A O2B_$3
HTAB C8A Cl1
bind br1 br1_$4
eqiv $4 -x, -y, 2-z
bind br1 s1_$5
eqiv $5 1-x, -y, 2-z
bind br1 cl1_$6
eqiv $6 x, y-1, 1+z
omit     0  -2   1
omit    -4   1   3
omit    -6  -1   6
omit     0   4   0
omit    -2  -3  10
omit     0   6   6
omit    -3   0  10
omit    -4   1  16
omit    -1   2  12
omit    -2   0  12
omit    -2   2  11
omit    -1  -1  12
WGHT    0.010000    0.881300
FVAR       0.21792   0.49503
BR1   7    0.173593   -0.207856    0.998066    11.00000    0.01179    0.01544 =
         0.01657   -0.00006   -0.00291   -0.00349
S1    5    0.712183   -0.096074    0.839624    11.00000    0.01211    0.01347 =
         0.01684   -0.00203   -0.00211   -0.00285
O1B   4    0.464921    0.172065    0.712757    11.00000    0.01865    0.01775 =
         0.02021    0.00645   -0.00342   -0.00208
H1A   2    0.396218    0.264324    0.673022    11.00000    0.04969
O2B   4    0.194774    0.103508    0.796329    11.00000    0.01741    0.02461 =
         0.02194    0.00716   -0.00916   -0.00322
C1B   1    0.362594    0.076744    0.786326    11.00000    0.01685    0.01313 =
         0.01068   -0.00179   -0.00439   -0.00222
C2B   1    0.474696   -0.068582    0.857832    11.00000    0.01222    0.01073 =
         0.01148   -0.00175   -0.00419   -0.00139
C3B   1    0.419108   -0.190292    0.946012    11.00000    0.01037    0.00984 =
         0.01312   -0.00340   -0.00331   -0.00156
C4B   1    0.566205   -0.303798    0.998703    11.00000    0.01609    0.01061 =
         0.01388   -0.00020   -0.00749   -0.00243
AFIX  43
H4AA  2    0.550993   -0.393948    1.061103    11.00000   -1.20000
AFIX   0
C5B   1    0.732669   -0.267756    0.948794    11.00000    0.01474    0.01298 =
         0.01961   -0.00194   -0.00763   -0.00082
AFIX  43
H5AA  2    0.847630   -0.331186    0.972153    11.00000   -1.20000
AFIX   0
CL1   6    0.206232    0.538888    0.269185    11.00000    0.02217    0.01842 =
         0.01073   -0.00395   -0.00411   -0.00160
N1A   3    0.287537    0.439526    0.581507    11.00000    0.01602    0.01104 =
         0.01246    0.00041   -0.00390   -0.00128
C1A   1    0.212313    0.605980    0.610711    11.00000    0.01383    0.01246 =
         0.01184    0.00058   -0.00337   -0.00295
N3A   3    0.130410    0.751850    0.545929    11.00000    0.01561    0.01125 =
         0.01112   -0.00039   -0.00350   -0.00258
N4A   3    0.033433    0.872791    0.377938    11.00000    0.02054    0.00998 =
         0.01226   -0.00017   -0.00630    0.00018
H4B1  2   -0.012758    0.969700    0.400625    11.00000    0.02651
H4B2  2    0.012134    0.856259    0.318330    11.00000    0.02678
C4A   1    0.121939    0.730708    0.441752    11.00000    0.01125    0.01100 =
         0.01107   -0.00055   -0.00189   -0.00302
C5A   1    0.205659    0.559604    0.404555    11.00000    0.01461    0.01146 =
         0.00897   -0.00119   -0.00232   -0.00246
C6A   1    0.285349    0.415283    0.476518    11.00000    0.01312    0.01175 =
         0.01302   -0.00014   -0.00121   -0.00289
C7A   1    0.218987    0.628766    0.726645    11.00000    0.02420    0.02069 =
         0.01058   -0.00119   -0.00620   -0.00351
AFIX 137
H7BA  2    0.346202    0.583683    0.742949    11.00000   -1.50000
H7BB  2    0.137498    0.558307    0.777376    11.00000   -1.50000
H7BC  2    0.177617    0.759176    0.735254    11.00000   -1.50000
AFIX   0
C8A   1    0.370820    0.226887    0.446752    11.00000    0.02249    0.01217 =
         0.02027   -0.00233   -0.00318    0.00167
AFIX 137
PART   1
H8B1  2    0.413316    0.144726    0.511493    21.00000   -1.50000
H8B2  2    0.476348    0.233326    0.388531    21.00000   -1.50000
H8B3  2    0.278688    0.179407    0.420768    21.00000   -1.50000
PART   2
AFIX 137
H8B4  2    0.376237    0.229615    0.367619   -21.00000   -1.50000
H8B5  2    0.295740    0.140367    0.486933   -21.00000   -1.50000
H8B6  2    0.496375    0.187476    0.466240   -21.00000   -1.50000
PART   0
AFIX   0
HKLF 4
REM     rr15 in P-1
REM R1 =  0.0336 for    4471 Fo > 4sig(Fo)  and  0.0425 for all    5103 data
REM    187 parameters refined using      0 restraints
END
WGHT      0.0096      0.8818
REM Instructions for potential hydrogen bonds
HTAB O1B N1A
HTAB C5B Br1_$1
HTAB N4A N3A_$2
HTAB N4A O2B_$3
HTAB C8A Cl1
REM Highest difference peak  0.673,  deepest hole -0.524,  1-sigma level  0.109
Q1    1   0.1449 -0.2554  0.9535  11.00000  0.05    0.67
Q2    1   0.2001 -0.1650  1.0452  11.00000  0.05    0.64
Q3    1   0.1871 -0.3207  1.0038  11.00000  0.05    0.62
Q4    1   0.6644 -0.2079  0.9955  11.00000  0.05    0.61
Q5    1   0.6435 -0.2751  0.9627  11.00000  0.05    0.58
Q6    1   0.1180 -0.1776  0.9495  11.00000  0.05    0.56
Q7    1   0.2743  0.5046  0.4394  11.00000  0.05    0.54
Q8    1   0.2935  0.4349  0.5275  11.00000  0.05    0.54
Q9    1   0.4668 -0.1347  0.9072  11.00000  0.05    0.54
Q10   1   0.1751 -0.1001  0.9823  11.00000  0.05    0.53
Q11   1   0.9221 -0.3183  1.0018  11.00000  0.05    0.50
Q12   1   0.2596 -0.1919  0.9688  11.00000  0.05    0.49
Q13   1   0.1416  0.7626  0.4904  11.00000  0.05    0.49
Q14   1   0.4602 -0.2539  0.9987  11.00000  0.05    0.48
Q15   1   0.1394  0.6562  0.4053  11.00000  0.05    0.47
Q16   1   0.1788  0.6460  0.4274  11.00000  0.05    0.47
Q17   1   0.4226 -0.0190  0.8193  11.00000  0.05    0.46
Q18   1   0.4647 -0.1252  0.7380  11.00000  0.05    0.46
Q19   1   0.2220  0.5142  0.6025  11.00000  0.05    0.44
Q20   1   0.6218 -0.3003  1.1686  11.00000  0.05    0.43
;
_shelx_res_checksum              52514
loop_
_space_group_symop_operation_xyz
'x, y, z'
'-x, -y, -z'
loop_
_atom_site_type_symbol
_atom_site_label
_atom_site_fract_x
_atom_site_fract_y
_atom_site_fract_z
_atom_site_U_iso_or_equiv
_atom_site_adp_type
_atom_site_calc_flag
_atom_site_occupancy
_atom_site_disorder_assembly
_atom_site_disorder_group
Br Br1 0.17359(2) -0.20786(2) 0.99807(2) 0.01468(5) Uani d 1 . .
S S1 0.71218(6) -0.09607(6) 0.83962(4) 0.01414(9) Uani d 1 . .
O O1B 0.4649(2) 0.1721(2) 0.71276(12) 0.0203(3) Uani d 1 . .
H H1A 0.396(5) 0.264(5) 0.673(3) 0.050(10) Uiso d 1 . .
O O2B 0.1948(2) 0.1035(2) 0.79633(13) 0.0221(3) Uani d 1 . .
C C1B 0.3626(3) 0.0767(2) 0.78633(15) 0.0134(3) Uani d 1 . .
C C2B 0.4747(2) -0.0686(2) 0.85783(14) 0.0113(3) Uani d 1 . .
C C3B 0.4191(2) -0.1903(2) 0.94601(15) 0.0108(3) Uani d 1 . .
C C4B 0.5662(2) -0.3038(2) 0.99870(15) 0.0131(3) Uani d 1 . .
H H4AA 0.550993 -0.393948 1.061103 0.016 Uiso calc 1 . .
C C5B 0.7327(3) -0.2678(2) 0.94879(16) 0.0156(3) Uani d 1 . .
H H5AA 0.847630 -0.331186 0.972153 0.019 Uiso calc 1 . .
Cl Cl1 0.20623(6) 0.53889(6) 0.26918(4) 0.01714(9) Uani d 1 . .
N N1A 0.2875(2) 0.4395(2) 0.58151(13) 0.0135(3) Uani d 1 . .
C C1A 0.2123(2) 0.6060(2) 0.61071(15) 0.0128(3) Uani d 1 . .
N N3A 0.1304(2) 0.7519(2) 0.54593(13) 0.0127(3) Uani d 1 . .
N N4A 0.0334(2) 0.8728(2) 0.37794(14) 0.0146(3) Uani d 1 . .
H H4B1 -0.013(4) 0.970(4) 0.401(2) 0.027(7) Uiso d 1 . .
H H4B2 0.012(4) 0.856(4) 0.318(2) 0.027(7) Uiso d 1 . .
C C4A 0.1219(2) 0.7307(2) 0.44175(14) 0.0111(3) Uani d 1 . .
C C5A 0.2057(2) 0.5596(2) 0.40456(14) 0.0117(3) Uani d 1 . .
C C6A 0.2853(2) 0.4153(2) 0.47652(15) 0.0129(3) Uani d 1 . .
C C7A 0.2190(3) 0.6288(3) 0.72665(16) 0.0184(4) Uani d 1 . .
H H7BA 0.346202 0.583683 0.742949 0.028 Uiso calc 1 . .
H H7BB 0.137498 0.558307 0.777376 0.028 Uiso calc 1 . .
H H7BC 0.177617 0.759176 0.735254 0.028 Uiso calc 1 . .
C C8A 0.3708(3) 0.2269(3) 0.44675(17) 0.0193(4) Uani d 1 . .
H H8B1 0.413316 0.144726 0.511493 0.029 Uiso calc 0.50(3) A 1
H H8B2 0.476348 0.233326 0.388531 0.029 Uiso calc 0.50(3) A 1
H H8B3 0.278688 0.179407 0.420768 0.029 Uiso calc 0.50(3) A 1
H H8B4 0.376237 0.229615 0.367619 0.029 Uiso calc 0.50(3) A 2
H H8B5 0.295740 0.140367 0.486933 0.029 Uiso calc 0.50(3) A 2
H H8B6 0.496375 0.187476 0.466240 0.029 Uiso calc 0.50(3) A 2
loop_
_atom_site_aniso_label
_atom_site_aniso_U_11
_atom_site_aniso_U_22
_atom_site_aniso_U_33
_atom_site_aniso_U_12
_atom_site_aniso_U_13
_atom_site_aniso_U_23
Br1 0.01179(8) 0.01544(8) 0.01657(9) -0.00349(6) -0.00291(6) -0.00006(6)
S1 0.01211(18) 0.01347(19) 0.0168(2) -0.00285(14) -0.00211(15) -0.00203(15)
O1B 0.0187(6) 0.0178(6) 0.0202(7) -0.0021(5) -0.0034(5) 0.0064(5)
O2B 0.0174(6) 0.0246(7) 0.0219(8) -0.0032(5) -0.0092(6) 0.0072(6)
C1B 0.0168(8) 0.0131(7) 0.0107(8) -0.0022(6) -0.0044(6) -0.0018(6)
C2B 0.0122(7) 0.0107(7) 0.0115(8) -0.0014(6) -0.0042(6) -0.0018(6)
C3B 0.0104(7) 0.0098(7) 0.0131(8) -0.0016(5) -0.0033(6) -0.0034(6)
C4B 0.0161(7) 0.0106(7) 0.0139(8) -0.0024(6) -0.0075(6) -0.0002(6)
C5B 0.0147(7) 0.0130(8) 0.0196(9) -0.0008(6) -0.0076(7) -0.0019(6)
Cl1 0.0222(2) 0.0184(2) 0.01073(19) -0.00160(16) -0.00411(16) -0.00395(15)
N1A 0.0160(7) 0.0110(6) 0.0125(7) -0.0013(5) -0.0039(5) 0.0004(5)
C1A 0.0138(7) 0.0125(7) 0.0118(8) -0.0030(6) -0.0034(6) 0.0006(6)
N3A 0.0156(7) 0.0112(6) 0.0111(7) -0.0026(5) -0.0035(5) -0.0004(5)
N4A 0.0205(7) 0.0100(7) 0.0123(7) 0.0002(6) -0.0063(6) -0.0002(5)
C4A 0.0112(7) 0.0110(7) 0.0111(7) -0.0030(5) -0.0019(6) -0.0005(6)
C5A 0.0146(7) 0.0115(7) 0.0090(7) -0.0025(6) -0.0023(6) -0.0012(5)
C6A 0.0131(7) 0.0118(7) 0.0130(8) -0.0029(6) -0.0012(6) -0.0001(6)
C7A 0.0242(9) 0.0207(9) 0.0106(8) -0.0035(7) -0.0062(7) -0.0012(6)
C8A 0.0225(9) 0.0122(8) 0.0203(9) 0.0017(7) -0.0032(7) -0.0023(7)
loop_
_atom_type_symbol
_atom_type_description
_atom_type_scat_dispersion_real
_atom_type_scat_dispersion_imag
_atom_type_scat_source
C C 0.0033 0.0016 'International Tables Vol C Tables 4.2.6.8 and 6.1.1.4'
H H 0.0000 0.0000 'International Tables Vol C Tables 4.2.6.8 and 6.1.1.4'
N N 0.0061 0.0033 'International Tables Vol C Tables 4.2.6.8 and 6.1.1.4'
O O 0.0106 0.0060 'International Tables Vol C Tables 4.2.6.8 and 6.1.1.4'
S S 0.1246 0.1234 'International Tables Vol C Tables 4.2.6.8 and 6.1.1.4'
Cl Cl 0.1484 0.1585 'International Tables Vol C Tables 4.2.6.8 and 6.1.1.4'
Br Br -0.2901 2.4595 'International Tables Vol C Tables 4.2.6.8 and 6.1.1.4'
loop_
_geom_angle_atom_site_label_1
_geom_angle_atom_site_label_2
_geom_angle_atom_site_label_3
_geom_angle_site_symmetry_1
_geom_angle_site_symmetry_3
_geom_angle
C3B Br1 Br1 . 2_557 118.11(5)
C3B Br1 Cl1 . 1_546 102.47(5)
Br1 Br1 Cl1 2_557 1_546 111.923(11)
C3B Br1 S1 . 2_657 73.14(5)
Br1 Br1 S1 2_557 2_657 69.809(10)
Cl1 Br1 S1 1_546 2_657 73.552(12)
C5B S1 C2B . . 91.90(9)
C1B O1B H1A . . 112(2)
O2B C1B O1B . . 124.83(17)
O2B C1B C2B . . 122.74(17)
O1B C1B C2B . . 112.43(15)
C3B C2B C1B . . 129.82(16)
C3B C2B S1 . . 110.12(12)
C1B C2B S1 . . 119.99(13)
C2B C3B C4B . . 113.85(15)
C2B C3B Br1 . . 125.30(13)
C4B C3B Br1 . . 120.84(13)
C5B C4B C3B . . 111.48(16)
C5B C4B H4AA . . 124.3
C3B C4B H4AA . . 124.3
C4B C5B S1 . . 112.65(13)
C4B C5B H5AA . . 123.7
S1 C5B H5AA . . 123.7
C1A N1A C6A . . 118.14(15)
N3A C1A N1A . . 125.43(17)
N3A C1A C7A . . 117.73(16)
N1A C1A C7A . . 116.83(15)
C1A N3A C4A . . 117.78(15)
C4A N4A H4B1 . . 121(2)
C4A N4A H4B2 . . 118.9(19)
H4B1 N4A H4B2 . . 120(3)
N4A C4A N3A . . 118.32(16)
N4A C4A C5A . . 122.24(16)
N3A C4A C5A . . 119.44(15)
C6A C5A C4A . . 119.30(16)
C6A C5A Cl1 . . 121.77(14)
C4A C5A Cl1 . . 118.93(13)
N1A C6A C5A . . 119.82(16)
N1A C6A C8A . . 116.65(16)
C5A C6A C8A . . 123.52(17)
C1A C7A H7BA . . 109.5
C1A C7A H7BB . . 109.5
H7BA C7A H7BB . . 109.5
C1A C7A H7BC . . 109.5
H7BA C7A H7BC . . 109.5
H7BB C7A H7BC . . 109.5
C6A C8A H8B1 . . 109.5
C6A C8A H8B2 . . 109.5
H8B1 C8A H8B2 . . 109.5
C6A C8A H8B3 . . 109.5
H8B1 C8A H8B3 . . 109.5
H8B2 C8A H8B3 . . 109.5
C6A C8A H8B4 . . 109.5
C6A C8A H8B5 . . 109.5
H8B4 C8A H8B5 . . 109.5
C6A C8A H8B6 . . 109.5
H8B4 C8A H8B6 . . 109.5
H8B5 C8A H8B6 . . 109.5
loop_
_geom_bond_atom_site_label_1
_geom_bond_atom_site_label_2
_geom_bond_site_symmetry_2
_geom_bond_distance
Br1 C3B . 1.8729(17)
Br1 Br1 2_557 3.5693(4)
Br1 Cl1 1_546 3.6014(5)
Br1 S1 2_657 3.6656(5)
S1 C5B . 1.7083(19)
S1 C2B . 1.7253(17)
O1B C1B . 1.318(2)
O1B H1A . 0.89(3)
O2B C1B . 1.216(2)
C1B C2B . 1.479(2)
C2B C3B . 1.377(2)
C3B C4B . 1.412(2)
C4B C5B . 1.362(3)
C4B H4AA . 0.9500
C5B H5AA . 0.9500
Cl1 C5A . 1.7276(18)
N1A C1A . 1.337(2)
N1A C6A . 1.362(2)
C1A N3A . 1.335(2)
C1A C7A . 1.502(3)
N3A C4A . 1.356(2)
N4A C4A . 1.331(2)
N4A H4B1 . 0.81(3)
N4A H4B2 . 0.83(3)
C4A C5A . 1.416(2)
C5A C6A . 1.373(2)
C6A C8A . 1.499(3)
C7A H7BA . 0.9800
C7A H7BB . 0.9800
C7A H7BC . 0.9800
C8A H8B1 . 0.9800
C8A H8B2 . 0.9800
C8A H8B3 . 0.9800
C8A H8B4 . 0.9800
C8A H8B5 . 0.9800
C8A H8B6 . 0.9800
loop_
_geom_hbond_atom_site_label_D
_geom_hbond_atom_site_label_H
_geom_hbond_atom_site_label_A
_geom_hbond_site_symmetry_A
_geom_hbond_distance_DH
_geom_hbond_distance_HA
_geom_hbond_distance_DA
_geom_hbond_angle_DHA
_geom_hbond_publ_flag
O1B H1A N1A . 0.89(3) 1.73(4) 2.618(2) 172(3) yes
C5B H5AA Br1 1_655 0.95 2.92 3.6281(18) 132.7 yes
N4A H4B1 N3A 2_576 0.81(3) 2.25(3) 3.058(2) 176(3) yes
N4A H4B2 O2B 2_566 0.83(3) 2.23(3) 2.965(2) 148(3) yes
C8A H8B4 Cl1 . 0.98 2.59 3.119(2) 113.9 yes
loop_
_geom_torsion_atom_site_label_1
_geom_torsion_atom_site_label_2
_geom_torsion_atom_site_label_3
_geom_torsion_atom_site_label_4
_geom_torsion_site_symmetry_1
_geom_torsion
O2B C1B C2B C3B . -2.5(3)
O1B C1B C2B C3B . 177.09(18)
O2B C1B C2B S1 . -179.15(15)
O1B C1B C2B S1 . 0.4(2)
C5B S1 C2B C3B . 0.04(14)
C5B S1 C2B C1B . 177.34(15)
C1B C2B C3B C4B . -176.64(17)
S1 C2B C3B C4B . 0.32(19)
C1B C2B C3B Br1 . 2.0(3)
S1 C2B C3B Br1 . 178.93(9)
Br1 Br1 C3B C2B 2_557 -39.37(17)
Cl1 Br1 C3B C2B 1_546 -162.85(14)
S1 Br1 C3B C2B 2_657 -94.57(15)
Br1 Br1 C3B C4B 2_557 139.14(12)
Cl1 Br1 C3B C4B 1_546 15.66(15)
S1 Br1 C3B C4B 2_657 83.94(14)
C2B C3B C4B C5B . -0.6(2)
Br1 C3B C4B C5B . -179.30(13)
C3B C4B C5B S1 . 0.7(2)
C2B S1 C5B C4B . -0.41(15)
C6A N1A C1A N3A . 1.6(3)
C6A N1A C1A C7A . -179.29(16)
N1A C1A N3A C4A . 0.1(3)
C7A C1A N3A C4A . -179.07(16)
C1A N3A C4A N4A . 177.07(16)
C1A N3A C4A C5A . -2.6(2)
N4A C4A C5A C6A . -176.19(17)
N3A C4A C5A C6A . 3.4(3)
N4A C4A C5A Cl1 . 4.3(2)
N3A C4A C5A Cl1 . -176.06(13)
C1A N1A C6A C5A . -0.6(3)
C1A N1A C6A C8A . -179.97(16)
C4A C5A C6A N1A . -1.8(3)
Cl1 C5A C6A N1A . 177.67(13)
C4A C5A C6A C8A . 177.52(17)
Cl1 C5A C6A C8A . -3.0(3)

_cod_database_fobs_code 2021197
