#------------------------------------------------------------------------------
#$Date: 2018-10-25 05:40:06 +0300 (Thu, 25 Oct 2018) $
#$Revision: 211615 $
#$URL: file:///home/coder/svn-repositories/cod/cif/2/02/12/2021286.cif $
#------------------------------------------------------------------------------
#
# This file is available in the Crystallography Open Database (COD),
# http://www.crystallography.net/. The original data for this entry
# were provided by IUCr Journals, http://journals.iucr.org/.
#
# The file may be used within the scientific community so long as
# proper attribution is given to the journal article from which the
# data were obtained.
#
data_2021286
loop_
_publ_author_name
'Owczarzak, Agata'
'Przyby\/l, Anna K.'
'Kubicki, Maciej'
_publ_section_title
;
 Different cationic forms of (--)-cytisine in the crystal structures of
 its simple inorganic salts
;
_journal_coeditor_code           YF3149
_journal_issue                   11
_journal_name_full               'Acta Crystallographica Section C'
_journal_page_first
;
;
_journal_paper_doi               10.1107/S2053229618012585
_journal_volume                  74
_journal_year                    2018
_chemical_absolute_configuration syn
_chemical_formula_iupac          'C11 H15 N2 O +, N O3 -, H2 O'
_chemical_formula_moiety         'C11 H15 N2 O +, N O3 -, H2 O'
_chemical_formula_sum            'C11 H17 N3 O5'
_chemical_formula_weight         271.27
_chemical_name_common
;
Cytisinium nitrate monohydrate
;
_chemical_name_systematic
;
6-Oxo-7,11-diazatricyclo[7.3.1.0^2,7^]trideca-2,4-dien-11-ium nitrate
monohydrate
;
_space_group_crystal_system      monoclinic
_space_group_IT_number           4
_space_group_name_Hall           'P 2yb'
_space_group_name_H-M_alt        'P 1 21 1'
_symmetry_space_group_name_Hall  'P 2yb'
_symmetry_space_group_name_H-M   'P 1 21 1'
_atom_sites_solution_hydrogens   difmap
_audit_creation_method           SHELXL-2013
_cell_angle_alpha                90
_cell_angle_beta                 113.071(4)
_cell_angle_gamma                90
_cell_formula_units_Z            2
_cell_length_a                   7.6216(2)
_cell_length_b                   10.4582(2)
_cell_length_c                   8.4325(3)
_cell_measurement_reflns_used    19871
_cell_measurement_temperature    100.0(10)
_cell_measurement_theta_max      52.9480
_cell_measurement_theta_min      3.6570
_cell_volume                     618.38(4)
_computing_cell_refinement
;
(CrysAlis PRO; Agilent, 2013)
;
_computing_data_collection
;
(CrysAlis PRO; Agilent, 2013)
;
_computing_data_reduction
;
(CrysAlis PRO; Agilent, 2013)
;
_computing_molecular_graphics
;
Mercury (Macrae <i>et al.</i>,  2008)
;
_computing_publication_material
;
SHELXL2014 (Sheldrick, 2015b)
;
_computing_structure_refinement
;
SHELXL2014 (Sheldrick, 2015b)
;
_computing_structure_solution
;
SHELXT (Sheldrick, 2015a)
;
_diffrn_ambient_temperature      100.0(10)
_diffrn_detector                 'CCD plate'
_diffrn_detector_area_resol_mean 16.1544
_diffrn_measured_fraction_theta_full 0.997
_diffrn_measured_fraction_theta_max 0.969
_diffrn_measurement_device       'four-circle diffractometer'
_diffrn_measurement_device_type  'Agilent Xcalibur Eos'
_diffrn_measurement_method       '\w scan'
_diffrn_radiation_monochromator  graphite
_diffrn_radiation_probe          x-ray
_diffrn_radiation_type           'Mo K\a'
_diffrn_radiation_wavelength     0.71073
_diffrn_reflns_av_R_equivalents  0.0174
_diffrn_reflns_av_unetI/netI     0.0102
_diffrn_reflns_limit_h_max       10
_diffrn_reflns_limit_h_min       -10
_diffrn_reflns_limit_k_max       14
_diffrn_reflns_limit_k_min       -14
_diffrn_reflns_limit_l_max       11
_diffrn_reflns_limit_l_min       -11
_diffrn_reflns_number            19662
_diffrn_reflns_theta_full        25.000
_diffrn_reflns_theta_max         30.046
_diffrn_reflns_theta_min         3.229
_diffrn_source                   'Enhance (Mo) X-ray Source'
_exptl_absorpt_coefficient_mu    0.116
_exptl_absorpt_correction_T_max  1.00000
_exptl_absorpt_correction_T_min  0.87181
_exptl_absorpt_correction_type   multi-scan
_exptl_absorpt_process_details
;
(CrysAlis PRO; Agilent, 2013)
;
_exptl_crystal_colour            colourless
_exptl_crystal_density_diffrn    1.457
_exptl_crystal_description       prism
_exptl_crystal_F_000             288
_exptl_crystal_size_max          0.35
_exptl_crystal_size_mid          0.15
_exptl_crystal_size_min          0.1
_refine_diff_density_max         0.301
_refine_diff_density_min         -0.193
_refine_ls_abs_structure_details
;
Flack <i>x</i> determined using 1685 quotients [(I+)-(I-)]/[(I+)+(I-)]
(Parsons <i>et al.</i>,  2013)
;
_refine_ls_abs_structure_Flack   -0.05(13)
_refine_ls_extinction_method     none
_refine_ls_goodness_of_fit_ref   1.085
_refine_ls_hydrogen_treatment    refall
_refine_ls_matrix_type           full
_refine_ls_number_parameters     240
_refine_ls_number_reflns         3617
_refine_ls_number_restraints     1
_refine_ls_restrained_S_all      1.085
_refine_ls_R_factor_all          0.0269
_refine_ls_R_factor_gt           0.0267
_refine_ls_shift/su_max          0.002
_refine_ls_shift/su_mean         0.000
_refine_ls_structure_factor_coef Fsqd
_refine_ls_weighting_details
'w=1/[\s^2^(Fo^2^)+(0.0496P)^2^+0.0644P] where P=(Fo^2^+2Fc^2^)/3'
_refine_ls_weighting_scheme      calc
_refine_ls_wR_factor_gt          0.0742
_refine_ls_wR_factor_ref         0.0744
_reflns_number_gt                3590
_reflns_number_total             3617
_reflns_threshold_expression     'I > 2\s(I)'
_cod_data_source_file            yf3149sup1.cif
_cod_data_source_block           7
_cod_original_cell_volume        618.38(3)
_cod_database_code               2021286
_shelx_space_group_comment
;
The symmetry employed for this shelxl refinement is uniquely defined
by the following loop, which should always be used as a source of
symmetry information in preference to the above space-group names.
They are only intended as comments.
;
_shelx_hkl_file
;
   0 -14   0 9424.22 255.888  23
   0 -14   0 9409.81 255.124   4
   0 -14   0 9499.59 264.264   5
   0 -14   1 5411.77 196.618   4
   0 -14   1 5153.34 205.193   5
   0 -14   1 5306.84 222.062  25
   0 -14  -1 5331.64 191.143   4
   0 -14  -1 5372.67 192.792  23
   0 -14   1 5337.88 239.006  16
   0 -14   1 5593.73 200.515  23
   0 -14  -1 4765.63 250.527  16
   0 -14  -1 5689.59 204.156   5
   0 -14   2 2189.51 175.760  16
   0 -14   2 2313.01 134.653   4
   0 -14  -2 2363.98 133.364   4
   0 -14  -2 2430.55 136.303   5
   0 -14  -2 2079.87 199.666  16
   0 -14   2 2061.62 158.088  25
   0 -14   2 2128.47 143.354   5
   0 -14  -2 2429.17 136.611  23
   0 -14   3 3863.22 173.754   4
   0 -14  -3 3680.05 162.734  23
   0 -14   3 3602.25 182.934   5
   0 -14  -3 4078.65 174.060   4
   0 -14   3 3113.56 188.180  25
   0 -14  -3 3815.59 163.794   5
   0 -14  -3 3840.13 202.673  19
   0 -14   3 3338.60 193.736  16
   0 -14  -3 3441.93 231.539  16
   0 -13   0 96.4189 62.9574   5
   0 -13   0 33.4266 50.9027   4
   0 -13   0-208.032 135.512  16
   0 -13   0-16.7991 58.1865  23
   0 -13   0 278.088 96.7095  25
   0 -13   1 3872.00 162.403  23
   0 -13   1 3576.73 153.096   4
   0 -13   1 3583.86 178.169  25
   0 -13  -1 3657.08 157.142   5
   0 -13   1 3872.07 200.161  16
   0 -13   1 3709.89 162.357   5
   0 -13  -1 3614.58 151.647   4
   0 -13  -1 3609.77 204.634  16
   0 -13  -1 3713.45 155.205  23
   0 -13  -2 1665.79 110.827   5
   0 -13  -2 2039.28 142.285  19
   0 -13  -2 1802.05 116.370  23
   0 -13   2 1699.85 145.857  25
   0 -13   2 1658.00 112.749   4
   0 -13  -2 1651.49 107.884   4
   0 -13   2 1679.17 114.786  23
   0 -13   2 1503.76 141.911  16
   0 -13   2 1589.01 119.035   5
   0 -13  -2 1709.04 188.044  16
   0 -13   3 2623.15 167.954  25
   0 -13  -3 2720.80 130.739   5
   0 -13   3 2926.32 157.400   5
   0 -13   3 2853.92 172.501  16
   0 -13  -3 2971.30 142.414   4
   0 -13   3 2959.12 145.280   4
   0 -13  -3 2890.35 175.718  19
   0 -13  -3 2522.89 191.923  16
   0 -13  -3 2917.60 140.811  23
   0 -13  -4 6609.27 256.640  19
   0 -13  -4 6538.72 203.806  23
   0 -13   4 6853.25 232.901  16
   0 -13   4 6860.62 259.510  25
   0 -13   4 6163.42 213.564   4
   0 -13  -4 6972.12 280.311  16
   0 -13  -4 6282.62 207.654   4
   0 -13   5 5010.71 205.671   6
   0 -13  -5 4059.86 238.755  16
   0 -13  -5 4641.94 237.119  19
   0 -13   5 3744.29 210.279  25
   0 -13   5 4899.67 200.869  16
   0 -13  -5 4697.71 179.328  23
   0 -12   0 3771.53 194.407  16
   0 -12   0 4068.96 151.659  23
   0 -12   0 4038.59 149.433   4
   0 -12   0 3651.22 166.050  25
   0 -12   0 3867.53 154.606   5
   0 -12  -1 2144.57 133.218  25
   0 -12   1 1760.54 130.190  25
   0 -12  -1 1622.09 106.372  23
   0 -12  -1 1740.98 102.823   5
   0 -12   1 1744.46 107.311  23
   0 -12   1 1804.18 146.665  16
   0 -12   1 1523.01 106.959   5
   0 -12   1 1819.98 106.672   4
   0 -12  -1 1709.01 102.177   4
   0 -12  -1 1673.42 165.281  16
   0 -12  -2 603.215 77.3457  23
   0 -12  -2 361.539 122.728  16
   0 -12  -2 563.846 71.9754   5
   0 -12   2 382.876 94.9835  25
   0 -12  -2 827.392 114.447  19
   0 -12   2 536.424 78.8972   5
   0 -12   2 638.337 71.8420   4
   0 -12   2 486.273 104.126  16
   0 -12  -2 540.827 64.8779   4
   0 -12   2 496.019 75.0217  23
   0 -12   3 3451.64 169.229  16
   0 -12   3 3324.07 175.559  25
   0 -12  -3 3869.33 151.570   4
   0 -12  -3 3912.94 143.549   5
   0 -12   3 3960.58 159.435   4
   0 -12  -3 3394.04 194.611  16
   0 -12   3 3759.35 163.302   5
   0 -12  -3 3717.87 146.916  23
   0 -12  -3 3798.00 178.309  19
   0 -12  -4 158.689 124.591  19
   0 -12   4 166.797 60.7420   4
   0 -12   4 451.406 99.4084  16
   0 -12  -4 208.513 64.2243  23
   0 -12   4 201.703 97.4344  25
   0 -12   4 206.638 69.3488   5
   0 -12  -4 39.4099 122.263  16
   0 -12   5 3251.65 163.569   6
   0 -12  -5 2915.99 195.171  19
   0 -12  -5 3050.84 139.680  23
   0 -12  -5 2851.76 200.099  16
   0 -12   5 2446.53 171.350  25
   0 -12   5 2919.77 150.650  16
   0 -12   6 7151.04 282.879  25
   0 -12  -6 7525.70 282.661  16
   0 -12   6 7760.06 232.429  16
   0 -12   6 7989.00 248.915   6
   0 -12  -6 7200.38 287.562  19
   0 -12  -6 7589.60 220.126  23
   0 -11   0 37.5715 47.7118  23
   0 -11   0 49.6470 114.912  16
   0 -11   0 49.8435 40.7195   4
   0 -11   0-5.80318 50.2030   5
   0 -11   1 1993.21 131.799  25
   0 -11   1 1960.93 108.472   5
   0 -11   1 1966.74 142.043  16
   0 -11   1 1984.97 103.272   4
   0 -11   1 2065.84 107.414  23
   0 -11  -1 2009.21 106.474  23
   0 -11  -1 1705.00 139.724  16
   0 -11  -1 1885.97 99.9498   5
   0 -11  -1 1997.64 102.883   4
   0 -11  -2 9658.23 219.909  23
   0 -11   2 9317.19 231.139   5
   0 -11   2 9793.56 260.931  16
   0 -11  -2 9677.71 221.803   4
   0 -11  -2 9638.48 268.032  16
   0 -11   2 9673.44 232.205  23
   0 -11   2 9846.97 226.550   4
   0 -11  -2 10105.8 243.599  19
   0 -11  -2 9639.49 216.181   5
   0 -11   2 9894.16 258.114  25
   0 -11  -3 4322.01 148.164  23
   0 -11  -3 4327.61 151.917   4
   0 -11   3 3323.16 165.208  25
   0 -11   3 4321.77 155.096   4
   0 -11   3 3492.41 161.838  16
   0 -11  -3 3691.04 186.599  16
   0 -11  -3 4060.66 172.751  19
   0 -11  -3 4408.82 143.071   5
   0 -11   3 4247.51 162.916   5
   0 -11   4 3598.86 148.340   4
   0 -11  -4 3602.52 138.850  23
   0 -11   4 3630.28 179.660  25
   0 -11   4 3490.85 150.739   5
   0 -11  -4 3711.03 195.607  16
   0 -11   4 3808.19 161.580  16
   0 -11   5 9606.12 291.940  25
   0 -11   5 10478.6 265.290   6
   0 -11  -5 9618.01 293.801  16
   0 -11   5 10792.0 258.144  16
   0 -11  -5 10342.5 238.268  23
   0 -11   6 2042.79 129.829   6
   0 -11  -6 1687.21 163.616  16
   0 -11   6 1850.66 152.398  25
   0 -11   6 1824.94 116.029  16
   0 -11  -6 1740.05 109.860  23
   0 -11   7 6579.08 207.290   9
   0 -11   7 5704.53 245.512  25
   0 -11   7 6672.67 224.250   6
   0 -11  -7 5869.28 247.465  16
   0 -10   0 42615.9 474.408   4
   0 -10   0 40887.8 470.527  23
   0 -10   0 41925.2 477.405   5
   0 -10   0 41190.2 523.476  16
   0 -10   1 1441.49 83.4318   4
   0 -10   1 1486.73 115.695  16
   0 -10  -1 1466.38 84.2203   4
   0 -10   1 1486.21 89.3941  23
   0 -10   1 1453.24 90.5686   5
   0 -10  -1 1204.37 118.620  16
   0 -10  -1 1415.83 86.3308  23
   0 -10   2 30069.9 403.816  23
   0 -10   2 29642.3 406.797   5
   0 -10  -2 30224.0 393.980   4
   0 -10   2 30231.5 398.620   4
   0 -10   2 30465.6 432.414  16
   0 -10  -2 30178.1 386.511  23
   0 -10  -2 29370.0 449.333  16
   0 -10   3 2163.70 107.619   4
   0 -10   3 2024.82 130.488  25
   0 -10  -3 2263.38 105.283  23
   0 -10   3 2370.10 130.023  16
   0 -10   3 2237.78 113.081   5
   0 -10  -3 1896.92 139.944  16
   0 -10   4 897.469 89.8029  16
   0 -10   4 795.653 80.1915   5
   0 -10   4 804.635 75.6638   4
   0 -10   4 807.167 103.199  25
   0 -10  -4 948.179 130.361  16
   0 -10  -4 735.276 68.6333  23
   0 -10   5 313.305 64.8297   6
   0 -10   5 332.177 55.0456   9
   0 -10  -5 428.916 64.1045  23
   0 -10   5 386.662 92.1580  25
   0 -10   5 370.992 69.1466  16
   0 -10  -5 470.872 111.371  16
   0 -10   6 6842.01 197.023  16
   0 -10  -6 6836.88 193.592  23
   0 -10  -6 6838.99 240.206  16
   0 -10   6 6723.84 205.555   6
   0 -10   6 6057.09 233.332  25
   0 -10   6 6614.69 191.743   9
   0 -10  -7 463.424 70.8409  23
   0 -10   7 521.925 80.7984   6
   0 -10   7 543.970 109.909  25
   0 -10   7 371.791 66.8940   9
   0 -10  -7 476.263 124.493  16
   0 -10   8 1651.18 121.125   6
   0 -10   8 1816.41 124.699   9
   0 -10   8 1716.40 154.717  25
   0 -10  -8 1728.76 161.245  16
   0  -9   0-0.04081 38.9111  23
   0  -9   0-21.1005 30.4663   4
   0  -9  -1 210.760 43.2935   4
   0  -9  -1 365.835 99.3238   3
   0  -9   1 276.292 42.4898   4
   0  -9   1 259.497 46.5233  23
   0  -9  -1 292.696 51.3160  23
   0  -9   2 40429.1 459.378  23
   0  -9  -2 41122.0 441.501  23
   0  -9   2 40590.2 452.988   4
   0  -9   3 7476.80 183.337   4
   0  -9   3 7480.83 187.195   5
   0  -9  -3 7838.35 176.684  23
   0  -9   4 726.773 73.0466   5
   0  -9   4 704.523 69.1685   4
   0  -9   4 892.267 98.9431  25
   0  -9  -4 655.401 103.745  16
   0  -9  -4 729.615 64.1750  23
   0  -9  -5 1048.22 78.8767  23
   0  -9   5 995.581 105.910  25
   0  -9  -5 984.958 112.514  16
   0  -9   5 905.998 72.7506   9
   0  -9   5 815.627 75.9507  16
   0  -9   5 1052.03 84.1515   6
   0  -9   6 16346.5 307.341   6
   0  -9   6 16091.3 295.635   9
   0  -9   6 16022.8 287.103  16
   0  -9  -6 16476.8 288.716  23
   0  -9   7 1572.27 103.430   6
   0  -9  -7 1718.06 105.296  23
   0  -9  -7 1863.42 155.919  16
   0  -9   7 1573.16 106.681   9
   0  -9   8 3888.10 168.087   9
   0  -9   8 3081.29 188.447  25
   0  -9  -8 3288.48 182.291  16
   0  -9   8 4114.10 166.001   6
   0  -9  -8 4010.43 157.360  23
   0  -8   0 13740.0 218.822  23
   0  -8   0 13492.1 215.209   4
   0  -8   1 14405.0 227.543   4
   0  -8  -1 14470.8 226.206   4
   0  -8   1 14692.6 232.632  23
   0  -8  -2 19514.6 267.730  23
   0  -8  -2 20198.6 741.514  20
   0  -8   2 19404.6 281.241  23
   0  -8   2 19341.4 276.019   4
   0  -8   3 8553.41 183.802   4
   0  -8  -3 8810.22 513.345  20
   0  -8  -3 8946.71 178.236  23
   0  -8   4 18629.7 294.598   4
   0  -8  -4 18770.8 277.050  23
   0  -8  -5 2421.24 131.466  16
   0  -8   5 2211.49 107.126   6
   0  -8  -5 2237.35 100.621  23
   0  -8  -6 400.511 88.8253  16
   0  -8   6 368.132 59.3195   6
   0  -8  -6 340.484 56.4466  23
   0  -8   6 312.729 86.0390  25
   0  -8   6 308.838 61.6579   9
   0  -8   7 4819.44 213.278  25
   0  -8   7 5782.88 186.825   9
   0  -8  -7 5837.77 173.595  23
   0  -8  -7 5044.51 198.517  16
   0  -8   7 5901.93 179.469   6
   0  -8   8 251.397 94.7443  25
   0  -8  -8 311.145 71.2552  23
   0  -8   8 186.357 71.4068   9
   0  -8   8 393.686 67.5584   6
   0  -8   9 1246.79 98.1978   6
   0  -8   9 1379.43 122.129   9
   0  -8  -9 1384.60 108.435  23
   0  -7   0 72.7402 61.7923   3
   0  -7   0-16.1603 67.2115  13
   0  -7   1 1298.84 145.817   3
   0  -7  -1 1217.45 172.089  13
   0  -7  -1 1655.54 146.480   3
   0  -7   1 1363.31 184.720  13
   0  -7  -2 65277.3 1247.45  13
   0  -7  -2 64482.3 1258.99  20
   0  -7   2 63860.6 1225.89  13
   0  -7  -3 2173.12 242.286  20
   0  -7   3 2314.91 233.045  13
   0  -7  -3 1741.72 210.535  13
   0  -7   3 1685.60 78.6312   4
   0  -7  -3 1461.14 151.692  21
   0  -7  -4 3713.05 335.260  20
   0  -7  -4 3745.46 269.181  21
   0  -7   4 3602.55 118.781   4
   0  -7   4 3549.78 286.353  13
   0  -7  -4 3569.01 302.167  13
   0  -7  -4 3511.94 110.971  23
   0  -7   5 10114.3 243.120  25
   0  -7  -5 9474.29 191.945  23
   0  -7  -5 8871.22 473.288  21
   0  -7   5 9507.76 478.839  13
   0  -7   6 3901.44 138.218   9
   0  -7  -6 3729.94 372.151  21
   0  -7   6 3792.29 132.519   6
   0  -7   6 3538.36 168.671  25
   0  -7  -6 4017.81 133.557  23
   0  -7   7 3416.55 163.633  25
   0  -7  -7 3276.28 129.686  23
   0  -7  -7 2949.21 154.324  16
   0  -7   7 3350.35 129.034   6
   0  -7   7 3022.49 136.024   9
   0  -7   8 9098.38 277.827  25
   0  -7  -8 9365.01 231.376  23
   0  -7  -8 9003.45 243.042  16
   0  -7   8 9080.52 221.767   6
   0  -7   8 9284.96 246.726   9
   0  -7   9 2613.44 149.754   9
   0  -7  -9 2602.13 136.565  23
   0  -7   9 2600.39 174.414  25
   0  -6   0 46581.5 946.267  13
   0  -6   0 48018.2 725.679   3
   0  -6  -1 109150. 1534.36  20
   0  -6   1 111409. 1275.70   3
   0  -6  -1 110531. 1532.24  13
   0  -6   1 110228. 1531.23  13
   0  -6  -2 5577.04 335.887  20
   0  -6   2 5104.88 309.304  13
   0  -6  -2 4714.01 194.089  21
   0  -6  -2 5133.56 313.482  13
   0  -6  -2 5102.50 244.878  12
   0  -6  -3 12755.0 503.358  13
   0  -6   3 12159.7 480.585  13
   0  -6  -3 12423.5 409.978  21
   0  -6  -3 12178.8 350.791  12
   0  -6  -3 13421.7 544.914  20
   0  -6   4 6293.79 351.914  13
   0  -6   4 6067.28 145.559   4
   0  -6  -4 6199.56 223.313  12
   0  -6  -4 5893.90 384.744  20
   0  -6  -4 6203.53 359.537  13
   0  -6  -4 5985.04 342.670  21
   0  -6  -5 9286.63 454.224  13
   0  -6  -5 10183.9 539.704  20
   0  -6   5 9283.57 438.045  13
   0  -6  -5 9578.30 184.586  23
   0  -6  -5 8898.48 478.032  21
   0  -6   6 2925.01 252.284  13
   0  -6   6 3174.45 149.472  25
   0  -6  -6 2923.87 267.369  13
   0  -6  -6 3078.09 113.938  23
   0  -6   6 3095.47 121.200   9
   0  -6  -6 2955.38 335.983  21
   0  -6   7 16578.5 278.268   6
   0  -6   7 16659.1 307.170   9
   0  -6  -7 17228.1 287.361  23
   0  -6   7 17351.2 354.732  25
   0  -6   8 564.238 64.3646   6
   0  -6   8 557.682 92.1009  25
   0  -6  -8 686.455 74.2028  23
   0  -6   8 763.873 88.7178   9
   0  -6   9 3179.02 160.081   9
   0  -6  -9 3254.19 146.274  23
   0  -6   9 3063.08 171.858  25
   0  -5   0 39.5590 41.0308   3
   0  -5   0 46.2647 64.0572  13
   0  -5   1 28789.0 554.939   3
   0  -5  -1 27873.6 568.055  12
   0  -5   1 28474.7 665.223  13
   0  -5  -1 28772.2 673.099  13
   0  -5  -1 29023.7 678.911  20
   0  -5  -2 3412.41 180.196  12
   0  -5  -2 3487.14 238.419  13
   0  -5   2 4073.06 251.913  13
   0  -5  -2 3416.69 248.415  20
   0  -5  -3 2712.65 202.209  21
   0  -5  -3 2529.47 209.745  13
   0  -5  -3 2511.10 139.127  12
   0  -5   3 2261.47 193.176  13
   0  -5   3 2323.14 179.399  21
   0  -5  -3 2235.85 216.580  20
   0  -5  -4 15666.9 527.597  13
   0  -5  -4 15101.1 311.789  12
   0  -5   4 13032.2 493.334  21
   0  -5  -4 13955.8 514.009  21
   0  -5   4 14461.1 493.684  13
   0  -5  -4 14735.6 583.933  20
   0  -5  -5 14219.9 579.164  21
   0  -5  -5 14203.1 520.289  13
   0  -5   5 13986.4 494.141  13
   0  -5  -5 13145.9 261.028  12
   0  -5  -5 14474.9 615.141  20
   0  -5   6 4434.88 291.126  13
   0  -5  -6 4531.42 135.944  23
   0  -5  -6 4201.49 384.662  21
   0  -5  -6 4249.48 295.511  13
   0  -5  -7 990.382 79.3691  23
   0  -5   7 911.038 83.0501   9
   0  -5   8 2962.06 139.899   9
   0  -5   8 2810.88 150.242  25
   0  -5  -8 2925.02 128.646  23
   0  -5   9 926.600 100.822   9
   0  -5   9 1199.62 117.499  25
   0  -5  -9 992.770 92.3211  23
   0  -5  10 8744.23 296.602  25
   0  -5  10 9543.64 279.564   9
   0  -5 -10 9278.68 252.758  23
   0  -4   0 121284. 1094.34   3
   0  -4   0 109600. 1296.63  13
   0  -4   1 191080. 1635.52   3
   0  -4  -1 190948. 1845.44  20
   0  -4  -1 185802. 1814.29  13
   0  -4  -1 186705. 1613.38  12
   0  -4   1 188764. 1813.28  13
   0  -4  -1 192222. 1352.08  21
   0  -4   2 2116.42 145.153  21
   0  -4   2 2324.84 175.267  13
   0  -4  -2 2188.89 171.963  13
   0  -4  -2 2378.76 192.229  20
   0  -4  -2 2238.40 126.759  12
   0  -4  -2 2190.15 151.047  21
   0  -4  -3 40025.9 513.921  12
   0  -4   3 39892.9 739.018  13
   0  -4   3 39288.5 735.787  21
   0  -4  -3 39506.4 839.211  20
   0  -4  -3 41190.4 764.319  21
   0  -4  -3 39176.5 755.896  13
   0  -4  -4 72788.3 1095.02  13
   0  -4  -4 71264.9 715.457  12
   0  -4   4 71801.2 1161.23  21
   0  -4   4 72149.3 1056.49  13
   0  -4  -4 73890.1 1262.17  20
   0  -4  -4 72227.2 1190.65  21
   0  -4  -5 25153.2 642.428  13
   0  -4  -5 24714.2 769.710  20
   0  -4   5 23173.1 733.086  21
   0  -4   5 24580.9 611.724  13
   0  -4  -5 23365.2 368.742  12
   0  -4  -6 1696.78 90.5501  23
   0  -4   6 1179.38 143.318  13
   0  -4  -6 1090.07 183.582  20
   0  -4  -6 1298.26 156.629  13
   0  -4   7 7712.09 198.073   9
   0  -4  -7 7615.47 187.010  23
   0  -4   7 8217.21 222.363  25
   0  -4   8 1059.71 92.6846   9
   0  -4  -8 1102.71 89.3602  23
   0  -4   8 1224.09 105.918  25
   0  -4   9 9953.65 259.751   9
   0  -4   9 9563.37 276.745  25
   0  -4  -9 9437.99 239.218  23
   0  -4  10 7369.61 240.283   9
   0  -4 -10 6806.28 221.697  23
   0  -3   0 65.0203 47.5348  12
   0  -3   0 21.8745 36.5605   3
   0  -3   0 37.9852 46.0159  13
   0  -3  -1 65477.9 852.302  13
   0  -3   1 67397.6 776.060   3
   0  -3  -1 67925.9 882.419  20
   0  -3   1 67793.3 645.841  21
   0  -3   1 67099.4 851.610  13
   0  -3  -1 65996.3 713.488  12
   0  -3  -2 125952. 1000.49  12
   0  -3  -2 125167. 1285.09  13
   0  -3   2 125561. 1215.97  21
   0  -3  -2 125754. 1383.29  20
   0  -3   2 125992. 1265.01  13
   0  -3  -3 121277. 1478.47  20
   0  -3   3 124496. 1400.99  21
   0  -3   3 122898. 1282.72  13
   0  -3  -3 119249. 966.356  12
   0  -3  -3 122629. 1313.71  13
   0  -3   3 123236. 1461.85   2
   0  -3   4 17818.9 554.391   2
   0  -3  -4 18925.9 605.553  21
   0  -3  -4 17474.3 309.352  12
   0  -3  -4 17939.9 469.431  13
   0  -3   4 17515.7 449.525  13
   0  -3  -4 18161.9 522.784   1
   0  -3  -4 17491.9 566.959  20
   0  -3   4 16914.2 554.402  21
   0  -3   5 12121.2 392.709  13
   0  -3  -5 12899.1 493.765   1
   0  -3  -5 11997.0 283.189  12
   0  -3   5 13124.8 506.712   2
   0  -3  -5 12601.5 413.997  13
   0  -3  -5 11686.1 526.797  21
   0  -3  -5 11922.5 514.870  20
   0  -3   5 11210.0 504.567  21
   0  -3  -6 6100.44 306.582  13
   0  -3  -6 6054.68 398.390  20
   0  -3  -6 5596.46 426.516  21
   0  -3  -6 5878.71 217.593  12
   0  -3  -6 6394.53 384.580   1
   0  -3   7 797.075 69.0352   8
   0  -3  -7 719.146 158.254   1
   0  -3   7 860.678 80.6702  25
   0  -3   7 857.044 77.9414   9
   0  -3   8 12610.9 261.048   8
   0  -3   8 12070.8 247.949  26
   0  -3   8 12323.4 265.584   9
   0  -3   9 4163.82 161.481  26
   0  -3  -9 4134.64 164.735  23
   0  -3   9 4362.70 185.293  25
   0  -3   9 4490.17 176.018   9
   0  -3  10 7945.99 234.701  26
   0  -3 -10 7675.47 231.551  23
   0  -3  10 8389.49 250.857   9
   0  -2   0 753557. 5166.58  13
   0  -2   0 775962. 5112.72  12
   0  -2   1 120399. 953.364  21
   0  -2  -1 121444. 952.866  21
   0  -2  -1 116306. 1064.07  13
   0  -2   1 117245. 1053.71  13
   0  -2  -1 115137. 895.132  12
   0  -2  -1 116263. 1104.85  20
   0  -2  -2 78443.4 866.655   1
   0  -2  -2 82355.0 932.476  21
   0  -2  -2 76419.0 947.727  20
   0  -2   2 77932.2 942.364   2
   0  -2   2 80370.0 915.887  21
   0  -2   2 77703.5 830.216  13
   0  -2  -2 77363.2 847.339  13
   0  -2  -2 75747.6 637.789  12
   0  -2  -3 221919. 2069.40  21
   0  -2   3 220664. 1774.07  13
   0  -2  -3 218201. 1554.23  12
   0  -2  -3 218309. 2049.89  20
   0  -2   3 221626. 2015.68   2
   0  -2   3 215405. 2032.27  21
   0  -2  -3 224094. 1814.52  13
   0  -2  -3 221634. 1959.73   1
   0  -2   4 96221.8 1387.14  21
   0  -2  -4 99620.8 1112.85  13
   0  -2   4 98044.5 1307.49   2
   0  -2   4 98349.1 1084.27  13
   0  -2  -4 100521. 1312.92   1
   0  -2  -4 97154.2 1354.76  20
   0  -2  -4 100564. 1044.79   2
   0  -2   5 3454.47 245.928   2
   0  -2  -5 2983.28 278.053  21
   0  -2  -5 3152.82 255.435  20
   0  -2  -5 3435.50 190.550   2
   0  -2  -5 3542.94 202.744  13
   0  -2  -5 3293.43 249.590   1
   0  -2   5 2928.36 257.814  21
   0  -2  -6 2590.35 303.887  21
   0  -2  -6 2064.09 168.689  13
   0  -2  -6 2428.84 243.860   1
   0  -2  -6 2325.52 248.132  20
   0  -2   6 2292.94 221.423   2
   0  -2  -6 2127.09 171.063   2
   0  -2  -7 14273.7 648.992  20
   0  -2   7 13654.9 248.961   8
   0  -2  -7 14568.5 640.327   1
   0  -2   7 13791.2 255.166   9
   0  -2   8 30081.0 451.905  25
   0  -2   8 28869.2 409.899   8
   0  -2   8 29379.7 403.831  26
   0  -2   8 28650.0 415.041   9
   0  -2   9 9290.76 244.248   9
   0  -2   9 9383.51 241.952  26
   0  -2   9 9225.54 240.130   8
   0  -2  10 3083.17 160.611  26
   0  -2  10 3193.76 161.379   9
   0  -1  -1 120983. 930.756  13
   0  -1   1 121833. 972.227  21
   0  -1  -1 119582. 940.830   1
   0  -1   1 121184. 997.554   2
   0  -1  -1 119833. 1001.25  20
   0  -1   2 65524.2 760.431   2
   0  -1  -2 64150.6 786.129  20
   0  -1   2 63619.6 797.397   1
   0  -1  -2 63869.6 618.653   2
   0  -1  -2 67925.9 834.116  21
   0  -1   2 64576.4 644.771  13
   0  -1   2 67740.3 824.782  21
   0  -1  -2 65057.6 761.649   1
   0  -1   3 22685.6 526.617   1
   0  -1   3 22893.4 483.536   2
   0  -1   3 22331.8 385.852  13
   0  -1  -3 22803.7 504.474   1
   0  -1   3 21635.1 528.876  21
   0  -1  -3 22881.6 401.991   2
   0  -1  -3 22203.5 548.732  21
   0  -1  -3 22908.2 520.720  20
   0  -1  -4 111514. 1416.25  20
   0  -1   4 111626. 1312.67   2
   0  -1   4 111537. 1488.81  21
   0  -1  -4 109079. 1158.10   2
   0  -1  -4 110186. 1514.70  21
   0  -1   4 111223. 1446.10   1
   0  -1  -4 112523. 1404.74   1
   0  -1  -5 1042.10 151.307   1
   0  -1   5 1237.48 174.430  21
   0  -1   5 1096.29 159.387   1
   0  -1  -5 1127.57 155.946  20
   0  -1  -5 1298.12 208.905  21
   0  -1  -5 1080.86 110.165  13
   0  -1  -5 1048.79 116.256   2
   0  -1   5 985.859 132.236   2
   0  -1  -6 50662.9 896.453   2
   0  -1  -6 50400.2 1108.75  20
   0  -1   6 51877.9 1007.67   2
   0  -1  -6 47596.2 1191.53  21
   0  -1  -6 50384.4 793.712  13
   0  -1   6 51419.6 1146.73   1
   0  -1  -6 50677.9 1110.86   1
   0  -1  -7 4848.51 431.653  21
   0  -1  -7 4547.64 282.342   2
   0  -1   7 4523.27 318.954   2
   0  -1  -7 4918.68 376.771   1
   0  -1  -7 4474.51 363.866  20
   0  -1   8 3552.00 137.738  10
   0  -1   8 3426.34 136.482   8
   0  -1   8 3609.34 145.988  26
   0  -1   8 3591.15 140.173   9
   0  -1   9 11506.3 266.790   9
   0  -1   9 11518.2 263.655  10
   0  -1   9 11479.2 264.766   8
   0  -1   9 11607.2 271.479  26
   0  -1  10 195.872 84.4264  26
   0  -1  10 97.8483 69.4826   9
   0  -1  10 132.202 74.5091   8
   0   0  -2 105153. 848.757  13
   0   0   2 100915. 1075.56  21
   0   0   2 107948. 1049.41   1
   0   0  -2 103791. 1035.39  20
   0   0  -2 104105. 1040.19   1
   0   0   2 107079. 932.751   2
   0   0  -2 105194. 1094.36  21
   0   0  -2 102821. 925.889   2
   0   0  -3 5228.09 173.969  13
   0   0   3 5374.48 206.040   2
   0   0  -3 5270.97 243.670   1
   0   0  -3 5433.31 206.837   2
   0   0   3 4799.50 245.979  21
   0   0   3 5279.31 244.504   1
   0   0  -3 4788.39 240.022  20
   0   0  -4 1284.23 146.487   1
   0   0   4 1244.08 117.437   2
   0   0   4 1375.65 173.937  21
   0   0  -4 1276.54 124.272   2
   0   0   4 1249.99 142.180   1
   0   0  -4 1243.05 99.6802  13
   0   0  -4 1128.81 148.810  20
   0   0  -5 51366.9 1025.86   1
   0   0   5 53275.0 1041.33   1
   0   0   5 52598.1 877.426   2
   0   0   5 51220.0 1071.17  21
   0   0  -5 52290.7 731.586  13
   0   0  -5 50563.5 1019.64  20
   0   0  -5 51685.1 1116.52  21
   0   0  -5 51509.6 871.662   2
   0   0  -6 278.361 159.288  21
   0   0  -6 126.632 87.5871   1
   0   0   6 142.837 81.4811   2
   0   0  -6 101.719 48.1860  13
   0   0  -6 98.8464 95.8136  20
   0   0  -6 114.086 87.5516   2
   0   0   6 141.853 97.8059   1
   0   0  -7 529.302 152.007  12
   0   0   7 490.333 131.675   2
   0   0  -7 470.091 113.856   2
   0   0  -7 461.083 233.905  20
   0   0   8 32345.1 432.126  10
   0   0   8 32972.3 434.479   9
   0   0   8 33047.8 446.824  26
   0   0   8 32881.9 436.405   8
   0   0   9 330.550 87.5368  26
   0   0   9 378.080 77.3218  10
   0   0   9 271.869 68.3010   8
   0   0   9 297.768 70.1051   9
   0   0  10 6730.27 220.562  10
   0   0  10 6822.12 221.791   8
   0   0  10 6838.75 220.725   9
   0   0  10 6715.59 227.848  26
   0   1  -1 119438. 915.579  13
   0   1   1 118904. 933.701   1
   0   1   1 121514. 1001.82  20
   0   1  -1 121449. 992.117   1
   0   1  -1 121601. 970.314  21
   0   1  -1 119181. 990.482   2
   0   1   1 123632. 964.586  21
   0   1  -2 63338.4 795.326   1
   0   1  -2 63691.6 749.371   2
   0   1  -2 63433.9 640.536  13
   0   1  -2 64125.5 814.215  21
   0   1   2 64114.1 614.035   2
   0   1   2 63846.2 750.052   1
   0   1   2 65639.9 788.334  20
   0   1  -3 22545.9 386.865  13
   0   1   3 22520.1 392.723   2
   0   1  -3 22494.6 525.210   1
   0   1   3 23013.0 502.840   1
   0   1  -3 21792.5 546.503  21
   0   1   3 22848.0 513.231  20
   0   1   3 21111.7 526.390  21
   0   1  -3 23009.1 482.424   2
   0   1   4 111122. 1155.34   2
   0   1   4 110564. 1475.49  21
   0   1  -4 111427. 1097.82  13
   0   1  -4 108368. 1430.66   1
   0   1  -4 108881. 1510.96  21
   0   1   4 105979. 1400.36  20
   0   1  -4 112153. 1308.35   2
   0   1   4 111889. 1398.02   1
   0   1  -4 106506. 1397.14  20
   0   1   5 1312.48 181.816  21
   0   1   5 1239.92 160.238   1
   0   1  -5 1479.17 173.654   1
   0   1  -5 1098.51 141.467   2
   0   1  -5 1037.28 150.330  20
   0   1  -5 892.104 97.1237  13
   0   1  -5 1334.33 205.071  21
   0   1   5 1224.89 123.510   2
   0   1  -6 47937.3 1194.68  21
   0   1  -6 51196.1 785.482  13
   0   1   6 52513.1 1125.92   1
   0   1  -6 50204.1 1120.49  20
   0   1   6 51482.3 896.083   2
   0   1  -6 49657.9 1123.05   1
   0   1  -6 50360.5 991.267   2
   0   1  -7 4850.03 420.727  21
   0   1  -7 4580.26 326.246   2
   0   1   7 4681.52 286.067   2
   0   1  -7 4386.72 312.859  12
   0   1  -7 4431.95 356.796  20
   0   1   8 3639.70 139.121   8
   0   1   8 3543.84 132.892   9
   0   1   8 3508.26 136.456  10
   0   1   8 3604.72 152.132  26
   0   1   8 3423.18 133.207   7
   0   1   9 11668.2 259.994   9
   0   1   9 11409.6 277.641  26
   0   1   9 11378.4 264.311  10
   0   1   9 11562.9 261.568   7
   0   1   9 11375.7 264.769   8
   0   1  10 94.9710 75.5823  10
   0   1  10 121.800 68.8774   8
   0   1  10 241.526 73.4754   9
   0   1  10 107.992 90.2718  26
   0   2   0 785467. 4745.36  20
   0   2   0 779167. 4702.46  12
   0   2  -1 117074. 1107.27  12
   0   2  -1 117547. 951.212  21
   0   2  -1 118184. 1096.50   2
   0   2  -1 116357. 1049.84  13
   0   2   1 115882. 890.054  12
   0   2   1 116224. 933.937  21
   0   2   1 116570. 1099.36  20
   0   2   1 115812. 1063.02  13
   0   2  -1 117521. 1033.65   3
   0   2  -2 76415.7 831.328  13
   0   2   2 78072.1 860.507   1
   0   2  -2 75559.6 934.162   1
   0   2   2 77806.0 702.417   2
   0   2   2 77538.7 951.036  20
   0   2   2 78690.6 898.111  21
   0   2  -2 75321.8 908.512  21
   0   2  -2 77403.0 938.701   2
   0   2   3 220307. 1647.93   2
   0   2  -3 219677. 2064.87   1
   0   2   3 223404. 2040.88  21
   0   2  -3 220051. 2002.66   2
   0   2   3 222247. 1946.68   1
   0   2   3 223273. 2051.83  20
   0   2  -3 222851. 1790.21  13
   0   2   4 100061. 1301.58   1
   0   2  -4 98181.3 1378.76   1
   0   2   4 101259. 1364.20  20
   0   2  -4 101107. 1457.16  21
   0   2  -4 98279.9 1089.01  13
   0   2  -4 97530.1 1294.65   2
   0   2   4 97727.5 1018.19   2
   0   2   4 100005. 1396.19  21
   0   2   5 2895.37 258.643  20
   0   2   5 3117.95 262.632  21
   0   2  -5 3419.38 247.743   2
   0   2  -5 3157.22 256.601  20
   0   2  -5 3276.78 190.316  13
   0   2   5 3206.09 179.987   2
   0   2   5 3215.31 245.066   1
   0   2  -5 3506.88 274.200   1
   0   2  -5 2929.69 277.594  21
   0   2  -6 1857.95 230.934   1
   0   2   6 1903.09 216.243   1
   0   2  -6 2198.20 223.930  12
   0   2   6 2275.86 243.300  20
   0   2   6 2248.12 173.852   2
   0   2  -6 2182.83 286.579  21
   0   2  -6 2011.22 157.923  13
   0   2  -6 2350.24 229.048   2
   0   2  -6 2011.87 224.568  20
   0   2   7 14554.3 476.015   2
   0   2  -7 13795.1 631.715  20
   0   2  -7 13393.1 582.215  12
   0   2   7 14043.8 252.818  10
   0   2   8 29025.4 409.175  10
   0   2   8 28677.3 427.721  26
   0   2   8 28995.0 404.470   7
   0   2   8 29493.2 392.514   9
   0   2   8 29031.2 406.376   8
   0   2   9 9644.36 258.972  26
   0   2   9 9068.75 238.911  10
   0   2   9 9356.67 240.148   8
   0   2   9 9748.38 233.693   9
   0   2   9 9423.36 238.315   7
   0   2  10 3228.33 156.102   7
   0   2  10 3210.71 155.972   8
   0   2  10 3160.81 159.225  10
   0   2  10 3316.66 150.619   9
   0   2  10 3379.28 179.688  26
   0   3   0-1.74039 49.7855  13
   0   3   0 72.0697 47.5471  12
   0   3  -1 66207.2 847.733  13
   0   3   1 67268.1 713.068  12
   0   3  -1 65940.3 773.211   3
   0   3  -1 66276.6 865.639   2
   0   3  -1 70203.0 666.018  21
   0   3   1 66598.8 872.861  20
   0   3   1 70799.1 635.804  21
   0   3  -1 67545.5 879.952  12
   0   3   1 67055.1 859.585  13
   0   3   2 127321. 1396.94  20
   0   3   2 126084. 1218.73  21
   0   3  -2 124127. 1324.38   3
   0   3   2 125193. 1024.25  12
   0   3  -2 125597. 1382.08   2
   0   3   2 124768. 1215.67   1
   0   3  -2 124500. 1281.58  13
   0   3  -2 122405. 1402.53  12
   0   3  -3 122460. 1470.92   1
   0   3   3 121128. 1078.78   2
   0   3   3 122096. 1329.48   1
   0   3   3 124270. 1403.47  21
   0   3  -3 121955. 1462.90   2
   0   3  -3 127615. 1477.53  21
   0   3  -3 121836. 1301.60  13
   0   3   3 123359. 1492.16  20
   0   3   4 18008.7 558.245  21
   0   3   4 18283.0 517.625   1
   0   3   4 17827.9 566.121  20
   0   3  -4 17818.2 457.931  13
   0   3  -4 16599.5 570.492  21
   0   3  -4 17613.7 567.636   1
   0   3  -4 18077.4 555.527   2
   0   3   4 17970.4 372.120   2
   0   3  -5 11624.9 497.038  12
   0   3  -5 13001.7 536.371   1
   0   3  -5 13391.2 578.528  21
   0   3  -5 12760.3 405.712  13
   0   3   5 11955.8 517.713  21
   0   3   5 12890.8 486.768   1
   0   3   5 12217.8 513.005  20
   0   3   5 12343.5 340.387   2
   0   3  -5 12208.9 493.234   2
   0   3  -6 5933.92 370.867   2
   0   3   6 5902.17 368.531   1
   0   3   6 6117.72 260.771   2
   0   3  -6 6030.39 402.928   1
   0   3   6 5342.63 160.366  24
   0   3  -6 5607.10 378.090  12
   0   3  -6 5996.65 290.097  13
   0   3   7 739.250 65.3712   8
   0   3   7 834.411 89.3303  26
   0   3  -7 603.953 169.015  20
   0   3   7 876.828 73.5393  10
   0   3  -7 714.409 159.580  12
   0   3   7 732.711 66.0518   7
   0   3   8 12457.3 263.146  10
   0   3   8 12361.1 256.714   7
   0   3   8 12555.5 256.714   8
   0   3   8 12705.2 242.107   9
   0   3   8 12519.4 279.918  26
   0   3   9 4194.75 168.714  10
   0   3   9 4463.71 157.485   9
   0   3   9 4333.88 185.817  26
   0   3   9 4284.42 165.491   8
   0   3   9 4444.63 170.322   7
   0   3  10 7963.25 240.029   8
   0   3  10 7901.01 224.371   9
   0   3  10 7745.39 235.937   7
   0   3  10 8014.80 247.956  10
   0   3  10 7738.48 264.207  26
   0   4   0 110459. 1286.56  13
   0   4   0 109578. 1255.90  20
   0   4   0 111458. 1209.11  12
   0   4  -1 192180. 1841.68  12
   0   4  -1 189709. 1824.28  13
   0   4  -1 190248. 1389.60  21
   0   4  -1 191787. 1819.81   2
   0   4   1 185948. 1833.45  20
   0   4   1 190574. 1838.30  13
   0   4   1 189717. 1610.69  12
   0   4  -2 2094.56 152.571  21
   0   4   2 2516.80 183.097  13
   0   4  -2 2252.34 186.652  12
   0   4  -2 2151.62 167.994  13
   0   4   2 2244.84 140.700  21
   0   4  -2 2138.58 179.401   2
   0   4  -2 2445.95 181.536   3
   0   4   2 2146.23 121.858  12
   0   4   2 2326.47 188.107  20
   0   4   3 39987.0 711.054   1
   0   4   3 39606.0 567.673   2
   0   4  -3 39700.7 809.384   1
   0   4  -3 40334.6 810.128   3
   0   4  -3 40394.5 848.638  12
   0   4  -3 40328.6 749.573  13
   0   4   3 39898.4 729.330  21
   0   4  -3 39344.9 828.035   2
   0   4   3 40097.0 843.968  20
   0   4  -3 39872.8 764.313  21
   0   4  -4 70904.4 1231.41   1
   0   4  -4 72702.6 1076.75  13
   0   4  -4 72839.5 1237.96   2
   0   4   4 73108.0 1104.82   1
   0   4   4 70241.6 1157.12  21
   0   4   4 71510.8 1251.17  20
   0   4  -4 73152.3 1220.04  21
   0   4  -4 72253.9 1267.06  12
   0   4  -4 71334.8 1234.02   3
   0   4   4 71952.3 830.055   2
   0   4   5 24541.9 683.349   1
   0   4  -5 24453.6 745.821   2
   0   4   5 26071.4 339.977  24
   0   4  -5 25230.3 777.052   1
   0   4  -5 24175.6 767.840  12
   0   4   5 24756.8 479.386   2
   0   4  -5 24920.5 623.021  13
   0   4   5 24697.5 769.431  20
   0   4  -5 23948.9 768.719  21
   0   4   5 24621.9 735.063  21
   0   4  -6 1250.59 148.685  13
   0   4   6 1434.45 95.1818  24
   0   4  -6 1060.26 186.563   1
   0   4  -6 1772.27 257.641  21
   0   4   6 1182.59 112.663   2
   0   4  -6 1267.48 196.828  12
   0   4   6 1235.41 176.611   1
   0   4   7 7980.49 193.539   7
   0   4   7 7974.28 197.020  10
   0   4  -7 7810.76 494.981  12
   0   4   7 7883.61 211.530  26
   0   4   7 8105.46 189.793   8
   0   4   8 1187.17 109.732  26
   0   4   8 1038.16 90.2807  10
   0   4   8 1022.48 84.0753   8
   0   4   8 1005.20 86.8148   7
   0   4   9 9483.24 223.554   9
   0   4   9 9755.92 254.750  10
   0   4   9 9205.40 243.721   7
   0   4   9 9327.19 241.622   8
   0   4   9 9737.96 272.714  26
   0   4  10 7148.66 260.328  26
   0   4  10 7070.88 228.160   8
   0   4  10 7402.23 212.646   9
   0   4  10 7049.74 234.627  10
   0   4  10 6974.45 229.018   7
   0   5   0-26.3828 67.6622  13
   0   5   0-9.60585 57.1370  12
   0   5   0-36.3952 70.0329  20
   0   5   1 29270.3 682.253  13
   0   5  -1 27500.6 643.733  20
   0   5   1 28370.2 566.860  12
   0   5  -1 28666.3 669.596  13
   0   5   1 28027.8 667.720  20
   0   5  -1 28745.1 662.638   2
   0   5  -1 29210.8 675.664  12
   0   5   2 3667.53 243.904  13
   0   5  -2 3555.21 236.813  13
   0   5  -2 3850.49 228.343   3
   0   5   2 3732.22 180.231  12
   0   5  -2 4459.05 224.440  21
   0   5  -2 3597.68 246.128   2
   0   5   2 3469.49 247.848  20
   0   5  -2 3360.29 250.170  12
   0   5  -3 2304.02 192.610  21
   0   5  -3 2541.64 236.471  12
   0   5   3 2360.18 176.840   1
   0   5   3 2277.61 217.777  20
   0   5  -3 2358.80 197.161  13
   0   5  -3 2653.10 230.449   2
   0   5  -3 2420.51 210.175   1
   0   5   3 2237.72 132.615  12
   0   5  -3 2750.92 225.952   3
   0   5  -4 15433.8 589.838   2
   0   5  -4 14706.4 562.355   1
   0   5   4 14843.5 361.407   2
   0   5  -4 14672.1 505.145  13
   0   5  -4 15288.5 592.243  12
   0   5  -4 13852.6 522.152  21
   0   5  -4 15079.5 563.588   3
   0   5   4 15408.6 585.400  20
   0   5   4 14568.7 500.568  21
   0   5   4 15126.6 489.450   1
   0   5  -5 15178.1 621.878   3
   0   5  -5 14976.6 627.446  12
   0   5  -5 14536.9 510.727  13
   0   5  -5 14732.5 636.548  21
   0   5   5 13658.5 253.094  24
   0   5   5 14904.9 364.727   2
   0   5   5 14537.5 529.678   1
   0   5  -5 13980.2 596.880   1
   0   5  -6 4327.76 379.273  12
   0   5  -6 4815.12 306.427  13
   0   5   6 4443.73 327.478   1
   0   5   6 5073.84 162.348  24
   0   5  -6 4762.66 405.117  21
   0   5   7 1149.23 77.5420   8
   0   5   7 828.044 93.4847  26
   0   5   7 868.708 76.9679  10
   0   5   7 1040.28 81.5951   7
   0   5   7 1247.71 98.0468  24
   0   5   8 3151.15 138.648   7
   0   5   8 2873.12 151.684  26
   0   5   8 3186.57 132.414   8
   0   5   8 3227.28 141.823  10
   0   5   9 761.841 94.5772  10
   0   5   9 916.853 94.8736   7
   0   5   9 989.337 129.239  26
   0   5   9 1005.94 92.1949   8
   0   5  10 9329.01 273.821  10
   0   5  10 9179.11 266.885   7
   0   5  10 9126.75 298.242  26
   0   5  10 9431.89 262.981   8
   0   6   0 47580.3 877.835  12
   0   6   0 46236.1 921.549  20
   0   6   0 46416.0 949.527  13
   0   6   1 108506. 1516.72  20
   0   6  -1 104819. 1469.10  20
   0   6   1 114117. 1345.45  12
   0   6  -1 110454. 1525.25  13
   0   6   1 111801. 1547.36  13
   0   6  -1 108240. 1495.47  12
   0   6  -1 108740. 1495.55   2
   0   6  -2 4949.68 215.393  21
   0   6  -2 5149.38 315.269  13
   0   6   2 5186.50 322.319  20
   0   6  -2 5025.15 319.356  12
   0   6  -2 5089.33 317.074   2
   0   6   2 5152.69 316.887  13
   0   6   2 5425.16 247.296  12
   0   6  -2 5657.66 287.751   3
   0   6  -3 12427.3 531.828   2
   0   6   3 12753.6 349.826  12
   0   6  -3 11943.5 426.925  21
   0   6  -3 12019.4 486.217   1
   0   6  -3 12063.1 534.240  12
   0   6  -3 12059.8 481.415  13
   0   6  -3 12713.2 480.919   3
   0   6   3 11779.8 409.812   1
   0   6   3 12715.7 531.641  20
   0   6   4 5883.71 244.487   2
   0   6  -4 6153.64 377.623   1
   0   6  -4 6058.23 350.605  13
   0   6   4 6240.12 396.995  20
   0   6  -4 6454.80 410.605  12
   0   6  -4 6450.98 386.472   3
   0   6   4 6233.04 166.695  24
   0   6   4 5783.47 309.928   1
   0   6  -5 10476.2 551.934  12
   0   6   5 8675.98 214.991  24
   0   6  -5 8423.12 481.083  21
   0   6  -5 9787.48 513.600   1
   0   6   5 9645.47 300.114   2
   0   6  -5 9955.26 455.726  13
   0   6   5 9860.43 444.145   1
   0   6  -6 3266.56 270.829  13
   0   6   6 2999.16 120.642   7
   0   6   6 3075.21 122.976  10
   0   6   6 3044.74 138.580  24
   0   6   6 3217.25 138.386  26
   0   6   6 3241.12 279.244   1
   0   6   7 17603.0 340.378  24
   0   6   7 17095.2 307.930  10
   0   6   7 17075.9 308.021   7
   0   6   7 17589.9 292.783   8
   0   6   7 16948.7 327.803  26
   0   6   8 741.518 76.9708   8
   0   6   8 665.498 81.6642   7
   0   6   8 693.232 83.7622  10
   0   6   8 794.086 113.205  26
   0   6   9 3352.71 149.401   8
   0   6   9 3281.11 163.420  10
   0   6   9 3197.75 184.214  26
   0   6   9 3185.86 155.900   7
   0   7   0 83.1470 69.4160   2
   0   7   0 6.76588 74.0002  13
   0   7   0 75.1544 65.7699  12
   0   7   0 20.4303 73.1521  20
   0   7  -1 1235.69 172.647  20
   0   7   1 1369.08 181.226  13
   0   7  -1 1196.61 171.383  12
   0   7  -1 1146.76 170.430  13
   0   7   1 1340.96 182.523  20
   0   7   1 1398.89 157.121  12
   0   7  -1 1244.40 175.090   2
   0   7  -2 64539.7 1231.21  13
   0   7   2 63811.8 994.976  12
   0   7  -2 61777.6 571.603  14
   0   7   2 64920.4 1247.71  13
   0   7  -2 63928.6 1244.72   2
   0   7   2 63824.1 1247.77  20
   0   7  -2 63164.3 1242.73  12
   0   7   3 1568.74 163.462   1
   0   7   3 1766.62 222.705  20
   0   7  -3 1791.37 227.986  12
   0   7   3 1883.18 109.241  24
   0   7   3 1823.91 150.288  12
   0   7  -3 2195.49 110.176  14
   0   7  -3 1930.47 216.513  13
   0   7  -3 1746.32 177.279  21
   0   7  -3 1476.69 195.711   3
   0   7  -4 3412.71 297.327   1
   0   7  -4 3475.42 331.446  12
   0   7   4 3973.37 149.751  24
   0   7  -4 3537.18 129.959  14
   0   7   4 3893.61 266.515   1
   0   7   4 3568.64 186.816  12
   0   7  -4 3206.05 277.954  13
   0   7  -4 2915.73 286.814   3
   0   7  -5 8939.56 513.833   1
   0   7   5 9329.17 441.253   1
   0   7  -5 10197.4 497.670  13
   0   7  -5 8533.94 494.612  21
   0   7   5 9395.42 205.310  10
   0   7   5 9383.06 233.059  24
   0   7  -5 9619.58 214.545  14
   0   7  -6 3708.02 364.445  21
   0   7   6 4072.61 146.893  18
   0   7   6 3920.28 165.721  24
   0   7   6 4132.59 147.725  10
   0   7   6 3979.93 156.528  26
   0   7  -6 4116.91 325.150  13
   0   7   6 4039.97 146.297   7
   0   7  -6 3700.93 145.516  14
   0   7   7 3317.37 128.859   8
   0   7   7 3189.66 140.590   7
   0   7   7 3145.77 140.828  10
   0   7   7 3301.29 159.807  26
   0   7  -7 3031.79 141.078  14
   0   7   8 9379.73 247.380  10
   0   7   8 9450.86 231.796   8
   0   7   8 9038.85 243.974   7
   0   7  -8 8901.82 238.430  14
   0   7   8 9448.12 271.559  26
   0   7   9 2521.52 132.805   8
   0   7   9 2502.26 146.346  10
   0   7   9 2640.20 180.139  26
   0   7   9 2451.85 142.825   7
   0   8   0 14234.7 234.909  14
   0   8   0 13480.8 533.433  12
   0   8   0 13545.7 575.328  20
   0   8   0 13708.8 541.989   2
   0   8   0 14186.2 602.096  13
   0   8   1 15100.7 625.709  13
   0   8  -1 14884.7 245.135  14
   0   8   1 14519.7 520.517  12
   0   8  -1 14992.0 615.796  13
   0   8  -1 15397.4 602.857  12
   0   8   1 14606.1 601.708  20
   0   8  -1 14671.3 591.541   2
   0   8   1 14827.3 235.900  14
   0   8  -1 14535.4 593.018  20
   0   8  -2 20472.4 722.753  13
   0   8  -2 18670.7 687.566  20
   0   8   2 19736.6 574.880  12
   0   8   2 19828.4 275.093  14
   0   8  -2 20463.2 733.351  12
   0   8   2 19939.2 723.648  13
   0   8  -2 19639.3 295.252  14
   0   8   2 20075.3 304.119  24
   0   8  -3 8564.94 198.262  14
   0   8  -3 8715.73 511.649  12
   0   8   3 8059.36 372.731   1
   0   8  -3 8517.99 477.801  13
   0   8   3 8606.81 354.393  12
   0   8   3 8686.35 175.757  14
   0   8   4 18384.0 598.091   1
   0   8  -4 19509.2 320.636  14
   0   8  -4 19176.4 725.224   1
   0   8   4 18993.1 270.428  14
   0   8   4 19874.5 336.319  24
   0   8  -4 20093.6 740.824  13
   0   8   5 2186.65 113.146   7
   0   8   5 2111.23 91.7086  14
   0   8   5 2259.89 108.882  18
   0   8   5 2005.75 124.940  24
   0   8   5 2104.72 117.166  26
   0   8  -5 2188.78 255.319  13
   0   8   5 2259.60 111.687  10
   0   8  -6 326.218 77.6385  18
   0   8   6 424.620 54.0204   8
   0   8   6 505.063 74.5870   7
   0   8  -6 448.567 91.9091  14
   0   8   6 418.294 86.1498  24
   0   8   6 400.308 65.4124  18
   0   8   6 593.054 100.482  26
   0   8   6 340.500 65.3613  10
   0   8  -7 5844.17 196.959  14
   0   8   7 5955.92 173.040   8
   0   8   7 5806.48 192.182   7
   0   8   7 5850.41 206.092  26
   0   8   7 5736.70 215.174  24
   0   8   7 6196.70 196.925  10
   0   8   8 313.233 62.9871   8
   0   8   8 173.330 90.3081  24
   0   8   8 361.036 78.6720   7
   0   8   8 268.523 106.750  26
   0   8  -8 175.836 84.6124  14
   0   8   8 225.474 74.9462  10
   0   8   9 1070.50 148.179  26
   0   8   9 1314.25 120.545   7
   0   8   9 1236.84 105.277   8
   0   8  -9 1102.86 109.686  14
   0   8   9 1273.01 121.231  10
   0   9   0 105.972 81.1314  12
   0   9   0 158.480 51.7764  24
   0   9   0 178.571 59.1967  14
   0   9   0 112.655 106.118   2
   0   9   1 303.371 52.6114  14
   0   9   1 171.760 107.540  13
   0   9  -1 222.975 111.538  13
   0   9   1 123.689 91.0394   2
   0   9   1 404.801 77.5040  24
   0   9  -1 222.375 66.7766  14
   0   9   1 276.537 103.463  12
   0   9  -2 40486.7 476.078  14
   0   9  -2 39651.4 1100.82  12
   0   9   2 41369.7 450.571  14
   0   9   2 42514.6 1137.87  13
   0   9   2 41133.7 488.766  24
   0   9  -2 42708.6 1131.17  13
   0   9   2 42237.6 916.548  12
   0   9  -3 7471.09 476.220  13
   0   9  -3 7693.21 199.751  14
   0   9   3 8003.48 179.697  14
   0   9   4 704.983 68.9224  18
   0   9   4 649.886 73.2650  10
   0   9   4 965.620 97.4823  24
   0   9   4 754.311 61.8918  14
   0   9   4 687.006 77.2464   7
   0   9  -4 695.768 86.1797  14
   0   9   5 845.563 96.1197  26
   0   9   5 968.289 85.8387  10
   0   9   5 834.739 70.1380  14
   0   9   5 897.572 85.8696   7
   0   9  -5 1054.00 92.5163  18
   0   9   5 956.563 104.074  24
   0   9   5 960.116 82.2677  18
   0   9   6 15705.2 309.334  10
   0   9   6 15985.8 315.378   7
   0   9   6 15438.5 317.784  26
   0   9  -6 15769.3 320.032  14
   0   9   6 16323.1 275.867   8
   0   9  -6 15535.7 302.880  18
   0   9   6 16522.1 317.182  18
   0   9  -7 1662.33 126.008  18
   0   9   7 1616.95 115.289   7
   0   9   7 1712.52 140.494  24
   0   9   7 1786.91 103.441   8
   0   9   7 1607.66 135.013  26
   0   9  -7 1636.14 127.258  14
   0   9   7 1743.35 120.703  10
   0   9   8 3570.28 192.391  26
   0   9  -8 4079.95 182.935  14
   0   9   8 3929.18 177.837  10
   0   9  -8 4131.28 185.945  18
   0   9   8 4311.39 162.413   8
   0   9   8 3990.13 177.121   7
   0   9   8 3632.91 196.248  24
   0  10   0 41418.7 474.539  27
   0  10   0 42213.6 477.987  24
   0  10   0 43269.2 1106.46  12
   0  10   0 42330.2 490.586  14
   0  10  -1 1459.19 87.5365  24
   0  10   1 1483.86 196.799  12
   0  10  -1 1499.45 92.6490  27
   0  10  -1 1491.04 101.381  14
   0  10   1 1638.85 103.759  24
   0  10  -1 1478.19 213.677  12
   0  10   1 1532.84 94.1277  14
   0  10   2 29955.6 847.915   2
   0  10  -2 30236.8 418.758  14
   0  10   2 29440.5 424.142  24
   0  10   2 28865.7 384.963  18
   0  10   2 29908.5 391.767  14
   0  10  -2 29554.3 402.434  27
   0  10   2 30564.7 827.509  12
   0  10   3 2192.99 105.031  14
   0  10   3 2298.62 134.453  24
   0  10  -3 2308.16 121.599  14
   0  10  -3 2296.95 265.228   1
   0  10   3 2298.69 110.628  18
   0  10   4 775.569 81.5708  10
   0  10   4 815.635 104.713  24
   0  10   4 715.552 84.4843   7
   0  10   4 715.958 72.8429  18
   0  10  -4 792.638 92.2411  14
   0  10   4 738.411 69.0919  14
   0  10  -4 734.357 80.7586  18
   0  10  -5 248.579 72.6970  18
   0  10   5 350.479 90.2278  26
   0  10   5 362.549 68.5891  10
   0  10   5 355.175 64.6708  18
   0  10   5 387.499 91.9106  24
   0  10  -5 407.314 82.4563  14
   0  10   5 351.230 56.5692  14
   0  10   5 331.985 71.2688   7
   0  10   6 6283.55 231.556  24
   0  10   6 6529.77 210.697   7
   0  10   6 6672.34 208.983  18
   0  10  -6 6667.94 220.667  14
   0  10   6 6822.94 219.500  26
   0  10   6 6486.75 207.939  10
   0  10  -6 6785.01 208.890  18
   0  10  -7 468.850 96.3899  14
   0  10  -7 521.208 96.4495  18
   0  10   7 603.712 116.499  24
   0  10   7 574.266 117.495  26
   0  10   7 430.342 87.9800  10
   0  10   7 464.718 91.1723   7
   0  10  -8 1733.89 134.649  18
   0  10   8 1755.81 133.911  10
   0  10  -8 1694.87 136.537  14
   0  10   8 1557.76 151.182  24
   0  10   8 1815.62 157.631  26
   0  10   8 1749.85 134.347   7
   0  11   0 38.8229 43.7172  18
   0  11   0 2.17687 54.4834  27
   0  11   0 36.5871 61.7517  14
   0  11   1 1833.91 115.885  24
   0  11  -1 1939.52 99.8437  18
   0  11   1 1951.22 102.908  18
   0  11  -1 1899.61 112.088  27
   0  11  -1 1729.72 102.077  24
   0  11  -1 2174.28 124.976  14
   0  11   1 1932.11 109.808  14
   0  11   1 1856.67 238.881  12
   0  11  -2 9625.72 243.200  14
   0  11  -2 9349.39 213.285  18
   0  11   2 9705.06 222.754  18
   0  11   2 9515.94 221.982  14
   0  11   2 9748.23 249.393  24
   0  11  -2 9618.41 232.992  27
   0  11  -3 4272.14 152.248  18
   0  11   3 3744.63 168.030  24
   0  11   3 4183.48 152.149  18
   0  11   3 4373.38 151.178  14
   0  11  -3 4233.55 169.842  14
   0  11   4 3466.41 171.684  24
   0  11   4 3644.61 148.202  18
   0  11   4 3569.72 149.312  10
   0  11  -4 3422.14 145.168  18
   0  11   4 3429.87 157.044   7
   0  11   4 3598.83 139.203  14
   0  11  -4 3489.64 161.401  14
   0  11  -5 10074.8 248.404  18
   0  11   5 10436.4 257.591  18
   0  11   5 10103.7 256.547  10
   0  11  -5 9787.54 273.412  14
   0  11   5 10093.2 264.273   7
   0  11   6 1934.82 155.345  24
   0  11   6 1777.39 122.827  18
   0  11   6 1788.85 124.844  10
   0  11   6 1965.53 133.774   7
   0  11  -6 1792.51 130.887  18
   0  11  -6 1635.90 130.615  14
   0  11  -7 6186.34 219.253  18
   0  11   7 6336.90 228.555   7
   0  11   7 6453.96 224.993  10
   0  11  -7 6282.36 230.070  14
   0  11   7 6013.23 249.640  24
   0  12   0 3954.63 162.585  14
   0  12   0 4000.59 159.915  27
   0  12   0 3861.11 145.545  18
   0  12   0 3744.28 157.818  24
   0  12   1 1706.47 100.601  18
   0  12  -1 1661.85 99.3561  18
   0  12  -1 1706.97 124.395  14
   0  12   1 1808.94 113.858  14
   0  12   1 1738.16 122.415  24
   0  12  -1 1872.35 119.032  27
   0  12  -2 429.901 88.1064  14
   0  12   2 360.221 93.5521  24
   0  12  -2 601.943 72.1719  18
   0  12  -2 593.558 85.5604  27
   0  12   2 569.854 74.6506  14
   0  12   2 545.313 71.2248  18
   0  12   3 3901.47 155.682  18
   0  12  -3 3696.07 146.164  18
   0  12  -3 3595.94 171.633  14
   0  12   3 3849.25 151.364  14
   0  12   3 3227.38 173.025  24
   0  12  -3 3755.47 166.505  27
   0  12   4 234.149 63.1985  18
   0  12   4 185.903 57.7457  14
   0  12  -4 298.811 73.4618  18
   0  12   4 260.963 77.0925  10
   0  12   4 81.0005 77.6979   7
   0  12  -4 321.457 93.6383  14
   0  12   4 18.2872 91.5446  24
   0  12   5 3186.75 155.676  18
   0  12  -5 2777.41 146.474  18
   0  12   5 2711.92 177.041  24
   0  12  -5 2978.11 170.806  14
   0  12   5 3142.51 164.159   7
   0  12   5 3110.96 157.795  10
   0  12   6 7448.99 241.414  10
   0  12  -6 7486.81 256.320  14
   0  12   6 7518.67 270.700  24
   0  12   6 7323.89 245.769   7
   0  12  -6 7346.84 230.623  18
   0  12   6 7388.34 240.024  18
   0  13   0 104.818 70.8054  27
   0  13   0 12.4226 54.9626  18
   0  13   0-17.3739 76.4260  24
   0  13   0-113.403 77.5021  14
   0  13  -1 3749.32 174.122  14
   0  13   1 3646.98 162.320  14
   0  13   1 3549.40 171.016  24
   0  13  -1 3758.86 168.524  27
   0  13   1 3607.68 150.232  18
   0  13  -1 3523.72 146.561  18
   0  13   2 1687.65 115.078  14
   0  13  -2 1747.56 137.925  14
   0  13   2 1710.85 111.921  18
   0  13  -2 1488.14 103.647  18
   0  13  -2 1638.29 122.896  27
   0  13   2 1784.44 143.652  24
   0  13   3 2778.76 137.791  14
   0  13   3 2779.82 139.395  18
   0  13   3 2780.11 166.486  24
   0  13   3 2782.00 160.758   7
   0  13  -3 2930.22 158.061  27
   0  13  -3 2842.80 167.774  14
   0  13  -3 2805.98 135.412  18
   0  13   3 2444.65 143.076  10
   0  13  -4 6377.54 239.114  14
   0  13   4 6489.34 206.875  14
   0  13   4 6717.92 246.707  24
   0  13  -4 6263.48 202.083  18
   0  13  -4 6471.94 230.211  27
   0  13   4 6316.97 217.037  10
   0  13   4 6229.44 228.645   7
   0  13   4 6323.67 211.499  18
   0  13   5 3977.62 216.341  24
   0  13  -5 4609.91 215.775  14
   0  13   5 4796.61 197.997  10
   0  13   5 4710.78 204.734   7
   0  13   5 4573.89 189.767  18
   0  14   0 9293.97 244.169  18
   0  14   0 9232.52 270.259  14
   0  14   1 5546.95 207.588  14
   0  14  -1 5399.23 217.194  14
   0  14   1 5280.41 210.484  24
   0  14  -1 5279.47 207.165  27
   0  14   1 5481.63 192.146  18
   0  14  -1 5327.30 186.463  18
   0  14   2 2233.22 130.762  18
   0  14  -2 2397.80 130.875  18
   0  14  -2 2443.80 153.396  27
   0  14  -2 2084.66 153.698  14
   0  14   2 2252.70 152.442  24
   0  14   2 2312.98 138.091  14
   0  14   3 3635.44 185.715  24
   0  14  -3 3859.43 198.564  14
   0  14   3 3609.44 174.704  10
   0  14   3 3653.08 166.196  14
   0  14   3 3948.37 171.956  18
   0  14   3 3500.91 189.264   7
   0  14  -3 3888.85 188.970  27
   1 -14  -3 1463.57 140.295  19
  -1 -14   3 1351.85 123.355   5
  -1 -14   3 1584.75 151.666  16
   1 -14  -3 1462.45 183.025  16
  -1 -14   3 1397.21 109.573   4
   1 -14  -3 1376.11 104.029   5
   1 -14  -3 1457.42 119.764  23
   1 -14  -3 1602.30 121.255   4
  -1 -14   3 1540.83 155.086  25
  -1 -14   2 5161.84 231.343  25
   1 -14  -2 4863.14 242.514  16
   1 -14  -2 5215.66 197.028  23
   1 -14  -2 4993.99 189.659   5
   1 -14  -2 5280.47 199.802   4
  -1 -14   2 5302.59 190.344   4
  -1 -14   2 5417.63 235.956  16
  -1 -14   2 5074.99 205.078   5
   1 -14  -1 1045.36 107.772  23
  -1 -14   1 949.117 90.9401   4
  -1 -14   1 567.618 123.920  25
  -1 -14   1 766.119 152.960  16
   1 -14  -1 793.221 151.775  16
   1 -14  -1 967.795 99.1518   4
  -1 -14   1 972.322 104.732   5
   1 -14  -1 970.406 100.419   5
  -1 -14   1 1136.09 100.706  23
  -1 -14   0 3454.79 154.705  23
  -1 -14   0 2958.44 181.222  25
  -1 -14   0 3582.02 167.963   5
  -1 -14   0 3465.88 152.710   4
   1 -14   0 3481.76 167.943  23
   1 -14   0 3078.83 194.309  16
  -1 -14   0 2836.44 210.225  16
   1 -14   0 3373.35 161.263   4
   1 -14   1 160.216 71.3428   4
  -1 -14  -1 189.398 145.213  16
  -1 -14  -1 130.997 57.5384  23
  -1 -14  -1 207.767 69.3090   5
  -1 -14  -1 265.340 62.5984   4
   1 -14   1 282.931 81.1154  23
  -1 -14  -1 84.0464 109.721  25
   1 -14   1 71.4950 113.063  16
  -1 -14  -2 5072.20 267.211  16
  -1 -14  -2 5583.43 198.717   5
   1 -14   2 5201.62 233.323  16
   1 -14   2 4966.96 215.102  25
  -1 -14  -2 5318.27 216.034  19
  -1 -14  -2 5518.79 190.597  23
  -1 -14  -2 5589.36 191.172   4
   1 -14   2 5734.46 211.749   4
  -1 -13   5 5872.47 215.666  16
   1 -13  -5 5981.53 207.126  23
  -1 -13   5 5359.94 213.294   5
   1 -13  -5 5422.60 256.566  16
  -1 -13   5 6068.75 257.814  25
   1 -13  -5 5794.20 250.230  19
   1 -13  -4 4733.17 181.431  23
  -1 -13   4 4828.48 202.579  16
   1 -13  -4 4994.17 239.974  16
   1 -13  -4 4879.80 186.584   4
  -1 -13   4 4736.13 196.308   5
   1 -13  -4 4458.94 213.567  19
  -1 -13   4 4987.40 185.084   4
  -1 -13   4 4704.11 224.100  25
   1 -13  -3 5783.45 183.479   5
  -1 -13   3 5884.19 213.683   5
   1 -13  -3 5593.11 197.108   4
   1 -13  -3 5735.08 221.284  19
   1 -13  -3 5794.12 198.759  23
  -1 -13   3 5247.63 231.063  25
  -1 -13   3 5343.62 219.167  16
  -1 -13   3 5780.05 192.443   4
   1 -13  -3 5054.94 234.466  16
  -1 -13   2 1567.88 153.939  16
  -1 -13   2 1690.80 121.328   5
   1 -13  -2 1631.50 128.386  19
  -1 -13   2 1588.26 149.494  25
   1 -13  -2 1567.38 111.712   4
   1 -13  -2 1622.30 107.436   5
   1 -13  -2 1766.43 122.592  23
  -1 -13   2 1813.95 110.145   4
   1 -13  -1 4310.71 173.920  23
   1 -13  -1 3870.41 209.792  16
  -1 -13   1 4130.99 157.927   4
  -1 -13   1 3479.71 190.184  25
  -1 -13   1 4203.80 160.806  23
  -1 -13   1 4103.00 172.599   5
  -1 -13   1 3703.56 200.576  16
   1 -13  -1 4085.83 167.263   4
   1 -13  -1 4370.38 167.361   5
  -1 -13   0 2169.53 159.212  25
  -1 -13   0 2279.72 119.333   4
   1 -13   0 2316.34 174.594  16
   1 -13   0 2242.09 127.957   4
  -1 -13   0 2196.51 186.114  16
  -1 -13   0 2371.22 122.579  23
  -1 -13   0 2336.09 133.056   5
   1 -13   0 2366.30 131.514  23
   1 -13   0 2355.17 135.244   5
   1 -13   1 1116.61 106.057  23
   1 -13   1 977.243 99.5927   5
   1 -13   1 952.246 138.322  16
  -1 -13  -1 979.180 92.5997   5
   1 -13   1 951.314 94.5786   4
  -1 -13  -1 1046.16 84.9311   4
   1 -13   1 973.648 114.035  25
  -1 -13  -1 1024.71 87.5791  23
  -1 -13  -2 686.741 76.5396   4
   1 -13   2 725.553 89.7577   4
   1 -13   2 721.992 94.7005  23
   1 -13   2 687.194 102.956  25
  -1 -13  -2 659.167 83.6336   5
  -1 -13  -2 671.634 114.235  19
  -1 -13  -2 669.348 78.4285  23
   1 -13   2 658.992 120.834  16
   1 -13   3 1284.17 116.226   6
   1 -13   3 1092.04 123.543  25
  -1 -13  -3 1134.23 90.5337   4
  -1 -13  -3 1006.23 134.404  19
   1 -13   3 1202.88 104.918   4
  -1 -13  -3 1174.31 94.0855   5
  -1 -13  -3 956.532 164.923  16
   1 -13   3 1046.45 124.706  16
   1 -13   4 2407.58 151.233   6
   1 -13   4 2640.24 150.656   4
  -1 -13  -4 2167.10 192.514  16
   1 -13   4 2341.39 149.525  16
  -1 -13  -4 2540.03 132.953   4
   1 -13   4 1916.08 158.215  25
  -1 -12   6 4898.10 236.162  25
  -1 -12   6 6659.31 210.429  16
   1 -12  -6 5439.36 244.729  16
   1 -12  -6 6536.78 210.261  23
  -1 -12   6 6278.15 221.537   5
   1 -12  -6 6235.95 260.915  19
  -1 -12   6 7130.56 230.232   6
  -1 -12   5 2246.65 138.653  16
   1 -12  -5 2159.44 172.724  19
  -1 -12   5 1816.16 154.816  25
   1 -12  -5 2230.05 126.553  23
  -1 -12   5 2401.38 139.415   5
  -1 -12   4 8277.25 241.405   5
   1 -12  -4 8025.22 277.525  16
  -1 -12   4 7791.69 270.965  25
   1 -12  -4 8050.19 259.048  19
  -1 -12   4 8161.67 224.828   4
   1 -12  -4 8393.70 226.305  23
  -1 -12   4 8168.80 240.078  16
  -1 -12   3 3523.93 144.512   4
   1 -12  -3 3904.78 158.988  23
  -1 -12   3 3435.06 156.195   5
  -1 -12   3 4040.98 186.279  16
   1 -12  -3 3672.05 177.620  19
   1 -12  -3 3751.14 154.585   4
   1 -12  -3 3627.60 138.186   5
   1 -12  -3 4105.09 205.040  16
  -1 -12   2 11928.0 256.865   4
  -1 -12   2 10869.5 287.023  16
   1 -12  -2 11941.8 266.989   4
  -1 -12   2 11649.2 274.261   5
   1 -12  -2 11676.3 268.390  19
   1 -12  -2 11799.8 255.073   5
   1 -12  -2 12013.1 267.696  23
   1 -12  -2 10997.6 300.258  16
  -1 -12   1 12410.9 261.366  23
  -1 -12   1 11662.3 297.099  25
   1 -12  -1 12628.4 272.065   4
   1 -12  -1 12342.2 271.055  23
  -1 -12   1 11341.0 301.557  16
   1 -12  -1 11230.2 302.519  16
   1 -12  -1 12061.5 261.962   5
  -1 -12   1 11989.9 254.228   4
  -1 -12   1 12390.6 278.280   5
  -1 -12   0 56.1313 51.2267   5
  -1 -12   0 126.848 100.050  25
   1 -12   0 121.966 103.381  16
  -1 -12   0 140.169 55.1133  23
   1 -12   0 107.248 55.3571   5
  -1 -12   0 66.8032 38.1978   4
   1 -12   0 121.404 73.3415  25
   1 -12   0 118.342 62.3389  23
   1 -12   0 141.548 55.9537   4
   1 -12   1 1558.82 108.634   5
   1 -12   1 1712.21 139.018  16
  -1 -12  -1 1853.28 159.315  16
   1 -12   1 1743.36 123.427  25
  -1 -12  -1 1615.43 104.073   5
  -1 -12  -1 1851.75 120.766  19
   1 -12   1 1604.42 104.741   4
  -1 -12  -1 1710.72 97.0260   4
   1 -12   1 1704.09 113.018  23
  -1 -12  -1 1674.18 99.1456  23
   1 -12   2 13500.2 313.307  25
   1 -12   2 13782.2 301.195  23
  -1 -12  -2 13426.2 270.047   4
  -1 -12  -2 12861.4 335.133  16
   1 -12   2 13685.1 294.925   4
  -1 -12  -2 13395.4 278.446   5
   1 -12   2 13360.0 316.966  16
  -1 -12  -2 13752.8 268.867  23
  -1 -12  -3 16077.3 290.809  23
  -1 -12  -3 13940.0 366.339  16
   1 -12   3 14555.9 341.774  25
   1 -12   3 15296.1 332.899  16
  -1 -12  -3 15662.0 299.079   4
  -1 -12  -3 15728.9 296.932   5
   1 -12   3 15260.3 318.379   4
   1 -12   4 3421.35 180.840  25
   1 -12   4 3974.07 169.972   4
   1 -12   4 4008.52 179.049  16
   1 -12   4 4222.83 183.128   6
  -1 -12  -4 3539.28 218.357  16
   1 -12   5 713.218 99.0943   6
   1 -12   5 434.322 107.372  25
   1 -12   5 718.316 92.9483  16
  -1 -12  -5 473.393 147.623  16
  -1 -11   7 10778.6 329.940  25
   1 -11  -7 11562.5 350.083  19
  -1 -11   7 11620.5 273.476   9
   1 -11  -7 11845.1 281.705  23
   1 -11  -7 11230.9 313.339  16
   1 -11  -6 738.576 141.617  16
   1 -11  -6 906.729 88.4059  23
  -1 -11   6 888.177 95.0909   5
  -1 -11   6 698.099 124.490  25
   1 -11  -6 793.299 160.036  19
  -1 -11   5 4113.36 167.509   5
   1 -11  -5 4286.16 199.748  16
  -1 -11   5 4182.67 197.576  25
   1 -11  -5 4270.98 198.539  19
  -1 -11   5 4483.54 169.130  16
   1 -11  -5 4314.67 161.745  23
  -1 -11   4 6392.43 201.686   5
   1 -11  -4 6408.32 226.559  16
  -1 -11   4 6868.42 207.482  16
  -1 -11   4 6557.14 191.594   4
  -1 -11   4 7305.00 249.847  25
   1 -11  -4 6683.69 193.208  23
   1 -11  -4 6673.16 225.758  19
  -1 -11   3 5840.47 215.693  25
  -1 -11   3 6844.88 188.301   4
   1 -11  -3 6248.71 225.799  16
  -1 -11   3 6842.63 201.847   5
   1 -11  -3 7043.05 197.317   4
  -1 -11   3 6343.08 208.904  16
   1 -11  -3 6875.87 175.205   5
   1 -11  -3 7061.75 195.798  23
   1 -11  -2 13604.9 270.374  23
  -1 -11   2 13632.9 265.832  23
   1 -11  -2 13341.0 255.655   5
   1 -11  -2 13754.6 276.367  19
  -1 -11   2 14080.1 302.691  16
   1 -11  -2 13283.1 311.846  16
   1 -11  -2 13841.7 272.533   4
  -1 -11   2 13442.2 279.070   5
  -1 -11   2 13516.0 259.443   4
  -1 -11   2 13245.8 309.161  25
  -1 -11   1 26759.4 431.534  25
  -1 -11   1 27781.1 379.077   4
  -1 -11   1 27622.1 386.500  23
   1 -11  -1 27876.3 397.592  23
  -1 -11   1 28165.9 441.071  16
  -1 -11   1 26760.0 401.568   5
   1 -11  -1 25922.5 434.682  16
   1 -11  -1 27025.6 386.191   5
   1 -11  -1 27306.3 395.838   4
   1 -11   0 1160.28 91.3428  23
   1 -11   0 1146.20 86.8443   5
   1 -11   0 1404.50 124.435  16
  -1 -11   0 1178.81 81.9206  23
   1 -11   0 1220.78 86.5484   4
  -1 -11   0 1227.12 79.0862   4
  -1 -11   0 1088.49 87.9067   5
  -1 -11  -1 1463.33 92.4459   5
   1 -11   1 1309.09 117.982  16
   1 -11   1 1492.91 95.4028   4
   1 -11   1 1453.32 105.978  25
   1 -11   1 1453.74 99.7016  23
  -1 -11  -1 1469.26 86.6029   4
   1 -11   1 1412.09 96.5547   5
  -1 -11  -1 1393.92 135.985  16
  -1 -11  -1 1497.60 87.8581  23
  -1 -11  -2 4958.31 158.174   5
  -1 -11  -2 5272.28 154.984  23
  -1 -11  -2 4644.58 202.708  16
   1 -11   2 4813.45 170.505   5
   1 -11   2 4793.90 186.781  16
   1 -11   2 5079.60 172.121  23
   1 -11   2 4935.84 166.974   4
  -1 -11  -2 5295.56 158.344   4
   1 -11   2 4715.87 181.225  25
  -1 -11  -3 1389.24 89.1264   5
  -1 -11  -3 1711.89 150.578  16
   1 -11   3 1762.19 131.045  25
  -1 -11  -3 1500.08 91.3399  23
   1 -11   3 1514.56 116.748  16
   1 -11   3 1399.98 97.4748   4
   1 -11   4 1822.46 123.169  16
  -1 -11  -4 1539.81 147.727  16
   1 -11   4 1744.47 138.348  25
   1 -11   4 1856.37 114.376   4
   1 -11   4 1822.18 118.596   6
   1 -11   5 2435.02 137.113   6
   1 -11   5 2083.62 156.612  25
   1 -11   5 2391.29 135.885  16
   1 -11   6 1462.91 119.186   6
  -1 -11  -6 1344.34 155.441  16
   1 -11   6 1526.60 113.130  16
   1 -11   6 1110.49 130.014  25
  -1 -10   8 2284.75 130.766   6
   1 -10  -8 2365.81 200.523  19
  -1 -10   8 1472.52 147.534  25
   1 -10  -8 2218.19 129.860  23
  -1 -10   8 2086.51 129.516   9
   1 -10  -8 1693.15 148.578  16
   1 -10  -7 6689.96 261.345  19
   1 -10  -7 7304.30 213.255  23
   1 -10  -7 7048.93 242.401  16
  -1 -10   7 6423.20 250.804  25
  -1 -10   7 7512.01 217.087   6
  -1 -10   7 6948.31 209.528   9
  -1 -10   6 20091.3 333.591   9
  -1 -10   6 19885.0 355.849   5
   1 -10  -6 19158.4 378.006  16
   1 -10  -6 20197.4 402.380  19
  -1 -10   6 19394.2 410.202  25
  -1 -10   5 7710.28 249.245  25
   1 -10  -5 7155.45 225.612  16
  -1 -10   5 6687.75 198.579   5
   1 -10  -5 7007.41 235.630  19
  -1 -10   5 7012.76 195.155  16
   1 -10  -5 6966.73 193.447  23
   1 -10  -4 188.020 54.6083  23
   1 -10  -4 22.4134 94.0634  16
  -1 -10   4 181.199 46.9319   4
  -1 -10   4 160.344 86.0743  25
  -1 -10   4 149.995 54.2781   5
  -1 -10   4 174.030 72.0715  16
   1 -10  -4 129.488 92.6229  19
  -1 -10   3 2750.10 133.658  16
  -1 -10   3 2455.14 118.376   5
   1 -10  -3 2579.22 117.252  23
  -1 -10   3 2483.42 108.195   4
  -1 -10   3 2823.71 157.224  25
   1 -10  -3 2694.57 148.270  19
   1 -10  -2 13786.1 300.471  16
  -1 -10   2 12567.9 237.037   4
  -1 -10   2 12272.3 252.492   5
  -1 -10   2 14421.6 302.823  25
   1 -10  -2 12660.9 247.061  23
   1 -10  -2 12777.9 249.023   4
  -1 -10   2 12467.5 240.264  23
  -1 -10   2 14287.8 290.175  16
  -1 -10   1 57289.3 627.064  16
  -1 -10   1 55882.3 554.812   4
   1 -10  -1 56181.2 629.042  16
  -1 -10   1 56207.1 561.080  23
  -1 -10   1 54900.6 580.744   5
   1 -10  -1 55125.8 574.502   4
   1 -10  -1 55300.0 576.367  23
  -1 -10   0 2189.60 105.940   5
   1 -10   0 1909.37 125.566  16
  -1 -10   0 2007.03 128.387  16
   1 -10   0 2297.47 109.907  23
  -1 -10   0 2511.66 103.369  23
   1 -10   0 2468.30 251.047   3
  -1 -10   0 2403.39 99.5263   4
   1 -10   0 2454.05 109.583   5
   1 -10   0 2536.51 111.058   4
   1 -10   1 5212.24 160.085  23
   1 -10   1 5246.44 359.856   3
  -1 -10  -1 4911.63 187.728  16
   1 -10   1 4977.39 188.915  16
  -1 -10  -1 4975.28 142.579   4
   1 -10   1 5262.08 158.574   4
   1 -10   1 5119.11 158.467   5
  -1 -10  -1 5060.65 142.356  23
  -1 -10  -2 2657.29 107.185  23
   1 -10   2 2735.43 122.367  23
  -1 -10  -2 2756.11 108.871   4
   1 -10   2 2280.41 129.076  16
   1 -10   2 2553.76 120.218   5
   1 -10   2 2764.41 119.936   4
   1 -10   3 7112.71 207.327  16
  -1 -10  -3 7174.50 242.947  16
   1 -10   3 7196.68 195.863   4
   1 -10   3 6626.70 210.948  25
  -1 -10  -3 7430.56 174.891  23
  -1 -10  -4 933.711 122.111  16
   1 -10   4 1207.02 99.2464  16
   1 -10   4 1204.62 95.5122   6
   1 -10   4 1142.58 87.9236   4
  -1 -10  -4 1147.16 76.6823  23
   1 -10   4 1051.20 108.427  25
   1 -10   5 9012.61 211.300   9
  -1 -10  -5 9286.24 271.734  16
   1 -10   5 9966.37 242.491  16
   1 -10   5 9779.78 247.822   6
   1 -10   6 10667.2 257.797  16
   1 -10   6 9482.73 290.078  25
  -1 -10  -6 9647.76 290.829  16
   1 -10   6 11109.0 272.395   6
   1 -10   6 10438.7 246.101   9
  -1 -10  -7 4714.62 221.025  16
   1 -10   7 5289.54 190.508   9
   1 -10   7 4946.85 229.841  25
   1 -10   7 5391.61 198.445   6
   1  -9  -9 4418.11 181.438  23
  -1  -9   9 4233.32 188.652   9
  -1  -9   9 4189.75 164.646   6
  -1  -9   9 3628.42 214.070  25
   1  -9  -9 3825.52 239.940  19
   1  -9  -8 1488.09 106.372  23
  -1  -9   8 1353.41 113.145   9
  -1  -9   8 1435.53 99.6648   6
   1  -9  -8 1403.34 171.927  19
  -1  -9   7 7687.86 215.003   9
   1  -9  -7 7542.78 233.839  16
   1  -9  -7 7609.03 264.026  19
   1  -9  -7 7799.96 212.518  23
  -1  -9   7 8031.15 215.986   6
  -1  -9   7 7137.48 253.469  25
   1  -9  -6 1366.40 131.360  19
   1  -9  -6 940.970 115.247  16
  -1  -9   6 1248.86 91.6430   9
  -1  -9   6 1107.49 120.620  25
  -1  -9   6 1199.44 89.7921   5
   1  -9  -6 1221.27 89.6867  23
  -1  -9   5 5415.79 201.520  25
   1  -9  -5 4637.82 187.903  19
   1  -9  -5 4956.73 183.515  16
  -1  -9   5 5044.41 161.441   5
   1  -9  -5 4979.38 156.696  23
  -1  -9   4 2690.30 111.428   4
   1  -9  -4 2752.65 114.665  23
   1  -9  -4 2607.67 144.664  19
   1  -9  -4 2543.61 141.184  16
  -1  -9   4 2788.05 119.030   5
  -1  -9   4 2702.17 141.576  25
   1  -9  -3 26275.1 761.265  12
  -1  -9   3 27460.2 372.793   5
  -1  -9   3 27080.6 352.839   4
   1  -9  -3 27022.1 358.950  23
  -1  -9   2 7090.08 169.960  23
  -1  -9   2 7282.14 166.524   4
   1  -9  -2 7196.22 173.933   4
   1  -9  -2 7123.43 173.382  23
   1  -9  -2 7107.91 376.219   3
   1  -9  -2 6770.11 399.331  12
   1  -9  -2 7234.58 464.068  20
   1  -9  -1 20730.8 301.646   4
   1  -9  -1 20459.1 302.027  23
  -1  -9   1 21025.0 292.617  23
  -1  -9   1 20497.4 284.629   4
   1  -9   0 2252.91 97.2979   4
  -1  -9   0 2387.56 93.9392  23
  -1  -9   0 2511.79 93.0077   4
   1  -9   0 2388.24 232.555   3
   1  -9   0 2419.17 103.753  23
  -1  -9  -1 38387.3 412.546   4
  -1  -9  -1 38276.3 407.260  23
   1  -9   1 37617.2 440.946  23
   1  -9   1 37650.1 436.744   4
  -1  -9  -2 13007.6 219.528  23
   1  -9   2 12807.7 243.393   5
   1  -9   2 12912.6 247.299  23
   1  -9   2 13043.7 244.457   4
  -1  -9  -3 10823.0 201.587  23
  -1  -9  -3 11154.1 263.459  16
   1  -9   3 10695.6 228.347   4
   1  -9   3 11398.6 239.853  16
   1  -9   4 97.4777 69.2604  25
   1  -9   4 53.9097 54.4481  16
  -1  -9  -4 20.7314 38.8240  23
   1  -9   4 88.8747 49.1930   4
  -1  -9  -4 1.74449 88.2762  16
   1  -9   4 97.3340 45.4921   6
   1  -9   5 858.901 83.8061   6
  -1  -9  -5 733.048 108.321  16
   1  -9   5 725.091 66.3054   9
   1  -9   5 789.706 77.0794  16
   1  -9   6 5843.17 189.173   6
   1  -9   6 5608.32 177.831   9
   1  -9   6 5751.50 179.099  16
  -1  -9  -6 5760.21 218.138  16
   1  -9   6 5230.94 213.888  25
   1  -9   7 4280.81 170.746   6
   1  -9   7 4137.81 198.867  25
   1  -9   7 4134.05 167.379   9
  -1  -9  -7 3838.05 192.280  16
   1  -9   8 1999.15 161.595  25
   1  -9   8 2254.31 136.710   9
   1  -9   8 2355.40 134.563   6
  -1  -8   9 15728.3 344.768   9
   1  -8  -9 15414.1 324.772  23
   1  -8  -9 15959.9 384.552  19
  -1  -8   8 88.4084 52.1554   6
   1  -8  -8 76.4513 66.4423  23
  -1  -8   8 207.049 89.4969  25
  -1  -8   8 144.058 70.4849   9
  -1  -8   7 7421.41 207.170   9
  -1  -8   7 7408.98 196.464   6
   1  -8  -7 7497.51 203.991  23
   1  -8  -7 6595.63 208.503  16
  -1  -8   7 6416.27 228.232  25
  -1  -8   6 3942.69 139.153   5
   1  -8  -6 3662.26 155.998  16
   1  -8  -6 3958.30 141.211  23
  -1  -8   6 3901.26 140.796   9
  -1  -8   6 3958.45 175.482  25
  -1  -8   5 44892.6 497.541   5
   1  -8  -5 44755.1 493.729  23
   1  -8  -4 4312.63 272.931  12
   1  -8  -4 4724.92 139.236  23
  -1  -8   4 4631.17 135.626   4
   1  -8  -3 20259.9 618.990  12
   1  -8  -3 20287.6 289.602  23
   1  -8  -3 20727.8 762.083  20
  -1  -8   3 19738.5 279.814   4
  -1  -8   2 5362.46 132.400   4
  -1  -8   2 5512.02 138.666  23
   1  -8  -2 5194.60 330.717  12
   1  -8  -2 5224.50 139.152  23
   1  -8  -2 5317.70 373.622  20
   1  -8  -1 6493.77 151.980   4
   1  -8  -1 6658.67 155.987  23
   1  -8   0 434.920 46.6830   4
   1  -8   0 393.516 116.489   3
   1  -8   0 435.739 57.1604  23
  -1  -8  -1 12768.3 308.935   3
   1  -8   1 11804.1 211.510   4
   1  -8   1 12488.0 495.380   3
   1  -8   1 11621.7 214.877  23
  -1  -8  -2 88791.1 986.767  21
   1  -8   2 87460.4 742.881   4
   1  -8   2 86595.7 746.662  23
  -1  -8  -3 118771. 1461.50  21
   1  -8   3 125026. 982.961   4
   1  -8   4 5024.22 155.895   6
  -1  -8  -4 5291.79 182.514  16
  -1  -8  -4 5061.54 132.041  23
   1  -8   4 4649.21 149.815   4
   1  -8   5 5790.47 198.871  25
   1  -8   5 6354.49 180.662   6
   1  -8   5 5887.72 162.689   9
  -1  -8  -5 6089.49 151.955  23
  -1  -8  -5 6460.93 217.021  16
   1  -8   5 6234.60 172.140  16
   1  -8   6 20109.4 339.634   6
   1  -8   6 19364.4 330.575   9
   1  -8   6 19095.4 386.272  25
   1  -8   7 1956.82 120.197   9
   1  -8   7 2252.73 119.964   6
   1  -8   8 296.961 97.4495  25
   1  -8   8 438.805 85.5503   9
  -1  -8  -8 351.585 109.759  16
   1  -8   8 331.803 71.0461   6
   1  -7 -10 12394.2 353.773  19
  -1  -7  10 13173.8 330.681   9
   1  -7 -10 13353.1 311.889  23
  -1  -7   9 6862.59 226.688   9
  -1  -7   9 6962.62 250.057  25
   1  -7  -9 7083.60 216.398  23
   1  -7  -8 216.474 66.2267  23
  -1  -7   8 163.644 48.8281   6
  -1  -7   8 223.039 84.0936  25
  -1  -7   8 184.236 71.2919   9
  -1  -7   7 1273.93 95.6367   9
  -1  -7   7 1191.13 108.810  25
   1  -7  -7 1293.83 93.5692  23
  -1  -7   7 1098.10 75.7156   6
  -1  -7   6 21076.9 377.498  25
  -1  -7   6 21016.9 321.487   9
   1  -7  -6 21223.0 321.137  23
   1  -7  -5 8707.86 188.728  23
   1  -7  -4 13446.4 225.518  23
  -1  -7   4 13277.9 223.437   4
  -1  -7   4 13015.1 566.255  13
   1  -7  -4 13539.3 616.116  20
  -1  -7   4 12859.6 463.207  21
   1  -7  -4 13779.0 450.652  12
  -1  -7   3 3552.89 291.912  13
   1  -7  -3 3849.16 307.388  13
  -1  -7   3 3300.88 196.205  21
   1  -7  -3 3333.82 292.602  20
   1  -7  -3 3782.09 247.739  12
   1  -7  -3 3567.05 110.218  23
  -1  -7   2 18048.2 643.743  13
   1  -7  -2 17849.7 556.426  12
  -1  -7   2 16851.1 337.997  21
   1  -7  -2 17971.4 632.359  20
   1  -7  -2 18403.8 652.024  13
   1  -7  -1 35075.4 858.994  20
  -1  -7   1 34355.2 889.686  13
   1  -7  -1 34207.3 889.257  13
   1  -7  -1 33883.9 814.793  12
  -1  -7   0 26099.0 763.370  13
   1  -7   0 24408.3 718.959  12
  -1  -7   0 26040.0 434.015   3
   1  -7   0 25385.4 754.347  13
   1  -7   0 26270.3 654.799   3
   1  -7   1 77129.1 1343.33  13
   1  -7   1 79373.0 1229.85   3
  -1  -7  -1 75993.7 1342.48  13
   1  -7   2 15115.1 575.314  13
  -1  -7  -2 15323.1 619.164  20
   1  -7   2 15160.6 236.114   4
   1  -7   2 15227.7 239.631  23
  -1  -7  -2 14761.3 579.051  13
  -1  -7  -3 33230.1 727.426  21
  -1  -7  -3 35135.1 981.969  20
   1  -7   3 34315.5 874.155  13
  -1  -7  -3 34744.3 895.061  13
   1  -7   3 33786.4 392.245   4
  -1  -7  -4 562.641 136.601  13
  -1  -7  -4 805.155 173.841  20
  -1  -7  -4 1092.86 201.800  21
   1  -7   4 969.270 69.9690   4
   1  -7   4 1059.08 163.696  13
   1  -7   5 699.172 66.4463   6
  -1  -7  -5 670.753 60.5296  23
   1  -7   5 690.837 141.995  13
  -1  -7  -5 548.671 139.029  13
   1  -7   5 622.116 83.9570  25
   1  -7   6 2598.31 116.769   6
   1  -7   6 2562.93 118.955   9
  -1  -7  -6 2368.15 319.790  21
  -1  -7  -6 2604.86 105.232  23
  -1  -7  -6 2787.16 138.914  16
   1  -7   6 3059.67 151.512  25
   1  -7   7 12720.8 279.008   9
  -1  -7  -7 13169.4 298.611  16
   1  -7   7 13772.1 275.341   6
   1  -7   7 12781.9 319.053  25
   1  -7   8 767.063 108.877  25
   1  -7   8 805.061 78.5553   6
  -1  -7  -8 643.140 107.551  16
   1  -7   8 721.735 90.7178   9
   1  -7   9 1045.12 125.400  25
   1  -7   9 1129.61 94.7159   6
   1  -7   9 985.706 111.545   9
  -1  -6  10 1880.29 152.855  25
   1  -6 -10 1594.92 123.237  23
   1  -6 -10 1509.03 156.730  19
  -1  -6  10 1615.67 131.783   9
  -1  -6   9 9511.12 258.645   9
   1  -6  -9 9547.80 246.997  23
  -1  -6   9 9181.23 279.739  25
  -1  -6   8 13113.8 282.109   9
  -1  -6   8 12860.0 316.737  25
   1  -6  -8 13605.5 274.691  23
  -1  -6   7 13.4085 63.6582  25
  -1  -6   7 29.1019 52.9553   9
   1  -6  -7 144.777 54.2073  23
   1  -6  -6 7334.13 465.501  21
   1  -6  -6 7114.28 432.893  13
  -1  -6   6 8159.25 223.948  25
  -1  -6   6 7156.98 416.838  13
   1  -6  -6 7558.20 179.310  23
   1  -6  -5 11673.6 371.190  12
   1  -6  -5 10145.0 481.426  21
  -1  -6   5 9966.89 460.628  21
   1  -6  -5 11119.6 205.423  23
  -1  -6   5 10573.4 490.345  13
   1  -6  -5 11720.1 572.187  20
   1  -6  -5 11875.3 532.946  13
  -1  -6   4 4059.96 266.522  21
   1  -6  -4 4535.62 324.541  13
   1  -6  -4 4816.17 245.988  12
   1  -6  -4 4960.90 351.774  20
  -1  -6   4 4465.35 310.396  13
  -1  -6   3 6845.54 288.074  21
  -1  -6   3 7304.65 386.040  13
   1  -6  -3 8166.50 417.740  20
   1  -6  -3 8181.64 416.312  13
   1  -6  -3 7788.98 323.710  12
  -1  -6   2 108032. 1061.60  21
   1  -6  -2 111565. 1388.76  12
  -1  -6   2 111253. 1567.29  13
   1  -6  -2 108218. 1566.07  13
   1  -6  -2 112096. 1559.98  20
  -1  -6   1 48930.4 986.966  13
   1  -6  -1 48848.2 911.875  12
   1  -6  -1 47562.1 977.910  13
   1  -6  -1 48693.3 942.169  20
   1  -6   0 24615.0 681.382  13
  -1  -6   0 25553.5 388.923   3
  -1  -6   0 23887.0 672.430  13
   1  -6   0 24841.3 599.784   3
   1  -6   0 23545.5 654.539  12
   1  -6   1 12055.4 469.571  13
   1  -6   1 12032.0 439.981   3
  -1  -6  -1 11427.2 268.752  21
  -1  -6  -1 11827.6 468.532  13
  -1  -6  -1 12186.5 493.380  20
  -1  -6  -2 34988.9 878.106  20
  -1  -6  -2 35581.2 830.140  13
   1  -6   2 34581.6 805.106  13
   1  -6   3 113730. 867.927   4
  -1  -6  -3 118090. 1775.50  20
   1  -6   3 114954. 1566.78  13
  -1  -6  -3 116641. 1605.15  13
  -1  -6  -3 111445. 1428.10  21
  -1  -6  -4 25558.7 731.622  21
  -1  -6  -4 24799.2 817.663  20
   1  -6   4 23277.8 662.291  13
   1  -6   4 23116.6 315.939   4
  -1  -6  -4 23391.4 685.074  13
  -1  -6  -5 2953.23 306.695  21
  -1  -6  -5 3131.54 313.405  20
   1  -6   5 3172.60 247.930  13
  -1  -6  -5 3138.81 255.273  13
  -1  -6  -6 22404.7 348.230  16
   1  -6   6 22789.6 332.227   6
   1  -6   6 22563.0 389.880  25
  -1  -6  -6 22287.9 304.914  23
   1  -6   6 22540.5 342.826   9
   1  -6   7 14067.7 319.918  25
   1  -6   7 13648.8 261.910   6
  -1  -6  -7 13567.4 247.986  23
   1  -6   7 13318.4 280.558   9
  -1  -6  -7 13968.0 292.831  16
   1  -6   8 2007.31 124.326   9
   1  -6   8 2106.27 144.671  25
  -1  -6  -8 2333.02 135.707  16
   1  -6   8 2118.17 111.444   6
   1  -6   9 868.923 117.151  25
   1  -6   9 776.352 100.921   9
   1  -5 -10-5.78737 112.764  19
   1  -5 -10 175.692 80.1031  23
  -1  -5  10 153.874 78.2127  25
  -1  -5  10 128.767 85.6561   9
  -1  -5   9 5047.90 202.987  25
  -1  -5   9 4919.51 186.187   9
   1  -5  -9 5120.94 181.102  23
   1  -5  -8 3597.60 141.882  23
  -1  -5   8 3530.70 147.421   9
  -1  -5   8 3548.70 165.321  25
   1  -5  -7 14201.1 595.591  13
  -1  -5   7 14519.3 571.235  13
  -1  -5   7 13166.8 287.992  25
  -1  -5   7 14041.5 267.848   9
   1  -5  -7 14409.0 260.893  23
   1  -5  -6 16261.2 686.666  21
   1  -5  -6 18653.6 748.307  20
  -1  -5   6 18073.0 620.822  13
  -1  -5   6 18168.6 724.864   2
  -1  -5   6 16542.3 661.056  21
   1  -5  -6 18089.0 275.603  23
   1  -5  -6 18527.2 651.421  13
  -1  -5   5 22835.2 759.534   2
   1  -5  -5 25322.9 748.885  21
  -1  -5   5 23099.2 674.147  13
   1  -5  -5 23122.5 697.338  13
   1  -5  -5 23106.5 297.569  23
   1  -5  -5 23891.3 777.737  20
  -1  -5   5 22179.5 691.835  21
   1  -5  -5 23357.5 508.395  12
   1  -5  -4 17216.7 618.638  20
  -1  -5   4 17109.2 560.401  13
   1  -5  -4 17240.7 575.664  13
   1  -5  -4 17072.6 535.918  21
  -1  -5   4 17325.8 618.062   2
  -1  -5   4 16012.8 520.349  21
   1  -5  -4 17181.8 433.550  12
   1  -5  -3 6969.98 364.379  20
  -1  -5   3 6182.07 281.121  21
  -1  -5   3 6894.90 343.938  13
   1  -5  -3 6699.35 272.570  12
  -1  -5   3 6460.29 350.566   2
   1  -5  -3 6630.03 344.103  13
   1  -5  -2 30172.8 713.216  20
   1  -5  -2 30741.4 728.792  13
   1  -5  -2 30524.9 620.642  12
  -1  -5   2 32136.1 524.285  21
  -1  -5   2 30959.9 720.534  13
   1  -5  -1 89022.6 1177.72  12
  -1  -5   1 88967.3 1267.71  13
  -1  -5   1 90874.0 805.745  21
   1  -5  -1 89792.9 1214.85  20
   1  -5  -1 89264.0 1274.16  13
   1  -5   0 45897.1 856.976  12
  -1  -5   0 47031.3 879.866  13
   1  -5   0 46243.8 872.195  13
  -1  -5   0 47756.4 503.155   3
  -1  -5  -1 22050.2 616.633  20
   1  -5   1 22399.5 579.481  13
  -1  -5  -1 20500.2 386.001  21
   1  -5   1 21546.0 606.936  12
   1  -5   1 22434.3 567.123   3
  -1  -5  -1 22165.4 586.557  13
  -1  -5  -2 5379.34 317.158  20
   1  -5   2 5656.80 290.825  13
  -1  -5  -2 5305.30 285.482  13
  -1  -5  -3 17771.1 608.135  20
   1  -5   3 16953.9 505.709  13
  -1  -5  -3 17455.5 527.121  13
  -1  -5  -4 4738.75 278.365  13
   1  -5   4 4493.44 263.319  13
  -1  -5  -4 3817.86 305.406  21
  -1  -5  -4 4472.54 329.649  20
  -1  -5  -5 2110.56 281.779  21
   1  -5   5 2028.69 181.062  13
  -1  -5  -5 1653.90 225.139  20
  -1  -5  -5 1888.81 183.692  13
  -1  -5  -6 13061.3 221.383  23
   1  -5   6 12854.4 248.048   9
   1  -5   6 12915.7 282.050  25
   1  -5   7 1131.73 102.994  25
   1  -5   7 1342.86 96.1473   9
  -1  -5  -7 1239.05 81.1377  23
  -1  -5  -7 1134.28 99.8670  16
   1  -5   7 1126.61 78.1210   6
  -1  -5  -8 7979.29 201.098  23
   1  -5   8 7613.20 196.714   6
   1  -5   8 8055.99 226.991   9
   1  -5   8 8374.03 259.767  25
  -1  -5  -8 8417.27 222.072  16
   1  -5   9 6407.65 222.851   9
   1  -5   9 6839.53 250.192  25
  -1  -4  10 1371.70 120.163  25
   1  -4 -10 1176.64 111.109  23
  -1  -4  10 1083.51 112.425   9
   1  -4  -9 6052.69 195.152  23
  -1  -4   9 6349.53 194.780   8
  -1  -4   9 5784.91 209.847  25
  -1  -4   9 6306.94 205.594   9
  -1  -4   8 3779.32 139.927   8
  -1  -4   8 3807.81 150.840   9
   1  -4  -8 3941.39 148.757  23
   1  -4  -7 47.5058 67.3075  13
  -1  -4   7 99.9480 49.8635   9
   1  -4  -7 75.4627 54.9613  23
   1  -4  -6 13084.2 610.959  21
   1  -4  -6 12747.2 222.929  23
  -1  -4   6 12311.8 567.727   2
   1  -4  -6 12665.9 374.467  12
  -1  -4   6 11984.5 475.900  13
  -1  -4   6 11651.2 549.836  21
   1  -4  -6 13113.7 603.423  20
   1  -4  -6 12999.3 511.223  13
   1  -4  -5 5134.24 228.574  12
   1  -4  -5 5370.90 314.427  13
  -1  -4   5 4339.09 311.514  21
  -1  -4   5 5306.54 350.360   2
   1  -4  -5 5030.64 348.265  20
  -1  -4   5 4782.61 289.382  13
   1  -4  -4 18048.8 547.850  13
   1  -4  -4 17102.5 575.427  20
  -1  -4   4 16524.3 515.015  13
  -1  -4   4 18071.0 586.686   2
   1  -4  -4 17273.3 409.006  12
   1  -4  -4 16944.7 535.519  21
  -1  -4   4 16432.0 520.206  21
   1  -4  -3 7367.59 333.947  13
   1  -4  -3 7429.56 266.161  12
  -1  -4   3 7255.78 324.108  13
   1  -4  -3 7390.26 346.883  20
  -1  -4   3 7258.86 345.278   2
  -1  -4   2 119395. 1177.58  21
   1  -4  -2 119658. 1252.78  12
  -1  -4   2 119279. 1419.03  13
   1  -4  -2 121163. 1419.06  20
   1  -4  -2 119927. 1425.27  13
  -1  -4   2 118481. 1412.33   2
  -1  -4   1 74581.5 974.654   2
   1  -4  -1 74175.9 993.259  20
   1  -4  -1 73088.0 1048.42  13
   1  -4  -1 73747.5 969.686  12
  -1  -4   1 72929.8 1038.14  13
   1  -4   0 45280.6 771.966  12
   1  -4   0 46023.2 778.961  13
  -1  -4   0 43845.2 410.492   3
  -1  -4   0 46173.5 781.773  13
  -1  -4  -1 24535.5 431.676  21
   1  -4   1 23878.4 589.584  12
  -1  -4  -1 24064.2 582.743  20
  -1  -4  -1 23982.4 548.537  13
   1  -4   1 24419.3 544.797  13
   1  -4   1 24049.0 555.682   3
  -1  -4  -2 3542.57 237.333  20
   1  -4   2 3654.27 207.543  13
  -1  -4  -2 4046.07 221.496  21
  -1  -4  -2 3441.44 207.250  13
  -1  -4  -3 1543.51 144.292  13
   1  -4   3 1607.57 138.620  13
  -1  -4  -3 1596.14 181.686  20
   1  -4   4 2703.77 182.896  13
  -1  -4  -4 2910.94 210.372   1
  -1  -4  -4 2865.72 254.874  20
  -1  -4  -4 2829.93 196.791  13
  -1  -4  -4 2559.69 257.380  21
  -1  -4  -5 4257.42 325.358  20
  -1  -4  -5 3927.74 274.634   1
  -1  -4  -5 3850.57 233.197  13
  -1  -4  -5 3676.35 329.709  21
   1  -4   5 3848.64 222.412  13
   1  -4   6 13234.2 275.260  25
  -1  -4  -6 13716.6 637.089  20
  -1  -4  -6 14170.1 576.500   1
  -1  -4  -6 13291.4 220.939  23
  -1  -4  -7 2615.48 280.633   1
   1  -4   7 2530.66 120.466   9
   1  -4   7 2733.07 139.429  25
  -1  -4  -7 3130.50 120.450  23
   1  -4   8 2373.29 153.409  25
   1  -4   8 2485.34 129.981   9
   1  -4   8 2616.55 111.565   6
  -1  -4  -8 2513.05 118.760  23
   1  -4   8 2451.87 127.207  26
  -1  -4  -9 6103.60 193.644  23
   1  -4   9 6173.46 211.546   9
   1  -4   9 6028.12 203.491  26
   1  -4  10 8376.10 250.088  26
   1  -4  10 8882.74 274.377   9
   1  -3 -11 2928.75 167.917  23
   1  -3 -11 2609.47 171.733  19
  -1  -3  11 2608.77 159.593   9
  -1  -3  10 1096.48 99.7332   8
  -1  -3  10 1074.02 107.454   9
  -1  -3  10 1068.32 102.900  26
  -1  -3  10 1134.20 108.083  25
   1  -3 -10 1162.33 117.068  23
  -1  -3   9 9398.62 255.313  25
  -1  -3   9 9046.89 220.083  26
   1  -3  -9 9028.00 237.559  23
  -1  -3   9 9083.32 232.651   8
  -1  -3   9 8944.67 237.328   9
  -1  -3   8 16041.9 299.750   9
  -1  -3   8 16284.7 314.838  25
  -1  -3   8 16454.9 291.344   8
   1  -3  -8 16234.6 294.754  23
   1  -3  -7 9818.60 582.955  21
  -1  -3   7 10771.8 540.047   2
   1  -3  -7 10702.9 547.409   1
   1  -3  -7 10388.1 458.942  13
   1  -3  -7 10254.5 215.161  23
  -1  -3   6 36768.7 981.118  21
   1  -3  -6 39520.3 711.427  12
   1  -3  -6 40315.5 1056.27  21
   1  -3  -6 39370.7 1015.06  20
  -1  -3   6 37669.9 819.532  13
  -1  -3   6 40080.9 970.747   2
   1  -3  -6 39278.2 420.610  23
  -1  -3   5 321.848 112.462  21
   1  -3  -5 397.038 112.228  20
   1  -3  -5 338.383 69.9772  12
  -1  -3   5 426.821 114.664   2
   1  -3  -5 451.337 134.941  21
  -1  -3   5 376.764 92.4205  13
  -1  -3   4 85456.0 1264.21   1
   1  -3  -4 87192.1 995.141  12
  -1  -3   4 85930.2 1162.83  13
  -1  -3   4 86988.9 1283.68   2
  -1  -3   4 84942.9 1253.26  21
   1  -3  -4 88765.8 1307.05  21
   1  -3  -4 86685.9 1300.04  20
   1  -3  -3 74107.0 864.247  12
   1  -3  -3 75112.5 1024.69  21
  -1  -3   3 74530.7 1084.57   2
   1  -3  -3 73825.6 1084.89  20
  -1  -3   3 71852.8 1006.11  13
  -1  -3   3 73566.0 1016.89  21
   1  -3  -2 49142.9 667.050  12
  -1  -3   2 48763.8 777.984   2
   1  -3  -2 48362.7 770.737  13
  -1  -3   2 49069.1 686.770  21
   1  -3  -2 49196.1 776.587  20
  -1  -3   2 48438.3 766.375  13
   1  -3  -1 1397.21 116.200  20
  -1  -3   1 1412.18 111.948   2
  -1  -3   1 1331.47 122.608  13
   1  -3  -1 1208.90 107.536  12
   1  -3  -1 1310.63 123.364  13
   1  -3   0 253684. 2109.05  12
   1  -3   0 257437. 2086.20  13
  -1  -3   0 256330. 2086.90  13
   1  -3   1 110541. 1262.67  12
  -1  -3  -1 110810. 1163.13  13
   1  -3   1 111997. 1240.53   3
  -1  -3  -1 109690. 1240.54  20
  -1  -3  -2 48604.8 829.907  20
  -1  -3  -2 48580.9 707.912  13
  -1  -3  -2 49349.6 651.325   1
   1  -3   2 49036.7 696.205  13
  -1  -3  -2 50808.3 780.267  21
  -1  -3  -3 18000.9 534.732  20
  -1  -3  -3 18168.1 453.839   1
  -1  -3  -3 18133.4 419.421  13
   1  -3   3 18158.2 405.930  13
  -1  -3  -4 81517.8 1304.62  20
  -1  -3  -4 81620.7 999.467  13
  -1  -3  -4 79749.8 1324.23  21
   1  -3   4 81801.6 962.548  13
  -1  -3  -4 82948.7 1187.12   1
  -1  -3  -5 899.032 220.766  21
  -1  -3  -5 1005.70 110.090  13
  -1  -3  -5 1111.11 156.134   1
   1  -3   5 1063.84 104.883  13
  -1  -3  -5 1124.38 171.201  20
  -1  -3  -6 569.629 128.020   1
  -1  -3  -6 769.245 161.389  20
   1  -3   7 3889.53 144.277   9
  -1  -3  -7 3433.22 322.401   1
   1  -3   8 9355.99 234.212  26
  -1  -3  -8 9444.53 218.907  23
   1  -3   8 9969.41 245.080   9
   1  -3   9 3581.28 162.905  26
  -1  -3  -9 3627.76 153.884  23
   1  -3   9 3671.68 167.806   9
   1  -3  10 1553.01 129.731   9
  -1  -3 -10 1676.46 123.665  23
   1  -3  10 1642.43 134.201  26
   1  -2 -11 616.600 105.038  23
  -1  -2  11 669.543 102.686   9
  -1  -2  11 652.071 98.1215   8
  -1  -2  11 526.522 95.9450  26
  -1  -2  10 2258.58 130.786   8
  -1  -2  10 2260.21 134.943  26
  -1  -2  10 2185.26 136.880   9
  -1  -2   9 9251.44 243.952  25
  -1  -2   9 8684.94 220.048  26
  -1  -2   9 8786.83 226.452   8
  -1  -2   9 8601.86 228.930   9
  -1  -2   8 40583.0 495.215   9
  -1  -2   8 39726.2 484.057   8
   1  -2  -7 10079.2 431.606  13
   1  -2  -7 9356.83 596.718  21
   1  -2  -7 10819.4 546.477   1
   1  -2  -7 10798.2 445.208   2
   1  -2  -7 11363.5 576.551  20
  -1  -2   7 11541.8 531.110   2
   1  -2  -6 13347.5 630.990  21
  -1  -2   6 15142.6 567.596   2
  -1  -2   6 15156.0 605.715   1
   1  -2  -6 14813.7 585.289   1
   1  -2  -6 14549.3 595.290  20
   1  -2  -6 14488.7 477.523   2
  -1  -2   6 13707.2 594.884  21
  -1  -2   5 1115.02 168.535  21
   1  -2  -5 951.207 147.466   1
   1  -2  -5 982.035 119.571   2
  -1  -2   5 1086.02 150.755   1
   1  -2  -5 1114.64 188.755  21
  -1  -2   5 1124.64 155.453   2
   1  -2  -5 1118.75 159.086  20
  -1  -2   4 61341.2 1018.42   1
  -1  -2   4 65027.7 1066.52  21
   1  -2  -4 58983.1 1055.90  21
   1  -2  -4 61799.7 1036.46  20
  -1  -2   4 62378.9 1007.43   2
  -1  -2   4 62466.1 909.104  13
   1  -2  -4 60618.9 813.820  12
   1  -2  -4 61520.6 1004.31   1
   1  -2  -3 16777.4 460.925  20
  -1  -2   3 17072.3 457.264   2
  -1  -2   3 16799.0 420.610  13
  -1  -2   3 17150.2 448.365   1
   1  -2  -3 16863.9 367.286  12
  -1  -2   2 90920.7 963.001   1
  -1  -2   2 90539.4 1001.29  13
   1  -2  -2 90438.8 1020.47  20
  -1  -2   2 91014.0 1023.53   2
   1  -2  -2 90866.6 914.052  12
   1  -2  -1 10715.6 265.437  12
   1  -2  -1 11017.9 264.945  20
  -1  -2   1 10848.8 270.917   2
  -1  -2   1 10904.4 286.375  13
  -1  -2   1 10697.9 209.184   1
   1  -2   0 27790.9 444.584  13
   1  -2   0 27324.1 367.024  20
  -1  -2   0 27764.3 355.406   2
  -1  -2   0 27870.0 444.300  13
   1  -2   0 28919.2 471.841   3
   1  -2   0 27962.5 468.048  12
  -1  -2  -1 524083. 3384.08  13
   1  -2   1 521578. 3578.12  12
   1  -2   1 522699. 3365.06  13
   1  -2   1 525526. 3599.31   3
  -1  -2  -1 522389. 3200.78   1
  -1  -2  -1 524989. 3543.45  20
  -1  -2  -2 11580.4 268.560  13
  -1  -2  -2 11552.8 351.458  20
   1  -2   2 11704.6 260.265  13
  -1  -2  -2 12295.4 370.016  21
  -1  -2  -2 11518.1 295.344   1
  -1  -2  -3 58259.7 1008.26  21
  -1  -2  -3 61792.9 884.103   1
  -1  -2  -3 62237.0 961.060  20
  -1  -2  -3 58492.0 559.667   2
  -1  -2  -3 62539.4 709.166  13
   1  -2   3 62798.1 681.432  13
  -1  -2  -4 26697.5 678.642  20
   1  -2   4 26632.5 433.103  13
  -1  -2  -4 27121.7 455.322  13
  -1  -2  -4 25936.8 636.211   1
  -1  -2  -4 23586.5 702.096  21
  -1  -2  -4 27207.1 418.631   2
  -1  -2  -4 24310.8 336.785  12
  -1  -2  -5 11220.4 469.775   1
  -1  -2  -5 11612.4 303.473  13
  -1  -2  -5 10919.5 259.023  12
  -1  -2  -5 11455.0 314.679   2
  -1  -2  -5 11287.8 482.315  20
  -1  -2  -5 9944.48 509.434  21
  -1  -2  -6 1421.16 201.637  20
  -1  -2  -6 1232.62 184.415   1
  -1  -2  -6 1802.71 320.775  21
  -1  -2  -6 1291.77 123.812   2
  -1  -2  -7 7525.66 478.842  20
   1  -2   7 7794.91 198.612   9
   1  -2   8 3460.70 150.990  26
   1  -2   8 3625.26 148.913   9
   1  -2   9 6070.11 208.852  26
   1  -2   9 6140.89 206.167   9
   1  -2  10 1973.72 145.531  26
   1  -2  10 2011.59 140.858   9
  -1  -1  11 1697.30 139.497  26
  -1  -1  11 1893.97 135.494   9
  -1  -1  11 1854.77 134.302   8
  -1  -1  10 1992.59 125.423   8
  -1  -1  10 1935.96 130.595  26
  -1  -1  10 2217.57 132.990   9
  -1  -1  10 2003.52 122.203  10
  -1  -1   9 11779.2 255.756  10
  -1  -1   9 11507.7 260.336   8
  -1  -1   9 11752.6 260.383  26
  -1  -1   9 11757.7 262.580   9
  -1  -1   8 14426.3 263.983  10
  -1  -1   8 14540.9 270.571   8
  -1  -1   8 14459.7 613.245   2
  -1  -1   8 14695.4 275.183   9
   1  -1  -8 14591.8 574.414   2
   1  -1  -7 23397.7 636.195  13
  -1  -1   7 23271.8 722.959   2
   1  -1  -7 21594.1 847.462  21
   1  -1  -7 23602.1 682.407   2
   1  -1  -7 23364.6 825.738  20
   1  -1  -7 24104.1 815.812   1
   1  -1  -6 30801.2 844.087   1
   1  -1  -6 29781.0 923.106  21
   1  -1  -6 30632.4 716.785   2
  -1  -1   6 30796.2 852.217   1
  -1  -1   6 27375.9 844.854  21
   1  -1  -6 30694.2 855.675  20
   1  -1  -6 28963.6 672.311  13
  -1  -1   6 29947.0 766.638   2
   1  -1  -5 53014.8 1098.39  21
  -1  -1   5 52422.8 1069.75  21
   1  -1  -5 53612.6 1048.78  20
  -1  -1   5 55275.8 972.301   2
   1  -1  -5 53913.9 894.580   2
   1  -1  -5 55958.7 1047.27   1
  -1  -1   5 55778.9 1053.04   1
   1  -1  -4 56983.7 844.566   2
  -1  -1   4 57541.7 962.736   1
   1  -1  -4 56643.9 968.146  20
  -1  -1   4 57041.5 907.139   2
   1  -1  -4 58724.7 963.868   1
  -1  -1   3 103509. 1181.15   1
   1  -1  -3 104562. 1094.53   2
  -1  -1   3 102976. 1155.96   2
  -1  -1   3 100880. 1092.21  13
   1  -1  -3 103636. 1192.67   1
  -1  -1   3 104378. 1246.88  21
   1  -1  -3 101949. 1198.32  20
   1  -1  -2 454567. 3014.37   2
   1  -1  -2 441970. 3083.51  20
  -1  -1   2 444885. 3033.94   1
  -1  -1   2 456147. 3081.92   2
  -1  -1   2 465441. 3141.23  21
  -1  -1   2 452750. 3043.48  13
   1  -1  -2 453236. 2975.30  12
  -1  -1   1 20225.4 281.577   1
   1  -1  -1 20953.4 337.997  12
  -1  -1   1 20292.2 332.969   2
  -1  -1   1 20142.8 342.440  13
   1  -1  -1 20170.9 312.111  20
   1  -1   0 84104.3 785.439  12
  -1  -1   0 82424.0 641.922   2
  -1  -1   0 84252.9 728.881  13
  -1  -1  -1 774084. 4529.18  13
   1  -1   1 773661. 4875.23   3
   1  -1   1 771007. 4510.78  13
  -1  -1  -1 763884. 4619.82   1
  -1  -1  -1 763376. 4731.12  20
   1  -1   1 772308. 4781.66  12
  -1  -1  -2 103692. 1079.02  20
  -1  -1  -2 103490. 1053.64   1
  -1  -1  -2 101386. 772.861  12
  -1  -1  -2 102856. 788.738   2
  -1  -1  -2 102849. 787.724  13
  -1  -1  -3 5735.08 147.815  13
  -1  -1  -3 5649.72 258.913  20
  -1  -1  -3 6153.72 270.910   1
  -1  -1  -3 5820.21 169.647  12
  -1  -1  -3 6017.68 183.154   2
  -1  -1  -4 47787.2 532.266  13
  -1  -1  -4 48480.7 632.831  12
  -1  -1  -4 48878.4 889.147  20
  -1  -1  -4 48137.7 1009.86  21
  -1  -1  -4 47552.5 664.402   2
  -1  -1  -4 47961.5 894.242   1
  -1  -1  -5 12882.3 502.212  20
  -1  -1  -5 12497.1 346.186  12
  -1  -1  -5 13415.2 518.490   1
  -1  -1  -5 13120.6 378.375   2
  -1  -1  -5 13928.6 609.695  21
  -1  -1  -5 12822.7 270.146  13
  -1  -1  -5 12078.4 260.638  13
  -1  -1  -6 1406.47 271.958  21
  -1  -1  -6 1263.08 133.560   2
  -1  -1  -6 1127.30 121.041  12
  -1  -1  -6 1254.60 183.802   1
  -1  -1  -6 1431.66 196.254  20
   1  -1   7 1421.56 90.2689  10
   1  -1   7 1346.96 89.0669   9
  -1  -1  -7 1342.49 210.760  20
   1  -1   7 1336.47 86.0309   8
   1  -1   8 8201.77 214.556   8
   1  -1   8 8094.86 215.522   9
   1  -1   8 8285.28 226.546  26
   1  -1   9 3970.41 175.965  26
   1  -1   9 4165.92 169.643   9
   1  -1  10 5807.57 222.537  26
   1  -1  10 5810.32 214.967   9
  -1   0  11 688.251 97.4384   8
  -1   0  11 844.400 97.2819   9
  -1   0  11 834.155 119.758  26
  -1   0  11 666.236 96.5864  10
  -1   0  10 5454.49 201.386  26
  -1   0  10 5665.36 191.894   9
  -1   0  10 5599.44 196.230   8
  -1   0  10 5546.48 192.885  10
  -1   0   9 743.288 78.1081  10
  -1   0   9 839.659 83.8352   9
  -1   0   9 776.999 94.8519  26
  -1   0   9 820.051 82.5533   8
  -1   0   8 6399.31 175.055   9
  -1   0   8 6117.84 170.731  10
  -1   0   8 6260.00 179.818  26
  -1   0   8 6257.30 174.360   8
  -1   0   8 6453.96 395.347   2
   1   0  -7 1054.73 158.222   2
   1   0  -7 1191.62 150.693  13
   1   0  -7 1034.01 183.367   1
   1   0  -7 936.016 260.467  21
   1   0  -7 939.364 182.572  20
  -1   0   7 1325.72 182.755   2
   1   0  -6 2563.80 258.525  20
   1   0  -6 2912.31 261.559   1
   1   0  -6 2735.30 201.431  13
  -1   0   6 2454.26 274.847  21
  -1   0   6 2716.10 252.655   1
   1   0  -6 2711.59 222.149   2
  -1   0   6 2809.56 225.041   2
  -1   0   5 17479.8 606.284  21
   1   0  -5 19464.9 503.604  13
   1   0  -5 20461.3 620.063  20
   1   0  -5 20023.4 544.760   2
   1   0  -5 19653.3 605.183   1
  -1   0   5 20005.5 605.800   1
  -1   0   5 19523.7 534.831   2
   1   0  -5 18937.6 642.009  21
  -1   0   4 9327.50 416.686  21
   1   0  -4 9133.48 371.479  20
  -1   0   4 8280.25 310.516   2
   1   0  -4 8542.21 354.060   1
   1   0  -4 8223.25 299.370  13
   1   0  -4 8094.40 311.348   2
  -1   0   4 8650.12 352.133   1
   1   0  -3 47051.9 677.244  13
   1   0  -3 46516.1 790.220  21
  -1   0   3 47048.0 692.236   2
   1   0  -3 46433.5 693.979   2
  -1   0   3 48915.9 799.644  21
   1   0  -3 47413.8 748.366   1
  -1   0   3 45927.4 732.706   1
   1   0  -3 45381.1 760.478  20
  -1   0   2 8115.16 241.308   1
  -1   0   2 7779.47 257.630  21
  -1   0   2 8316.17 237.784   2
   1   0  -2 7796.82 231.835   2
   1   0  -2 7819.27 238.150   1
  -1   0  -1 46101.8 470.353  20
  -1   0  -1 46424.7 592.766   3
  -1   0  -1 46961.9 490.795  12
   1   0   1 46421.5 471.189  20
   1   0   1 46342.5 488.631  12
  -1   0  -2 301955. 2205.60  20
   1   0   2 304790. 2209.28  20
  -1   0  -2 304487. 2117.31   2
  -1   0  -2 307988. 2345.75   1
  -1   0  -2 308960. 2118.20  12
  -1   0  -3 63922.9 883.523  20
  -1   0  -3 63810.2 952.132   1
  -1   0  -3 64403.5 778.216   2
  -1   0  -3 63954.3 770.497  12
  -1   0  -4 19340.3 570.359   1
  -1   0  -4 20041.5 450.963  12
  -1   0  -4 21446.2 663.379  21
  -1   0  -4 19835.3 456.694   2
  -1   0  -4 19511.6 532.309  20
  -1   0  -5 20967.6 519.795  12
  -1   0  -5 20145.1 310.556  13
  -1   0  -5 21267.0 634.128  20
  -1   0  -5 21654.5 537.169   2
  -1   0  -5 21173.0 728.505  21
  -1   0  -5 20488.8 654.129   1
  -1   0  -5 19452.9 298.535  13
  -1   0  -6 33894.9 898.110  20
  -1   0  -6 32207.2 715.089  12
  -1   0  -6 31734.7 1010.11  21
  -1   0  -6 33467.5 931.515   1
  -1   0  -6 33037.4 738.316   2
   1   0   7 16368.3 282.776  10
  -1   0  -7 15786.2 668.976  20
   1   0   7 16046.7 292.631  26
   1   0   7 16438.5 280.631   8
   1   0   7 15958.2 279.040   7
   1   0   7 16348.7 282.171   9
   1   0   8 1545.95 99.6429   8
   1   0   8 1501.53 121.651  26
   1   0   8 1503.95 99.2713   9
   1   0   8 1499.26 99.5557  10
   1   0   9 1605.54 128.333  26
   1   0   9 1646.90 113.307  10
   1   0   9 1573.84 111.976   9
   1   0   9 1530.91 111.218   8
   1   0  10 4356.86 184.983   9
   1   0  10 4457.17 200.484  26
  -1   1  11 1803.59 133.928  10
  -1   1  11 1947.84 130.316   9
  -1   1  11 2007.62 155.991  26
  -1   1  11 1829.60 132.549   8
  -1   1  10 2140.69 128.881  10
  -1   1  10 2245.54 148.416  26
  -1   1  10 2080.56 128.171   8
  -1   1  10 2150.40 125.768   9
  -1   1   9 11665.8 259.582  10
  -1   1   9 11431.8 247.474   7
  -1   1   9 11295.8 257.396   8
  -1   1   9 12199.9 273.814  26
  -1   1   9 12041.1 256.013   9
  -1   1   8 14495.8 258.715   7
  -1   1   8 14501.2 267.013  10
  -1   1   8 14272.7 267.843   8
  -1   1   8 15090.9 266.222   9
  -1   1   8 14780.8 280.111  26
  -1   1   8 15057.6 580.933   2
   1   1  -7 24244.5 835.521  20
   1   1  -7 24422.7 641.658  13
  -1   1   7 23666.3 672.733   2
   1   1  -7 21606.8 867.832  21
   1   1  -7 23409.4 730.371   2
   1   1  -7 23817.6 826.560   1
   1   1  -6 30135.8 844.290   1
   1   1  -6 29581.0 671.419  13
  -1   1   6 27030.0 843.511  21
  -1   1   6 30649.1 710.364   2
   1   1  -6 29930.4 769.332   2
   1   1  -6 29491.8 857.815  20
  -1   1   6 30530.9 833.809   1
   1   1  -5 53991.5 965.138   2
  -1   1   5 52240.7 1064.51  21
  -1   1   5 56288.2 899.173   2
   1   1  -5 56035.1 1053.15   1
  -1   1   5 55760.5 1037.40   1
   1   1  -5 54728.0 874.692  13
   1   1  -4 57878.0 915.915   2
  -1   1   4 55993.2 991.616  21
   1   1  -4 57988.7 968.227   1
   1   1  -4 56354.6 833.835  13
  -1   1   4 58629.3 957.921   1
  -1   1   4 58190.0 845.110   2
  -1   1   3 103982. 1089.13   2
  -1   1   3 104596. 1189.07   1
   1   1  -3 105587. 1197.68   1
   1   1  -3 101877. 1101.87  13
   1   1  -3 102547. 1161.32   2
  -1   1   3 104390. 1208.74  20
  -1   1   3 102166. 1237.34  21
  -1   1   2 450850. 3110.07  20
   1   1  -2 443384. 3094.29   2
   1   1  -2 444023. 3060.68  13
   1   1  -2 444888. 3055.95   1
  -1   1   2 457974. 3115.63   1
  -1   1   2 455424. 3035.61   2
  -1   1   1 20411.1 338.094  12
   1   1  -1 20887.8 286.752   1
   1   1  -1 20150.8 345.656  13
  -1   1   1 19864.3 311.053  20
   1   1  -1 20433.8 333.692   2
   1   1   0 83879.0 732.497  13
  -1   1   0 84406.8 813.368   3
   1   1   0 82408.8 646.026   2
  -1   1   0 83391.3 791.216  12
   1   1   0 83761.5 739.763  20
   1   1   1 779151. 4754.56  20
  -1   1  -1 778669. 4927.16   3
   1   1   1 769957. 4549.97  13
  -1   1  -1 774430. 4807.82  12
  -1   1  -2 101777. 1061.92  12
  -1   1  -2 106950. 1215.03  21
  -1   1  -2 102176. 766.185  13
  -1   1  -2 102808. 997.155  20
  -1   1  -2 102629. 1056.41   2
   1   1   2 103874. 1071.74  20
  -1   1  -2 104177. 1198.63   3
   1   1   2 106290. 1066.13   1
  -1   1  -2 100673. 1150.51   1
  -1   1  -3 5727.39 138.789  13
  -1   1  -3 5979.98 248.054   2
  -1   1  -3 5655.07 281.952   1
  -1   1  -3 5864.66 245.220  12
  -1   1  -3 5839.11 308.774  21
  -1   1  -3 6144.12 252.368  20
   1   1   3 5804.75 264.493  20
   1   1   3 6086.50 266.223   1
  -1   1  -4 47679.2 1014.80  21
   1   1   4 47610.0 879.816  20
  -1   1  -4 47512.1 941.735   1
   1   1   4 49388.0 906.751   1
  -1   1  -4 48693.6 814.807   2
  -1   1  -4 46914.8 507.449  13
  -1   1  -4 47336.9 810.604  12
  -1   1  -4 48389.3 863.051  20
  -1   1  -5 12914.1 443.034  12
   1   1   5 13240.7 515.533   1
  -1   1  -5 13346.5 593.583  21
  -1   1  -5 13162.1 450.103   2
  -1   1  -5 12288.7 250.461  13
  -1   1  -5 12490.7 524.038   1
  -1   1  -5 12975.2 498.799  20
  -1   1  -6 1308.71 250.717  21
  -1   1  -6 1100.92 180.116   1
  -1   1  -6 920.534 159.283  20
  -1   1  -6 1099.64 150.304  12
  -1   1  -6 1199.82 162.297   2
  -1   1  -7 1538.52 220.137  20
  -1   1  -7 1341.80 194.834   2
   1   1   7 1371.98 88.8624   7
   1   1   7 1411.22 103.604  26
   1   1   7 1363.85 88.4447  10
   1   1   7 1367.37 83.7259   8
   1   1   8 8245.38 210.737   9
   1   1   8 8271.95 216.522  10
   1   1   8 8213.45 213.036   8
   1   1   8 8107.56 213.607   7
   1   1   8 8421.15 234.633  26
   1   1   9 4048.43 163.531   9
   1   1   9 4151.19 167.332  10
   1   1   9 4250.37 166.269   8
   1   1   9 3893.91 180.982  26
   1   1   9 4069.38 166.666   7
   1   1  10 5652.51 210.408   8
   1   1  10 5697.37 206.945   9
   1   1  10 5906.82 214.701  10
   1   1  10 5805.18 228.293  26
  -1   2  11 761.771 88.0993   9
  -1   2  11 539.334 91.8100   8
  -1   2  11 649.186 124.066  26
  -1   2  11 587.863 97.3503  10
  -1   2  10 2320.29 131.777   8
  -1   2  10 2209.46 133.200  10
  -1   2  10 2260.66 125.123   9
  -1   2  10 2093.27 122.455   7
  -1   2  10 2089.31 148.781  26
  -1   2   9 9207.84 219.892   9
  -1   2   9 8631.31 216.934   7
  -1   2   9 8941.35 227.978   8
  -1   2   9 8651.63 241.593  26
  -1   2   9 8778.59 225.742  10
  -1   2   8 39719.8 466.399   7
  -1   2   8 40103.9 484.252   8
  -1   2   8 41162.5 506.127  26
  -1   2   8 40992.7 485.554  10
   1   2  -7 9682.64 586.534  21
   1   2  -7 10630.4 557.804   1
  -1   2   7 10949.3 440.968   2
  -1   2   7 11291.6 221.414  24
   1   2  -7 10261.5 424.822  13
   1   2  -6 15114.1 600.465   1
   1   2  -6 14619.4 556.251   2
   1   2  -6 16270.4 670.705  21
   1   2  -6 14252.5 593.270  20
  -1   2   6 14855.2 577.402   1
   1   2  -6 14589.1 481.053  13
  -1   2   6 14913.6 475.150   2
  -1   2   6 13635.5 598.123  21
   1   2  -5 936.984 145.110   1
  -1   2   5 1306.08 178.342  21
  -1   2   5 989.266 151.258  20
  -1   2   5 855.757 110.433   2
   1   2  -5 1181.01 168.841  21
   1   2  -5 962.197 143.963   2
   1   2  -5 901.320 119.904  13
  -1   2   5 1017.34 144.210   1
  -1   2   4 60353.3 1025.37  21
   1   2  -4 59214.8 1042.68  21
  -1   2   4 62540.5 1035.23  20
   1   2  -4 60664.7 1009.19   1
   1   2  -4 61716.9 907.315  13
  -1   2   4 61523.6 992.648   1
   1   2  -4 61516.2 996.239   2
  -1   2   4 60140.6 851.772   2
   1   2  -3 17362.4 503.752  21
   1   2  -3 16764.9 450.071   2
  -1   2   3 17194.8 393.199   2
  -1   2   3 16210.5 457.376  20
  -1   2   3 16910.0 441.361   1
   1   2  -3 16815.8 442.292   1
   1   2  -3 16206.8 413.708  13
  -1   2   2 89794.4 918.347  12
   1   2  -2 92106.3 960.266   1
   1   2  -2 90440.0 1024.25   2
   1   2  -2 90823.4 1008.46  13
  -1   2   2 90685.0 1023.99  20
   1   2  -1 10837.3 210.301   1
  -1   2   1 10756.2 262.137  20
   1   2  -1 10565.3 283.970  13
  -1   2   1 10605.4 267.533  12
   1   2  -1 10561.8 265.744   2
  -1   2   0 27454.2 467.391  12
  -1   2   0 27319.6 368.225  20
  -1   2   0 27515.4 444.398  13
   1   2   0 27787.8 444.059  13
   1   2   0 27104.6 453.287  20
   1   2   0 27135.5 349.917   2
   1   2   1 526433. 3548.14  20
  -1   2  -1 529695. 3600.96  12
   1   2   1 520460. 3391.23  13
  -1   2  -1 520645. 3381.68  13
   1   2   1 523406. 3206.47   1
  -1   2  -1 525609. 3614.27   3
   1   2   2 11686.3 293.865   1
  -1   2  -2 11914.6 376.208  21
   1   2   2 11540.4 350.525  20
  -1   2  -2 12120.6 395.625   3
  -1   2  -2 11727.7 352.601   2
  -1   2  -2 11352.1 351.676  12
   1   2   2 11434.8 269.366  13
  -1   2  -2 11525.5 260.903  13
  -1   2  -3 62941.5 689.845  13
  -1   2  -3 60279.2 999.808   1
  -1   2  -3 62432.7 1046.00   3
   1   2   3 61766.3 560.315   2
  -1   2  -3 62372.2 937.343   2
   1   2   3 62865.0 960.211  20
  -1   2  -3 63024.2 952.962  12
   1   2   4 26904.4 675.471  20
  -1   2  -4 24205.2 716.034  21
  -1   2  -4 27393.4 637.529  20
  -1   2  -4 27005.4 649.511  12
  -1   2  -4 26527.7 713.746   1
  -1   2  -4 26772.0 434.347  13
  -1   2  -4 27533.9 652.926   2
  -1   2  -4 26645.9 737.186   3
   1   2   4 26733.5 646.454   1
   1   2   4 26877.5 414.607   2
  -1   2  -5 11574.6 518.212   1
   1   2   5 11488.5 473.003   1
  -1   2  -5 10538.8 520.998  21
  -1   2  -5 11625.4 287.425  13
  -1   2  -5 11591.6 456.428   2
  -1   2  -5 10623.1 446.736  12
   1   2   5 11337.3 491.066  20
  -1   2  -6 1099.69 181.533  20
   1   2   6 1068.23 170.513   1
  -1   2  -6 1490.21 246.950  21
  -1   2  -6 1395.23 206.316   1
  -1   2  -6 1182.03 173.715   2
  -1   2  -6 1287.12 175.635  12
   1   2   6 1086.99 184.437  20
  -1   2  -7 7227.07 461.020  20
   1   2   7 8217.19 193.803   8
   1   2   7 7956.48 198.221   7
   1   2   7 8078.63 211.939  26
  -1   2  -7 7529.96 433.354  12
   1   2   7 7740.06 194.507  10
   1   2   8 3498.55 144.540  10
   1   2   8 3568.24 137.954   9
   1   2   8 3526.85 146.197   7
   1   2   8 3690.53 168.115  26
   1   2   8 3483.20 141.347   8
   1   2   9 6435.57 198.764   9
   1   2   9 6150.88 205.094   7
   1   2   9 6315.60 202.669   8
   1   2   9 6217.00 206.078  10
   1   2   9 6225.64 225.286  26
   1   2  10 2084.60 140.245  10
   1   2  10 2008.15 129.725   9
   1   2  10 2109.30 146.120   7
   1   2  10 1971.80 154.214  26
   1   2  10 1883.26 132.529   8
  -1   3  11 2679.13 138.975   9
  -1   3  11 2717.02 157.092   8
  -1   3  11 2637.05 156.324  10
  -1   3  11 2875.53 188.770  26
  -1   3  11 2804.62 150.097   7
  -1   3  10 968.851 97.9546   8
  -1   3  10 1035.36 104.748  10
  -1   3  10 1002.34 93.0365   7
  -1   3  10 1091.07 127.581  26
  -1   3  10 1135.86 91.9158   9
  -1   3   9 9053.58 253.417  26
  -1   3   9 9290.75 234.321   8
  -1   3   9 9609.23 219.210   9
  -1   3   9 9146.80 225.867   7
  -1   3   9 9124.07 233.515  10
  -1   3   8 16249.8 294.924  10
  -1   3   8 16682.1 293.717   8
  -1   3   8 17085.6 318.624  26
  -1   3   8 16191.3 282.787   7
  -1   3   7 10927.6 226.479  24
   1   3  -7 10103.4 545.588  20
  -1   3   7 10402.0 416.576   2
   1   3  -7 10437.5 448.227  13
   1   3  -6 39480.8 967.186   2
   1   3  -6 39328.4 835.156  13
  -1   3   6 36642.1 984.736  21
  -1   3   6 41078.1 1027.51  20
  -1   3   6 40331.8 972.080   1
   1   3  -6 39353.8 1006.30   1
  -1   3   6 39926.7 440.040  24
  -1   3   6 39960.6 778.183   2
  -1   3   5 459.247 83.9304   2
  -1   3   5 411.740 119.565  21
   1   3  -5 188.288 131.958  21
  -1   3   5 316.065 110.801  20
   1   3  -5 340.090 103.599   1
   1   3  -5 329.460 101.793   2
   1   3  -5 377.399 94.2406  13
  -1   3   5 349.477 99.2918   1
  -1   3   4 83601.5 1291.00  20
   1   3  -4 85656.4 1268.15   2
  -1   3   4 86667.6 1063.27   2
  -1   3   4 81861.1 1224.32  21
   1   3  -4 85245.3 1254.15   1
  -1   3   4 86734.7 1225.76   1
   1   3  -4 85996.4 1173.78  13
  -1   3   3 73680.8 1023.34   1
   1   3  -3 73884.6 1026.66   1
  -1   3   3 73767.3 1088.08  20
  -1   3   3 75855.0 929.454   2
  -1   3   3 75678.4 1030.19  21
   1   3  -3 74326.2 1027.65  13
   1   3  -3 73137.4 1072.62   2
  -1   3   2 49690.5 681.498  12
  -1   3   2 49389.9 778.127  20
   1   3  -2 48320.2 773.023   2
  -1   3   2 49373.0 691.280  21
   1   3  -2 49616.9 697.510   1
   1   3  -2 48712.9 770.692  13
  -1   3   1 1436.35 115.227  20
   1   3  -1 1250.74 82.7938   1
   1   3  -1 1427.83 79.2979   3
   1   3  -1 1145.63 113.341  13
  -1   3   1 1201.32 107.966  12
   1   3  -1 1315.04 110.491   2
  -1   3   0 250908. 1933.01  20
  -1   3   0 257039. 2099.59  12
   1   3   0 251544. 1853.16   2
  -1   3   0 256737. 2073.80  13
   1   3   0 258232. 2073.98  13
   1   3   0 257829. 2095.77  20
  -1   3  -1 109899. 1261.08  12
   1   3   1 110761. 891.760   1
  -1   3  -1 111250. 1155.11  13
   1   3   1 111073. 1240.92  20
  -1   3  -1 112980. 1241.23   3
   1   3   1 111110. 864.852   2
   1   3   1 113285. 903.662  12
  -1   3  -2 49850.2 704.943  13
  -1   3  -2 48570.8 854.144   3
  -1   3  -2 49534.9 848.074  12
  -1   3  -2 49392.9 832.985   2
   1   3   2 49791.0 643.089   1
   1   3   2 49664.7 832.311  20
  -1   3  -2 48986.4 791.635  21
   1   3   2 48177.9 711.793  13
  -1   3  -3 18447.3 568.605   3
  -1   3  -3 18620.4 554.932  21
  -1   3  -3 18378.1 411.545  13
  -1   3  -3 18005.1 529.069   2
   1   3   3 18806.3 455.103   1
  -1   3  -3 18182.0 554.733   1
   1   3   3 18475.7 535.709  20
  -1   3  -3 18745.5 547.520  12
  -1   3  -4 82011.9 1281.60  12
   1   3   4 82720.8 1173.78   1
  -1   3  -4 78661.3 1335.77  21
  -1   3  -4 81435.2 967.435  13
  -1   3  -4 84141.8 1391.95   3
  -1   3  -4 78718.4 1332.63   1
  -1   3  -4 81080.9 1263.42   2
   1   3   4 81550.1 1289.31  20
   1   3   4 78389.9 698.880   2
  -1   3  -5 1383.72 197.723   1
  -1   3  -5 979.922 161.238  12
  -1   3  -5 1031.18 157.364  20
   1   3   5 1159.49 158.699   1
  -1   3  -5 1021.39 198.289  21
  -1   3  -5 897.878 96.9767  13
  -1   3  -5 1188.39 170.429   2
   1   3   5 914.341 160.299  20
  -1   3  -6 628.992 191.569  21
  -1   3  -6 761.516 165.261   2
  -1   3  -6 727.136 165.576   1
   1   3   6 883.068 153.027   1
  -1   3  -6 734.577 145.566  20
  -1   3  -6 803.329 147.876  12
   1   3   7 3784.29 157.348  26
   1   3   7 3967.36 135.871   8
  -1   3  -7 3502.37 317.628  12
   1   3   7 4024.17 143.978  10
  -1   3  -7 3935.22 340.403  20
   1   3   7 3726.23 141.364   7
   1   3   8 9501.73 236.069   7
   1   3   8 9869.23 233.453   8
   1   3   8 10042.2 225.670   9
   1   3   8 9736.22 258.860  26
   1   3   8 10073.4 243.556  10
   1   3   9 3679.67 162.842  10
   1   3   9 3702.19 163.695   7
   1   3   9 3707.81 159.673   8
   1   3   9 3518.66 147.670   9
   1   3   9 3586.41 182.096  26
   1   3  10 1727.39 124.793   8
   1   3  10 1625.95 129.854   7
   1   3  10 1512.29 112.192   9
   1   3  10 1457.80 152.011  26
   1   3  10 1635.75 134.293  10
  -1   4  10 1224.44 140.079  26
  -1   4  10 1159.24 111.005  10
  -1   4  10 1036.17 99.0640   7
  -1   4  10 1182.17 105.985   8
  -1   4   9 6246.37 189.039   7
  -1   4   9 6226.74 173.611   9
  -1   4   9 6099.94 192.766   8
  -1   4   9 6108.35 198.133  10
  -1   4   9 5894.69 214.750  26
  -1   4   8 4068.69 168.297  26
  -1   4   8 3772.14 145.323  10
  -1   4   8 3995.75 143.538   8
  -1   4   8 3872.24 140.984   7
  -1   4   8 4003.68 159.760  24
  -1   4   7 115.728 53.2670  24
   1   4  -7 256.238 151.892  21
   1   4  -7 48.0684 71.0247  13
  -1   4   7 91.4473 45.9088  10
  -1   4   6 11304.4 230.477  24
  -1   4   6 12005.7 553.942  21
  -1   4   6 13161.9 433.072   2
  -1   4   6 12848.3 546.355   1
   1   4  -6 12680.8 573.122   1
   1   4  -6 10790.7 566.449  21
   1   4  -6 13196.2 501.815  13
  -1   4   5 4397.11 318.939  21
   1   4  -5 4902.93 297.852  13
  -1   4   5 5429.14 324.237   1
   1   4  -5 5313.02 344.799   2
  -1   4   5 4751.82 247.070   2
  -1   4   5 4626.51 326.576  20
   1   4  -5 5635.64 348.216   1
  -1   4   4 18019.7 459.410   2
   1   4  -4 17511.5 532.792  13
  -1   4   4 17055.3 576.290  20
  -1   4   4 17176.3 528.112   1
   1   4  -4 17361.8 575.064   2
  -1   4   4 16527.8 517.833  21
   1   4  -4 16957.7 546.081   1
   1   4  -3 7613.54 334.448  13
  -1   4   3 7600.03 351.959  20
   1   4  -3 7521.03 343.102   2
   1   4  -3 7347.30 313.946   1
  -1   4   3 7904.62 319.998  21
   1   4  -3 8127.25 359.062  21
  -1   4   3 7186.78 273.521  12
  -1   4   3 7365.45 315.141   1
  -1   4   2 120898. 1419.32  20
  -1   4   2 120000. 1256.39  12
   1   4  -2 120384. 1406.98   2
   1   4  -2 118806. 1258.57   1
   1   4  -2 119321. 1419.16  13
  -1   4   2 120005. 1178.98  21
   1   4  -2 121052. 1205.00   3
  -1   4   1 73383.8 984.310  20
   1   4  -1 72529.2 1036.71  13
   1   4  -1 74495.9 725.984   3
  -1   4   1 73688.3 968.212  12
   1   4  -1 72146.4 967.099   2
  -1   4   1 72995.7 1046.09  13
  -1   4   0 45672.6 778.106  12
   1   4   0 46332.5 783.566  13
   1   4   0 45245.8 785.931  20
   1   4   0 45199.7 651.973   2
  -1   4   0 45435.8 709.279  20
  -1   4   0 45159.9 784.052  13
  -1   4  -1 23757.6 562.034   3
  -1   4  -1 24567.8 595.211  12
  -1   4  -1 23987.7 439.539  21
  -1   4  -1 23983.8 547.233  13
   1   4   1 24613.6 412.480  12
   1   4   1 24683.1 394.478   2
   1   4   1 23716.4 362.188   1
   1   4   1 24370.0 553.708  13
   1   4   1 24434.0 586.928  20
  -1   4  -2 4019.06 255.569   2
  -1   4  -2 3892.21 249.894   3
  -1   4  -2 3608.87 245.122  12
   1   4   2 4064.80 225.331  13
   1   4   2 3657.44 117.779   2
  -1   4  -2 3871.29 214.001  13
   1   4   2 3289.82 109.897  12
   1   4   2 4006.05 174.809   1
   1   4   2 3813.90 245.616  20
  -1   4  -2 4095.20 229.979  21
   1   4   3 1466.99 132.480   1
   1   4   3 1471.77 169.041  20
  -1   4  -3 1428.70 167.122  12
  -1   4  -3 1313.46 157.264  21
  -1   4  -3 1545.82 184.828   3
  -1   4  -3 1513.88 172.009   2
  -1   4  -3 1643.06 140.718  13
   1   4   4 2773.84 203.568   1
  -1   4  -4 3148.83 276.918  21
   1   4   4 2788.45 250.073  20
  -1   4  -4 2396.05 236.185   1
  -1   4  -4 2994.01 255.291   2
  -1   4  -4 2808.15 264.556   3
  -1   4  -4 2893.60 188.706  13
  -1   4  -4 2782.19 250.404  12
  -1   4  -5 3877.83 307.477   2
  -1   4  -5 3758.74 307.096  12
   1   4   5 3659.72 309.859  20
   1   4   5 3827.17 270.811   1
  -1   4  -5 3973.82 227.569  13
  -1   4  -5 4474.30 346.635   1
  -1   4  -5 3785.43 329.687  21
  -1   4  -6 13276.9 610.103  12
   1   4   6 13365.1 263.034  26
  -1   4  -6 12737.2 570.032  20
  -1   4  -6 13050.5 655.966  21
   1   4   6 13820.2 565.886   1
   1   4   6 13549.5 249.465   7
   1   4   7 2522.45 119.949  10
   1   4   7 2664.39 122.943   7
   1   4   7 2687.11 137.473  26
  -1   4  -7 2357.48 281.853  12
   1   4   7 2662.04 113.709   8
   1   4   7 2576.38 116.711  17
   1   4   8 2550.10 133.191  10
   1   4   8 2608.55 126.466   8
   1   4   8 2527.30 115.311   9
   1   4   8 2706.06 134.850   7
   1   4   8 2690.85 150.765  26
   1   4   9 6618.43 206.243   8
   1   4   9 6443.85 216.567  10
   1   4   9 6355.60 192.533   9
   1   4   9 6407.53 236.941  26
   1   4   9 6365.50 214.737   7
   1   4  10 8756.33 269.528  10
   1   4  10 8479.86 288.889  26
   1   4  10 8646.24 240.024   9
   1   4  10 8594.72 266.893   7
   1   4  10 8855.23 257.959   8
  -1   5  10 95.6360 68.5987   8
  -1   5  10 164.301 69.5639   7
  -1   5  10-16.1692 113.574  26
  -1   5  10 31.5274 78.3401  10
  -1   5   9 5011.20 175.130   7
  -1   5   9 5049.78 175.377   8
  -1   5   9 5058.94 206.881  26
  -1   5   9 4856.29 181.141  10
  -1   5   8 3505.74 138.214   7
  -1   5   8 3762.57 159.605  24
  -1   5   8 3571.48 145.032  10
  -1   5   8 3556.41 165.677  26
  -1   5   8 3604.72 139.645   8
  -1   5   7 14483.6 268.777  10
  -1   5   7 13948.6 253.777   7
   1   5  -7 13960.9 569.481  13
  -1   5   7 14356.3 287.181  26
  -1   5   7 13320.8 278.124  24
  -1   5   7 14226.8 257.994   8
  -1   5   6 16819.8 663.093  21
  -1   5   6 17790.0 306.039  24
  -1   5   6 17921.7 655.066   1
   1   5  -6 18005.7 262.132  14
   1   5  -6 18928.1 637.975  13
   1   5  -6 16315.1 726.066  21
  -1   5   6 18505.2 522.685   2
   1   5  -6 18518.3 713.721   1
  -1   5   5 23807.7 773.555  20
  -1   5   5 22839.2 557.925   2
   1   5  -5 23637.5 738.047   1
  -1   5   5 23722.9 339.779  24
   1   5  -5 22653.7 683.552  13
  -1   5   5 23376.9 693.142   1
  -1   5   5 23448.4 703.825  21
   1   5  -4 18854.5 579.713  21
  -1   5   4 17230.8 471.164   2
  -1   5   4 17483.9 614.870  20
   1   5  -4 16935.6 606.820   2
   1   5  -4 16992.8 567.258   1
  -1   5   4 16254.5 515.082  21
  -1   5   4 16357.7 535.374   1
   1   5  -4 17092.8 565.117  13
   1   5  -3 7188.01 313.776   3
   1   5  -3 6919.92 348.717  13
   1   5  -3 6676.54 355.186   2
  -1   5   3 6522.20 348.838  20
  -1   5   3 6648.52 278.215  12
   1   5  -3 6851.75 318.231   1
  -1   5   3 6035.31 269.971  21
   1   5  -2 29828.2 604.468   1
   1   5  -2 31003.0 573.544   3
  -1   5   2 31008.0 623.181  12
   1   5  -2 30814.7 723.662  13
  -1   5   2 30448.2 714.268  20
   1   5  -2 30671.7 713.773   2
  -1   5   1 89688.1 1276.61  13
   1   5  -1 88432.9 1262.14  13
   1   5  -1 89169.0 1171.21   2
  -1   5   1 89349.4 1210.92  20
  -1   5   1 89561.5 1174.15  12
  -1   5   1 87899.6 786.449  21
  -1   5   0 46289.5 809.112  20
   1   5   0 46506.7 875.666  13
   1   5   0 46265.3 879.548  20
   1   5   0 46852.7 743.341   2
  -1   5   0 47045.0 862.297  12
  -1   5   0 45943.7 874.070  13
   1   5   0 47990.2 769.372  12
  -1   5  -1 22425.4 579.085   3
  -1   5  -1 21193.9 533.712  20
   1   5   1 21632.4 435.963   2
  -1   5  -1 21512.6 573.010  13
   1   5   1 21502.9 579.575  13
  -1   5  -1 21590.7 606.568  12
  -1   5  -1 20790.6 410.174  21
   1   5   1 22220.7 450.012  12
   1   5   1 22002.8 609.195  20
  -1   5  -2 5258.54 313.263  12
   1   5   2 5449.57 290.858  13
   1   5   2 4952.70 307.497  20
  -1   5  -2 5061.62 258.888  21
   1   5   2 5556.99 183.915  12
  -1   5  -2 5325.24 315.563   2
  -1   5  -2 5363.21 285.265  13
   1   5   2 5505.15 214.745   1
   1   5   2 5893.76 188.623   2
  -1   5  -2 4932.72 300.731   3
  -1   5  -3 17708.2 609.805   2
  -1   5  -3 15328.0 503.405  21
   1   5   3 16865.1 439.701   1
   1   5   3 15815.1 267.147   2
   1   5   3 17077.2 522.095  13
  -1   5  -3 18048.0 605.004   3
   1   5   3 16909.7 592.373  20
  -1   5  -3 17785.9 520.407  13
  -1   5  -3 17799.0 618.069  12
  -1   5  -4 4668.84 341.888  12
  -1   5  -4 4352.96 313.142  21
  -1   5  -4 4652.63 334.939   2
  -1   5  -4 4785.28 271.683  13
  -1   5  -4 4516.18 332.801   1
   1   5   4 4910.52 269.517   1
   1   5   4 4555.67 142.636  24
   1   5   4 4548.77 334.564  20
  -1   5  -4 5251.59 367.099   3
  -1   5  -5 1501.75 210.606  12
  -1   5  -5 1957.14 247.659   1
  -1   5  -5 1597.68 267.612  21
  -1   5  -5 1815.97 176.238  13
   1   5   5 1697.18 179.418   1
   1   5   6 13211.8 267.929  26
   1   5   6 12819.9 249.582   7
  -1   5  -6 12715.8 620.363  12
   1   5   6 12733.9 245.515  10
  -1   5  -6 11552.4 628.728  21
   1   5   6 12065.6 530.108   1
  -1   5  -7 1009.02 193.723  20
   1   5   7 1228.82 93.3940  10
   1   5   7 1192.97 82.3968   8
   1   5   7 1312.14 97.1769  17
   1   5   7 1241.56 108.299  26
   1   5   7 1240.93 93.7097   7
   1   5   8 8017.91 243.784  26
   1   5   8 8103.73 228.433   7
   1   5   8 8342.25 216.101   8
   1   5   8 7778.63 222.386  10
   1   5   9 6519.57 220.731  10
   1   5   9 6648.75 210.173   8
   1   5   9 6396.80 237.357  26
   1   5   9 6596.38 221.208   7
  -1   6  10 1606.91 128.258  10
  -1   6  10 1652.99 122.731   8
  -1   6  10 1753.34 163.177  26
  -1   6  10 1518.03 119.356   7
  -1   6   9 9249.05 250.969  10
  -1   6   9 9658.85 246.672   7
  -1   6   9 8995.39 271.313  24
  -1   6   9 9748.63 283.496  26
  -1   6   9 9389.78 243.725   8
   1   6  -8 13150.2 255.361  14
  -1   6   8 13226.2 280.756  10
  -1   6   8 13079.3 270.536   8
  -1   6   8 13249.2 271.282   7
  -1   6   8 12905.4 303.881  24
  -1   6   7 46.7466 65.1775  24
   1   6  -7-26.8370 176.060  21
  -1   6   7 44.8924 51.2385  10
  -1   6   7 109.469 46.1924   8
  -1   6   7 35.7223 80.3036  26
   1   6  -7-50.8445 91.1372  13
   1   6  -7 53.8220 55.7494  14
  -1   6   7 86.8672 47.5528   7
   1   6  -6 7410.51 506.196  21
  -1   6   6 7528.55 212.079  24
  -1   6   6 7095.40 428.215  21
   1   6  -6 7884.11 479.833   1
   1   6  -6 7522.61 178.695  14
   1   6  -6 7887.25 439.454  13
  -1   6   6 7506.81 184.472  10
   1   6  -5 11046.6 515.982  21
  -1   6   5 9841.21 226.919  24
  -1   6   5 11285.5 405.245   2
  -1   6   5 11402.8 493.523   1
  -1   6   5 10227.0 460.054  21
   1   6  -5 11194.1 574.796  12
   1   6  -5 11317.5 209.132  14
   1   6  -5 11527.0 522.174   3
   1   6  -5 11051.8 502.421  13
   1   6  -5 11515.8 530.540   1
  -1   6   4 4663.73 295.102   1
  -1   6   4 4297.18 271.910  21
  -1   6   4 4744.24 343.242  20
   1   6  -4 4348.16 299.882   1
   1   6  -4 4629.77 335.220   2
   1   6  -4 4681.22 318.820  13
   1   6  -4 4254.47 294.889   3
  -1   6   4 4404.57 244.022  12
   1   6  -3 7924.62 347.745   3
   1   6  -3 8084.54 418.165  12
  -1   6   3 7460.33 319.740  12
   1   6  -3 7480.60 354.535   1
   1   6  -3 7734.76 401.133   2
   1   6  -3 7503.36 392.640  13
  -1   6   3 7838.16 409.484  20
  -1   6   3 7104.35 280.087  21
   1   6  -2 109623. 1571.11  13
   1   6  -2 112223. 1531.23   2
   1   6  -2 108170. 1566.17  12
  -1   6   2 111426. 1380.86  12
  -1   6   2 112514. 1052.54  21
  -1   6   2 109965. 1548.78  20
   1   6  -1 47440.2 956.163  20
   1   6  -1 50418.9 925.845  12
  -1   6   1 48587.0 986.464  13
   1   6  -1 48659.5 895.527   2
   1   6  -1 48569.5 974.479  13
  -1   6   1 47949.3 924.382  20
  -1   6   1 48505.3 887.153  12
  -1   6   0 23828.6 623.969  20
   1   6   0 24315.2 674.842  20
  -1   6   0 24575.4 676.150  13
   1   6   0 24629.8 584.845  12
   1   6   0 23672.7 569.520   2
   1   6   0 24427.2 677.418  13
  -1   6   0 25709.7 672.420  12
  -1   6  -1 11931.3 437.288  20
   1   6   1 12228.8 372.564  12
   1   6   1 12032.3 473.686  13
   1   6   1 12129.3 367.074   2
   1   6   1 11825.3 483.587  20
  -1   6  -1 11750.9 288.791  21
  -1   6  -1 12215.3 489.535  12
  -1   6  -1 12349.8 475.072  13
   1   6   2 35559.4 879.206  20
  -1   6  -2 35418.5 895.073  12
  -1   6  -2 32637.1 631.282  21
  -1   6  -2 35536.6 819.200  13
  -1   6  -2 35617.3 831.165   3
   1   6   2 35313.4 571.686  12
   1   6   2 34232.7 819.511  13
   1   6   2 35025.8 577.237   2
   1   6   2 33858.5 591.038   1
  -1   6  -2 35810.1 890.442   2
   1   6   3 115470. 1600.31  13
   1   6   3 115442. 1744.42  20
  -1   6  -3 105804. 1441.95  21
  -1   6  -3 117183. 1767.15   2
  -1   6  -3 117930. 1710.57   3
   1   6   3 115639. 1310.37   1
  -1   6  -3 118963. 1595.43  13
   1   6   3 115757. 910.910  24
   1   6   3 108528. 975.837  12
  -1   6  -3 117920. 1784.79  12
   1   6   3 115466. 1058.59   2
  -1   6  -4 22660.2 702.636  21
  -1   6  -4 23184.3 778.773   1
  -1   6  -4 24287.2 679.806  13
   1   6   4 19352.3 284.886   2
   1   6   4 23628.5 600.942   1
   1   6   4 23432.5 345.295  24
  -1   6  -4 25246.2 825.124  12
   1   6   4 20282.6 298.718   2
   1   6   5 3141.49 120.637  18
  -1   6  -5 2860.10 299.705  12
  -1   6  -5 3119.22 315.219  21
  -1   6  -5 3109.21 247.911  13
   1   6   5 3667.06 264.385   1
   1   6   6 22226.8 349.476  17
   1   6   6 22480.9 360.852  26
   1   6   6 22386.2 349.999   7
   1   6   6 22075.3 350.485  18
   1   6   6 22561.9 344.362  10
   1   6   7 13696.7 280.701  10
   1   6   7 13581.4 301.889  26
   1   6   7 13988.7 261.862   8
   1   6   7 13939.7 287.096   7
   1   6   8 2227.47 115.298   8
   1   6   8 2158.79 132.053   7
   1   6   8 2139.38 146.052  26
   1   6   8 2212.31 130.714  10
   1   6   9 992.300 96.2821   8
   1   6   9 788.750 123.142  26
   1   6   9 958.110 107.143  10
   1   6   9 864.806 105.121   7
  -1   7  10 12608.1 310.133   7
  -1   7  10 12143.2 348.399  26
  -1   7  10 13063.8 309.039   8
  -1   7  10 12516.0 320.175  10
  -1   7   9 6648.10 251.024  26
  -1   7   9 6995.37 215.726   7
  -1   7   9 6938.12 227.020  10
  -1   7   9 7035.11 211.871   8
  -1   7   9 6461.44 241.289  24
  -1   7   8 77.5949 93.5666  26
   1   7  -8 174.101 65.7586  14
  -1   7   8 112.761 62.9556  10
  -1   7   8 187.770 58.5514   8
  -1   7   8 273.108 89.6771  24
  -1   7   8 197.172 61.3039   7
  -1   7   7 1536.49 126.757  26
  -1   7   7 1247.99 93.3219  10
  -1   7   7 1250.47 90.2042   7
   1   7  -7 1133.38 94.9440  14
  -1   7   7 1231.97 85.2034   8
  -1   7   7 1196.23 109.559  24
  -1   7   6 20721.4 319.879   7
  -1   7   6 20017.8 712.240  21
  -1   7   6 20927.2 330.614  10
   1   7  -6 21875.8 771.995  13
  -1   7   6 20431.7 344.346  26
   1   7  -6 21030.3 323.367  14
  -1   7   6 21096.9 356.186  24
  -1   7   5 9059.44 424.641  21
   1   7  -5 8799.87 528.668  12
   1   7  -5 9075.79 199.425  14
  -1   7   5 8298.09 434.637   1
  -1   7   5 9283.47 228.974  24
  -1   7   5 8438.66 369.198   2
   1   7  -5 8479.34 479.780   1
   1   7  -5 8600.13 470.150  13
  -1   7   4 14185.8 470.552  21
   1   7  -4 13281.0 629.067  12
  -1   7   4 13560.9 266.112  24
  -1   7   4 13249.2 519.074   1
   1   7  -4 13936.1 592.716  13
  -1   7   4 13372.2 447.557  12
   1   7  -4 13920.7 557.437   1
   1   7  -3 3505.32 306.025  12
   1   7  -3 3779.24 298.615  13
  -1   7   3 3440.34 193.508  21
   1   7  -3 4197.15 264.278   3
   1   7  -3 3601.91 298.326   2
  -1   7   3 3853.32 308.306  20
  -1   7   3 3481.01 128.071  24
  -1   7   3 3487.97 239.857  12
   1   7  -3 3515.01 116.111  14
   1   7  -3 3428.88 252.118   1
  -1   7   2 18109.9 552.728  12
   1   7  -2 17717.3 259.314  14
   1   7  -2 18094.9 641.685  13
  -1   7   2 18359.3 324.745  21
   1   7  -2 18283.5 625.879   2
  -1   7   2 18802.4 644.792  20
   1   7  -2 18488.6 637.743  12
   1   7  -1 34072.8 805.660   2
  -1   7   1 33786.4 844.392  20
  -1   7   1 33795.8 800.449  12
   1   7  -1 33818.5 824.949  12
   1   7  -1 34178.6 873.398  20
   1   7  -1 34152.0 883.000  13
  -1   7   1 34214.5 888.748  13
   1   7   0 25502.5 643.645   2
   1   7   0 26213.4 667.425  12
   1   7   0 25039.1 749.844  20
  -1   7   0 26152.5 731.130  12
  -1   7   0 25018.3 702.157  20
   1   7   0 26652.9 771.419  13
  -1   7   0 24751.2 752.315  13
   1   7   1 75160.5 1357.87  20
   1   7   1 75800.2 1343.84  13
  -1   7  -1 73271.2 1242.01  20
  -1   7  -1 77637.5 1362.80  12
   1   7   1 77516.8 1107.73  12
  -1   7  -1 76121.9 1349.60  13
   1   7   1 76624.2 1091.90   2
  -1   7  -2 17338.3 595.797   3
   1   7   2 15523.5 420.284  12
  -1   7  -2 15161.5 551.973  20
  -1   7  -2 15747.3 623.359   2
   1   7   2 15389.6 422.595   2
   1   7   2 14845.4 403.134   1
   1   7   2 14938.5 583.569  13
   1   7   2 17098.1 265.784  24
   1   7   2 15159.7 610.899  20
  -1   7  -2 16256.1 595.782  13
  -1   7  -2 16431.0 434.875  21
  -1   7  -2 15840.3 629.631  12
  -1   7  -3 35572.9 990.617  12
   1   7   3 33971.5 891.989  13
  -1   7  -3 35401.9 930.483   3
  -1   7  -3 32574.1 751.846  21
   1   7   3 35580.0 582.814   2
   1   7   3 34418.0 542.091  12
  -1   7  -3 36283.7 902.695  13
   1   7   3 33703.2 421.053  24
   1   7   3 34813.2 680.484   1
   1   7   4 749.244 115.194   1
   1   7   4 877.424 62.9760  14
  -1   7  -4 782.130 162.189  21
  -1   7  -4 790.138 160.538   1
  -1   7  -4 864.010 151.924  13
  -1   7  -4 964.077 192.658  12
   1   7   4 832.872 81.8785  24
   1   7   5 814.125 71.3589  10
   1   7   5 722.316 73.1483   7
   1   7   5 677.392 77.4254  17
   1   7   5 724.534 61.6174  14
  -1   7  -5 848.567 151.646  13
   1   7   5 683.194 84.9310  24
   1   7   5 693.314 76.3219  26
   1   7   5 770.356 72.7683  18
   1   7   6 2515.53 123.553  18
  -1   7  -6 2255.30 314.375  21
   1   7   6 2387.12 119.046  10
   1   7   6 2423.48 133.236  26
   1   7   6 2584.54 124.486   7
   1   7   6 2443.27 143.914  24
   1   7   6 2828.71 135.640  17
   1   7   7 13767.5 261.224   8
   1   7   7 13436.5 284.512  10
   1   7   7 12895.1 301.210  26
   1   7   7 13394.2 290.142   7
   1   7   8 834.688 94.2002  10
   1   7   8 658.870 113.483  26
   1   7   8 813.730 79.8314   8
   1   7   8 703.038 94.2314   7
   1   7   9 973.636 141.113  26
   1   7   9 1135.47 96.9760   8
   1   7   9 911.525 107.600  10
   1   7   9 1077.05 115.467   7
  -1   8   9 15119.7 372.238  24
  -1   8   9 15806.2 374.421  26
  -1   8   9 15773.3 324.686   8
  -1   8   9 15202.2 331.174   7
  -1   8   9 15305.2 344.683  10
  -1   8   8 230.814 110.393  26
  -1   8   8 141.963 55.8401   8
  -1   8   8 43.6339 64.8834  10
   1   8  -8 114.123 66.5728  14
  -1   8   8 155.302 65.9791   7
  -1   8   8 86.7332 81.8753  24
  -1   8   7 7457.60 205.752   7
  -1   8   7 7477.79 212.544  10
   1   8  -7 7593.83 208.902  14
   1   8  -7 7696.16 221.378  18
  -1   8   7 7649.39 236.811  26
  -1   8   7 7729.75 199.732   8
  -1   8   6 3888.67 147.951  10
   1   8  -6 3891.47 154.361  18
  -1   8   6 4080.00 146.313  18
  -1   8   6 4346.83 172.220  26
  -1   8   6 4182.04 172.577  24
  -1   8   6 3825.55 144.493   7
  -1   8   6 4128.76 137.363   8
   1   8  -6 3976.83 149.878  14
  -1   8   5 44579.6 501.804   7
  -1   8   5 44177.0 493.602  18
   1   8  -5 44992.6 508.802  14
  -1   8   5 44356.3 507.449  10
  -1   8   5 44468.7 1048.96   1
   1   8  -5 45797.9 1177.03  13
   1   8  -5 45485.8 1151.74   1
  -1   8   4 4753.06 287.427  12
   1   8  -4 4665.25 390.603  12
   1   8  -4 4804.74 151.203  14
   1   8  -4 4422.09 357.870  13
   1   8  -4 4309.03 325.448   1
  -1   8   4 5294.21 176.934  24
  -1   8   4 4406.57 309.724   1
   1   8  -3 21732.2 780.975  12
  -1   8   3 20421.5 607.699  12
  -1   8   3 21031.8 326.483  24
   1   8  -3 20070.5 302.779  14
   1   8  -3 20699.8 653.382   1
   1   8  -3 20138.8 738.906  13
   1   8  -2 5522.76 383.473  13
   1   8  -2 5537.93 368.490   2
   1   8  -2 5610.01 388.729  20
   1   8  -2 5472.16 373.437  12
  -1   8   2 5312.32 324.020  12
  -1   8   2 5040.81 150.956  24
   1   8  -2 5363.18 147.835  14
  -1   8   2 5115.75 363.075  20
   1   8  -1 6775.85 379.474   2
   1   8  -1 6461.39 411.855  13
   1   8  -1 6583.38 381.293  12
  -1   8   1 6320.90 160.282  24
  -1   8   1 6790.15 156.052  14
  -1   8   1 7079.90 431.417  13
  -1   8   1 6403.37 390.504  20
   1   8  -1 6356.66 159.103  14
   1   8  -1 6573.48 410.633  20
  -1   8   1 6283.10 364.621  12
   1   8   0 428.027 56.1852  14
   1   8   0 403.434 125.011  20
  -1   8   0 281.063 111.700  20
   1   8   0 308.261 96.3911   2
   1   8   0 404.586 103.952  12
   1   8   0 381.531 120.291  13
  -1   8   0 466.625 137.174  13
  -1   8   0 426.038 121.865  12
  -1   8  -1 12057.3 560.827  12
   1   8   1 11522.1 219.243  24
  -1   8  -1 11672.9 516.701  20
   1   8   1 11802.4 212.860  14
   1   8   1 11689.8 552.955  13
  -1   8  -1 12589.6 562.308  13
   1   8   1 11725.1 443.422  12
  -1   8  -1 12492.7 229.591  14
   1   8   1 12332.1 451.054   2
   1   8   2 92932.6 783.323  24
   1   8   2 87325.6 1120.50   1
  -1   8  -2 88184.5 1062.36  21
   1   8   2 90109.9 1211.90   2
  -1   8  -2 93329.1 1670.90  12
   1   8   2 91092.5 1593.25  13
  -1   8  -2 87969.0 1476.49  20
   1   8   2 87471.9 1191.61  12
   1   8   2 88919.9 739.062  14
  -1   8  -2 92082.1 1589.66  13
  -1   8  -2 87344.3 770.255  14
  -1   8  -3 121209. 1543.93  21
   1   8   3 126725. 967.382  14
  -1   8  -3 128240. 1863.55  20
  -1   8  -3 132833. 2112.59  12
  -1   8  -3 124780. 1013.69  14
   1   8   3 126524. 1029.42  24
   1   8   3 129173. 1951.01  13
  -1   8  -3 134378. 1959.77  13
  -1   8  -4 5026.19 363.704  13
   1   8   4 5386.60 182.378  24
   1   8   4 4941.01 140.864  14
   1   8   4 5304.72 162.993   7
   1   8   4 4743.73 153.263  18
   1   8   4 5204.15 168.383  17
   1   8   5 5751.18 170.648  10
   1   8   5 6081.88 184.935  26
   1   8   5 5637.49 202.289  24
   1   8   5 6106.29 182.491  18
   1   8   5 6079.01 184.913   7
   1   8   5 6080.56 159.683  14
   1   8   5 6200.00 188.615  17
  -1   8  -5 6129.30 404.828  13
   1   8   6 19752.4 337.835  10
   1   8   6 19982.4 353.013   7
   1   8   6 19682.7 355.831  26
   1   8   6 20109.5 354.335  18
  -1   8  -6 19525.2 324.256  18
   1   8   7 2017.01 105.345   8
   1   8   7 2256.78 128.184  10
   1   8   7 1995.39 139.731  26
   1   8   7 2125.51 129.677   7
   1   8   8 430.876 115.874  26
   1   8   8 329.560 81.7740   7
  -1   8  -8 333.804 95.4800  14
   1   8   8 382.846 67.1512   8
   1   8   8 335.358 78.0184  10
  -1   9   9 4324.90 224.226  26
  -1   9   9 4297.71 174.946   8
   1   9  -9 4265.05 201.497  18
  -1   9   9 3865.87 211.393  24
  -1   9   9 4132.16 192.515  10
   1   9  -9 3995.46 176.339  14
  -1   9   9 4256.14 185.201   7
   1   9  -8 1393.44 113.681  14
   1   9  -8 1314.32 129.995  18
  -1   9   8 1186.92 142.353  26
  -1   9   8 1459.19 104.376   8
  -1   9   8 1475.84 126.033  10
  -1   9   8 1413.33 111.754   7
  -1   9   8 1068.83 128.656  24
  -1   9   7 8187.92 210.063   8
  -1   9   7 7516.69 247.108  24
  -1   9   7 8035.31 223.947   7
   1   9  -7 7843.79 223.951  14
  -1   9   7 8008.25 231.204  10
   1   9  -7 7726.01 235.112  18
  -1   9   7 7651.47 243.440  26
  -1   9   6 1258.98 83.3907   8
  -1   9   6 1121.37 93.1428   7
  -1   9   6 1310.12 98.9649  10
   1   9  -6 1286.18 108.208  18
   1   9  -6 1183.26 100.044  14
  -1   9   6 1197.68 121.028  24
  -1   9   6 1341.77 95.7004  18
   1   9  -5 4951.34 168.981  14
  -1   9   5 4996.08 167.283   7
  -1   9   5 5103.09 166.574  10
  -1   9   5 4868.64 156.881  18
   1   9  -5 4907.32 168.227  18
  -1   9   5 4989.41 190.515  24
   1   9  -4 2952.29 280.919   3
  -1   9   4 2630.39 119.504   7
  -1   9   4 2505.75 120.597  10
  -1   9   4 2730.00 101.218  14
   1   9  -4 2652.61 125.332  14
  -1   9   4 2570.65 249.451   1
   1   9  -4 2438.37 259.869   1
  -1   9   4 2608.40 142.824  24
   1   9  -3 26953.8 376.457  14
   1   9  -3 27111.5 786.091   1
  -1   9   3 26352.3 401.397  24
  -1   9   3 26686.7 339.327  14
  -1   9   3 27723.2 757.021  12
  -1   9   2 7304.24 402.703  12
  -1   9   2 7213.12 168.051  14
   1   9  -2 7752.77 463.766  12
   1   9  -2 7233.87 186.736  14
  -1   9   2 7327.08 193.211  24
   1   9  -2 6924.01 466.206  13
   1   9  -1 20474.2 729.351  12
   1   9  -1 20986.1 717.348   2
   1   9  -1 21578.2 799.657  13
  -1   9   1 20770.1 796.101  13
  -1   9   1 22002.0 730.705  12
  -1   9   1 20671.1 316.180  24
  -1   9   1 21008.0 302.729  14
   1   9  -1 20912.8 316.470  14
  -1   9   0 2432.72 107.165  24
   1   9   0 2637.73 111.514  24
   1   9   0 2288.16 103.971  14
  -1   9   0 2561.78 277.947  13
   1   9   0 2590.61 280.324  13
   1   9   0 2558.58 249.407   2
   1   9   0 2397.25 233.196  12
  -1   9   0 2489.57 108.080  14
  -1   9   0 2514.08 263.727  12
  -1   9  -1 38284.6 1067.21  12
   1   9   1 37781.8 874.836  12
   1   9   1 39349.7 886.635   2
  -1   9  -1 39935.1 436.162  24
   1   9   1 38858.4 1084.72  13
  -1   9  -1 38384.2 456.635  14
   1   9   1 38725.3 445.701  14
   1   9   1 39722.3 453.536  24
  -1   9  -1 39098.0 1087.03  13
  -1   9  -1 38287.7 1004.82  20
   1   9   2 12487.2 456.893  12
  -1   9  -2 13721.8 636.103  13
  -1   9  -2 13220.9 260.188  14
   1   9   2 14209.3 270.877  24
   1   9   2 13165.8 634.231  13
   1   9   2 13162.8 242.038  14
   1   9   3 11717.0 253.350  24
  -1   9  -3 11100.8 576.921  13
   1   9   3 10804.6 218.487  14
   1   9   3 10410.0 566.173  13
   1   9   3 11170.1 239.878   7
   1   9   3 10822.8 240.037  17
   1   9   3 10947.7 230.993  18
  -1   9  -3 10767.8 243.311  14
   1   9   4-19.9300 59.4637   7
  -1   9  -4 137.547 77.8968  14
   1   9   4 78.3422 47.0025  18
   1   9   4 42.7284 43.9304  14
   1   9   4 87.2700 48.3440  10
   1   9   4 17.7166 64.6083  24
  -1   9  -4 72.8964 94.8058  13
   1   9   4 58.3502 63.6319  17
   1   9   5 784.246 82.3235  18
  -1   9  -5 865.260 103.617  14
   1   9   5 729.035 70.1001  14
   1   9   5 732.634 79.3064  10
   1   9   5 692.332 93.6281  26
   1   9   5 945.001 100.687  24
   1   9   5 815.243 87.8377   7
  -1   9  -6 5535.43 204.637  14
   1   9   6 5761.75 189.904  10
   1   9   6 5680.28 201.247  26
   1   9   6 6081.77 220.046  24
   1   9   6 5415.81 194.110   7
   1   9   6 5522.72 194.744  18
  -1   9  -7 4147.34 186.392  14
   1   9   7 4334.98 176.474  10
   1   9   7 4071.65 190.087  26
   1   9   7 4388.00 183.834   7
  -1   9  -8 2372.76 160.164  14
   1   9   8 2511.34 153.703   7
   1   9   8 2326.39 145.415  10
   1   9   8 2332.59 172.842  26
   1  10  -8 2076.71 154.156  18
  -1  10   8 2248.92 148.832  10
   1  10  -8 2061.26 136.334  14
  -1  10   8 2048.88 133.514   7
  -1  10   8 1635.88 154.961  24
  -1  10   8 2219.73 124.115   8
  -1  10   7 7144.73 221.410   7
   1  10  -7 7198.82 231.450  18
  -1  10   7 6760.23 197.782   8
  -1  10   7 6531.89 243.509  24
   1  10  -7 6923.10 223.433  14
  -1  10   7 6983.02 223.728  10
   1  10  -6 20372.8 364.711  18
  -1  10   6 21002.1 359.861  18
   1  10  -6 20159.7 365.711  14
  -1  10   6 20080.6 361.396   7
  -1  10   6 19370.1 396.411  24
  -1  10   6 20297.1 327.292   8
  -1  10   6 20183.6 364.439  10
  -1  10   5 6926.98 194.153  18
   1  10  -5 6873.74 206.984  14
   1  10  -5 6748.91 200.133  18
  -1  10   5 7057.09 178.375   8
  -1  10   5 6656.54 200.189  10
  -1  10   5 6848.15 202.087   7
  -1  10   5 6983.43 230.282  24
   1  10  -4 167.548 102.721   1
  -1  10   4 74.8299 85.3941  24
   1  10  -4 207.725 71.5015  14
  -1  10   4 169.931 49.0056  18
   1  10  -4 239.084 72.8843  18
  -1  10   4 121.668 39.3042  14
  -1  10   4 134.446 59.4499   7
   1  10  -3 2366.60 115.910  18
   1  10  -3 2414.29 127.765  14
  -1  10   3 2568.56 107.976  14
   1  10  -3 2197.72 236.374   1
   1  10  -2 12018.8 241.488  18
   1  10  -2 13048.0 248.949  27
   1  10  -2 12717.2 521.806   1
   1  10  -2 12553.2 260.992  14
  -1  10   2 12711.2 241.410  14
  -1  10   2 12598.5 566.035  12
  -1  10   2 13652.8 279.888  24
  -1  10   1 55486.8 1259.23  12
   1  10  -1 57973.5 1300.98  12
  -1  10   1 55667.9 583.746  27
  -1  10   1 57386.7 602.116  24
  -1  10   1 55089.3 574.039  14
   1  10  -1 55627.9 596.492  14
   1  10  -1 55994.5 547.767  24
   1  10   0 2445.20 116.767  14
   1  10   0 2620.50 265.249  12
   1  10   0 2070.20 104.975  24
  -1  10   0 2281.41 112.798  27
  -1  10   0 2511.89 281.223  12
  -1  10   0 2388.22 115.917  14
  -1  10  -1 4994.91 153.503  24
   1  10   1 5028.24 341.120   2
  -1  10  -1 5180.82 161.427  27
   1  10   1 5000.90 155.202  18
   1  10   1 5055.63 162.687  24
   1  10   1 5290.27 345.478  12
  -1  10  -1 5126.85 165.227  14
   1  10   1 5240.31 160.747  14
   1  10   2 2656.27 119.197  18
   1  10   2 2187.55 118.490  24
  -1  10  -2 2544.42 121.221  27
  -1  10  -2 3027.17 147.558  14
   1  10   2 2652.36 117.741  14
   1  10   3 7457.25 199.163  18
   1  10   3 6956.52 202.000   7
   1  10   3 7039.28 188.260  14
  -1  10  -3 7409.18 215.101  14
   1  10   3 6849.73 188.360  10
   1  10   3 6779.06 209.958  24
   1  10   4 1211.02 103.128  26
   1  10   4 1009.13 85.2988  10
  -1  10  -4 1168.10 112.701  14
   1  10   4 1215.86 94.7997  18
   1  10   4 1220.90 87.3324  14
   1  10   4 981.132 105.834  24
   1  10   4 995.842 96.6569   7
   1  10   5 9762.41 225.034  14
   1  10   5 9608.28 247.490  18
   1  10   5 9066.49 239.291  26
   1  10   5 9389.27 271.322  24
  -1  10  -5 9304.46 265.662  14
   1  10   5 9498.88 237.688  10
   1  10   5 9645.17 253.840   7
   1  10   6 11103.9 279.795  18
   1  10   6 10988.1 279.973   7
   1  10   6 10290.9 272.590  26
   1  10   6 10743.7 264.991  10
  -1  10  -6 11190.3 297.785  14
   1  10   6 10398.2 301.783  24
   1  10   7 5000.12 213.518  26
   1  10   7 5298.82 198.278  10
   1  10   7 5008.81 204.735   7
  -1  10  -7 5122.54 214.759  14
   1  10   7 5496.68 210.737  18
   1  11  -7 11606.3 298.102  18
   1  11  -7 11506.9 301.682  14
  -1  11   7 12133.3 297.600   7
  -1  11   7 11786.5 299.520  10
  -1  11   6 957.166 105.044  10
  -1  11   6 1072.60 101.292  18
  -1  11   6 1030.97 105.431   7
   1  11  -6 921.602 111.823  18
   1  11  -6 971.540 108.097  14
  -1  11   6 912.381 132.641  24
  -1  11   5 4489.12 163.886  18
  -1  11   5 3890.65 167.714  10
  -1  11   5 4045.93 196.567  24
   1  11  -5 4332.91 176.464  18
  -1  11   5 4183.84 172.797   7
   1  11  -5 4265.13 179.358  14
  -1  11   4 6721.47 181.399  14
  -1  11   4 6613.07 203.619   7
  -1  11   4 6784.59 190.437  18
   1  11  -4 6352.59 199.133  18
  -1  11   4 6671.96 225.040  24
   1  11  -4 6532.40 212.519  14
   1  11  -3 6698.20 207.131  14
  -1  11   3 6793.01 183.764  18
   1  11  -3 6737.73 192.917  18
  -1  11   3 6963.89 186.019  14
  -1  11   3 6494.02 212.181  24
   1  11  -2 13702.5 272.574  27
   1  11  -2 13219.8 266.062  18
  -1  11   2 13793.9 622.843  12
  -1  11   2 13431.2 251.618  18
   1  11  -2 13362.5 286.073  14
  -1  11   2 13492.8 291.518  24
  -1  11   2 13679.0 266.755  14
  -1  11   1 28258.5 408.846  27
   1  11  -1 27651.3 392.770  18
   1  11  -1 27255.7 413.604  14
  -1  11   1 27793.0 415.555  24
  -1  11   1 27954.5 399.524  14
   1  11  -1 28328.1 394.021  27
   1  11   0 1169.54 202.619  12
  -1  11   0 1320.24 99.9255  24
   1  11   0 1170.67 90.1034  18
   1  11   0 1297.83 99.0721  14
   1  11   0 1076.10 87.8633  27
   1  11   0 1311.61 92.6720  24
  -1  11   0 1048.88 91.1975  27
  -1  11   0 1196.80 96.9021  14
   1  11   1 1469.68 95.8133  18
  -1  11  -1 1326.77 99.0884  24
  -1  11  -1 1441.32 105.787  27
   1  11   1 1547.89 100.730  14
  -1  11  -1 1454.92 108.301  14
   1  11   1 1732.89 112.257  24
   1  11   2 5031.70 168.623  18
  -1  11  -2 5074.69 173.899  27
   1  11   2 5295.22 170.188  14
  -1  11  -2 5337.25 186.430  14
   1  11   2 4908.40 175.683  24
  -1  11  -3 1651.70 125.772  14
   1  11   3 1462.87 101.489  18
   1  11   3 1302.68 98.0509  10
   1  11   3 1307.04 94.8574  14
  -1  11  -3 1488.19 111.997  27
   1  11   3 1722.01 117.656  24
   1  11   3 1504.08 115.792   7
   1  11   4 1804.08 117.177  18
   1  11   4 1932.99 139.728  24
  -1  11  -4 1878.27 134.224  14
   1  11   4 1790.12 107.539  14
   1  11   4 1876.89 126.626   7
   1  11   4 1792.08 115.191  10
   1  11   5 2137.79 129.287  10
   1  11   5 2309.34 134.844  18
   1  11   5 2383.84 142.675  26
   1  11   5 2491.55 154.429   7
  -1  11  -5 2169.29 151.020  14
   1  11   5 2085.06 155.812  24
   1  11   5 2334.64 121.747  14
   1  11   6 1173.77 125.754  26
  -1  11  -6 1371.17 135.034  14
   1  11   6 1753.67 129.635  18
   1  11   6 1605.77 121.675  10
   1  11   6 1528.01 141.588  24
   1  11   6 1600.34 129.954   7
  -1  12   6 6177.35 221.798  10
  -1  12   6 6390.58 215.507  18
   1  12  -6 6633.31 230.792  18
   1  12  -6 6411.94 234.615  14
  -1  12   6 6509.29 225.515   7
   1  12  -5 2162.74 139.919  18
  -1  12   5 2292.83 144.072  10
   1  12  -5 2109.09 148.680  14
  -1  12   5 2449.05 130.239  18
  -1  12   5 2347.25 142.322   7
  -1  12   5 1865.09 156.119  24
   1  12  -4 8036.22 227.545  18
  -1  12   4 8063.98 233.753  10
  -1  12   4 7964.74 237.670   7
   1  12  -4 8474.72 253.234  14
  -1  12   4 8155.64 211.326  14
  -1  12   4 8107.81 219.008  18
  -1  12   4 7657.13 254.203  24
   1  12  -3 3723.10 153.670  18
   1  12  -3 3697.24 159.689  27
  -1  12   3 3770.87 145.610  18
   1  12  -3 3657.53 168.452  14
  -1  12   3 3829.64 147.981  14
  -1  12   3 4298.07 192.338  24
   1  12  -2 11841.4 268.454  27
  -1  12   2 11899.4 248.606  18
   1  12  -2 11922.2 285.127  14
  -1  12   2 12086.7 266.304  14
   1  12  -2 11551.6 259.474  18
  -1  12   1 12068.2 245.728  18
   1  12  -1 12194.3 263.966  18
   1  12  -1 12453.6 268.511  27
  -1  12   1 12387.0 271.960  14
   1  12  -1 11814.4 282.653  14
  -1  12   1 12171.2 280.131  24
  -1  12   0 232.429 72.9661  27
   1  12   0 182.623 64.1671  27
  -1  12   0 153.021 47.8127  18
   1  12   0 63.8041 52.3432  18
   1  12   0 90.3496 62.6014  14
  -1  12   0 170.155 74.6042  24
   1  12   0 116.819 62.7625  24
  -1  12   0 146.289 74.2868  14
   1  12   1 1582.44 105.367  18
  -1  12  -1 1836.00 126.838  14
  -1  12  -1 1505.79 111.537  24
  -1  12  -1 1560.05 112.744  27
   1  12   1 1697.03 112.030  14
   1  12   1 1829.84 117.629  24
   1  12   2 13658.1 291.110  14
   1  12   2 13823.0 291.780  18
  -1  12  -2 13595.9 301.380  27
  -1  12  -2 13745.9 310.704  14
   1  12   2 12621.7 298.919  24
   1  12   3 15312.8 309.743  10
   1  12   3 15307.5 319.184  18
   1  12   3 14694.4 328.173   7
  -1  12  -3 15824.2 341.159  14
  -1  12  -3 15441.2 328.470  27
   1  12   3 15174.2 335.025  24
   1  12   3 15683.6 312.266  14
   1  12   4 4196.77 190.351  24
   1  12   4 3798.83 169.198  18
   1  12   4 4159.50 170.093  10
   1  12   4 3921.09 160.037  14
  -1  12  -4 3994.70 189.803  14
   1  12   4 3988.10 181.396   7
   1  12   5 498.350 98.5873   7
   1  12   5 595.276 91.2350  18
   1  12   5 541.671 75.7681  14
   1  12   5 591.369 114.019  24
   1  12   5 594.387 90.7944  10
  -1  12  -5 623.489 117.861  14
  -1  13   5 5560.35 199.413  18
  -1  13   5 5819.65 216.092  10
   1  13  -5 5695.65 228.804  14
  -1  13   5 6037.38 247.875  24
  -1  13   5 5898.83 221.801   7
   1  13  -5 5702.56 207.504  18
   1  13  -4 4901.86 188.452  18
   1  13  -4 4805.24 208.117  14
   1  13  -4 4829.03 197.626  27
  -1  13   4 4495.01 215.604  24
  -1  13   4 4788.96 196.904  10
  -1  13   4 4943.02 180.060  18
  -1  13   4 4789.10 171.827  14
  -1  13   4 4773.48 198.167   7
   1  13  -3 5557.67 202.968  27
   1  13  -3 5685.22 195.118  18
   1  13  -3 5341.38 213.034  14
  -1  13   3 5412.40 186.249  14
  -1  13   3 5583.59 229.077  24
  -1  13   3 5788.67 187.818  18
   1  13  -2 1633.65 113.374  18
   1  13  -2 1702.84 121.722  27
   1  13  -2 1599.80 126.931  14
  -1  13   2 1793.93 118.393  14
  -1  13   2 1667.62 105.502  18
   1  13  -1 4108.04 163.559  18
  -1  13   1 4117.35 151.868  18
   1  13  -1 3956.20 167.306  27
  -1  13   1 4249.82 173.824  14
   1  13  -1 3906.93 178.159  14
  -1  13   1 3716.89 172.288  24
  -1  13   0 2188.72 138.721  27
   1  13   0 2268.16 126.787  18
  -1  13   0 2125.06 134.664  24
  -1  13   0 2450.69 148.068  14
   1  13   0 2435.74 141.440  14
   1  13   0 2356.02 133.169  27
   1  13   1 1007.40 94.0519  18
   1  13   1 900.667 93.4930  14
   1  13   1 971.066 103.813  24
  -1  13  -1 1048.67 113.068  14
  -1  13  -1 971.568 109.881  27
  -1  13  -2 749.772 115.908  14
   1  13   2 558.714 92.4290  24
  -1  13  -2 637.212 99.7797  27
   1  13   2 709.716 88.4208  18
   1  13   2 648.429 86.7120  14
   1  13   3 1012.82 116.782   7
   1  13   3 1162.85 107.664  18
   1  13   3 1285.23 112.243  10
  -1  13  -3 1202.49 123.602  27
   1  13   3 1135.85 102.852  14
  -1  13  -3 1191.73 124.738  14
   1  13   3 975.591 118.486  24
  -1  13  -4 2522.35 159.348  27
   1  13   4 2518.12 145.256  10
   1  13   4 2443.77 161.044  24
   1  13   4 2446.52 145.894  18
   1  13   4 2392.89 136.323  14
  -1  13  -4 2466.50 171.425  14
   1  13   4 2495.23 161.221   7
  -1  14   3 1581.27 150.445  24
  -1  14   3 1402.51 111.734  14
   1  14  -3 1494.44 128.424  27
  -1  14   3 1453.73 107.402  18
   1  14  -3 1356.80 131.392  14
   1  14  -3 1459.85 113.835  18
  -1  14   2 5043.72 178.183  18
   1  14  -2 5510.23 205.973  27
   1  14  -2 5093.83 191.480  18
   1  14  -2 5560.73 223.793  14
  -1  14   2 5268.95 201.846  14
  -1  14   2 5248.60 225.081  24
  -1  14   1 747.844 114.481  24
  -1  14   1 986.000 107.441  14
   1  14  -1 960.891 109.677  27
   1  14  -1 906.941 112.782  14
   1  14  -1 947.414 97.3481  18
  -1  14   0 3440.24 175.009  14
   1  14   0 3388.60 158.034  18
  -1  14   0 3414.97 174.737  27
   1  14   0 3455.04 171.020  14
  -1  14   0 3017.24 162.404  24
  -1  14  -1 128.559 86.7280  27
  -1  14  -1 273.765 94.8400  14
   1  14   1 133.708 73.8152  14
   1  14   1 182.932 67.8968  18
   1  14   1 54.6984 72.8165  24
   1  14   2 5435.85 205.155  18
   1  14   2 5036.75 195.858  10
   1  14   2 5485.41 207.733  14
  -1  14  -2 5604.24 223.514  27
   1  14   2 4785.92 212.695  24
  -1  14  -2 5568.45 228.556  14
   2 -14  -3 12832.2 316.093   4
  -2 -14   3 10714.4 341.460  25
  -2 -14   3 12177.4 321.457   5
   2 -14  -3 12410.9 314.567  19
   2 -14  -3 11063.3 346.674  16
  -2 -14   3 11327.4 334.898  16
   2 -14  -3 12970.3 316.770  23
  -2 -14   3 12842.8 290.795   4
   2 -14  -2 5833.39 215.868   4
   2 -14  -2 5414.11 248.190  16
  -2 -14   2 5431.35 216.408   5
   2 -14  -2 5659.23 213.724  23
  -2 -14   2 5467.68 186.943   4
  -2 -14   2 5733.74 255.266  16
  -2 -14   2 5745.99 256.230  25
  -2 -14   1 3689.07 218.878  16
   2 -14  -1 4025.66 181.771   4
   2 -14  -1 3611.99 214.093  16
  -2 -14   1 3981.71 157.552   4
  -2 -14   1 3219.10 206.472  25
  -2 -14   1 3969.44 183.778   5
   2 -14  -1 3904.41 179.589  23
  -2 -14   0 2166.73 180.509  25
   2 -14   0 2654.74 150.564   4
  -2 -14   0 2764.91 210.377  16
  -2 -14   0 2716.43 130.377   4
  -2 -14   0 2768.20 153.367   5
   2 -14   0 2790.09 186.803  16
   2 -14   0 2774.54 158.278  23
   2 -14   1 5988.79 221.699   4
   2 -14   1 5902.69 223.676  23
  -2 -14  -1 5939.14 214.807   5
  -2 -14  -1 5126.82 259.691  16
   2 -14   1 5421.51 237.245  16
   2 -14   1 6000.38 225.183   6
  -2 -13   5 232.022 82.6971   5
  -2 -13   5 319.729 121.086  25
   2 -13  -5 320.780 138.984  19
  -2 -13   5 260.398 94.8713  16
   2 -13  -5 307.299 136.844  16
   2 -13  -5 206.626 71.7382   4
   2 -13  -5 235.501 82.4387  23
   2 -13  -4 4507.22 207.180  19
  -2 -13   4 4024.12 192.480  16
  -2 -13   4 4462.75 224.783  25
   2 -13  -4 4339.23 220.876  16
   2 -13  -4 4419.20 184.579  23
   2 -13  -4 4644.08 186.881   4
  -2 -13   4 4370.00 188.959   5
  -2 -13   4 4469.41 169.557   4
  -2 -13   3 622.760 92.9289   5
  -2 -13   3 777.079 129.306  16
   2 -13  -3 736.309 145.910  16
   2 -13  -3 565.005 103.788  19
  -2 -13   3 707.757 135.315  25
   2 -13  -3 742.384 101.674  23
   2 -13  -3 580.278 86.6667   4
  -2 -13   3 641.530 73.3307   4
   2 -13  -2 6272.53 212.980  23
  -2 -13   2 6086.43 239.402  16
   2 -13  -2 5810.88 197.546  19
   2 -13  -2 6371.03 257.838  16
   2 -13  -2 5860.96 204.482   4
  -2 -13   2 5945.95 184.233   4
  -2 -13   2 5901.04 212.247   5
  -2 -13   2 5957.24 244.374  25
   2 -13  -1 5404.64 194.942   4
  -2 -13   1 4645.24 231.770  25
  -2 -13   1 4922.68 230.661  16
   2 -13  -1 5467.14 201.496  23
  -2 -13   1 5125.73 169.340   4
   2 -13  -1 4934.71 221.616  16
  -2 -13   1 5191.95 196.485   5
  -2 -13   0 10370.1 267.799   5
   2 -13   0 10420.8 270.137   4
  -2 -13   0 10300.4 239.443  23
   2 -13   0 9918.40 298.615  16
   2 -13   0 10021.4 267.369  23
  -2 -13   0 10381.2 238.662   4
   2 -13   1 13105.7 309.927  23
  -2 -13  -1 13336.5 363.637  16
  -2 -13  -1 13099.8 270.207   4
   2 -13   1 13556.6 336.604  16
   2 -13   1 13121.0 312.457   6
  -2 -13  -1 13406.1 300.178   5
   2 -13   1 13085.9 307.050   4
   2 -13   2 5292.36 210.594  25
   2 -13   2 5604.62 212.160   6
   2 -13   2 5789.27 210.288   4
   2 -13   2 5696.76 228.675  16
  -2 -13  -2 5460.80 192.804   5
  -2 -13  -2 5914.54 260.393  16
   2 -13   2 5467.53 210.944  23
   2 -13   3 1027.37 112.854   6
   2 -13   3 885.029 111.292  25
  -2 -13  -3 901.424 157.755  16
   2 -13   3 1075.21 123.477  16
  -2 -13  -3 1058.97 93.2455   5
   2 -13   3 1050.82 108.391   4
  -2 -12   6 4574.31 230.323  25
  -2 -12   6 4994.50 199.656   5
   2 -12  -6 4796.68 222.395  16
   2 -12  -6 4897.98 232.454  19
   2 -12  -6 5100.90 194.010  23
   2 -12  -5 7832.14 267.862  19
  -2 -12   5 7928.65 241.255   5
  -2 -12   5 6936.18 268.290  25
  -2 -12   5 7326.36 223.459  16
   2 -12  -5 6811.33 254.018  16
   2 -12  -5 7884.82 232.428  23
   2 -12  -4 1409.26 137.673  19
  -2 -12   4 1470.29 115.271   5
   2 -12  -4 1591.98 113.167   4
  -2 -12   4 1656.68 163.166  25
   2 -12  -4 1693.58 157.051  16
  -2 -12   4 1551.12 139.007  16
  -2 -12   4 1370.48 95.8839   4
   2 -12  -4 1524.43 116.456  23
  -2 -12   3 10409.6 267.838   5
  -2 -12   3 10726.3 241.024   4
  -2 -12   3 9263.20 289.963  25
   2 -12  -3 10891.1 264.299   4
  -2 -12   3 9410.75 273.324  16
   2 -12  -3 9693.57 285.263  16
   2 -12  -3 10677.3 271.828  19
   2 -12  -3 10851.2 263.553  23
  -2 -12   2 4208.55 147.221   4
  -2 -12   2 3740.77 195.919  25
  -2 -12   2 3732.58 193.951  16
  -2 -12   2 4039.53 166.125   5
   2 -12  -2 4042.79 194.847  16
   2 -12  -2 4240.24 165.258   4
   2 -12  -2 4136.66 164.157  19
   2 -12  -2 4215.35 169.035  23
  -2 -12   1 9708.84 220.141   4
   2 -12  -1 9770.83 250.675  23
   2 -12  -1 9925.78 248.100   4
  -2 -12   1 9044.78 281.563  25
  -2 -12   1 9413.61 248.739   5
   2 -12  -1 9348.47 277.099  16
  -2 -12   1 9879.71 292.667  16
  -2 -12   1 9992.14 225.189  23
   2 -12   0 30430.8 453.315   4
  -2 -12   0 29795.6 500.835  16
  -2 -12   0 29930.1 448.058   5
  -2 -12   0 30643.1 407.981   4
   2 -12   0 30895.4 459.635  23
  -2 -12   0 30968.8 411.500  23
   2 -12   1 3128.12 148.470  23
   2 -12   1 3113.06 144.279   4
   2 -12   1 2962.51 163.026  16
  -2 -12  -1 2889.12 139.538   5
  -2 -12  -1 3320.39 206.396  16
  -2 -12  -1 3144.32 123.158   4
  -2 -12  -2 544.828 72.0593   5
   2 -12   2 563.374 79.8481   4
   2 -12   2 572.757 82.7594   6
   2 -12   2 627.394 97.1862  25
   2 -12   2 619.671 105.831  16
  -2 -12  -2 841.967 157.161  16
   2 -12   2 643.648 85.8775  23
  -2 -12  -2 694.005 64.1756   4
   2 -12   3 808.196 96.6333   6
   2 -12   3 639.701 103.104  16
  -2 -12  -3 743.398 156.970  16
   2 -12   3 760.214 89.9089   4
  -2 -12  -3 657.411 75.6062   5
   2 -12   3 690.568 102.401  25
   2 -12   4 505.229 86.1317   4
   2 -12   4 669.085 94.5046  16
   2 -12   4 488.770 95.5365  25
  -2 -12  -4 682.653 155.210  16
   2 -12   4 598.025 89.4939   6
   2 -12   5 2208.83 138.760  16
   2 -12   5 2338.78 148.367   6
  -2 -12  -5 1769.13 186.963  16
   2 -12   5 1914.95 153.080  25
   2 -11  -7 1379.38 114.988  23
   2 -11  -7 1576.33 180.827  19
  -2 -11   7 1319.49 111.436   5
   2 -11  -7 1448.74 151.314  16
  -2 -11   7 1467.02 106.278   9
  -2 -11   7 1355.04 151.937  25
   2 -11  -6 5723.94 243.151  19
  -2 -11   6 5933.66 204.684   5
  -2 -11   6 6214.84 261.867  25
   2 -11  -6 5628.03 232.248  16
   2 -11  -5 5535.00 216.188  19
  -2 -11   5 5634.09 193.564   5
  -2 -11   5 6029.61 241.671  25
   2 -11  -5 5531.99 186.788  23
   2 -11  -5 5656.31 216.282  16
  -2 -11   5 5474.82 186.832  16
   2 -11  -4 518.669 108.027  19
   2 -11  -4 538.628 112.485  16
   2 -11  -4 429.041 76.3099  23
  -2 -11   4 435.859 72.1084   5
  -2 -11   4 795.307 122.826  25
  -2 -11   4 544.574 91.1205  16
  -2 -11   4 404.106 57.0565   4
  -2 -11   3 6538.04 236.473  25
  -2 -11   3 7457.53 211.371   5
   2 -11  -3 7137.92 228.666  16
  -2 -11   3 6773.52 215.888  16
   2 -11  -3 7577.77 208.895   4
   2 -11  -3 7164.76 215.103  19
  -2 -11   3 7441.65 188.444   4
   2 -11  -3 7575.44 211.339  23
   2 -11  -2 18939.8 321.369  19
  -2 -11   2 19938.7 381.016  25
   2 -11  -2 18041.4 326.332  23
   2 -11  -2 19200.6 368.922  16
  -2 -11   2 18618.7 352.266  16
  -2 -11   2 17863.7 293.102   4
  -2 -11   2 17953.7 325.421   5
   2 -11  -2 17878.2 322.624   4
  -2 -11   1 1207.97 76.6031   4
   2 -11  -1 1199.99 88.9270   4
  -2 -11   1 1258.99 95.1678   5
   2 -11  -1 1289.38 124.252  16
  -2 -11   1 1236.14 81.3192  23
   2 -11  -1 1315.40 101.709  23
   2 -11   0 30519.5 465.762  16
   2 -11   0 30651.6 432.387   4
  -2 -11   0 30415.9 428.853   5
   2 -11   0 30718.0 437.414  23
  -2 -11   0 30641.1 489.850  16
  -2 -11   0 31048.6 390.123  23
  -2 -11   0 30951.0 388.550   4
   2 -11   1 676.295 75.0449   4
  -2 -11  -1 757.929 60.5119   4
  -2 -11  -1 684.550 76.1175   5
   2 -11   1 833.580 107.198  16
  -2 -11  -1 808.013 122.936  16
   2 -11   1 794.638 87.1213  25
   2 -11   1 774.368 85.6159  23
   2 -11   2 11834.6 271.151  23
   2 -11   2 11657.3 266.720   4
   2 -11   2 11755.7 271.498   6
   2 -11   2 12155.4 283.869  16
  -2 -11  -2 12033.2 252.360   5
   2 -11   2 11285.7 271.803  25
  -2 -11  -2 11210.3 301.849  16
  -2 -11  -2 11951.8 233.264   4
  -2 -11  -3 4157.54 207.660  16
   2 -11   3 4030.49 163.420   4
  -2 -11  -3 4177.14 148.508   5
   2 -11   3 4275.50 176.139  16
  -2 -11  -3 4173.62 140.987   4
   2 -11   3 3976.49 165.364   6
   2 -11   3 3818.39 174.915  25
   2 -11   4 1070.99 104.398  16
   2 -11   4 1308.05 106.963   6
   2 -11   4 1081.63 98.1010   4
   2 -11   4 1033.74 110.441  25
   2 -11   5 1447.35 115.401  16
   2 -11   5 1143.94 121.725  25
  -2 -11  -5 1100.81 149.033  16
   2 -11   5 1537.42 125.575   6
   2 -11   6 2471.53 148.215   6
  -2 -11  -6 2178.35 189.724  16
   2 -11   6 2238.21 124.538   9
   2 -11   6 2342.30 165.327  25
   2 -10  -8 2142.65 191.117  19
  -2 -10   8 2111.12 132.746   9
  -2 -10   8 2203.73 124.223   6
   2 -10  -8 1953.54 130.542  23
   2 -10  -7 6431.68 260.837  19
  -2 -10   7 5647.23 238.800  25
   2 -10  -7 6683.58 208.987  23
  -2 -10   7 6396.55 203.032   5
   2 -10  -7 5637.05 219.988  16
  -2 -10   7 6601.56 202.089   9
   2 -10  -6 14123.0 333.419  19
   2 -10  -6 14371.9 296.257  23
   2 -10  -6 13236.2 309.816  16
  -2 -10   6 14151.7 275.247   9
  -2 -10   6 13948.5 346.769  25
  -2 -10   6 14507.5 297.676   5
   2 -10  -5 13774.4 281.728  23
   2 -10  -5 14140.3 312.660  19
  -2 -10   5 13782.2 286.039   5
  -2 -10   5 13935.7 271.732  16
   2 -10  -5 13732.0 302.932  16
  -2 -10   5 13287.7 323.979  25
  -2 -10   4 3883.33 149.811   5
  -2 -10   4 3806.23 133.800   4
  -2 -10   4 3789.94 151.244  16
   2 -10  -4 3729.39 167.245  19
   2 -10  -4 3971.09 149.055  23
   2 -10  -4 3563.33 167.582  16
  -2 -10   3 2086.23 110.914   5
   2 -10  -3 1894.21 125.647  19
   2 -10  -3 1829.55 134.872  16
  -2 -10   3 2094.35 136.729  25
  -2 -10   3 2091.17 95.4513   4
  -2 -10   3 1947.86 121.357  16
   2 -10  -3 2051.26 110.470  23
  -2 -10   2 9910.20 225.290   5
   2 -10  -2 9680.62 247.935  16
  -2 -10   2 10007.2 201.036   4
  -2 -10   2 9926.48 250.404  16
   2 -10  -2 9812.54 224.970  23
   2 -10  -2 10025.3 225.093   4
   2 -10  -1 14274.1 268.597   4
   2 -10  -1 15588.6 637.146   3
  -2 -10   1 14605.3 272.343   5
   2 -10  -1 14662.4 275.455  23
   2 -10  -1 14488.4 302.096  16
  -2 -10   1 14624.8 304.850  16
  -2 -10   1 14424.9 240.175   4
  -2 -10   1 14847.4 246.688  23
  -2 -10   0 857.389 63.3400  23
   2 -10   0 882.030 79.5705  23
   2 -10   0 1067.81 200.765   3
  -2 -10   0 859.916 58.8539   4
  -2 -10   0 838.497 75.9231   5
   2 -10   0 707.108 98.4303  16
   2 -10   0 679.992 64.4627   4
   2 -10   1 5368.56 405.476   3
  -2 -10  -1 5082.38 138.419   4
   2 -10   1 5288.66 167.435  23
  -2 -10  -1 4773.06 191.611  16
  -2 -10  -1 5282.36 157.991   5
   2 -10   1 4959.27 182.182  16
   2 -10   1 5300.72 164.858   4
  -2 -10  -1 5276.04 140.456  23
  -2 -10  -2 7901.32 238.684  16
  -2 -10  -2 8023.82 192.153   5
   2 -10   2 7757.99 208.923  23
  -2 -10  -2 8110.57 180.547   4
   2 -10   2 8027.04 211.844   6
   2 -10   2 8156.24 216.900  25
   2 -10   2 8464.28 223.384  16
   2 -10   2 7736.74 204.457   4
   2 -10   3 12824.3 272.389   4
   2 -10   3 12971.4 278.491   6
   2 -10   3 13069.6 282.174  16
  -2 -10  -3 13018.3 245.588   5
   2 -10   4 1960.02 118.844   6
   2 -10   4 2274.53 135.623  25
   2 -10   4 1991.80 120.979  16
  -2 -10  -4 2062.66 154.086  16
   2 -10   4 1816.49 112.069   4
   2 -10   5 3373.50 155.288   6
   2 -10   5 2873.77 160.140  25
  -2 -10  -5 3027.12 187.503  16
   2 -10   5 3309.92 152.867  16
   2 -10   5 3262.23 135.273   9
   2 -10   6 639.902 100.866  25
  -2 -10  -6 548.060 129.456  16
   2 -10   6 382.344 81.7842   6
   2 -10   6 430.172 69.9451   9
  -2  -9   9 10115.0 279.136   9
   2  -9  -9 10172.7 278.121  23
   2  -9  -9 9589.33 321.272  19
   2  -9  -8 1847.12 169.025  19
  -2  -9   8 1715.47 153.872  25
  -2  -9   8 1619.88 102.167   6
  -2  -9   8 1596.05 118.769   9
   2  -9  -8 1720.93 121.546  23
  -2  -9   7 1452.26 106.623   9
  -2  -9   7 1445.88 97.7034   5
   2  -9  -7 1364.73 103.156  23
   2  -9  -7 1388.50 126.951  16
   2  -9  -7 1526.59 153.649  19
  -2  -9   7 1293.58 130.500  25
  -2  -9   6 12183.5 249.818   9
   2  -9  -6 12665.5 302.473  19
   2  -9  -6 12750.9 277.440  16
  -2  -9   6 12680.9 261.469   5
  -2  -9   6 12481.6 314.671  25
   2  -9  -6 12822.1 268.277  23
   2  -9  -5 10059.0 229.373  23
   2  -9  -5 10026.3 256.641  19
  -2  -9   5 10963.4 281.734  25
   2  -9  -5 10157.2 248.199  16
  -2  -9   5 10286.5 230.525   5
   2  -9  -4 15086.7 598.684  12
   2  -9  -4 15794.4 309.658  16
  -2  -9   4 15808.0 281.563   5
  -2  -9   4 16554.6 335.151  25
  -2  -9   4 15523.9 259.872   4
   2  -9  -4 16576.0 312.550  19
   2  -9  -4 15772.9 280.670  23
  -2  -9   3 6034.28 170.502   5
  -2  -9   3 6152.72 151.844   4
  -2  -9   3 6439.18 203.134  25
   2  -9  -3 6236.81 436.609  20
   2  -9  -3 6187.91 170.263  23
   2  -9  -3 5813.67 382.204  12
   2  -9  -2 9677.16 209.779  23
   2  -9  -2 10062.4 534.915  20
   2  -9  -2 10895.6 519.629   3
   2  -9  -2 9914.29 210.597   4
  -2  -9   2 9948.34 187.125   4
   2  -9  -1 13882.7 250.247   4
  -2  -9   1 14096.1 221.225   4
   2  -9  -1 13805.8 252.960  23
  -2  -9   1 14269.9 226.526  23
  -2  -9   0 714.820 49.8081   4
   2  -9   0 596.762 66.0792  23
   2  -9   0 656.225 165.914   3
   2  -9   0 658.691 60.2035   4
   2  -9   1 27781.3 867.707   3
   2  -9   1 26395.2 390.709  16
  -2  -9  -1 27221.4 322.957   4
   2  -9   1 26495.1 366.266   4
  -2  -9  -1 27324.7 410.222  16
   2  -9   1 26091.2 368.909  23
   2  -9   2 3297.79 130.558  23
   2  -9   2 3551.95 147.089  16
  -2  -9  -2 3516.96 159.106  16
   2  -9   2 3204.54 130.101   6
   2  -9   2 3321.86 128.123   4
   2  -9   3 4646.68 159.073   6
   2  -9   3 4507.64 159.316  16
   2  -9   3 4466.75 165.166  25
  -2  -9  -3 4704.03 185.415  16
   2  -9   3 4685.88 156.657   4
   2  -9   4 2532.91 141.897  25
   2  -9   4 2444.34 123.940   6
  -2  -9  -4 2491.18 151.590  16
   2  -9   4 2382.83 121.120  16
   2  -9   4 2334.59 103.838   9
   2  -9   4 2384.68 121.217   4
   2  -9   5 607.232 66.9739   9
   2  -9   5 502.314 71.0157  16
  -2  -9  -5 480.512 115.117  16
   2  -9   5 635.251 77.7448   6
   2  -9   5 407.158 80.9265  25
   2  -9   6 2311.89 131.012   6
  -2  -9  -6 2458.03 164.886  16
   2  -9   6 2417.25 152.865  25
   2  -9   6 2091.82 118.622   9
   2  -9   7 19861.1 374.811   9
   2  -9   7 20291.3 383.240   6
   2  -8  -9 7329.16 280.083  19
  -2  -8   9 7860.26 242.641   9
  -2  -8   9 7157.96 262.063  25
   2  -8  -9 8174.82 242.431  23
  -2  -8   8 2146.03 128.252   9
  -2  -8   8 2125.63 109.756   5
  -2  -8   8 2161.48 162.919  25
   2  -8  -8 2536.74 137.643  23
  -2  -8   8 2218.99 110.323   6
   2  -8  -8 2265.07 176.765  19
   2  -8  -7 8069.51 216.352  23
  -2  -8   7 8011.20 200.390   5
  -2  -8   7 7875.88 212.230   9
   2  -8  -7 7744.95 246.231  19
  -2  -8   7 6894.89 237.042  25
   2  -8  -7 7242.65 211.447  16
   2  -8  -6 6935.66 222.684  19
  -2  -8   6 7529.23 188.482   5
  -2  -8   6 7625.01 195.883   9
  -2  -8   6 7372.29 232.914  25
   2  -8  -6 7500.13 196.812  23
   2  -8  -5 25342.0 394.396  19
  -2  -8   5 24431.5 406.223  25
   2  -8  -4 16761.0 705.250  20
   2  -8  -4 16744.1 275.959  23
  -2  -8   4 16615.6 255.651   4
   2  -8  -4 15519.5 568.286  12
  -2  -8   3 24977.7 307.972   4
   2  -8  -3 25055.8 748.455  12
   2  -8  -3 25971.7 837.340  20
  -2  -8   3 24850.1 538.431  21
   2  -8  -3 25268.7 338.405  23
   2  -8  -2 16200.0 259.208  23
   2  -8  -2 16079.6 618.419  12
  -2  -8   2 14567.1 334.078  21
   2  -8  -2 16421.3 633.299  20
   2  -8  -1 7384.11 166.491   4
   2  -8  -1 6749.06 164.048  23
   2  -8  -1 6720.65 416.197  12
   2  -8   0 3009.70 107.115   4
   2  -8   0 2681.20 258.754   3
  -2  -8   0 2880.48 128.402  21
   2  -8   0 2815.77 108.824  23
   2  -8   1 13444.2 239.712  23
  -2  -8  -1 12863.2 344.972  21
   2  -8   1 13125.0 233.231   4
   2  -8   2 25583.6 350.312   4
   2  -8   2 26124.5 358.170  23
   2  -8   3 3085.62 124.215   6
   2  -8   3 2998.97 119.959   4
   2  -8   4 350.970 58.6868   4
   2  -8   4 421.329 62.3843   6
   2  -8   4 429.968 65.4204  16
  -2  -8  -4 332.068 89.5644  16
   2  -8   5 4591.51 162.844   6
   2  -8   5 4223.40 147.129   9
   2  -8   5 4019.22 171.427  25
   2  -8   6 5273.53 176.593   9
   2  -8   6 5192.56 180.633   6
   2  -8   6 5152.63 202.952  25
   2  -8   7 670.466 84.6267   6
  -2  -8  -7 775.919 124.590  16
   2  -8   7 615.931 85.8208   9
   2  -8   7 710.421 104.849  25
   2  -8   8 1132.08 102.708   6
   2  -8   8 1071.08 107.164   9
  -2  -8  -8 954.645 141.528  16
   2  -8   8 1016.42 128.628  25
   2  -7 -10 4474.41 224.381  19
  -2  -7  10 3700.65 199.614  25
  -2  -7  10 4097.10 192.900   9
   2  -7 -10 4341.35 190.191  23
   2  -7  -9 7956.52 283.188  19
  -2  -7   9 7829.44 238.390   9
   2  -7  -9 7909.58 233.332  23
   2  -7  -8 621.284 120.900  19
  -2  -7   8 471.065 99.7108  25
   2  -7  -8 799.125 91.1066  23
  -2  -7   8 754.162 88.2400   9
  -2  -7   7 16162.4 344.260  25
   2  -7  -7 16574.9 325.559  19
   2  -7  -7 16752.6 302.162  23
  -2  -7   6 5524.34 395.416  21
   2  -7  -6 5973.28 198.723  19
   2  -7  -6 6101.11 174.272  23
  -2  -7   5 13679.0 639.847   2
   2  -7  -5 13141.0 241.274  23
   2  -7  -5 13336.4 636.439  20
   2  -7  -5 12924.1 480.434  12
  -2  -7   4 527.328 120.010  21
  -2  -7   4 472.758 150.018   2
   2  -7  -4 505.302 134.590  20
   2  -7  -4 470.771 109.571  12
   2  -7  -4 567.701 59.6210  23
  -2  -7   3 5230.62 260.899  21
   2  -7  -3 5912.99 341.211  12
   2  -7  -3 5546.87 363.551  20
   2  -7  -3 5938.04 147.288  23
   2  -7  -2 6885.54 373.592  12
  -2  -7   2 7383.70 418.243  13
   2  -7  -2 6815.46 380.970  20
   2  -7  -2 7310.89 420.318  13
  -2  -7   2 6727.89 252.736  21
   2  -7  -2 7157.31 158.053  23
   2  -7  -1 18794.2 641.348  12
   2  -7  -1 19426.6 269.149  23
   2  -7  -1 20253.7 686.950  13
   2  -7  -1 19078.8 264.013   4
  -2  -7   1 19395.5 679.339  13
   2  -7   0 1061.51 169.559  12
   2  -7   0 1165.37 64.6687   4
   2  -7   0 1210.01 173.453   3
   2  -7   0 1156.88 71.9991  23
  -2  -7   0 998.518 163.061  13
   2  -7   1 93770.6 1515.47   3
  -2  -7  -1 92214.8 1506.47  13
   2  -7   1 90431.7 1571.39  12
  -2  -7  -1 92464.5 1077.04  21
   2  -7   1 90205.4 741.988  23
   2  -7   1 90107.2 737.563   4
   2  -7   1 91307.8 1492.56  13
   2  -7   2 22304.6 701.843  13
   2  -7   2 22960.1 310.561   4
  -2  -7  -2 22954.6 579.920  21
   2  -7   2 22957.7 314.416  23
  -2  -7  -2 22613.4 717.457  13
   2  -7   2 23127.0 757.680   3
  -2  -7  -2 23238.8 791.910  20
  -2  -7  -3 28446.4 745.134  21
  -2  -7  -3 27714.0 794.610  13
   2  -7   3 27715.0 361.031   4
  -2  -7  -3 28057.8 903.099  20
   2  -7   3 27205.1 774.454  13
   2  -7   4 20428.5 319.261   6
  -2  -7  -4 20251.2 344.249  16
   2  -7   4 20337.1 659.248  13
  -2  -7  -4 19472.8 670.944  13
   2  -7   4 20649.1 318.364   4
  -2  -7  -5 1560.04 265.353  21
   2  -7   5 1598.89 96.8251   6
   2  -7   5 1846.40 117.224  25
   2  -7   5 1709.68 96.1432   9
  -2  -7  -5 1731.27 113.643  16
   2  -7   6 2008.79 112.484   6
   2  -7   6 1877.34 109.486   9
  -2  -7  -6 2074.33 131.646  16
   2  -7   6 2157.32 136.690  25
   2  -7   7 5452.59 183.632   6
   2  -7   7 5728.78 219.424  25
   2  -7   7 5450.32 190.659   9
  -2  -7  -7 5575.59 210.418  16
   2  -7   8 1105.41 96.8003   6
  -2  -7  -8 1106.69 131.617  16
   2  -7   8 1055.82 119.413  25
   2  -7   8 1057.11 107.683   9
   2  -6 -10 6318.23 253.498  19
  -2  -6  10 5532.92 229.563  25
  -2  -6  10 6214.00 226.465   9
   2  -6 -10 6382.84 218.186  23
  -2  -6   9 1655.01 128.583  25
   2  -6  -9 1586.62 151.476  19
  -2  -6   9 1407.32 115.743   9
   2  -6  -9 1632.32 118.090  23
   2  -6  -8 4308.72 161.335  23
  -2  -6   8 4198.53 162.758   9
  -2  -6   8 4274.57 181.878  25
   2  -6  -8 4069.08 187.682  19
  -2  -6   7 1561.17 98.9419   9
   2  -6  -7 1645.97 98.3688  23
   2  -6  -7 1537.77 124.429  19
   2  -6  -6 4481.82 269.684  12
   2  -6  -6 4183.81 138.182  23
   2  -6  -5 21926.8 775.840  20
   2  -6  -5 21605.3 305.370  23
  -2  -6   5 22151.9 785.963   2
   2  -6  -5 21982.3 603.440  12
  -2  -6   5 22573.2 742.004  13
   2  -6  -4 8776.41 382.580  12
  -2  -6   4 7889.29 372.455  21
  -2  -6   4 8934.20 467.759   2
   2  -6  -4 8702.48 181.673  23
  -2  -6   4 9043.33 456.045  13
   2  -6  -4 8646.88 456.096  13
   2  -6  -4 8477.41 446.383  20
   2  -6  -3 3810.19 252.355  12
  -2  -6   3 3088.11 212.594  21
  -2  -6   3 3734.44 288.921  13
   2  -6  -3 4215.09 309.492  13
   2  -6  -3 3809.64 280.215  20
  -2  -6   3 3757.98 285.886   2
   2  -6  -2 35655.5 813.256  20
   2  -6  -2 34806.8 791.224  12
   2  -6  -2 35531.4 870.908  13
  -2  -6   2 33785.8 800.579   2
  -2  -6   2 35014.5 862.832  13
  -2  -6   2 33952.9 603.804  21
   2  -6  -1 9829.87 427.026  12
   2  -6  -1 10029.0 403.487  20
   2  -6  -1 11480.8 453.665   3
   2  -6  -1 10271.4 452.697  13
  -2  -6   1 10191.2 449.797  13
   2  -6   0 14265.2 537.986  12
  -2  -6   0 14228.0 525.863  13
   2  -6   0 15296.8 528.591   3
   2  -6   0 14041.4 518.302  13
  -2  -6  -1 19704.6 614.838  13
   2  -6   1 19206.0 601.431  13
   2  -6   1 19508.4 636.858   3
   2  -6   1 19136.0 654.771  12
  -2  -6  -2 30138.3 673.196  21
  -2  -6  -2 30809.0 850.830  20
   2  -6   2 29758.1 343.646   4
   2  -6   2 29410.1 744.556  13
   2  -6   2 30696.8 869.020  12
   2  -6   2 29826.1 825.883   3
  -2  -6  -2 29573.8 758.380  13
   2  -6   2 29612.9 344.573  23
  -2  -6  -3 7029.85 424.802  20
  -2  -6  -3 6429.02 353.436  13
  -2  -6  -3 7126.02 379.223  21
   2  -6   3 6810.11 160.009   4
   2  -6   3 6741.66 347.721  13
  -2  -6  -4 48070.3 1092.69  21
  -2  -6  -4 53857.9 1253.12  20
   2  -6   4 51334.7 978.014  13
   2  -6   4 51301.0 527.302   4
  -2  -6  -4 50210.2 1001.84  13
   2  -6   5 3334.64 125.840   9
   2  -6   5 3388.73 126.517   6
  -2  -6  -5 3619.01 148.377  16
   2  -6   5 3285.19 144.815  25
   2  -6   6 6284.13 186.532   9
   2  -6   6 6160.60 207.187  25
   2  -6   6 6434.97 183.411   6
   2  -6   7 1044.61 103.033  25
   2  -6   7 1149.38 90.0170   6
   2  -6   7 1075.20 94.4100   9
  -2  -6  -7 1317.87 115.302  16
   2  -6   8 1411.27 101.090   6
   2  -6   8 1376.76 115.767   9
   2  -6   8 1110.71 126.142  25
  -2  -6  -8 1172.31 120.636  16
   2  -5 -10 2147.19 156.016  19
  -2  -5  10 2475.55 152.914   9
  -2  -5  10 2232.55 150.889  25
   2  -5 -10 2386.28 144.101  23
  -2  -5   9 5027.98 187.551   9
   2  -5  -9 5505.06 208.841  19
  -2  -5   9 5000.94 195.870  25
  -2  -5   9 5610.29 178.506   8
   2  -5  -9 5197.36 186.509  23
  -2  -5   8 1236.47 82.2841   8
   2  -5  -8 1208.07 95.6589  23
   2  -5  -8 1388.77 118.909  19
  -2  -5   8 1222.19 98.8041   9
  -2  -5   8 1263.50 106.548  25
  -2  -5   7 19130.4 280.157  22
   2  -5  -7 18918.7 326.850  19
   2  -5  -7 19336.3 312.551  23
  -2  -5   7 19203.6 316.265   9
  -2  -5   6 8874.34 512.657  21
   2  -5  -6 8572.52 501.187  20
   2  -5  -6 9147.98 379.204  12
  -2  -5   6 8604.75 452.601  13
   2  -5  -6 8803.95 468.809  13
   2  -5  -6 9133.85 196.060  23
  -2  -5   6 8499.10 500.440   2
   2  -5  -5 6473.12 387.570  13
   2  -5  -5 6629.91 154.090  23
  -2  -5   5 5555.36 353.353  21
  -2  -5   5 6890.65 416.764   2
   2  -5  -5 6215.24 392.792  20
   2  -5  -5 6646.34 314.601  12
  -2  -5   5 6212.37 372.762  13
   2  -5  -4 17999.0 619.183  20
  -2  -5   4 16961.1 596.049  13
   2  -5  -4 17925.6 615.133  13
  -2  -5   4 17886.9 627.749   2
   2  -5  -4 17524.0 507.773  12
  -2  -5   3 107735. 1521.58  13
   2  -5  -3 106307. 1358.84  12
  -2  -5   3 107322. 1506.94   2
   2  -5  -3 107973. 1531.76  13
   2  -5  -3 107095. 1486.27  20
   2  -5  -2 31519.9 704.463  12
  -2  -5   2 31581.0 716.390   2
   2  -5  -2 31151.6 702.564  20
   2  -5  -2 31475.3 761.867  13
  -2  -5   2 31704.1 759.001  13
   2  -5  -1 33814.9 767.262  13
  -2  -5   1 34213.5 675.752   2
   2  -5  -1 33716.8 756.494   3
  -2  -5   1 33684.3 766.357  13
   2  -5  -1 33762.4 678.749  20
   2  -5  -1 33570.2 748.443  12
   2  -5   0 17931.4 561.940  12
   2  -5   0 17124.4 530.815  13
  -2  -5   0 17750.6 541.166  13
   2  -5   0 18590.1 550.400   3
   2  -5   1 2677.66 233.320   3
   2  -5   1 2955.46 243.003  12
  -2  -5  -1 3187.63 224.977  13
  -2  -5  -1 2735.49 86.1169   3
  -2  -5  -2 17837.9 513.342  21
  -2  -5  -2 18269.0 602.063  20
  -2  -5  -2 18565.3 537.377  13
   2  -5   2 17868.5 616.466  12
   2  -5   2 18196.6 524.516  13
   2  -5   2 18774.6 623.747   3
  -2  -5  -3 15123.7 538.878  21
  -2  -5  -3 15068.0 579.923  20
   2  -5   3 14519.3 226.395   4
   2  -5   3 14660.8 462.177  13
  -2  -5  -3 14516.4 472.735  13
  -2  -5  -4 2335.59 249.587  20
   2  -5   4 2520.19 191.175  13
  -2  -5  -4 2132.40 262.383  21
  -2  -5  -4 2089.27 184.267  13
  -2  -5  -5 9585.38 540.182  21
  -2  -5  -5 9834.13 532.153  20
   2  -5   6 646.883 62.9718   6
   2  -5   6 581.779 71.3953   9
   2  -5   6 578.328 82.0268  25
   2  -5   7 4469.43 152.317   6
   2  -5   7 4414.26 166.581   9
   2  -5   7 4316.35 184.742  25
   2  -5   7 4139.66 150.420  26
   2  -5   8 1603.61 111.970  26
   2  -5   8 1639.84 119.136   9
  -2  -5  -8 1812.85 126.597  16
   2  -5   8 1671.03 104.199   6
   2  -5   9 3287.89 173.209   9
  -2  -5  -9 3272.25 173.925  16
   2  -5   9 3399.40 170.123  26
   2  -5   9 3249.99 148.101   6
  -2  -4  11 1682.75 125.801   8
   2  -4 -11 1765.75 155.397  19
   2  -4 -11 1776.43 144.366  23
  -2  -4  11 1820.21 139.411  25
  -2  -4  11 1704.58 138.200   9
  -2  -4  10 3138.38 146.881   8
   2  -4 -10 3229.03 175.287  19
  -2  -4  10 3158.85 158.695   9
  -2  -4  10 3443.88 168.670  25
   2  -4 -10 3198.19 163.856  23
   2  -4  -9 4146.01 172.168  19
   2  -4  -9 3909.48 160.599  23
  -2  -4   9 3992.26 162.895   9
  -2  -4   9 4056.50 151.885   8
  -2  -4   9 3802.68 168.580  25
  -2  -4   8 3007.14 136.820   9
   2  -4  -8 3344.78 140.528  23
  -2  -4   8 3313.32 126.320   8
  -2  -4   8 3258.16 146.866  25
   2  -4  -7 1086.39 142.851  12
  -2  -4   7 1285.07 184.865  13
   2  -4  -7 1368.56 94.5741  23
  -2  -4   7 1177.60 217.379   2
  -2  -4   7 1135.42 75.5497  22
  -2  -4   6 4820.81 367.944  21
   2  -4  -6 4575.08 136.601  23
  -2  -4   6 4598.07 348.707   2
   2  -4  -6 4438.08 262.320  12
  -2  -4   6 4750.20 347.580   1
   2  -4  -6 4379.97 347.174  20
  -2  -4   6 4310.17 308.478  13
   2  -4  -5 7374.90 325.101  12
  -2  -4   5 7726.65 422.206  21
  -2  -4   5 7600.96 391.575   1
  -2  -4   5 7703.01 417.641   2
   2  -4  -5 7725.55 415.585  20
  -2  -4   5 7533.87 386.491  13
  -2  -4   4 85.1462 79.6051   2
  -2  -4   4-10.3090 63.0544   1
  -2  -4   4 189.645 73.2907  13
   2  -4  -4 117.177 61.0335  12
   2  -4  -4 85.9702 62.6752  20
  -2  -4   4 37.8327 94.4232  21
  -2  -4   3 108893. 1335.65  21
   2  -4  -3 111575. 1335.27  12
  -2  -4   3 113128. 1475.86   2
   2  -4  -3 109195. 1431.23  20
   2  -4  -3 111406. 1483.84  13
  -2  -4   3 112968. 1469.54  13
  -2  -4   2 80338.7 1110.03   2
   2  -4  -2 78951.0 1074.29  20
   2  -4  -2 77872.2 1154.54  13
  -2  -4   2 80435.1 1165.26  13
   2  -4  -2 77059.7 1084.20  12
   2  -4  -1 29111.6 645.325  12
   2  -4  -1 29306.6 563.175  20
   2  -4  -1 30110.9 661.377  13
  -2  -4   1 30134.4 578.301   2
  -2  -4   1 29545.1 658.971  13
  -2  -4   0 26900.1 611.301  13
  -2  -4   0 28031.6 484.569   2
   2  -4   0 26603.6 642.721  12
   2  -4   0 28739.5 653.531   3
   2  -4   0 27245.7 612.888  13
  -2  -4  -1 32458.6 404.766   3
   2  -4   1 32180.1 739.165  12
   2  -4   1 33898.0 762.690   3
  -2  -4  -1 33053.7 725.034  20
   2  -4   1 33156.9 656.035  13
  -2  -4  -1 32614.0 659.804  13
  -2  -4  -2 117826. 1474.27  21
  -2  -4  -2 123216. 1571.87  20
   2  -4   2 119641. 1343.24  13
   2  -4   2 119818. 1624.83   3
  -2  -4  -2 121008. 1372.27  13
   2  -4   2 122050. 1612.23  12
  -2  -4  -3 3123.10 192.869  13
  -2  -4  -3 3223.12 191.494   1
  -2  -4  -3 3235.01 255.896  20
   2  -4   3 2960.73 183.492  13
  -2  -4  -4 12206.3 431.760   1
  -2  -4  -4 11084.4 515.119  21
   2  -4   4 12043.8 358.683  13
  -2  -4  -4 12367.8 523.868  20
  -2  -4  -4 11618.2 371.770  13
  -2  -4  -5 2069.89 240.003  20
  -2  -4  -5 2375.97 280.005  21
  -2  -4  -5 2092.31 209.623   1
  -2  -4  -6 7431.22 428.207   1
  -2  -4  -6 7146.35 466.761  20
   2  -4   6 7673.09 196.946   9
   2  -4   7 180.475 61.8669   9
   2  -4   7 283.266 63.0522  26
   2  -4   7 197.324 47.2025   6
   2  -4   8 1086.33 85.4259   6
   2  -4   8 967.394 97.2702   9
   2  -4   8 1105.83 101.269  26
   2  -4   9 268.286 91.5477  26
   2  -4   9 214.279 86.2089   9
   2  -3 -11 4207.84 193.920  19
   2  -3 -11 4447.27 196.775  23
  -2  -3  11 4345.75 191.977  25
  -2  -3  11 4246.54 183.522   8
  -2  -3  11 4279.12 191.621   9
  -2  -3  10 12434.0 294.602   9
   2  -3 -10 12080.3 286.950  19
  -2  -3  10 12350.8 282.641   8
   2  -3 -10 11930.2 293.444  23
   2  -3  -9 7942.46 218.984  19
  -2  -3   9 7652.53 216.944   9
  -2  -3   9 7640.43 205.952   8
  -2  -3   9 7392.78 219.591  25
   2  -3  -9 7542.36 217.532  23
  -2  -3   8 3175.41 136.266  25
   2  -3  -8 3280.31 140.210  23
  -2  -3   8 3181.09 123.496   8
  -2  -3   7 3420.72 119.862  22
  -2  -3   7 3481.20 318.738   2
   2  -3  -7 3288.39 125.953  23
   2  -3  -7 3484.34 249.913  12
   2  -3  -7 3751.71 343.827  20
   2  -3  -6 38101.8 789.371  12
  -2  -3   6 38055.0 960.786   1
  -2  -3   6 37983.6 987.557  21
  -2  -3   6 36561.3 866.635  13
   2  -3  -6 36843.1 409.432  23
  -2  -3   6 36870.2 946.253   2
   2  -3  -6 39204.4 999.743  20
   2  -3  -5 26510.5 618.933  12
  -2  -3   5 24438.1 726.852  21
   2  -3  -5 26222.3 744.358  20
  -2  -3   5 27055.9 744.760   2
  -2  -3   5 27169.6 731.097   1
  -2  -3   5 25803.6 688.160  13
  -2  -3   4 10875.0 445.721  21
   2  -3  -4 9661.49 407.688  20
   2  -3  -4 9657.11 352.303  12
  -2  -3   4 9868.98 416.256   2
  -2  -3   4 9948.05 398.002  13
  -2  -3   4 9990.50 389.266   1
  -2  -3   3 20331.7 549.255  21
  -2  -3   3 19256.4 526.475  13
   2  -3  -3 18897.6 509.899  20
  -2  -3   3 19611.4 470.119   1
  -2  -3   3 19008.4 527.262   2
   2  -3  -3 18902.6 477.339  12
  -2  -3   2 20590.2 515.999  13
  -2  -3   2 21254.9 497.524   2
   2  -3  -2 21135.3 495.558  12
  -2  -3   2 20849.8 397.530   1
   2  -3  -2 20665.7 472.793  20
   2  -3  -1 72451.8 984.684  12
   2  -3  -1 74009.6 843.316  20
   2  -3  -1 72395.8 989.764  13
  -2  -3   1 72764.3 881.315   2
  -2  -3   1 73547.8 989.137  13
   2  -3   0 140430. 1507.49  12
  -2  -3   0 139871. 1416.35  13
   2  -3   0 140593. 1520.60   3
  -2  -3   0 140829. 1184.49   2
   2  -3   0 136981. 1411.27  13
  -2  -3  -1 180900. 1274.65   1
  -2  -3  -1 180533. 1776.52  20
   2  -3   1 184561. 1899.68   3
   2  -3   1 182457. 1627.49  13
  -2  -3  -1 173134. 1213.18   2
  -2  -3  -1 182788. 1645.04  13
  -2  -3  -1 188767. 1413.83   3
   2  -3   1 179841. 1849.32  12
   2  -3   2 106570. 1109.30  13
   2  -3   2 107725. 1400.73  12
  -2  -3  -2 109367. 1361.45  20
   2  -3   2 108301. 1461.39   3
  -2  -3  -2 107016. 1136.16  13
  -2  -3  -2 106579. 1063.71   1
  -2  -3  -3 26101.4 703.175  21
  -2  -3  -3 25593.9 660.772  20
  -2  -3  -3 25058.0 477.843  13
   2  -3   3 25900.1 461.613  13
  -2  -3  -3 24807.7 549.436   1
  -2  -3  -4 16279.4 627.160  21
  -2  -3  -4 18141.1 537.648   1
  -2  -3  -4 18014.0 598.889  20
  -2  -3  -4 18097.3 389.626  13
   2  -3   4 17878.6 360.992  13
  -2  -3  -5 2632.19 254.425  20
  -2  -3  -5 2653.21 236.969   1
  -2  -3  -5 2075.05 283.594  21
  -2  -3  -6 10205.7 532.662  20
  -2  -3  -6 9813.02 496.050   1
   2  -3   6 10345.0 225.730   9
   2  -3   7 330.333 63.9918   9
   2  -3   7 319.294 50.4593   6
   2  -3   7 422.392 71.5156  26
   2  -3   8 24.3511 40.8253   6
   2  -3   8-37.9939 58.4792   9
   2  -3   8-13.7390 71.4939  26
   2  -3   9 1094.47 114.440   9
   2  -3   9 1172.71 121.463  26
  -2  -2  11 5592.24 203.166  26
   2  -2 -11 5937.26 227.715  23
  -2  -2  11 5790.24 216.671   9
  -2  -2  11 5697.94 210.789   8
  -2  -2  10 489.992 76.5718   8
  -2  -2  10 497.353 81.2160  25
  -2  -2  10 559.661 87.7160   9
  -2  -2  10 673.471 90.0674  26
   2  -2  -9 2361.50 123.034  19
  -2  -2   9 2489.60 124.988  26
  -2  -2   9 2455.25 126.222   9
  -2  -2   9 2491.08 119.981   8
  -2  -2   9 2270.47 121.120  25
   2  -2  -8 2211.38 234.253   2
  -2  -2   8 2038.22 259.079   2
  -2  -2   8 1943.52 109.205   9
  -2  -2   8 2355.13 107.046   8
   2  -2  -8 2351.15 243.268  13
   2  -2  -7 4416.06 388.535  21
  -2  -2   7 3975.48 133.624  22
   2  -2  -7 3610.50 332.900  20
   2  -2  -7 4159.35 279.038  12
   2  -2  -7 3862.89 285.572   2
  -2  -2   7 4023.34 330.430   2
  -2  -2   6 34533.7 903.503   1
  -2  -2   6 36635.2 906.836   2
   2  -2  -6 36509.6 826.736   2
   2  -2  -6 37059.3 788.954  12
  -2  -2   6 34055.6 932.968  21
   2  -2  -6 33496.8 942.821  21
   2  -2  -6 37413.5 965.206  20
   2  -2  -5 92841.9 1433.66  20
  -2  -2   5 92931.8 1384.91   2
  -2  -2   5 93672.2 1391.59   1
   2  -2  -5 93877.7 1236.15  12
   2  -2  -4 8275.65 363.745  20
  -2  -2   4 8850.62 358.150   1
  -2  -2   4 8498.54 349.582  13
  -2  -2   4 8270.47 362.901   2
   2  -2  -4 9462.48 345.311  12
   2  -2  -3 70807.6 1002.32  20
  -2  -2   3 71454.3 942.128   1
  -2  -2   3 72568.4 1018.13  13
  -2  -2   3 69842.2 1012.28   2
   2  -2  -3 71716.6 958.996  12
   2  -2  -2 30825.9 539.334  20
   2  -2  -2 31704.5 581.335  12
  -2  -2   2 31271.5 487.475   1
  -2  -2   2 31346.2 581.601   2
  -2  -2   2 31461.7 599.041  13
  -2  -2   1 142239. 1041.33   1
   2  -2  -1 140764. 1167.11  20
  -2  -2   1 142805. 1373.40  13
  -2  -2   1 142048. 1281.78   2
   2  -2  -1 140004. 1389.22  12
   2  -2   0 491468. 3499.35  12
   2  -2   0 492559. 3543.19   3
  -2  -2   0 498599. 3127.83   2
  -2  -2   0 490516. 3353.08  13
  -2  -2  -1 146826. 1153.78   1
   2  -2   1 149165. 1504.61  12
  -2  -2  -1 150962. 1282.25   3
  -2  -2  -1 144785. 1399.39  20
  -2  -2  -1 147910. 1276.18  13
   2  -2   1 147470. 1262.58  13
   2  -2   1 142452. 1556.39   3
  -2  -2  -1 140103. 1000.72   2
  -2  -2  -2 62596.1 798.408   1
   2  -2   2 63060.5 950.614  12
  -2  -2  -2 63197.8 696.999  13
  -2  -2  -2 65156.8 881.270   3
   2  -2   2 64089.6 675.073  13
  -2  -2  -2 62858.1 908.854  20
  -2  -2  -3 9093.23 416.515  21
  -2  -2  -3 9188.24 337.591   1
   2  -2   3 8800.41 195.207  13
  -2  -2  -3 9295.18 218.710  13
  -2  -2  -3 9781.54 371.176  20
  -2  -2  -4 3837.71 316.761  21
  -2  -2  -4 4248.68 277.758  20
  -2  -2  -4 4021.29 136.045   2
  -2  -2  -4 4314.90 267.663   1
  -2  -2  -4 4129.04 130.538  13
  -2  -2  -5 30699.1 473.272   2
  -2  -2  -5 32196.7 843.130  20
  -2  -2  -5 26583.6 370.517  12
  -2  -2  -5 28136.8 908.911  21
  -2  -2  -5 32516.7 824.784   1
  -2  -2  -6 7495.45 441.690  20
   2  -2   6 7470.21 186.888   9
  -2  -2  -6 7315.46 434.836   1
   2  -2   7 3577.61 144.302  26
   2  -2   7 3525.53 141.836   9
   2  -2   8 3698.41 161.742  26
   2  -2   8 3685.40 135.767   6
   2  -2   8 3664.89 158.342   9
   2  -2   9 12832.8 309.432   9
   2  -2   9 13057.0 316.587  26
  -2  -1  11 5272.73 200.793   9
  -2  -1  11 4683.00 193.243   8
  -2  -1  11 5078.44 201.091  26
  -2  -1  10 4843.13 180.900  26
  -2  -1  10 4733.52 170.154  10
  -2  -1  10 4725.33 179.824   9
  -2  -1  10 4636.38 174.186   8
  -2  -1   9 2173.69 115.834   8
  -2  -1   9 2093.07 109.259  10
  -2  -1   9 2259.38 119.898   9
  -2  -1   9 2373.15 119.911  25
  -2  -1   9 2200.09 120.930  26
  -2  -1   8 67831.7 652.424   8
  -2  -1   8 68855.7 1400.18   2
  -2  -1   8 66519.3 656.543   9
   2  -1  -8 68342.5 1288.92  13
   2  -1  -7 5516.55 432.647  21
   2  -1  -7 4858.12 327.753   2
  -2  -1   7 4923.17 344.274   2
   2  -1  -7 5218.99 331.431  13
   2  -1  -7 5229.50 389.654  20
   2  -1  -7 5244.12 380.892   1
  -2  -1   6 10486.1 520.944  21
  -2  -1   6 10229.1 477.013   1
   2  -1  -6 11030.9 549.003  21
   2  -1  -6 10679.5 447.621   2
  -2  -1   6 11047.9 473.340   2
   2  -1  -6 10143.9 437.314  13
   2  -1  -6 10438.7 489.122   1
   2  -1  -6 10035.0 495.279  20
  -2  -1   5 15490.2 583.710  21
   2  -1  -5 16459.7 512.929   2
   2  -1  -5 15930.7 563.075  20
  -2  -1   5 16142.5 542.403   1
   2  -1  -5 16061.7 549.473   1
  -2  -1   5 15980.0 525.213   2
  -2  -1   4 15231.9 541.162  21
   2  -1  -4 15542.5 512.992  20
  -2  -1   4 16737.6 491.158   1
  -2  -1   4 16964.4 495.255   2
   2  -1  -4 17427.7 487.274   2
  -2  -1   3 99313.2 1237.23  21
  -2  -1   3 95762.4 1170.23   2
  -2  -1   3 97575.7 1131.21   1
   2  -1  -3 96426.9 1154.91   2
  -2  -1   2 45849.6 689.169   2
  -2  -1   2 47000.4 630.711   1
   2  -1  -2 46511.1 649.372  20
   2  -1  -2 46420.5 697.582  12
  -2  -1   2 46253.4 705.804  13
   2  -1  -1 35472.2 438.846  20
   2  -1  -1 36297.8 576.826  12
  -2  -1   1 36102.7 561.392  13
   2  -1   0 432155. 2998.74  12
  -2  -1   0 439623. 2772.63   2
  -2  -1   0 431260. 2849.62  13
  -2  -1  -1 277.680 70.8505   3
   2  -1   1 423.287 76.4459  12
  -2  -1  -1 469.664 66.4335  20
  -2  -1  -1 470.733 59.0794  12
   2  -1   1 391.717 86.2055   3
  -2  -1  -1 466.720 54.9118  13
  -2  -1  -2 140277. 1441.47   3
  -2  -1  -2 138011. 1310.76  20
  -2  -1  -2 137186. 1089.14  12
  -2  -1  -2 135749. 1335.51   1
   2  -1   2 123342. 879.848  13
   2  -1   2 136710. 1355.35  12
  -2  -1  -2 118938. 915.813  13
  -2  -1  -3 1247.65 135.356   1
  -2  -1  -3 1356.69 131.742  20
  -2  -1  -3 1448.36 161.302   3
  -2  -1  -3 1353.42 91.0381   2
  -2  -1  -3 1538.79 97.7213  12
  -2  -1  -4 66299.4 1291.46  21
  -2  -1  -4 68242.7 1141.41   1
  -2  -1  -4 67512.6 1084.66  20
  -2  -1  -4 68583.1 817.018   2
  -2  -1  -4 70301.4 815.281  12
  -2  -1  -5 8635.76 518.257  21
  -2  -1  -5 8882.69 441.082   1
  -2  -1  -5 9391.35 431.194  20
  -2  -1  -5 9202.86 291.544  12
  -2  -1  -5 8928.79 304.310   2
  -2  -1  -6 363.223 126.158  20
  -2  -1  -6 408.674 124.617   1
   2  -1   6 292.661 54.1659   9
  -2  -1  -7 2412.37 279.170  20
   2  -1   7 2685.00 123.031   9
   2  -1   7 2677.84 133.310  26
   2  -1   8 1277.04 119.924  26
   2  -1   8 1184.41 99.9005   9
   2  -1   9 4997.69 206.526  26
   2  -1   9 5098.79 194.897   9
  -2   0  11 18.0455 97.7333  26
  -2   0  11 17.2506 69.6687   8
  -2   0  11-21.6256 64.0157  10
  -2   0  11-6.86171 70.3774   9
  -2   0  10 1868.19 125.603  26
  -2   0  10 1996.93 115.849  10
  -2   0  10 1979.14 121.552   9
  -2   0  10 2046.29 124.281   8
  -2   0   9 1572.71 103.186   9
  -2   0   9 1469.61 98.7708   8
  -2   0   9 1848.19 124.939  26
  -2   0   9 1517.05 96.3998  10
  -2   0   8 47275.1 1111.51   2
   2   0  -8 46298.3 1034.85  13
  -2   0   8 45945.2 511.353   8
   2   0  -7 129258. 1976.44   1
   2   0  -7 126913. 1993.71  20
   2   0  -7 125624. 1795.76   2
  -2   0   7 127697. 1791.67   2
   2   0  -7 124677. 1717.83  13
  -2   0   6 3841.54 297.327   1
   2   0  -6 3483.33 261.751   2
   2   0  -6 3623.10 289.643   1
  -2   0   6 3534.67 263.406   2
   2   0  -6 3662.65 298.373  20
   2   0  -6 3469.55 254.955  13
  -2   0   6 3482.72 308.974  21
  -2   0   5 9437.57 449.317  21
   2   0  -5 8774.79 411.152  20
   2   0  -5 8579.32 398.816   1
  -2   0   5 8048.98 385.218   1
   2   0  -5 8788.92 375.592   2
  -2   0   5 8413.10 370.848   2
   2   0  -5 8477.79 366.368  13
  -2   0   4 56065.7 937.054   1
   2   0  -4 57606.3 925.098   2
   2   0  -4 56933.0 951.642   1
  -2   0   4 55708.2 1017.83  21
   2   0  -4 57424.0 918.322  13
  -2   0   4 57528.8 923.525   2
  -2   0   3 160611. 1658.69  21
   2   0  -3 155562. 1574.58  13
  -2   0   3 155535. 1554.53   1
  -2   0   3 157162. 1564.01   2
   2   0  -3 156488. 1567.90   2
   2   0  -2 162940. 1514.66   2
  -2   0   2 166143. 1506.93   2
  -2   0   2 165032. 1456.13   1
  -2   0   1 309269. 2271.01   2
   2   0  -1 307801. 2299.54  12
   2   0   0 208394. 1634.88  12
  -2   0   0 206246. 1639.55  12
   2   0   0 207277. 1363.62  20
   2   0   0 211473. 1561.24  13
   2   0   1 155028. 1470.09   3
   2   0   1 157695. 1334.42  12
   2   0   1 155148. 1157.20  20
  -2   0  -1 156303. 1331.13  12
  -2   0  -1 155545. 1163.88  20
   2   0   1 157140. 1122.01  13
  -2   0  -2 21170.5 412.793  12
   2   0   2 20689.1 393.448  20
  -2   0  -2 20677.1 395.651  20
   2   0   2 21074.3 411.376  12
  -2   0  -2 20539.4 487.864   1
  -2   0  -3 780.788 89.4787  12
  -2   0  -3 579.477 124.723  21
  -2   0  -3 640.587 86.3476  20
  -2   0  -3 535.823 114.701   3
  -2   0  -3 550.105 99.7285   1
   2   0   3 556.925 83.2198  20
  -2   0  -3 922.735 97.2115   2
  -2   0  -4 9046.42 317.433  12
  -2   0  -4 9252.48 462.885  21
  -2   0  -4 9187.96 363.391  20
  -2   0  -4 9388.65 441.311   3
  -2   0  -4 8813.28 310.231   2
  -2   0  -4 8861.27 405.773   1
  -2   0  -5 19673.2 671.835   1
  -2   0  -5 18819.2 737.885  21
  -2   0  -5 19999.2 609.918  20
  -2   0  -5 19508.8 512.198   2
  -2   0  -5 19981.9 512.976  12
  -2   0  -6 22757.0 730.331  20
   2   0   6 21681.5 319.506  10
  -2   0  -6 21747.0 777.128   1
   2   0   6 21882.6 323.671   7
  -2   0  -7 11190.1 558.981  20
   2   0   7 11521.0 249.834   7
   2   0   7 11619.9 246.613  10
   2   0   7 11242.5 244.797   9
   2   0   7 11544.8 261.204  26
   2   0   8 4932.70 174.696   9
   2   0   8 4542.51 184.331  26
   2   0   9 16405.3 344.386   9
   2   0   9 16045.4 361.544  26
  -2   1  11 4946.77 191.715  10
  -2   1  11 5216.76 193.646   9
  -2   1  11 4954.94 196.282   8
  -2   1  11 5023.75 210.421  26
  -2   1  10 4675.70 174.783   8
  -2   1  10 4607.66 172.220  10
  -2   1  10 4702.63 190.331  26
  -2   1  10 4908.43 173.905   9
  -2   1   9 1949.56 107.401  10
  -2   1   9 2251.37 114.640   9
  -2   1   9 2210.21 127.015  26
  -2   1   9 2060.18 260.023   2
  -2   1   9 2106.91 115.110   8
  -2   1   8 66559.0 639.615  10
  -2   1   8 67598.6 655.757   8
  -2   1   8 69662.1 1331.59   2
   2   1  -8 69774.2 1287.68  13
   2   1  -7 4795.34 384.395  20
   2   1  -7 4823.83 341.781   2
  -2   1   7 4853.85 325.888   2
   2   1  -7 5138.91 322.907  13
   2   1  -7 5309.66 384.209   1
  -2   1   6 10321.1 482.528   1
   2   1  -6 10545.7 491.730   1
   2   1  -6 10890.5 552.476  21
  -2   1   6 10296.0 434.568   2
  -2   1   6 11196.3 207.628  22
  -2   1   6 10360.8 518.431  21
   2   1  -6 11140.9 516.208  20
   2   1  -6 10520.6 463.439   2
   2   1  -6 10361.6 438.303  13
  -2   1   5 16225.6 593.028  21
  -2   1   5 16567.5 554.599   1
  -2   1   5 16885.0 514.867   2
   2   1  -5 16218.8 550.720   1
   2   1  -5 16515.5 536.964   2
   2   1  -5 16471.2 511.923  13
   2   1  -4 16448.3 490.885   2
  -2   1   4 16484.8 472.625   2
  -2   1   4 17270.5 558.233  21
   2   1  -4 16700.1 494.447   1
  -2   1   4 17078.9 504.638   1
   2   1  -4 16684.2 483.147  13
   2   1  -3 97917.8 1135.53   1
  -2   1   3 96127.5 1144.79   2
   2   1  -3 94437.6 1161.31   2
  -2   1   3 96720.3 1173.46   1
   2   1  -3 94923.0 1170.22  13
   2   1  -2 46237.3 695.095   2
  -2   1   2 46218.8 698.645   2
   2   1  -2 45861.3 708.541  13
  -2   1   1 35220.1 580.409  12
   2   1  -1 35735.8 536.837   2
   2   1  -1 36219.4 562.549  13
   2   1   0 435855. 2881.76  12
   2   1   0 428326. 2833.33  20
   2   1   0 430532. 2882.67  13
   2   1   1 680.553 60.9329  13
  -2   1  -1 667.739 85.9784  12
   2   1   1 422.187 63.2815  20
  -2   1  -1 357.760 81.4967   3
   2   1   1 398.773 54.7769  12
   2   1   2 136071. 1312.88  20
   2   1   2 139114. 1116.16  12
  -2   1  -2 137478. 1385.59  12
  -2   1  -2 138600. 1583.05   3
  -2   1  -2 135870. 1150.56  20
  -2   1  -3 1507.56 135.992  12
  -2   1  -3 1288.03 163.812   3
   2   1   3 1300.77 129.087  20
  -2   1  -3 1209.04 148.363   1
  -2   1  -3 1282.57 126.015   2
   2   1   4 67609.1 1089.74  20
  -2   1  -4 69160.5 1038.14  12
  -2   1  -4 64624.0 1282.73  21
  -2   1  -4 68428.4 1021.74  20
  -2   1  -4 67659.8 1019.50   2
  -2   1  -4 66827.2 1199.08   1
  -2   1  -5 8838.32 523.126  21
  -2   1  -5 8801.43 376.661   2
  -2   1  -5 9402.25 389.442  12
  -2   1  -5 8916.32 461.457   1
  -2   1  -5 8905.09 396.243  20
  -2   1  -6 347.600 95.0729  12
  -2   1  -6 289.392 102.194  20
  -2   1  -6 401.893 135.191   1
   2   1   6 391.587 59.8336  10
  -2   1  -6 342.534 113.214   2
   2   1   6 297.212 69.6722  26
   2   1   6 324.333 55.2137   7
   2   1   7 2635.55 124.871   7
  -2   1  -7 2532.36 270.472  20
   2   1   7 2680.33 119.770   9
   2   1   7 2585.42 117.673   8
   2   1   7 2816.47 142.308  26
   2   1   7 2799.17 125.403  10
   2   1   8 1125.17 99.4471  10
   2   1   8 1183.72 97.8814   9
   2   1   8 1279.50 120.427  26
   2   1   8 1167.82 103.563   7
   2   1   9 4699.31 208.358  26
   2   1   9 4993.34 188.604   9
   2   1   9 4982.08 193.325  10
  -2   2  11 5816.72 229.993  26
  -2   2  11 5835.06 213.171   8
  -2   2  11 5849.77 208.665  10
  -2   2  11 5952.41 201.324   9
  -2   2  10 552.354 72.2893   7
  -2   2  10 493.471 76.6206  10
  -2   2  10 452.879 79.6579   8
  -2   2  10 592.044 77.1205   9
  -2   2  10 485.587 101.991  26
  -2   2   9 2453.97 121.066  10
  -2   2   9 2567.58 118.485   9
  -2   2   9 2397.88 123.007   8
  -2   2   9 2448.54 140.675  26
  -2   2   9 2507.17 112.705   7
  -2   2   8 2324.91 110.696   8
  -2   2   8 2304.22 106.362  10
  -2   2   8 2525.88 109.815  24
   2   2  -8 2343.01 238.458  13
  -2   2   8 2494.15 252.335   2
  -2   2   8 2309.44 122.042  26
   2   2  -7 4050.60 339.461   1
  -2   2   7 3792.72 286.143   2
   2   2  -7 3782.73 337.181  20
   2   2  -7 3731.78 283.765  13
   2   2  -6 37443.8 1001.40  21
  -2   2   6 34394.7 944.403  21
   2   2  -6 36073.7 928.160   1
  -2   2   6 37403.2 826.105   2
  -2   2   6 36779.4 923.274   1
   2   2  -6 36483.3 847.627  13
   2   2  -6 36822.9 911.363   2
  -2   2   5 94121.9 1428.35  20
  -2   2   5 89869.2 1453.58  21
   2   2  -5 92659.0 1398.78   1
   2   2  -5 92374.9 1392.85   2
   2   2  -5 93549.8 1328.87  13
  -2   2   5 91812.1 1398.82   1
  -2   2   5 93304.4 1291.06   2
  -2   2   4 8220.77 331.720   2
   2   2  -4 8623.61 354.866   1
  -2   2   4 8553.43 375.823  20
  -2   2   4 8466.05 365.515   1
   2   2  -4 8546.13 354.145  13
   2   2  -4 8442.60 363.386   2
  -2   2   4 8896.60 444.335  21
  -2   2   3 67693.7 1020.03  21
  -2   2   3 72511.7 1005.85  20
   2   2  -3 68754.8 928.378   1
   2   2  -3 72140.7 1025.88   2
   2   2  -3 70754.1 1012.45  13
  -2   2   3 72687.5 990.765   2
  -2   2   2 31691.4 550.902  20
  -2   2   2 30727.3 583.887  12
   2   2  -2 31338.3 489.577   1
   2   2  -2 31496.1 604.207  13
   2   2  -2 31225.5 583.205   2
  -2   2   1 140167. 1407.56  12
  -2   2   1 142208. 1168.63  20
   2   2  -1 140457. 1285.22   2
   2   2  -1 143056. 1383.88  13
  -2   2   0 490915. 2985.74  20
   2   2   0 498443. 3401.94  20
  -2   2   0 492873. 3533.28  12
   2   2   0 504629. 3083.74   3
   2   2   0 484612. 3164.28   2
   2   2   0 496618. 3380.02  13
   2   2   1 148304. 1131.22  12
  -2   2  -1 147547. 1515.22  12
   2   2   1 146942. 1407.95  20
  -2   2  -1 148460. 1588.90   3
   2   2   1 148311. 1286.58  13
  -2   2  -2 63451.9 953.192  12
  -2   2  -2 63039.6 702.902  20
   2   2   2 62958.1 893.253  20
   2   2   2 63526.1 691.317  13
  -2   2  -2 65098.9 1055.44   3
  -2   2  -3 8587.73 414.821  21
  -2   2  -3 9476.56 366.408   2
  -2   2  -3 9143.32 366.780  12
  -2   2  -3 9392.50 428.999   3
   2   2   3 9299.18 363.365  20
  -2   2  -3 9512.16 304.290  20
  -2   2  -3 8794.84 396.986   1
  -2   2  -4 4073.63 264.657  12
  -2   2  -4 3725.96 305.651  21
   2   2   4 4114.77 274.809  20
  -2   2  -4 4117.60 329.657   3
  -2   2  -4 4450.81 272.091   2
  -2   2  -4 4440.72 249.075  20
  -2   2  -4 4341.39 310.459   1
  -2   2  -5 31452.1 762.572  20
  -2   2  -5 32505.8 802.435  12
  -2   2  -5 28886.2 920.842  21
   2   2   5 31606.7 832.084  20
  -2   2  -5 32118.9 786.016   2
  -2   2  -5 31660.3 904.947   1
  -2   2  -6 7581.42 407.255  20
  -2   2  -6 7083.20 400.048  12
   2   2   6 6898.92 415.739  20
   2   2   6 7373.31 181.520  10
   2   2   6 7467.76 198.905  26
  -2   2  -6 7095.71 395.197   2
   2   2   6 7562.13 188.128   7
   2   2   7 3318.88 138.508   7
   2   2   7 3424.23 137.688  10
   2   2   7 3402.46 160.742  26
   2   2   7 3333.33 131.997   9
   2   2   7 3467.05 133.715   8
   2   2   8 3828.06 157.396  10
   2   2   8 3760.68 177.825  26
   2   2   8 3822.63 151.304   9
   2   2   8 3672.64 150.045   8
   2   2   8 3698.69 160.122   7
   2   2   9 12850.4 304.003  10
   2   2   9 13353.2 315.662   7
   2   2   9 13211.0 300.561   9
   2   2   9 12917.2 330.779  26
  -2   3  11 4523.22 217.081  26
  -2   3  11 4207.68 184.264  10
  -2   3  11 4337.15 170.503   9
  -2   3  11 4316.77 186.990   8
  -2   3  11 4306.54 172.405   7
  -2   3  10 12054.6 303.129  26
  -2   3  10 11869.7 282.614   8
  -2   3  10 12192.1 282.540  10
  -2   3  10 12697.0 267.857   9
  -2   3  10 12441.4 269.181   7
  -2   3   9 7599.35 195.046   7
  -2   3   9 7469.56 210.924  24
  -2   3   9 7663.94 207.976  10
  -2   3   9 8010.85 196.030   9
  -2   3   9 7743.54 210.608   8
  -2   3   9 7478.95 225.240  26
  -2   3   8 3126.29 142.803  26
  -2   3   8 3137.61 124.682  10
  -2   3   8 3254.49 277.817   2
   2   3  -8 3217.40 284.936  13
  -2   3   8 3146.71 126.899   8
  -2   3   8 3076.97 127.552  24
  -2   3   7 3603.56 126.682  24
   2   3  -7 3426.55 279.371  13
   2   3  -7 3290.90 355.670  21
   2   3  -7 3652.80 328.325   1
  -2   3   7 3646.59 277.117   2
  -2   3   6 37361.3 827.239   2
  -2   3   6 36149.4 968.209  21
  -2   3   6 36973.8 935.032   1
  -2   3   6 38792.1 999.523  20
   2   3  -6 38724.1 968.956   1
   2   3  -6 37666.2 957.793   2
   2   3  -6 37269.0 885.576  13
   2   3  -5 26439.3 741.799   2
  -2   3   5 26752.7 652.907   2
  -2   3   5 25720.8 753.078  20
  -2   3   5 27515.5 743.773   1
   2   3  -5 26816.9 702.313  13
   2   3  -5 27137.6 724.294   1
  -2   3   4 9548.86 412.952  20
  -2   3   4 10047.1 408.637   1
  -2   3   4 9692.56 371.000   2
   2   3  -4 10108.6 416.829   2
   2   3  -4 9909.65 400.653  13
   2   3  -4 9978.52 385.413   1
  -2   3   3 18978.7 543.922  21
  -2   3   3 19017.1 519.864  20
   2   3  -3 19043.4 528.215   2
   2   3  -3 19303.6 531.859  13
   2   3  -3 19114.0 462.139   1
  -2   3   3 19298.7 492.750  12
  -2   3   2 20491.8 502.515  12
  -2   3   2 21016.3 477.352  20
   2   3  -2 20399.7 521.398  13
   2   3  -2 20353.4 491.609   2
   2   3  -2 20884.1 393.535   1
   2   3  -1 72045.2 614.236   1
   2   3  -1 72478.4 880.757   2
   2   3  -1 73124.6 990.899  13
  -2   3   1 74827.9 844.423  20
  -2   3   1 73462.0 1001.97  12
   2   3   0 139831. 1183.26   2
   2   3   0 139122. 1450.47  20
   2   3   0 138502. 1422.00  13
  -2   3   0 142005. 1172.92  20
  -2   3   0 140778. 1520.90  12
  -2   3  -1 184227. 1840.22  12
   2   3   1 183679. 1751.60  20
  -2   3  -1 182316. 1373.73  20
  -2   3  -1 185995. 1885.88   3
   2   3   1 182441. 1619.38  13
   2   3   2 106168. 1137.81  13
  -2   3  -2 106970. 1403.12  12
   2   3   2 110157. 1356.29  20
  -2   3  -2 109495. 1480.52   3
  -2   3  -3 25185.3 668.256  12
  -2   3  -3 25199.8 704.695  21
  -2   3  -3 25941.4 742.290   3
   2   3   3 25710.6 657.869  20
   2   3   3 25203.5 485.640  13
  -2   3  -3 25043.3 656.540   2
  -2   3  -3 25858.7 469.618  13
  -2   3  -4 18179.7 650.733   1
  -2   3  -4 17683.7 596.910  12
  -2   3  -4 16517.4 654.529  21
  -2   3  -4 19034.4 699.000   3
  -2   3  -4 18244.8 513.207  20
  -2   3  -4 17757.6 586.452   2
  -2   3  -4 18345.4 374.100  13
   2   3   4 17601.9 591.578  20
  -2   3  -5 2728.85 256.912  12
  -2   3  -5 3198.56 247.392  20
  -2   3  -5 2546.42 312.226  21
  -2   3  -5 2847.95 263.658   2
  -2   3  -5 2449.93 281.213   1
   2   3   5 2481.47 246.121  20
  -2   3  -6 10509.8 491.724  20
  -2   3  -6 10277.5 513.806  12
   2   3   6 11002.4 225.695  10
   2   3   6 10551.1 241.921  26
   2   3   6 10823.5 230.482   7
   2   3   7 314.984 60.1246  10
   2   3   7 266.528 87.4747  26
   2   3   7 276.771 55.6332   9
   2   3   7 275.202 61.2747   7
   2   3   7 333.815 56.4355   8
   2   3   7 360.057 61.4922  17
   2   3   8 47.0489 91.7719  26
   2   3   8 17.7703 62.3963   7
   2   3   8 89.0603 61.4837  10
   2   3   8 99.9655 54.1565   9
   2   3   8 108.548 54.2174   8
   2   3   9 1140.81 117.587  10
   2   3   9 1088.49 99.4092   9
   2   3   9 1101.62 133.683  26
   2   3   9 1026.45 101.025   8
   2   3   9 974.282 113.348   7
  -2   4  11 1726.43 131.387   8
  -2   4  11 1911.59 168.304  26
  -2   4  11 1739.42 119.898   7
  -2   4  11 1529.71 126.593  10
  -2   4  10 3099.81 150.880  10
  -2   4  10 3139.96 152.408   8
  -2   4  10 3106.26 179.864  26
  -2   4  10 3079.75 138.553   7
  -2   4   9 3735.26 156.071  24
  -2   4   9 4127.48 159.583  10
  -2   4   9 3964.15 154.248   8
  -2   4   9 4004.92 183.669  26
  -2   4   9 3902.10 143.826   7
  -2   4   8 3417.82 132.126   8
  -2   4   8 3163.12 119.116   7
  -2   4   8 3160.71 128.474  10
  -2   4   8 3496.39 154.358  26
  -2   4   8 3161.06 139.161  24
   2   4  -8 3468.22 305.623  13
  -2   4   7 931.596 88.7242  26
  -2   4   7 960.117 87.4290  24
   2   4  -7 1159.58 179.478  13
  -2   4   7 1195.49 175.925   2
  -2   4   6 4483.90 344.782  21
   2   4  -6 4105.71 320.354   1
  -2   4   6 4141.28 278.717   2
  -2   4   6 4739.23 147.471  24
   2   4  -6 4637.81 318.931  13
  -2   4   6 4487.23 331.654   1
  -2   4   5 7413.29 417.787  21
  -2   4   5 7366.01 344.726   2
  -2   4   5 7703.75 397.869   1
   2   4  -5 8009.26 426.115   2
   2   4  -5 7700.86 393.801  13
   2   4  -5 7016.35 373.217   1
   2   4  -4 142.927 68.0080   1
  -2   4   4 62.8758 86.3903  21
   2   4  -4 199.008 84.4459  13
  -2   4   4 74.8251 71.4164  20
  -2   4   4 92.4072 71.0047   1
   2   4  -4 44.5499 71.9088   2
  -2   4   4 231.540 75.7427   2
  -2   4   3 114043. 1370.67  12
  -2   4   3 114423. 1458.13  20
   2   4  -3 114998. 1467.36   2
  -2   4   3 110963. 1386.05  21
   2   4  -3 111875. 1284.94   1
   2   4  -3 112608. 1481.86  13
   2   4  -2 80059.8 1099.19   2
  -2   4   2 79881.8 1083.87  20
   2   4  -2 80078.1 885.419   1
   2   4  -2 78550.9 1165.68  13
  -2   4   2 81708.0 1113.13  12
  -2   4   1 30273.7 570.838  20
   2   4  -1 28724.3 357.202   1
   2   4  -1 28716.5 564.234   2
   2   4  -1 30250.2 663.977  13
  -2   4   1 29407.9 653.723  12
  -2   4   0 28388.3 663.542  12
   2   4   0 28071.9 621.867  13
   2   4   0 28289.7 643.990  20
   2   4   0 27540.2 473.388   2
  -2   4   0 28077.1 508.664  20
   2   4   1 33166.7 721.993  20
  -2   4  -1 33781.0 760.448  12
  -2   4  -1 32634.7 753.849   3
   2   4   1 32082.8 657.263  13
  -2   4  -1 33978.3 666.163  13
  -2   4  -1 32864.7 546.140  20
   2   4   1 33494.3 416.255   2
  -2   4  -2 121739. 1617.54  12
  -2   4  -2 122121. 1512.24  21
   2   4   2 122994. 1563.66  20
   2   4   2 120646. 1377.35  13
  -2   4  -2 123182. 1368.66  13
   2   4   2 122291. 1122.77   1
  -2   4  -2 121212. 1642.52   3
  -2   4  -3 3360.95 265.142  12
   2   4   3 2869.85 188.127  13
  -2   4  -3 3162.87 254.667   2
   2   4   3 2991.00 246.194  20
  -2   4  -3 2994.33 186.990  13
   2   4   3 2926.61 178.043   1
  -2   4  -3 3276.36 280.665   3
  -2   4  -4 12798.5 537.255  12
  -2   4  -4 12364.7 369.795  13
  -2   4  -4 11909.2 514.326   2
   2   4   4 12164.6 521.146  20
   2   4   4 12007.4 425.156   1
  -2   4  -4 11883.9 549.476   1
  -2   4  -4 10597.3 520.883  21
  -2   4  -5 2041.25 208.012  20
   2   4   5 2153.25 89.3520  14
  -2   4  -5 1906.95 226.854  12
  -2   4  -6 7775.01 477.636  12
   2   4   6 7939.12 192.495  10
   2   4   6 7699.30 210.292  26
   2   4   6 7556.00 197.722   7
   2   4   7 168.035 58.2995   7
   2   4   7 223.611 60.5753  10
   2   4   7 244.760 89.7070  26
   2   4   7 294.486 54.2167   8
   2   4   7 201.868 50.8352   9
   2   4   8 1090.07 98.2948  10
   2   4   8 976.342 94.3908  17
   2   4   8 1082.19 86.3925   9
   2   4   8 1146.35 91.5950   8
   2   4   8 1182.00 105.376   7
   2   4   8 1100.56 121.155  26
   2   4   9 126.727 80.8771  10
   2   4   9 349.290 90.3848   7
   2   4   9 210.706 64.3117   9
   2   4   9 179.992 112.972  26
   2   4   9 225.416 72.2024   8
  -2   5  10 2277.48 136.738  10
  -2   5  10 2388.62 168.524  26
  -2   5  10 2310.27 127.481   7
  -2   5  10 2342.52 136.401   8
  -2   5   9 5370.30 181.693   8
  -2   5   9 5329.22 184.144  10
  -2   5   9 5328.22 211.148  26
  -2   5   9 5269.59 169.158   7
  -2   5   9 4940.77 188.615  24
  -2   5   8 1112.18 88.9828  10
  -2   5   8 1188.81 121.781  26
  -2   5   8 1174.16 85.6019   8
  -2   5   8 972.096 94.8086  24
  -2   5   8 1254.41 82.6387   7
  -2   5   7 18527.4 614.096   2
  -2   5   7 18892.7 304.388  10
  -2   5   7 20182.0 330.784  24
  -2   5   7 19648.8 335.775  26
   2   5  -7 18934.9 267.671  14
  -2   5   7 19566.0 304.780   8
   2   5  -7 19891.5 718.443  13
  -2   5   6 8503.24 482.323  21
   2   5  -6 9072.76 466.700  13
  -2   5   6 9966.96 224.488  24
   2   5  -6 9495.20 492.379   1
  -2   5   6 8605.91 398.893   2
  -2   5   5 6642.61 393.073  21
  -2   5   5 6472.61 376.896   1
  -2   5   5 6652.75 403.028  20
  -2   5   5 6922.41 168.956  24
  -2   5   5 6805.31 342.808   2
   2   5  -5 6312.85 365.150   1
   2   5  -5 6924.47 393.811  13
  -2   5   4 17957.8 525.640  12
   2   5  -4 18444.4 628.331   2
  -2   5   4 17939.6 555.671  21
  -2   5   4 18257.5 617.220  20
   2   5  -4 18249.8 554.565   1
   2   5  -4 18156.8 614.457  13
   2   5  -3 107652. 1292.23   1
  -2   5   3 110283. 1506.11  20
   2   5  -3 106352. 1503.01   2
  -2   5   3 109951. 1398.88  12
   2   5  -3 108581. 1540.04  13
  -2   5   3 106758. 1316.49  21
   2   5  -2 31454.8 544.239   1
  -2   5   2 32945.5 719.148  12
   2   5  -2 32599.2 500.444   3
  -2   5   2 31489.3 706.010  20
   2   5  -2 31188.9 764.464  13
   2   5  -2 32009.1 711.574   2
   2   5  -1 33056.2 436.733   1
  -2   5   1 34020.8 753.334  12
  -2   5   1 33361.8 675.097  20
   2   5  -1 32737.3 654.320   2
   2   5  -1 33368.4 766.210  13
  -2   5   0 17807.5 561.347  12
   2   5   0 17971.1 418.999   2
   2   5   0 17875.2 544.111  13
  -2   5   0 17909.1 460.922  20
   2   5   0 18311.5 566.051  20
   2   5   1 3134.89 242.392  20
  -2   5  -1 2961.52 243.769  12
   2   5   1 3348.94 164.180  12
   2   5   1 3149.72 140.379   2
  -2   5  -1 2788.25 179.232  20
  -2   5  -1 2547.52 232.142   3
  -2   5  -1 2893.03 215.979  13
   2   5   1 2529.40 85.6644   1
   2   5   1 3712.48 241.424  13
   2   5   2 17227.4 274.047  12
  -2   5  -2 18480.8 624.155  12
  -2   5  -2 17558.0 528.634  21
   2   5   2 17758.8 593.916  20
   2   5   2 18643.6 540.014  13
  -2   5  -2 18833.4 534.861  13
  -2   5  -2 19153.8 635.077   3
   2   5   2 17513.0 345.657   1
  -2   5  -3 14096.0 574.205  12
  -2   5  -3 14368.1 537.818  21
   2   5   3 14727.9 566.736  20
  -2   5  -3 14816.7 581.201   2
   2   5   3 14891.3 394.159   1
  -2   5  -3 14766.8 469.165  13
   2   5   3 14694.9 480.211  13
  -2   5  -3 15154.8 610.749   3
  -2   5  -4 2184.20 246.847  12
  -2   5  -4 2206.34 275.737  21
   2   5   4 1829.58 224.927  20
   2   5   4 1871.43 84.2985  14
   2   5   4 2167.62 176.236   1
  -2   5  -4 2024.09 250.467   1
  -2   5  -4 2155.46 180.112  13
   2   5   5 10413.8 198.871  14
  -2   5  -5 10387.8 546.531  12
  -2   5  -5 9094.72 542.171  21
   2   5   5 10002.8 432.144   1
   2   5   5 10137.7 217.940  18
   2   5   5 10044.0 217.536   7
   2   5   6 691.739 91.5963  26
   2   5   6 642.678 70.7165  10
   2   5   6 620.548 77.3317  17
   2   5   6 592.786 74.2982   7
   2   5   7 4507.62 163.370  10
   2   5   7 4401.61 163.945  17
   2   5   7 4331.45 147.244   8
   2   5   7 4164.01 175.289  26
   2   5   7 4363.44 167.336   7
   2   5   8 1673.68 142.077  26
   2   5   8 1729.23 120.164  10
   2   5   8 1659.82 119.305   7
   2   5   8 1639.32 117.557  17
   2   5   8 1636.58 104.454   8
   2   5   9 3312.28 154.388   8
   2   5   9 3378.42 170.617  10
   2   5   9 3397.40 194.543  26
   2   5   9 3395.87 175.752   7
  -2   6  10 6309.34 219.239  10
  -2   6  10 6566.40 216.349   8
  -2   6  10 6434.56 251.609  26
  -2   6  10 6397.26 204.129   7
  -2   6   9 1615.96 124.822  24
  -2   6   9 1535.96 107.860   8
  -2   6   9 1485.86 113.763  10
  -2   6   9 1219.79 134.385  26
  -2   6   9 1524.70 102.083   7
  -2   6   8 4334.61 160.104  10
  -2   6   8 4377.95 148.803   7
  -2   6   8 4351.26 156.402   8
  -2   6   8 4335.82 187.314  26
  -2   6   8 4141.66 169.733  24
  -2   6   7 1407.36 96.0131  10
  -2   6   7 1380.77 88.1386   8
   2   6  -7 1392.81 82.0574  14
  -2   6   7 1323.15 114.286  26
  -2   6   7 1286.04 105.765  24
   2   6  -7 1346.26 213.238  13
  -2   6   6 3521.89 308.765  21
  -2   6   6 3857.30 157.720  24
   2   6  -6 4013.06 330.844   1
   2   6  -6 4136.03 125.607  14
   2   6  -6 4371.31 345.077  13
  -2   6   6 4005.42 281.983   2
  -2   6   5 22107.1 718.831   1
  -2   6   5 21606.5 636.371   2
   2   6  -5 21960.4 698.303   1
  -2   6   5 21912.1 329.805  24
   2   6  -5 21748.5 289.163  14
   2   6  -5 22593.6 760.744  13
   2   6  -4 8928.80 401.046   1
   2   6  -4 8526.52 448.592  13
  -2   6   4 8057.53 388.710  21
  -2   6   4 8277.08 375.126  12
   2   6  -4 8789.21 458.704   2
  -2   6   4 9307.26 480.997  20
   2   6  -3 4065.84 221.364   3
   2   6  -3 3964.68 235.244   1
  -2   6   3 4044.32 264.476  12
   2   6  -3 3904.53 290.172   2
  -2   6   3 3593.17 278.414  20
   2   6  -3 3567.06 283.187  13
  -2   6   3 4524.11 258.555  21
  -2   6   2 36113.5 805.521  12
   2   6  -2 35078.4 615.422   1
   2   6  -2 35417.6 797.382   2
   2   6  -2 35493.6 874.316  13
  -2   6   2 32728.6 594.969  21
   2   6  -2 36387.2 549.640   3
  -2   6   2 35436.7 816.063  20
  -2   6   1 10615.6 445.551  12
   2   6  -1 9960.01 446.648  13
  -2   6   1 10308.5 406.942  20
   2   6  -1 9898.71 255.740   1
   2   6  -1 10592.9 468.204  20
   2   6  -1 10023.6 383.644   2
  -2   6   0 14959.9 553.629  12
   2   6   0 15455.9 455.560  12
  -2   6   0 14883.8 468.483  20
   2   6   0 14890.1 551.382  20
   2   6   0 14789.0 419.836   2
  -2   6   0 14959.5 538.203  13
   2   6   0 15003.4 539.543  13
   2   6   1 20012.5 423.679   2
  -2   6  -1 19839.4 664.455  12
   2   6   1 20029.6 458.129  12
   2   6   1 19836.4 649.206  20
  -2   6  -1 19066.9 603.711  13
   2   6   1 19944.6 615.608  13
  -2   6  -1 19252.6 529.579  20
   2   6   2 30264.2 459.868  12
  -2   6  -2 29403.5 853.371  12
  -2   6  -2 29062.9 692.032  21
   2   6   2 29514.1 824.892  20
  -2   6  -2 31532.5 857.790   3
  -2   6  -2 29045.1 670.235  20
   2   6   2 30046.0 759.523  13
   2   6   2 29183.0 413.395   2
  -2   6  -2 29888.6 752.962  13
   2   6   2 29571.6 458.724   1
   2   6   3 6600.25 255.763   1
  -2   6  -3 6884.11 432.017  12
  -2   6  -3 7561.74 397.260  21
   2   6   3 6889.21 417.382  20
   2   6   3 6642.90 156.240  14
  -2   6  -3 7136.96 362.730  13
   2   6   3 7155.97 366.891  13
   2   6   3 7838.32 187.852  24
  -2   6  -4 53348.6 1009.76  13
  -2   6  -4 53383.6 1269.60  12
   2   6   4 51685.6 507.514  14
   2   6   4 52959.5 893.837   1
   2   6   5 3462.66 134.718  18
   2   6   5 3324.40 124.524  10
   2   6   5 3540.82 139.350  17
   2   6   5 3380.97 138.234  26
   2   6   5 3088.21 116.587  14
   2   6   5 3500.01 136.121   7
   2   6   6 6448.30 168.233  14
   2   6   6 6540.64 184.134  10
   2   6   6 6268.48 191.267   7
   2   6   6 6353.02 193.522  17
   2   6   6 6432.64 191.930  18
   2   6   6 6415.63 203.874  26
   2   6   7 1166.73 107.155  17
   2   6   7 1096.69 96.2315  10
   2   6   7 1189.00 118.041  26
   2   6   7 1147.73 100.365   7
   2   6   7 1182.88 85.3336   8
   2   6   8 1446.65 114.888  10
   2   6   8 1371.83 99.7907   8
   2   6   8 1439.29 134.630  26
   2   6   8 1361.15 114.013   7
   2   6   8 1356.71 118.135  17
  -2   7  10 4215.87 182.269   8
  -2   7  10 4186.94 222.400  26
  -2   7  10 4100.39 185.069  10
  -2   7  10 3769.26 196.475  24
  -2   7  10 4466.65 176.950   7
  -2   7   9 7790.09 235.979  10
  -2   7   9 7762.68 224.517   8
  -2   7   9 7932.40 219.170   7
  -2   7   9 7263.45 243.569  24
  -2   7   9 7668.55 261.419  26
  -2   7   8 678.020 72.7599   7
  -2   7   8 744.571 79.2339   8
  -2   7   8 758.399 86.8412  10
  -2   7   8 584.898 97.7171  24
  -2   7   8 692.584 113.084  26
   2   7  -8 627.338 71.1394  14
  -2   7   7 15556.2 326.677  24
  -2   7   7 16399.1 303.671  10
  -2   7   7 16593.2 293.904   8
   2   7  -7 16162.6 277.662  14
  -2   7   7 16345.9 325.865  26
  -2   7   7 16562.2 285.542   7
  -2   7   6 6602.21 204.970  24
  -2   7   6 6155.68 400.380  21
  -2   7   6 6165.57 177.838  10
   2   7  -6 6270.15 187.969  18
  -2   7   6 5585.90 344.346   2
   2   7  -6 6500.84 429.995   1
   2   7  -6 6253.31 166.524  14
   2   7  -6 6234.79 436.469  13
   2   7  -5 13343.9 616.133  13
   2   7  -5 13308.5 236.162  14
  -2   7   5 13078.5 515.276   2
  -2   7   5 12148.6 260.344  24
   2   7  -5 13185.3 553.385   1
  -2   7   4 450.798 115.140  21
  -2   7   4 403.154 106.103  12
   2   7  -4 450.848 113.512   3
   2   7  -4 439.172 56.7871  14
   2   7  -4 455.368 109.448   1
  -2   7   4 514.569 68.5921  24
   2   7  -4 500.494 131.357  13
  -2   7   3 5699.45 365.983  20
  -2   7   3 5557.02 334.639  12
   2   7  -3 5792.74 296.698   1
  -2   7   3 5401.15 265.329  21
   2   7  -3 6360.50 286.375   3
   2   7  -3 5934.85 371.553   2
   2   7  -3 6297.90 152.841  14
  -2   7   3 5916.49 162.740  24
   2   7  -3 5788.47 381.864  13
  -2   7   2 6182.15 249.583  21
  -2   7   2 6698.65 374.961  20
  -2   7   2 7223.69 175.273  24
   2   7  -2 6717.19 369.158   2
   2   7  -2 6784.04 156.412  14
  -2   7   2 7487.38 385.373  12
   2   7  -2 6392.42 397.801  13
   2   7  -2 7219.34 288.033   1
  -2   7   1 19967.4 656.562  12
   2   7  -1 20898.3 622.697  12
  -2   7   1 19656.2 617.663  20
   2   7  -1 19799.8 685.027  20
   2   7  -1 19480.7 673.521  13
   2   7  -1 19671.9 580.387   2
   2   7  -1 19317.8 272.725  14
   2   7  -1 19718.8 408.519   1
   2   7   0 1236.81 146.873  12
  -2   7   0 1144.62 150.560  20
  -2   7   0 1603.09 201.235  12
  -2   7   0 1165.87 173.301  13
   2   7   0 1026.78 172.588  20
   2   7   0 1118.92 66.9563  14
   2   7   0 1201.62 138.386   2
  -2   7  -1 94015.1 1588.36  12
  -2   7  -1 86147.7 1097.06  21
   2   7   1 93908.5 1177.52  12
  -2   7  -1 90280.8 1335.03  20
   2   7   1 82752.1 795.284   1
   2   7   1 91887.0 1498.20  13
   2   7   1 92049.1 1112.94   2
   2   7   1 90760.0 735.564  14
  -2   7  -1 94497.2 1508.55  13
   2   7   1 92098.7 1563.27  20
   2   7   2 24563.4 472.296  12
  -2   7  -2 23611.2 808.535  12
  -2   7  -2 22295.3 601.126  21
  -2   7  -2 22770.4 641.621  20
   2   7   2 22755.3 404.860   1
  -2   7  -2 24443.5 730.155  13
  -2   7  -2 23556.9 785.745   3
   2   7   2 23186.1 431.992   2
   2   7   2 23327.6 312.080  14
   2   7   2 23130.7 721.477  13
  -2   7  -3 28350.9 925.716  12
   2   7   3 30170.1 406.677  24
   2   7   3 27091.2 796.993  13
  -2   7  -3 28230.7 770.058  21
   2   7   3 28163.0 356.306  14
  -2   7  -3 28605.8 796.441  13
   2   7   4 20741.5 326.103  18
   2   7   4 20564.9 330.701  17
   2   7   4 20032.8 304.571  14
  -2   7  -4 21116.5 678.009  13
  -2   7  -4 19949.7 302.187  24
   2   7   4 21075.1 328.309   7
   2   7   5 1642.73 108.973  17
  -2   7  -5 1390.53 237.366  21
   2   7   5 1614.80 101.590   7
   2   7   5 1433.35 87.5963  14
   2   7   5 1602.93 101.167  18
   2   7   5 1557.21 93.1992  10
   2   7   5 1730.96 111.495  26
   2   7   6 2034.80 127.462  26
   2   7   6 2014.45 119.144  18
   2   7   6 1980.28 111.192  10
   2   7   6 2220.64 129.735  17
   2   7   6 1966.73 99.6242  14
   2   7   6 1870.59 117.203   7
   2   7   7 5548.03 200.790  17
   2   7   7 5605.97 189.153  10
   2   7   7 5350.57 205.650  26
   2   7   7 5396.07 194.223   7
   2   7   7 5549.13 166.982   8
   2   7   8 1048.27 103.794  10
   2   7   8 1091.84 117.213   7
   2   7   8 1187.00 94.7967   8
   2   7   8 1084.67 130.340  26
  -2   8   9 7927.24 229.076   7
  -2   8   9 7734.41 245.097  10
  -2   8   9 7280.85 257.543  24
  -2   8   9 7919.62 229.406   8
   2   8  -8 2248.97 147.927  18
  -2   8   8 2438.30 123.744   7
  -2   8   8 2209.62 134.653  10
   2   8  -8 1984.67 115.997  14
  -2   8   8 2393.67 126.140   8
  -2   8   8 2256.43 148.092  24
  -2   8   7 8426.21 209.632   8
   2   8  -7 8321.53 231.143  18
  -2   8   7 8215.20 208.020   7
  -2   8   7 8130.57 219.785  10
   2   8  -7 7820.92 205.947  14
  -2   8   6 7399.79 187.995   7
   2   8  -6 7527.33 208.016  18
  -2   8   6 7373.66 199.760  10
  -2   8   6 7562.60 188.180   8
   2   8  -6 7341.41 191.646  14
  -2   8   6 6926.10 221.116  24
   2   8  -5 27671.8 809.100   3
   2   8  -5 26737.8 823.691   1
   2   8  -5 25909.1 378.467  18
  -2   8   5 27328.7 381.799  10
   2   8  -5 25937.7 365.116  14
  -2   8   5 25410.8 723.362  12
  -2   8   5 24030.9 391.119  24
   2   8  -4 16736.6 729.142  12
   2   8  -4 17053.4 560.409   3
   2   8  -4 16667.1 590.713   1
  -2   8   4 16336.8 588.662  12
   2   8  -4 16908.3 710.693  13
   2   8  -4 16609.6 279.601  14
  -2   8   4 17516.5 308.743  24
   2   8  -3 26315.2 673.459   1
  -2   8   3 25033.0 529.134  21
   2   8  -3 27928.8 874.682  12
   2   8  -3 25052.9 848.061  13
  -2   8   3 26185.0 753.937  12
  -2   8   3 27278.8 379.837  24
   2   8  -3 25274.7 348.757  14
   2   8  -3 29790.3 640.135   3
   2   8  -2 17114.4 638.984  12
   2   8  -2 16505.9 672.737  13
  -2   8   2 17287.5 623.058  12
  -2   8   2 16087.3 625.190  20
   2   8  -2 15820.7 606.608   2
  -2   8   2 17874.2 253.760  14
   2   8  -2 16600.7 268.008  14
  -2   8   2 16636.4 279.552  24
   2   8  -2 16653.7 471.719   1
  -2   8   1 7645.48 427.457  12
   2   8  -1 6969.05 392.451  12
  -2   8   1 6922.14 397.418  20
  -2   8   1 6583.11 177.990  24
   2   8  -1 6987.97 435.811  13
   2   8  -1 7320.72 379.784   2
  -2   8   1 7429.61 166.059  14
   2   8  -1 7267.80 171.195  14
   2   8  -1 7080.61 263.805   1
  -2   8   0 2606.72 138.306  21
   2   8   0 2969.87 235.830  12
  -2   8   0 2821.41 250.298  20
  -2   8   0 2970.14 282.552  13
  -2   8   0 2957.50 287.558  12
   2   8   0 2753.02 218.970   2
  -2   8   0 2953.71 122.242  14
   2   8   0 2955.92 111.017  14
   2   8   0 3006.03 282.443  13
  -2   8   0 3519.34 143.159  24
  -2   8  -1 13026.9 610.300  12
  -2   8  -1 12027.2 362.521  21
   2   8   1 13170.6 446.957  12
  -2   8  -1 13145.5 523.539  20
  -2   8  -1 13673.4 249.669  24
   2   8   1 13038.6 427.886   2
   2   8   1 13118.1 233.864  14
   2   8   1 13072.8 581.342  13
  -2   8  -1 12900.3 585.576  13
   2   8   1 13413.4 237.936  24
  -2   8  -2 25715.6 897.242  12
  -2   8  -2 23792.6 610.741  21
   2   8   2 26820.9 842.403  13
   2   8   2 25895.7 348.494  14
  -2   8  -2 28431.4 858.783  13
  -2   8  -2 25720.9 351.006  24
  -2   8  -2 26509.8 748.460  20
   2   8   3 2894.07 126.201  17
  -2   8  -3 2787.69 257.358  20
   2   8   3 2939.59 115.744  14
  -2   8  -3 3258.00 289.853  13
   2   8   3 3076.81 123.747  18
   2   8   3 2806.49 121.034   7
  -2   8  -3 1927.72 114.709  24
   2   8   3 2827.87 280.093  13
   2   8   3 2087.26 117.693  24
  -2   8  -4 392.371 119.487  13
   2   8   4 329.400 71.5441  17
   2   8   4 293.060 52.9231  14
   2   8   4 476.146 65.4497  18
   2   8   4 375.559 55.8493  10
   2   8   4 337.445 63.0824   7
   2   8   4 417.712 74.5148  24
   2   8   5 4744.86 179.743  17
   2   8   5 4673.47 157.817  10
   2   8   5 4390.01 164.354  18
   2   8   5 4142.17 146.660  14
   2   8   5 4326.02 163.139  26
   2   8   5 4258.50 164.303   7
   2   8   6 5135.00 189.281  18
   2   8   6 5125.35 186.758   7
   2   8   6 5334.34 178.392  10
   2   8   6 5330.07 166.487  14
   2   8   6 5700.94 199.912  26
   2   8   6 5315.96 193.986  17
   2   8   7 623.296 94.0193   7
   2   8   7 636.658 86.0137  10
   2   8   7 733.436 113.211  26
   2   8   7 755.308 109.333  17
   2   8   8 1402.08 145.361  26
   2   8   8 1263.95 128.455   7
   2   8   8 1229.14 113.928  10
  -2   9   9 10233.5 266.552   7
   2   9  -9 10008.2 293.784  18
  -2   9   9 9886.11 281.404  10
  -2   9   9 10184.5 265.121   8
   2   9  -8 1719.50 138.645  18
   2   9  -8 1693.07 119.084  14
  -2   9   8 1720.21 111.784   8
  -2   9   8 1824.44 127.663  10
  -2   9   8 1766.70 147.311  24
  -2   9   8 1807.19 115.614   7
   2   9  -7 1643.26 127.741  18
  -2   9   7 1530.65 113.165  10
  -2   9   7 1414.77 102.828   7
  -2   9   7 1330.84 129.838  24
   2   9  -7 1376.45 109.679  14
  -2   9   7 1428.38 98.3969   8
   2   9  -6 12456.6 277.836  18
  -2   9   6 12542.6 272.466  10
   2   9  -6 12428.2 266.689  14
  -2   9   6 12822.5 255.645   8
  -2   9   6 12201.3 296.948  24
  -2   9   6 12547.9 260.441   7
  -2   9   5 9955.75 213.516  18
   2   9  -5 10028.3 518.778   1
   2   9  -5 10262.3 240.771  18
  -2   9   5 10023.6 234.820  10
   2   9  -5 10009.5 232.645  14
  -2   9   5 9514.16 216.267   8
  -2   9   5 10098.6 263.708  24
  -2   9   5 10215.6 224.826   7
  -2   9   4 16286.4 615.240  12
   2   9  -4 15564.4 592.229   1
  -2   9   4 16128.2 311.978  24
   2   9  -4 15447.2 288.094  18
   2   9  -4 15753.5 285.478  14
  -2   9   4 15410.0 240.053  14
   2   9  -3 6348.45 340.883   1
  -2   9   3 6565.15 396.956  12
  -2   9   3 6157.54 190.253  24
  -2   9   3 6467.07 154.250  14
   2   9  -3 6222.54 174.354  14
   2   9  -3 5495.04 423.032  12
   2   9  -2 9987.47 526.901  12
  -2   9   2 9857.51 196.852  14
  -2   9   2 9151.08 490.791  12
  -2   9   2 9800.87 228.047  24
   2   9  -2 10179.2 386.062   1
   2   9  -2 9806.93 216.729  14
   2   9  -1 14576.2 596.229  12
  -2   9   1 13924.4 268.177  24
   2   9  -1 14179.5 653.017  13
   2   9  -1 13674.8 257.929  14
  -2   9   1 13887.0 597.742  20
   2   9  -1 14390.5 570.858   2
  -2   9   1 14650.7 253.233  14
  -2   9   1 14924.0 634.223  12
  -2   9   0 689.364 159.476  12
   2   9   0 598.870 127.587  12
  -2   9   0 768.221 168.372  13
   2   9   0 621.135 130.492   2
   2   9   0 533.936 60.0422  24
   2   9   0 628.083 159.149  13
   2   9   0 671.366 67.4529  14
  -2   9   0 598.757 85.4070  24
  -2   9   0 673.495 142.760  20
  -2   9   0 573.783 68.8262  14
   2   9   1 27450.4 702.845  12
  -2   9  -1 26353.4 365.669  24
   2   9   1 26657.3 369.777  18
  -2   9  -1 26478.0 369.132  27
  -2   9  -1 26738.5 804.270  20
  -2   9  -1 26952.1 379.208  14
   2   9   1 27579.8 374.357  14
   2   9   1 27055.3 913.690  13
  -2   9  -1 27941.5 917.589  13
  -2   9  -2 3131.11 277.553  20
   2   9   2 3057.85 124.025  14
   2   9   2 3369.48 327.266  13
   2   9   2 3396.48 131.336  18
   2   9   2 3158.14 134.193  17
  -2   9  -2 3185.53 141.836  14
  -2   9  -2 3280.18 132.133  27
  -2   9  -2 3598.61 140.142  24
   2   9   2 3314.51 140.539  24
  -2   9  -2 3180.74 316.985  13
   2   9   2 3453.23 145.923   7
   2   9   3 4407.91 164.496  17
  -2   9  -3 4595.46 164.124  24
   2   9   3 4432.51 155.109  18
  -2   9  -3 5091.09 386.360  13
   2   9   3 4343.93 369.892  13
   2   9   3 4351.36 140.010  10
   2   9   3 4407.46 148.327  14
   2   9   3 4660.70 163.381  24
   2   9   3 4120.96 153.936   7
   2   9   4 2353.16 123.600  18
   2   9   4 2332.62 125.836   7
   2   9   4 2217.38 126.935  17
   2   9   4 2337.16 113.341  10
   2   9   4 2327.58 121.561  26
   2   9   4 2629.89 140.438  24
   2   9   4 2241.59 114.430  14
   2   9   5 461.657 86.9558  17
   2   9   5 546.362 81.5237  18
   2   9   5 553.299 75.3172  10
   2   9   5 499.482 84.6233  26
   2   9   5 533.869 72.1114  14
   2   9   5 551.778 83.0668   7
   2   9   6 2183.25 135.048   7
   2   9   6 2202.32 125.553  10
   2   9   6 2160.11 143.493  17
   2   9   6 2174.57 142.313  26
   2   9   6 2026.33 111.759  14
   2   9   6 1936.02 128.422  18
   2   9   7 20452.0 382.247  10
   2   9   7 20124.8 398.060   7
   2   9   7 19822.1 403.232  26
  -2  10   8 2128.21 130.249   7
   2  10  -8 2025.73 153.426  18
  -2  10   8 2053.83 139.792  10
   2  10  -8 1890.91 128.134  14
  -2  10   8 2010.33 122.805   8
  -2  10   7 6330.46 202.904   7
   2  10  -7 6499.03 225.381  18
  -2  10   7 6165.55 211.678  10
   2  10  -7 6368.88 213.116  14
  -2  10   7 5680.84 235.175  24
  -2  10   7 6443.90 194.092   8
  -2  10   6 14226.6 283.520  18
   2  10  -6 13990.4 308.033  18
  -2  10   6 13872.5 303.105  10
   2  10  -6 14061.6 299.393  14
  -2  10   6 14210.6 291.233   7
  -2  10   6 14204.7 282.386   8
  -2  10   6 13491.7 331.485  24
  -2  10   5 13810.5 265.017  18
  -2  10   5 13975.8 292.202  10
   2  10  -5 13738.5 291.034  14
  -2  10   5 13252.5 272.863   7
   2  10  -5 13514.1 289.595  18
  -2  10   5 13323.8 261.742   8
  -2  10   5 13755.6 317.471  24
  -2  10   4 3707.22 143.421   7
  -2  10   4 3939.71 132.487  18
  -2  10   4 3683.52 168.150  24
   2  10  -4 3960.03 155.466  18
   2  10  -4 3924.26 159.037  14
  -2  10   4 3869.08 128.077  14
  -2  10   3 2117.58 130.056  24
   2  10  -3 1986.12 117.934  18
  -2  10   3 1924.81 237.414  12
  -2  10   3 2071.78 99.5262  14
   2  10  -3 2075.15 119.446  14
  -2  10   2 9986.56 240.208  24
   2  10  -2 9843.73 226.063  18
  -2  10   2 9884.64 532.416  12
  -2  10   2 9898.35 210.511  14
   2  10  -2 9855.57 231.835  14
   2  10  -1 14560.0 635.033  12
  -2  10   1 14950.7 280.479  27
   2  10  -1 14694.0 273.751  18
  -2  10   1 14521.4 266.324  14
   2  10  -1 14935.4 282.659  14
  -2  10   1 14593.8 282.349  24
   2  10   0 940.338 78.5950  24
   2  10   0 926.988 157.743  12
   2  10   0 765.294 167.562   2
  -2  10   0 983.462 95.9689  14
   2  10   0 867.152 78.0732  14
  -2  10   0 876.745 83.2285  27
   2  10   0 863.883 77.6989  18
   2  10   1 5384.16 168.501  18
   2  10   1 5306.16 167.090  14
  -2  10  -1 5262.31 175.485  14
  -2  10  -1 5116.37 170.706  24
   2  10   1 5157.94 160.097  24
  -2  10  -1 5028.26 166.903  27
   2  10   2 8306.27 209.833  14
   2  10   2 8133.44 211.153  18
   2  10   2 8218.11 217.207  17
   2  10   2 7666.75 186.566  10
  -2  10  -2 8026.22 213.400  27
   2  10   2 7715.97 219.668  24
  -2  10  -2 7600.18 204.701  24
  -2  10  -2 8138.01 224.113  14
   2  10   2 8373.64 217.522   7
   2  10   3 12994.0 277.409  18
   2  10   3 12835.0 265.991  14
   2  10   3 12629.1 281.205  17
   2  10   3 12213.5 272.277   7
   2  10   3 12356.5 251.298  10
  -2  10  -3 12921.7 290.785  14
   2  10   3 13382.3 290.764  24
   2  10   4 1800.93 111.847  14
   2  10   4 1995.15 122.408  18
   2  10   4 1825.38 128.734  17
   2  10   4 1769.79 106.564  10
  -2  10  -4 1813.91 136.829  14
   2  10   4 1851.94 112.416  26
   2  10   4 1938.44 126.609   7
   2  10   5 3204.33 153.492  26
   2  10   5 3321.25 159.105  18
   2  10   5 3342.76 145.352  10
   2  10   5 3360.21 168.046  17
   2  10   5 3308.30 143.574  14
   2  10   5 3275.97 161.650   7
  -2  10  -5 3340.18 180.301  14
   2  10   6 360.126 90.0716   7
   2  10   6 452.738 87.5100  18
   2  10   6 491.425 82.0258  10
   2  10   6 516.088 101.217  26
  -2  10  -6 512.396 119.773  14
   2  11  -7 1584.07 141.206  18
  -2  11   7 1463.01 130.360  10
  -2  11   7 1430.47 105.937   8
   2  11  -7 1528.51 124.270  14
  -2  11   7 1259.18 142.354  24
  -2  11   7 1529.27 115.831   7
  -2  11   6 5900.28 199.679   7
   2  11  -6 6162.37 218.098  18
  -2  11   6 5903.03 190.362  18
  -2  11   6 6017.42 210.563  10
   2  11  -6 6093.90 213.625  14
  -2  11   6 5918.47 185.739   8
  -2  11   6 5317.08 226.343  24
  -2  11   5 5307.04 219.613  24
  -2  11   5 5758.99 176.281  18
   2  11  -5 5440.04 196.667  18
  -2  11   5 5466.18 195.046  10
  -2  11   5 5362.70 172.137   8
   2  11  -5 5451.93 196.042  14
  -2  11   5 5513.30 188.213   7
   2  11  -4 411.061 83.6935  18
  -2  11   4 472.399 62.7408  18
  -2  11   4 666.313 109.088  24
  -2  11   4 420.797 72.2877   7
  -2  11   4 404.394 57.1826  14
   2  11  -4 403.038 78.3516  14
  -2  11   3 6841.37 221.956  24
   2  11  -3 7362.11 208.957  18
  -2  11   3 7624.26 183.006  18
  -2  11   3 7196.58 190.173  14
   2  11  -3 7255.49 214.320  14
   2  11  -2 18071.7 324.261  18
  -2  11   2 18152.0 310.062  14
   2  11  -2 17671.4 334.281  14
   2  11  -2 17742.2 303.292  27
  -2  11   1 1236.02 105.516  24
   2  11  -1 1408.84 99.6207  18
   2  11  -1 1405.04 91.0460  27
  -2  11   1 1280.45 98.1747  14
   2  11  -1 1297.26 98.9042  14
  -2  11   1 1350.12 105.754  27
   2  11   0 30184.9 428.255  18
  -2  11   0 31175.8 442.244  27
   2  11   0 30981.0 442.685  14
  -2  11   0 31415.0 438.315  14
   2  11   0 30606.4 398.005  27
  -2  11   0 31500.2 443.224  24
  -2  11  -1 824.924 98.8973  14
  -2  11  -1 650.932 91.8417  24
   2  11   1 835.296 93.1477  17
   2  11   1 787.647 81.2691  18
  -2  11  -1 666.532 83.1488  27
   2  11   1 672.606 79.6082  14
   2  11   1 621.635 83.1573  24
   2  11   2 11924.6 271.668  18
   2  11   2 12158.4 278.774  17
   2  11   2 12471.1 252.138  10
   2  11   2 11931.8 267.794  14
  -2  11  -2 11863.3 281.578  14
  -2  11  -2 11792.5 271.746  27
  -2  11  -2 11357.7 261.358  24
   2  11   2 11949.2 274.966   7
   2  11   3 4025.54 175.108  24
   2  11   3 3859.53 163.748  18
   2  11   3 3978.69 173.933  17
   2  11   3 4022.63 158.469  14
   2  11   3 4104.76 152.434  10
  -2  11  -3 3861.03 179.675  14
   2  11   3 3818.84 171.064   7
  -2  11  -3 4032.95 172.307  27
   2  11   4 1021.11 101.765  18
   2  11   4 975.083 92.1826  14
  -2  11  -4 1117.90 131.264  14
   2  11   4 1169.14 115.113  24
   2  11   4 1095.06 109.898   7
   2  11   4 1048.09 92.8429  10
   2  11   5 1421.17 110.227  10
   2  11   5 1389.39 119.908  18
   2  11   5 1415.62 126.360   7
  -2  11  -5 1491.98 143.745  14
   2  11   5 1278.96 117.028  26
   2  11   5 1398.43 106.397  14
   2  11   6 2291.52 155.330   7
   2  11   6 2060.89 146.225  18
   2  11   6 2196.96 133.204  10
  -2  11  -6 2172.63 171.216  14
   2  11   6 2071.70 145.015  26
  -2  12   6 4735.79 228.551  24
   2  12  -6 4729.59 206.300  18
  -2  12   6 4992.87 203.843  10
   2  12  -6 5067.41 208.112  14
  -2  12   6 5344.56 189.037  18
  -2  12   6 5015.39 193.259   7
  -2  12   5 7473.30 228.754   7
   2  12  -5 7731.44 242.497  18
  -2  12   5 7899.75 214.714  18
   2  12  -5 7444.00 239.120  14
  -2  12   5 7936.72 243.718  10
   2  12  -4 1662.68 124.118  18
  -2  12   4 1504.73 116.061   7
   2  12  -4 1465.62 122.576  14
  -2  12   4 1562.09 97.3788  14
  -2  12   4 1576.86 98.5971  18
  -2  12   4 1658.29 147.994  24
   2  12  -3 10815.6 256.406  27
   2  12  -3 10934.8 265.934  18
  -2  12   3 10782.2 245.197  14
   2  12  -3 10857.1 277.687  14
  -2  12   3 9975.06 277.323  24
   2  12  -2 4488.27 162.574  27
   2  12  -2 4077.32 163.994  18
  -2  12   2 4062.87 179.042  24
  -2  12   2 4214.37 158.733  14
   2  12  -2 4290.26 176.750  14
   2  12  -1 9850.44 246.786  18
  -2  12   1 10264.6 251.441  14
   2  12  -1 10029.4 261.934  14
   2  12  -1 10130.3 235.628  27
  -2  12   1 9996.05 263.558  24
   2  12   0 30534.4 452.078  18
   2  12   0 30606.7 461.178  14
  -2  12   0 30016.7 452.513  14
  -2  12   0 30144.5 456.531  27
  -2  12   0 29350.7 447.962  24
   2  12   1 3029.38 146.574  14
  -2  12  -1 2986.44 153.552  27
  -2  12  -1 3044.16 153.423  14
  -2  12  -1 3097.87 154.399  24
   2  12   1 3070.36 146.710  18
   2  12   2 580.682 86.4286  18
  -2  12  -2 634.150 94.3137  27
  -2  12  -2 525.308 107.998  14
   2  12   2 702.251 88.2350  14
   2  12   2 510.921 97.1509   7
   2  12   2 601.180 96.7098  24
   2  12   2 587.415 78.0206  10
  -2  12  -3 603.516 99.4118  27
   2  12   3 622.418 97.1688  24
   2  12   3 558.311 86.9549  18
   2  12   3 725.370 81.5657  10
   2  12   3 646.071 101.119   7
   2  12   3 834.069 92.3240  14
  -2  12  -3 864.482 116.843  14
   2  12   4 605.478 101.637   7
   2  12   4 625.158 96.4879  18
   2  12   4 523.707 79.2839  10
  -2  12  -4 532.273 118.684  14
  -2  12  -4 501.936 99.5753  27
   2  12   4 615.711 84.0494  14
   2  12   4 527.212 109.541  24
   2  12   5 2209.77 132.928  14
   2  12   5 2531.02 154.888  18
  -2  12  -5 2346.10 166.649  14
   2  12   5 2305.36 136.348  10
   2  12   5 2481.46 159.793   7
  -2  13   5 237.414 65.8377  18
   2  13  -5 264.527 89.6691  18
  -2  13   5 270.598 94.7984  10
  -2  13   5 268.430 86.6256   7
   2  13  -5 233.990 94.8177  14
  -2  13   5 382.406 131.394  24
  -2  13   4 4419.53 217.377  24
   2  13  -4 4487.29 186.592  27
   2  13  -4 4460.48 187.932  18
   2  13  -4 4346.45 196.431  14
  -2  13   4 4510.53 164.803  14
  -2  13   4 4407.59 186.115   7
   2  13  -3 531.514 86.3775  18
  -2  13   3 572.608 119.786  24
   2  13  -3 693.837 95.5032  27
   2  13  -3 693.262 103.882  14
  -2  13   3 643.871 81.0588  14
   2  13  -2 5957.57 218.646  14
   2  13  -2 5971.88 204.322  18
  -2  13   2 6062.46 227.159  24
  -2  13   2 5915.10 200.437  14
   2  13  -2 6050.34 198.592  27
   2  13  -1 4995.82 187.901  18
  -2  13   1 4825.39 199.747  24
  -2  13   1 5186.37 193.186  14
   2  13  -1 5005.94 197.536  14
   2  13  -1 5069.25 181.179  27
   2  13   0 10169.5 265.974  18
  -2  13   0 10294.9 270.725  14
  -2  13   0 10342.0 279.227  27
   2  13   0 10595.4 279.181  14
  -2  13   0 9491.84 264.027  24
  -2  13  -1 13029.0 313.846  27
   2  13   1 12761.6 304.260  18
  -2  13  -1 12960.7 297.173  24
  -2  13  -1 12916.3 316.051  14
   2  13   1 12826.1 306.811  14
   2  13   1 13391.1 300.483  24
  -2  13  -2 5477.53 213.910  27
   2  13   2 5542.94 187.555  10
   2  13   2 5677.07 215.818   7
   2  13   2 5486.05 214.644  24
  -2  13  -2 5645.93 219.165  14
   2  13   2 5815.24 208.134  14
   2  13   2 5880.40 213.088  18
   2  13   3 867.758 103.627  18
   2  13   3 933.510 112.610  24
   2  13   3 827.991 113.609   7
  -2  13  -3 1125.94 124.753  27
   2  13   3 977.865 100.789  14
  -2  13  -3 1029.81 129.247  14
   2  13   3 1110.72 102.279  10
   2  14  -3 12590.9 310.193  18
  -2  14   3 12416.8 294.259  14
   2  14  -3 12168.3 327.145  14
   2  14  -3 12869.9 307.115  27
   2  14  -2 5719.79 210.998  18
  -2  14   2 5534.57 205.148  14
   2  14  -2 5561.03 222.690  14
   2  14  -2 5823.06 206.767  27
  -2  14   2 5417.19 226.816  24
   2  14  -1 4056.19 179.522  18
   2  14  -1 3943.78 187.353  14
   2  14  -1 3987.02 170.795  27
  -2  14   1 3829.40 178.169  14
  -2  14   1 3867.00 189.795  24
   2  14   0 2650.89 157.610  14
   2  14   0 2745.67 153.989  18
  -2  14   0 2813.85 163.295  14
  -2  14   0 2810.15 169.007  27
  -2  14   0 2892.74 165.319  24
   2  14   1 5840.53 219.271  18
   2  14   1 5483.10 193.678  10
  -2  14  -1 5985.09 229.371  14
  -2  14  -1 5495.93 224.864  27
   2  14   1 6061.00 225.115  14
   3 -14  -2 260.943 76.9548   4
   3 -14  -2 168.908 67.6934   6
  -3 -14   2 289.691 147.143  25
   3 -14  -2 349.809 137.418  16
  -3 -14   2 275.107 146.384  16
  -3 -14   2 250.970 85.8059   5
   3 -14  -2 337.270 102.511  23
   3 -14  -1 1666.19 135.510  23
   3 -14  -1 1518.11 120.597   6
  -3 -14   1 1007.55 162.791  25
  -3 -14   1 1347.81 126.972   5
   3 -14  -1 1462.19 155.569  16
  -3 -14   1 1321.63 181.916  16
   3 -14  -1 1421.59 122.212   4
   3 -14   0 2159.04 143.973   4
  -3 -14   0 2129.31 141.864   5
   3 -14   0 2127.92 175.603  16
  -3 -14   0 2088.23 210.090  16
   3 -14   0 2231.22 144.482   6
   3 -14   0 2313.38 149.848  23
   3 -13  -5 104.626 87.4265  23
   3 -13  -5 97.1603 76.7718   4
   3 -13  -5-120.179 105.483  19
  -3 -13   5 23.2299 90.7031  16
   3 -13  -5 2.20758 111.288  16
  -3 -13   5-10.2608 125.964  25
  -3 -13   5 78.5650 78.8871   5
   3 -13  -4 2469.48 154.184  23
   3 -13  -4 2341.64 144.667   4
  -3 -13   4 2276.65 146.661   5
   3 -13  -4 2344.42 159.029  19
  -3 -13   4 2302.27 188.169  25
   3 -13  -4 2190.19 165.524  16
  -3 -13   4 2229.58 155.398  16
  -3 -13   4 2307.20 120.115   4
   3 -13  -3 3663.42 175.825  19
   3 -13  -3 3632.45 171.534   4
  -3 -13   3 3688.25 201.972  16
  -3 -13   3 3388.47 212.600  25
   3 -13  -3 3582.86 199.524  16
   3 -13  -3 3794.49 177.616  23
  -3 -13   3 3748.33 178.162   5
   3 -13  -2 457.254 78.3354   4
   3 -13  -2 490.978 86.8162  19
   3 -13  -2 454.169 75.0386   6
   3 -13  -2 501.249 95.9896  23
   3 -13  -2 427.926 125.023  16
  -3 -13   2 710.288 152.706  16
  -3 -13   2 545.696 94.4753   5
  -3 -13   2 666.795 150.691  25
   3 -13  -1 6672.18 216.683   6
  -3 -13   1 6878.55 226.348   5
   3 -13  -1 6966.64 254.574  16
   3 -13  -1 6784.85 223.575   4
  -3 -13   1 7169.06 283.092  16
   3 -13  -1 6943.45 232.562  23
   3 -13   0 3459.03 163.686   6
  -3 -13   0 3527.85 167.771   5
   3 -13   0 3633.79 196.028  16
  -3 -13   0 3674.78 216.686  16
   3 -13   0 3433.02 166.842   4
   3 -13   0 3712.05 177.941  23
   3 -13   1 3569.61 173.924   6
  -3 -13  -1 3706.88 168.095   5
   3 -13   1 3837.13 201.749  16
  -3 -13  -1 3417.36 219.753  16
   3 -13   1 3598.08 171.956   4
   3 -13   1 3892.94 181.677  23
   3 -13   2 2200.23 145.562   6
  -3 -13  -2 2202.89 133.685   5
   3 -13   2 2171.20 153.730  16
  -3 -13  -2 1628.68 191.408  16
   3 -13   2 2223.35 149.858  23
   3 -13   2 2158.68 141.797   4
   3 -12  -6 186.707 81.5399  23
   3 -12  -6 152.708 125.911  19
   3 -12  -6 179.200 112.345  16
  -3 -12   6 147.291 120.569  25
  -3 -12   6 81.7812 67.6858   5
   3 -12  -5 561.788 119.272  19
  -3 -12   5 592.487 97.7629  16
   3 -12  -5 482.713 117.688  16
  -3 -12   5 638.364 148.313  25
  -3 -12   5 678.533 95.9316   5
   3 -12  -5 543.866 92.2404  23
   3 -12  -4 339.971 72.8847   4
   3 -12  -4 279.290 111.449  16
  -3 -12   4 199.432 104.219  16
   3 -12  -4 189.592 79.8350  23
  -3 -12   4 243.834 50.5128   4
  -3 -12   4 277.073 134.183  25
  -3 -12   4 178.246 72.0585   5
   3 -12  -4 300.906 103.890  19
   3 -12  -3 277.022 69.3000   4
   3 -12  -3 264.375 79.7303  23
   3 -12  -3 337.193 100.108  19
  -3 -12   3 307.472 110.536  16
  -3 -12   3 269.291 74.7556   5
  -3 -12   3 464.792 141.282  25
   3 -12  -2 527.249 90.3933  19
   3 -12  -2 615.736 115.240  16
  -3 -12   2 505.459 132.245  16
  -3 -12   2 809.736 89.9326   5
   3 -12  -2 813.743 101.300  23
  -3 -12   2 497.012 124.274  25
   3 -12  -2 700.421 83.7366   4
   3 -12  -1 12292.6 278.531   6
  -3 -12   1 12179.8 286.652   5
   3 -12  -1 12085.4 308.969  16
  -3 -12   1 11557.9 316.837  16
   3 -12  -1 12245.5 287.294   4
   3 -12  -1 12489.0 291.679  23
   3 -12   0 3103.62 146.931   6
  -3 -12   0 3068.79 146.232   5
   3 -12   0 3142.45 171.001  16
  -3 -12   0 3113.70 200.151  16
   3 -12   0 3029.77 147.978   4
   3 -12   0 3134.65 155.485  23
   3 -12   1 10472.4 268.650   6
  -3 -12  -1 10670.7 260.501   5
   3 -12   1 10795.7 273.013   4
   3 -12   1 10371.1 284.079  16
   3 -12   1 10584.1 275.880  23
   3 -12   2 2325.43 139.447   6
  -3 -12  -2 2223.23 124.375   5
  -3 -12  -2 2612.89 211.783  16
   3 -12   2 2506.39 153.014  16
   3 -12   2 2322.74 136.968   4
   3 -12   2 2299.90 140.680  23
   3 -12   3 3511.88 173.853   6
   3 -12   3 3574.36 171.410   4
  -3 -12  -3 3514.45 152.987   5
   3 -12   3 3723.02 178.998  16
  -3 -12  -3 3309.29 211.356  16
   3 -12   3 3206.46 162.849  25
   3 -12   4 5799.96 226.430  25
   3 -12   4 6630.93 235.051   4
   3 -12   4 6943.76 242.048   6
   3 -12   4 6611.42 234.203  16
  -3 -12  -4 5448.66 260.364  16
   3 -11  -7 1592.35 167.756  19
  -3 -11   7 1699.56 122.466   5
   3 -11  -7 1495.85 136.632  16
  -3 -11   7 1359.40 156.529  25
  -3 -11   7 1601.59 112.541   9
   3 -11  -7 1626.02 123.118  23
   3 -11  -6 13.1893 101.263  16
  -3 -11   6 19.4593 58.7543   5
   3 -11  -6 106.632 122.141  19
  -3 -11   6 50.9601 112.576  25
   3 -11  -6-8.39997 67.2969  23
   3 -11  -5 190.352 69.2628  23
  -3 -11   5 199.911 79.7627  16
   3 -11  -5 194.881 109.085  16
  -3 -11   5 301.032 70.2507   5
   3 -11  -5 165.155 105.042  19
  -3 -11   5 252.765 120.863  25
   3 -11  -4 1719.03 135.222  19
   3 -11  -4 1720.51 144.083  16
  -3 -11   4 1447.51 123.956  16
  -3 -11   4 1719.13 150.171  25
  -3 -11   4 1537.74 110.074   5
   3 -11  -4 1768.86 117.488  23
  -3 -11   4 1522.62 89.0416   4
  -3 -11   3 559.757 57.0263   4
   3 -11  -3 712.261 107.273  16
  -3 -11   3 819.267 117.559  16
  -3 -11   3 667.412 81.6885   5
   3 -11  -3 742.410 94.0178  19
   3 -11  -3 590.746 75.6325   4
  -3 -11   3 952.552 137.508  25
   3 -11  -3 668.626 86.6795  23
  -3 -11   2 14530.9 298.604   5
   3 -11  -2 14356.4 297.875  23
   3 -11  -2 13527.6 310.614  16
  -3 -11   2 14259.9 316.910  16
   3 -11  -2 14210.6 281.514  19
   3 -11  -2 14514.1 295.007   4
   3 -11  -1 6088.27 189.741   4
   3 -11  -1 5639.89 168.723  19
   3 -11  -1 6051.51 185.004   6
  -3 -11   1 6070.84 190.610   5
   3 -11  -1 5448.18 204.258  16
   3 -11  -1 5847.46 191.193  23
   3 -11   0 1347.05 97.8428   6
  -3 -11   0 1452.43 102.646   5
   3 -11   0 1394.62 120.997  16
  -3 -11   0 1559.90 140.265  16
   3 -11   0 1483.63 109.171  23
   3 -11   0 1284.34 94.1041   4
   3 -11   1 2540.11 131.341   6
  -3 -11  -1 2461.65 124.721   5
   3 -11   1 2553.36 147.061  16
  -3 -11  -1 2626.85 172.083  16
   3 -11   1 2572.50 136.618  23
   3 -11   1 2394.62 128.216   4
   3 -11   2 3011.60 147.019  23
   3 -11   2 3145.82 148.693   6
  -3 -11  -2 3035.52 134.000   5
   3 -11   2 2494.20 132.615  25
   3 -11   2 2927.47 151.131  16
  -3 -11  -2 2595.54 176.227  16
   3 -11   2 3044.44 146.871   4
   3 -11   3 2548.57 143.290   6
  -3 -11  -3 2646.07 126.681   5
   3 -11   3 2534.26 144.773  16
  -3 -11  -3 2189.31 173.196  16
   3 -11   3 2167.09 133.419  25
   3 -11   3 2614.48 138.850   4
   3 -11   4 250.444 75.8112   4
   3 -11   4 281.321 75.1799   6
   3 -11   4 458.424 82.3230  25
   3 -11   4 279.810 76.7302  16
  -3 -11  -4 400.307 134.327  16
   3 -11   5 1526.30 126.443   6
  -3 -11  -5 1354.64 164.963  16
   3 -11   5 1190.89 117.685  25
  -3 -10   8 3784.60 161.185   5
   3 -10  -8 3779.10 218.230  19
  -3 -10   8 3472.01 205.713  25
  -3 -10   8 3876.42 169.045   9
   3 -10  -8 4100.88 180.523  23
   3 -10  -7 1226.27 108.081  23
   3 -10  -7 1053.04 143.597  19
   3 -10  -7 933.838 117.151  16
  -3 -10   7 1244.33 104.361   9
  -3 -10   7 1135.65 95.5077   5
  -3 -10   7 932.830 139.949  25
   3 -10  -6 335.900 112.245  19
   3 -10  -6 583.654 108.814  16
  -3 -10   6 366.591 66.9970   5
  -3 -10   6 397.185 73.6886   9
  -3 -10   6 551.578 117.779  25
   3 -10  -6 411.116 80.5368  23
   3 -10  -5 3029.47 141.959  23
   3 -10  -5 2925.33 160.629  19
  -3 -10   5 2938.01 136.381   5
   3 -10  -5 2826.91 151.590  16
  -3 -10   5 2986.26 122.072   9
  -3 -10   4 2807.29 131.079   5
  -3 -10   4 2729.24 110.186   4
   3 -10  -4 3003.63 152.149  19
  -3 -10   4 3403.23 177.406  25
   3 -10  -4 2967.88 150.700  16
  -3 -10   4 3042.64 142.824  16
   3 -10  -4 2884.83 133.622  23
  -3 -10   3 3155.41 111.228   4
  -3 -10   3 4056.58 165.294  16
   3 -10  -3 3273.78 368.557   3
   3 -10  -3 3241.81 139.267  23
   3 -10  -3 4086.71 165.784  16
  -3 -10   3 3374.52 140.627   5
   3 -10  -3 3354.55 137.714   4
   3 -10  -3 3549.21 151.173  19
  -3 -10   2 22531.4 377.677  16
  -3 -10   2 22376.2 354.995   5
   3 -10  -2 21670.4 374.379  16
   3 -10  -2 22078.3 341.406  19
   3 -10  -2 22253.5 353.228   4
   3 -10  -2 21998.6 355.534  23
   3 -10  -1 4842.38 398.593   3
   3 -10  -1 4859.67 160.879   4
  -3 -10   1 4818.39 161.913   5
   3 -10  -1 5450.20 194.304  16
  -3 -10   1 5314.50 197.960  16
   3 -10  -1 4760.97 155.441   6
   3 -10  -1 4842.87 167.742  23
  -3 -10   0 4320.92 149.815   5
   3 -10   0 4368.54 173.867  16
  -3 -10   0 3868.17 173.415  16
   3 -10   0 4266.21 156.654  23
   3 -10   0 4288.80 151.368   6
   3 -10   0 4369.74 153.031   4
   3 -10   1 34.9717 44.2572   4
   3 -10   1 134.370 54.2816   6
   3 -10   1 184.234 70.9317  16
  -3 -10  -1 158.475 98.5953  16
  -3 -10  -1 62.8579 45.6080   5
   3 -10   1 50.1083 49.8592  23
   3 -10   2 1780.38 110.508   6
  -3 -10  -2 1683.33 98.5706   5
   3 -10   2 1846.89 121.123  16
  -3 -10  -2 1882.06 143.679  16
   3 -10   2 1617.10 105.218  25
   3 -10   2 1859.86 108.507   4
   3 -10   2 1759.34 109.893  23
   3 -10   3 1223.62 100.836  25
   3 -10   3 1234.66 99.8885   6
  -3 -10  -3 1212.02 84.4736   5
   3 -10   3 1188.63 102.186  16
  -3 -10  -3 1202.33 136.905  16
   3 -10   3 1313.51 100.114   4
   3 -10   4 1402.75 106.579   4
   3 -10   4 1475.06 111.235   6
   3 -10   4 1520.98 112.657  16
  -3 -10  -4 1625.69 159.568  16
   3 -10   4 1708.81 123.287  25
   3 -10   5 1008.98 102.361   6
   3 -10   5 959.634 86.2733   9
  -3 -10  -5 679.126 137.074  16
   3 -10   5 951.336 108.472  25
   3 -10   6 12.2019 69.7065   6
  -3 -10  -6 84.6813 118.612  16
   3 -10   6 36.7070 59.9963   9
   3 -10   6-20.2756 78.1933  25
   3  -9  -9 3863.53 221.732  19
  -3  -9   9 3639.42 178.341   9
   3  -9  -9 3833.19 182.315  23
   3  -9  -8 1798.14 175.760  19
  -3  -9   8 1657.89 150.723  25
  -3  -9   8 1729.17 107.045   5
  -3  -9   8 1843.26 125.302   9
   3  -9  -8 1827.06 126.764  23
  -3  -9   7 5858.62 228.992  25
  -3  -9   7 6085.38 186.113   5
  -3  -9   7 5892.66 190.462   9
   3  -9  -7 6079.99 229.546  19
   3  -9  -7 6360.69 203.492  23
   3  -9  -6 5950.67 189.586  23
  -3  -9   6 5946.22 179.384   5
   3  -9  -6 5475.46 181.885  16
  -3  -9   6 6042.12 179.197   9
   3  -9  -6 5913.62 210.175  19
   3  -9  -5 18792.6 347.988  19
  -3  -9   5 18610.1 317.422   5
   3  -9  -5 19479.2 339.456  16
  -3  -9   5 19475.7 382.378  25
   3  -9  -5 18325.1 323.958  23
   3  -9  -4 4608.10 172.529  19
  -3  -9   4 4478.15 152.799   5
   3  -9  -4 4623.38 167.643  16
  -3  -9   4 4794.35 193.631  25
   3  -9  -4 4587.76 156.161  23
   3  -9  -3 459.764 141.465  20
   3  -9  -3 539.444 82.0738  19
   3  -9  -3 299.660 155.813   3
  -3  -9   3 689.423 70.5248   5
   3  -9  -3 526.070 86.5959  16
  -3  -9   3 225.825 96.8081  25
  -3  -9   3 579.462 49.5509   4
   3  -9  -3 539.452 70.9640  23
   3  -9  -2 3176.62 321.790   3
  -3  -9   2 2802.63 118.885   5
   3  -9  -2 2407.50 128.847  16
   3  -9  -2 2964.10 120.907   4
  -3  -9   2 2791.07 92.8139   4
   3  -9  -2 2851.56 122.158  23
   3  -9  -1 2047.55 262.147   3
   3  -9  -1 2022.09 105.585  23
   3  -9  -1 1862.13 96.2648   4
  -3  -9   1 2053.31 101.737   5
   3  -9  -1 2325.09 121.154  16
  -3  -9   0 4880.62 138.880  22
   3  -9   0 4925.62 151.938   4
  -3  -9   0 4857.26 150.731   5
   3  -9   0 4885.70 170.104  16
  -3  -9   0 4845.14 174.254  16
   3  -9   0 4908.02 151.605   6
   3  -9   0 4869.27 157.023  23
   3  -9   0 4952.18 394.438   3
   3  -9   1 7752.82 501.847   3
   3  -9   1 7433.18 195.283   6
  -3  -9  -1 7359.35 184.170   5
   3  -9   1 7845.18 211.425  16
  -3  -9  -1 7513.81 226.881  16
   3  -9   1 7424.21 191.497   4
   3  -9   1 7511.86 195.096  23
   3  -9   2 9718.95 226.870   4
   3  -9   2 9620.67 228.053  23
   3  -9   2 9628.36 229.229   6
   3  -9   2 9792.36 234.994  16
  -3  -9  -2 9565.95 209.329   5
  -3  -9  -2 8957.47 251.289  16
   3  -9   3 1150.42 92.0941   6
   3  -9   3 998.793 90.3830  25
   3  -9   3 1070.44 94.1044  16
  -3  -9  -3 956.595 73.2442   5
  -3  -9  -3 1100.58 122.999  16
   3  -9   3 1037.36 84.5685   4
   3  -9   4 5652.93 189.193   6
   3  -9   4 5616.69 187.352  16
   3  -9   4 5384.30 164.133   9
  -3  -9  -4 5483.78 211.640  16
   3  -9   4 5488.42 197.883  25
   3  -9   4 5735.62 189.904   4
   3  -9   5 2369.33 121.484   9
  -3  -9  -5 2086.22 167.482  16
   3  -9   5 2390.25 133.521   6
   3  -9   6 5201.11 200.676   6
   3  -9   6 5108.29 185.074   9
  -3  -9  -6 4550.91 228.116  16
   3  -9   6 5306.42 222.248  25
   3  -8  -9 1700.11 172.724  19
  -3  -8   9 1568.49 126.382   9
  -3  -8   9 1486.63 143.954  25
   3  -8  -9 1779.01 128.682  23
   3  -8  -8 587.930 90.4480  23
  -3  -8   8 570.557 63.6053   5
  -3  -8   8 578.001 88.4892   9
  -3  -8   8 731.778 114.161  25
   3  -8  -8 614.370 131.630  19
   3  -8  -7 1867.81 145.668  19
   3  -8  -7 1852.33 114.845  23
  -3  -8   7 1889.67 102.104   5
  -3  -8   7 2001.35 118.527   9
  -3  -8   7 1970.52 141.351  25
   3  -8  -6 8005.04 229.811  19
   3  -8  -6 8063.61 211.075  23
  -3  -8   6 8036.07 196.223   5
  -3  -8   6 7965.32 200.269   9
  -3  -8   6 8607.84 249.933  25
   3  -8  -5 26201.6 396.140  19
  -3  -8   5 25718.3 359.969   5
   3  -8  -5 25715.8 373.793  23
   3  -8  -4 11340.0 232.319  23
   3  -8  -4 11690.0 575.327  20
  -3  -8   4 11501.2 588.677   2
  -3  -8   4 10986.6 264.421  25
   3  -8  -3-30.8746 84.3933  20
   3  -8  -3 2.78563 46.1246  23
  -3  -8   2 2708.75 197.851  21
   3  -8  -2 2265.48 237.479  20
   3  -8  -2 2110.58 260.505   3
   3  -8  -2 2166.30 97.6118   4
   3  -8  -2 2115.72 99.7646  23
   3  -8  -1 18063.1 280.762   4
   3  -8  -1 18082.6 286.198  23
   3  -8   0 8991.72 496.268   3
   3  -8   0 8879.79 193.134   4
   3  -8   0 8708.43 195.129  23
   3  -8   1 12093.6 600.958   3
   3  -8   1 11948.0 231.806   4
   3  -8   1 12029.9 234.308  23
   3  -8   2 29660.4 404.644   6
   3  -8   2 30826.8 414.020  16
  -3  -8  -2 29792.4 434.998  16
   3  -8   2 30102.3 397.864   4
   3  -8   2 30329.6 400.284  23
   3  -8   3 2580.19 120.951   6
   3  -8   3 2494.06 119.618  16
  -3  -8  -3 2695.15 153.109  16
   3  -8   3 2622.23 117.997   4
   3  -8   4 4718.92 166.827   6
   3  -8   4 4665.86 175.888  25
   3  -8   4 4772.30 150.932   9
  -3  -8  -4 5254.39 206.052  16
   3  -8   4 5003.25 166.323   4
   3  -8   5 1335.95 100.416   6
   3  -8   5 1404.32 95.6014   9
  -3  -8  -5 1548.19 132.567  16
   3  -8   5 1536.18 119.002  25
   3  -8   6 3525.66 159.093   6
   3  -8   6 3491.83 153.961   9
  -3  -8  -6 4075.11 199.949  16
   3  -8   6 3801.87 183.536  25
   3  -8   7 1190.51 110.995   6
   3  -8   7 1127.85 108.237   9
  -3  -8  -7 1661.00 153.250  16
   3  -8   7 1489.44 135.959  25
   3  -7 -10 120.383 122.276  19
   3  -7 -10 192.179 84.9921  23
  -3  -7  10 216.668 85.8956   9
  -3  -7  10 284.342 99.9128  25
   3  -7  -9 525.332 131.172  19
  -3  -7   9 294.881 84.9255   9
   3  -7  -9 359.618 80.4119  23
   3  -7  -8 5266.26 211.385  19
   3  -7  -8 5565.60 188.979  23
  -3  -7   7 23103.5 329.020   5
  -3  -7   7 22731.5 361.657   9
  -3  -7   7 22886.4 408.391  25
   3  -7  -7 23832.8 371.959  23
   3  -7  -6 5185.75 340.698  12
   3  -7  -6 5266.26 188.589  19
  -3  -7   6 5674.15 165.715   9
  -3  -7   6 4748.34 183.442  25
   3  -7  -6 5417.00 167.992  23
   3  -7  -5 57064.9 1151.38  12
   3  -7  -5 59112.9 1334.49  20
   3  -7  -5 56145.9 577.005  23
  -3  -7   5 58739.6 1347.10   2
   3  -7  -4 3914.95 301.030  12
  -3  -7   4 3945.40 336.136   2
  -3  -7   4 4470.12 305.627  21
   3  -7  -4 3989.81 326.112  20
   3  -7  -4 4046.29 132.773  23
   3  -7  -3 7729.64 423.726  12
   3  -7  -3 7599.51 413.035  20
  -3  -7   3 7608.33 356.376  21
  -3  -7   3 7701.92 429.539   2
   3  -7  -3 7634.37 175.820  23
   3  -7  -2 12174.8 536.265  12
   3  -7  -2 12698.6 223.138  23
  -3  -7   2 12674.6 505.896   2
   3  -7  -2 12428.6 217.331   4
   3  -7  -2 12799.3 503.454  20
   3  -7  -1 8540.11 181.258  23
   3  -7  -1 7755.13 437.286  13
   3  -7  -1 7970.61 443.414  12
   3  -7  -1 8891.74 466.417   3
   3  -7  -1 8354.44 173.745   4
  -3  -7   1 8407.49 456.264  13
   3  -7   0 11550.4 537.373   3
   3  -7   0 10980.1 202.312   4
   3  -7   0 10594.8 504.524  13
  -3  -7   0 10295.8 500.525  13
   3  -7   0 10917.5 205.640  23
   3  -7   1 704.049 175.247   3
   3  -7   1 496.119 127.030  13
   3  -7   1 534.594 53.6933   4
   3  -7   1 623.379 60.4646  23
  -3  -7  -1 429.496 123.345  13
  -3  -7  -2 4636.49 302.484  21
   3  -7   2 4204.23 360.863   3
  -3  -7  -2 4386.45 323.651  13
   3  -7   2 4051.12 306.418  13
   3  -7   2 4405.47 136.904   4
   3  -7   2 4525.71 139.873  23
  -3  -7  -3 17356.2 633.506  21
   3  -7   3 18843.7 310.569   6
   3  -7   3 18684.3 310.358  16
  -3  -7  -3 19953.6 337.220  16
   3  -7   3 19348.5 304.344   4
  -3  -7  -3 18925.9 653.030  13
   3  -7   3 18137.3 629.673  13
  -3  -7  -4 4913.73 385.259  21
   3  -7   4 4374.07 153.527   6
   3  -7   4 4526.37 144.950   9
  -3  -7  -4 5039.14 183.725  16
   3  -7   4 5113.07 177.626  25
   3  -7   4 4684.65 153.471   4
   3  -7   5 318.777 63.7870   6
   3  -7   5 228.117 65.5651  25
  -3  -7  -5 399.671 92.8377  16
   3  -7   5 272.615 57.7165   9
   3  -7   6 268.840 67.4823   6
   3  -7   6 241.778 64.9065   9
   3  -7   6 393.466 84.9620  25
   3  -7   7 8930.81 255.669   9
  -3  -7  -7 9308.03 281.537  16
   3  -7   7 9453.84 253.347   6
   3  -6 -10 6001.83 238.337  19
  -3  -6  10 5926.44 216.668   9
   3  -6 -10 6155.27 218.173  23
   3  -6  -9 6789.39 237.316  19
  -3  -6   9 6710.97 217.056   9
  -3  -6   9 6731.55 245.145  25
   3  -6  -9 6973.57 218.130  23
   3  -6  -8 4646.22 183.732  19
   3  -6  -8 4253.99 161.997  23
  -3  -6   8 4267.76 167.206   9
  -3  -6   8 4274.60 139.060   8
  -3  -6   8 4312.97 181.038  25
   3  -6  -7 1095.30 117.158  19
   3  -6  -7 1148.43 91.3022  23
  -3  -6   7 1003.06 103.030  25
  -3  -6   7 1312.77 83.1016  22
   3  -6  -6 22383.1 358.345  19
   3  -6  -6 22802.3 693.229  12
   3  -6  -6 22078.0 331.325  23
  -3  -6   5 19072.9 735.722   2
   3  -6  -5 18565.9 617.515  12
  -3  -6   5 18330.3 647.454  21
   3  -6  -5 18572.9 706.002  20
   3  -6  -5 18774.0 287.766  23
   3  -6  -4 4012.13 287.970  12
  -3  -6   4 4668.43 324.491  21
  -3  -6   4 4155.76 325.575   2
   3  -6  -4 4095.46 127.358  23
   3  -6  -4 4070.70 310.442  20
  -3  -6   3 4728.69 278.776  21
   3  -6  -3 3955.93 288.999  12
   3  -6  -3 4160.81 287.679  20
   3  -6  -3 4322.37 124.460  23
  -3  -6   3 4123.61 301.252   2
   3  -6  -3 4420.21 328.713  13
  -3  -6   3 4306.02 319.875  13
   3  -6  -2 91491.0 1453.60  12
   3  -6  -2 92296.5 1334.92  20
  -3  -6   2 91474.6 1365.23   2
   3  -6  -2 92176.0 1506.38  13
  -3  -6   2 92681.1 1511.91  13
   3  -6  -1 35035.1 890.694  12
   3  -6  -1 37883.6 761.699  20
   3  -6  -1 38512.0 931.144   3
  -3  -6   1 36964.0 761.888   2
  -3  -6   1 37439.2 911.093  13
   3  -6  -1 37322.0 906.533  13
   3  -6   0 43846.2 1032.32  12
   3  -6   0 46252.6 1040.29   3
   3  -6   0 45515.0 984.972  13
  -3  -6   0 46731.9 1001.23  13
   3  -6   1 9877.20 498.394   3
   3  -6   1 9753.60 492.408  12
   3  -6   1 9161.75 424.177  13
  -3  -6  -1 9866.81 444.593  13
   3  -6   1 9497.47 181.883  23
   3  -6   1 9530.15 180.858   4
  -3  -6  -2 7305.60 228.435   3
  -3  -6  -2 8425.00 403.337  13
   3  -6   2 8707.59 487.518   3
   3  -6   2 7917.52 386.461  13
   3  -6   2 8299.75 175.295   4
   3  -6   2 8307.48 176.305  23
  -3  -6  -3 58621.9 1284.42  20
   3  -6   3 57007.0 1043.02  13
  -3  -6  -3 55475.6 1061.34  13
   3  -6   3 57004.0 557.242   4
  -3  -6  -4 1182.90 219.482  21
   3  -6   4 1171.09 83.1254   6
  -3  -6  -4 1218.72 211.208  20
   3  -6   4 1298.69 93.1725  25
   3  -6   5 2948.87 129.135   6
   3  -6   5 3039.58 145.252  25
   3  -6   5 2904.65 124.798   9
   3  -6   6 1204.22 93.5098   6
   3  -6   6 1190.46 88.4157  26
   3  -6   6 1203.81 92.6857   9
   3  -6   6 1024.35 109.221  25
   3  -6   7 5354.38 187.746   6
   3  -6   7 5211.60 181.741  26
   3  -6   7 5396.44 195.298   9
  -3  -6  -7 5554.07 210.611  16
   3  -6   8 4206.95 188.227   9
  -3  -6  -8 4614.34 204.164  16
   3  -6   8 4083.12 173.607  26
   3  -6   8 4314.83 179.649   6
   3  -5 -11 265.241 116.484  19
  -3  -5  11 229.493 103.563   9
  -3  -5  11 205.211 73.1219   8
   3  -5 -11 276.810 93.8230  23
  -3  -5  11 187.487 78.6480  25
   3  -5 -10 2789.97 173.152  19
  -3  -5  10 2867.40 157.525   9
  -3  -5  10 2755.31 134.422   8
  -3  -5  10 2479.93 157.284  25
   3  -5 -10 2904.47 158.480  23
   3  -5  -9 1092.16 123.437  19
   3  -5  -9 1136.09 110.433  23
  -3  -5   9 989.063 101.959   9
  -3  -5   9 968.765 79.5819   8
  -3  -5   9 917.574 103.333  25
   3  -5  -8 6005.57 199.915  19
  -3  -5   8 5848.32 186.360   9
  -3  -5   8 5945.99 160.616   8
  -3  -5   8 6368.53 208.244  25
  -3  -5   8 5925.56 172.272  22
   3  -5  -8 6145.90 189.576  23
   3  -5  -7 5299.99 172.976  19
  -3  -5   7 5743.22 182.998  25
  -3  -5   7 5046.39 161.666   9
   3  -5  -7 5112.95 329.320  12
   3  -5  -7 5008.17 158.664  23
  -3  -5   7 5031.84 146.167  22
  -3  -5   6 4112.00 350.487  21
   3  -5  -6 4826.81 376.873  20
   3  -5  -6 4358.90 296.785  12
  -3  -5   6 4331.80 367.477   2
   3  -5  -6 4495.98 143.218  23
   3  -5  -5 20571.7 631.290  12
   3  -5  -5 20643.3 293.450  23
  -3  -5   5 22079.1 720.707  21
   3  -5  -5 20623.2 711.539  20
  -3  -5   5 21810.4 742.800   2
  -3  -5   5 21511.6 721.184  13
   3  -5  -4 58236.3 1073.73  12
   3  -5  -4 55737.6 1115.77  20
  -3  -5   4 56941.9 1150.62   2
   3  -5  -4 55541.8 1161.95  13
   3  -5  -4 57827.8 531.566  23
  -3  -5   4 58700.3 1175.01  13
   3  -5  -3 3096.51 237.287  20
  -3  -5   3 3160.17 259.276  13
  -3  -5   3 3051.75 253.343   2
   3  -5  -3 3164.94 242.463  12
   3  -5  -3 3240.58 269.082  13
   3  -5  -2 1914.86 201.501  13
   3  -5  -2 1968.18 196.231  12
   3  -5  -2 2159.03 180.042  20
  -3  -5   2 2570.26 211.073   2
  -3  -5   2 2076.61 204.911  13
   3  -5  -1 11719.1 475.703  12
   3  -5  -1 12263.5 499.870   3
  -3  -5   1 11973.7 470.879  13
  -3  -5   1 11559.6 389.176   2
   3  -5  -1 11514.5 464.957  13
   3  -5  -1 11730.5 373.215  20
   3  -5   0 34543.2 849.282  12
  -3  -5   0 33752.3 597.635   2
   3  -5   0 33032.0 775.003  13
   3  -5   0 35862.5 869.777   3
  -3  -5   0 34695.9 791.073  13
   3  -5   1 60746.8 1133.68  12
   3  -5   1 60847.0 1160.40   3
  -3  -5  -1 60563.5 995.829  13
   3  -5   1 60489.0 978.004  13
   3  -5   2 22346.2 750.693   3
   3  -5   2 21817.6 724.211  12
  -3  -5  -2 22737.4 704.097  20
  -3  -5  -2 22740.7 462.465   3
   3  -5   2 22853.3 596.600  13
  -3  -5  -2 22441.2 604.980  13
   3  -5   2 22498.1 287.175   4
  -3  -5  -3 65591.8 1002.22   3
  -3  -5  -3 61773.1 1228.20  21
  -3  -5  -3 64708.4 1273.60  20
   3  -5   3 63663.9 584.702   4
   3  -5   3 64626.5 1013.58  13
  -3  -5  -3 63475.2 1031.46  13
  -3  -5  -4 34231.4 803.112   3
  -3  -5  -4 32742.7 970.621  21
  -3  -5  -4 33333.8 716.975   1
  -3  -5  -4 34409.3 971.849  20
  -3  -5  -5 11185.9 585.562  20
   3  -5   5 11468.7 241.928   9
   3  -5   5 11691.3 242.505   6
   3  -5   6 2632.48 122.081   6
   3  -5   6 2752.13 132.085   9
   3  -5   6 2773.74 127.109  26
   3  -5   7 718.495 78.0900   6
   3  -5   7 638.862 77.4391  26
   3  -5   7 630.063 84.4239   9
   3  -5   8 2005.35 124.055   6
   3  -5   8 2140.32 136.149  26
   3  -5   8 1936.98 138.389   9
   3  -4 -11 3036.90 176.730  19
  -3  -4  11 2783.93 161.379   9
   3  -4 -11 2920.50 167.818  23
  -3  -4  11 2973.67 151.885   8
  -3  -4  11 2907.39 164.333  25
   3  -4 -10 1858.52 142.453  19
  -3  -4  10 1699.84 121.774  25
  -3  -4  10 1879.74 115.318   8
   3  -4 -10 1948.50 135.893  23
  -3  -4   9 15327.6 313.214   9
  -3  -4   9 15817.6 292.068   8
  -3  -4   9 15743.9 328.672  25
   3  -4  -9 16365.6 321.194  23
  -3  -4   8 2069.59 107.692  22
  -3  -4   8 2121.13 123.878  25
  -3  -4   8 1855.40 112.611   9
   3  -4  -8 1841.89 111.123  23
  -3  -4   7 1135.17 82.8671  22
   3  -4  -7 1083.93 160.018  12
   3  -4  -7 1231.31 88.4985  23
  -3  -4   6 21166.8 759.507  21
   3  -4  -6 22932.7 669.591  12
  -3  -4   6 22245.3 776.831   2
  -3  -4   6 21974.4 720.395   1
  -3  -4   6 21547.9 728.417  13
   3  -4  -6 22598.5 316.460  23
   3  -4  -6 22933.4 782.003  20
   3  -4  -5 3370.87 278.325  20
  -3  -4   5 3765.10 270.995   1
  -3  -4   5 3633.33 298.857   2
   3  -4  -5 4486.59 131.774  23
   3  -4  -5 3711.71 260.487  12
  -3  -4   5 3771.08 297.032  13
   3  -4  -4 6609.70 350.116  20
  -3  -4   4 6437.06 307.578   1
   3  -4  -4 6315.42 329.138  12
  -3  -4   4 7024.70 371.994   2
  -3  -4   4 5932.09 349.888  13
   3  -4  -3 8545.93 357.928  20
  -3  -4   3 8643.98 386.580   2
  -3  -4   3 8969.78 308.324   1
  -3  -4   3 9005.74 406.907  13
   3  -4  -3 8460.19 374.192  12
   3  -4  -2 84455.8 1262.42  12
   3  -4  -2 87315.7 1112.93  20
  -3  -4   2 85866.4 1283.17  13
  -3  -4   2 86816.9 1180.51   2
  -3  -4   2 85623.6 869.613   1
  -3  -4   1 11068.2 422.379  13
   3  -4  -1 11467.7 443.578  12
   3  -4  -1 11141.0 321.247  20
   3  -4  -1 11778.2 459.917   3
  -3  -4   1 10705.6 346.840   2
   3  -4  -1 10838.3 415.821  13
   3  -4   0 105346. 1467.38  12
   3  -4   0 106682. 1497.30   3
  -3  -4   0 103946. 1077.70   2
  -3  -4   0 103906. 1345.65  13
   3  -4   0 103379. 1339.84  13
   3  -4   1 60200.7 1112.68  12
   3  -4   1 63502.9 1175.47   3
   3  -4   1 61080.4 949.211  13
  -3  -4  -1 60528.6 611.779   2
  -3  -4  -1 61760.6 955.985  13
   3  -4   2 75361.2 1356.94   3
   3  -4   2 74640.5 1305.99  12
  -3  -4  -2 78313.9 988.699   3
  -3  -4  -2 74700.5 1233.26  20
   3  -4   2 73462.0 1017.17  13
  -3  -4  -2 75025.4 835.560   1
  -3  -4  -2 74761.7 1049.98  13
  -3  -4  -3 55231.4 952.885   3
  -3  -4  -3 54863.5 1150.11  21
   3  -4   3 55209.6 1151.65  12
  -3  -4  -3 54966.4 1093.50  20
  -3  -4  -3 53996.3 837.394   1
   3  -4   3 54316.1 503.618   4
  -3  -4  -3 53611.9 840.532  13
   3  -4   3 54948.1 814.440  13
  -3  -4  -4 13675.0 515.485   3
  -3  -4  -4 14456.3 631.488  21
  -3  -4  -4 13699.8 574.101  20
  -3  -4  -4 14103.4 476.599   1
  -3  -4  -5 8243.41 455.084   3
   3  -4   5 8535.78 198.660   6
  -3  -4  -5 8306.38 480.380  20
   3  -4   5 8316.16 202.100   9
  -3  -4  -5 8119.14 409.802   1
   3  -4   6 34.6097 43.8749   6
   3  -4   6 64.0176 51.8566   9
   3  -4   6 96.4504 52.6420  26
   3  -4   7 3472.69 143.475   6
   3  -4   7 3561.59 157.264   9
   3  -4   7 3342.06 149.179  26
   3  -4   8 1415.30 107.075   6
   3  -4   8 1296.70 114.280   9
   3  -4   8 1139.19 111.099  26
   3  -3 -11 5148.46 199.465  19
  -3  -3  11 5155.13 210.645   9
  -3  -3  11 5567.29 210.611  25
  -3  -3  11 5100.77 195.780   8
   3  -3 -11 4989.50 210.824  23
   3  -3 -10 3624.44 168.848  19
  -3  -3  10 3895.88 169.759   9
  -3  -3  10 3623.51 153.070   8
  -3  -3  10 3492.73 160.370  25
   3  -3 -10 3691.40 170.959  23
   3  -3  -9 1308.61 111.212  19
  -3  -3   9 1194.11 101.121   9
  -3  -3   9 1247.61 87.3398   8
  -3  -3   9 1261.20 97.6666  25
   3  -3  -9 1134.13 104.371  23
  -3  -3   8 41362.2 488.546  22
  -3  -3   8 41225.8 500.571   9
   3  -3  -8 42611.9 1008.65  12
   3  -3  -8 41689.5 503.208  23
   3  -3  -7 63020.9 1196.19  12
   3  -3  -7 65129.7 1427.04  20
  -3  -3   7 62679.3 598.078  22
  -3  -3   7 63090.8 1372.96   2
   3  -3  -7 61506.8 609.704  23
   3  -3  -6 7732.37 391.323  12
  -3  -3   6 7627.62 462.039  21
   3  -3  -6 8198.25 458.687  20
  -3  -3   6 8418.52 440.264   1
  -3  -3   6 8468.60 456.167   2
   3  -3  -6 8252.65 180.629  23
   3  -3  -5 6554.89 346.382  12
  -3  -3   5 6444.78 346.217   1
  -3  -3   5 6191.33 395.170  21
   3  -3  -5 6099.18 361.422  20
  -3  -3   5 6189.73 373.069   2
  -3  -3   5 5761.72 349.566  13
   3  -3  -4 50189.8 934.156  12
  -3  -3   4 48192.6 863.029   1
   3  -3  -4 48933.2 940.012  20
  -3  -3   4 46152.7 947.657  21
  -3  -3   4 50151.5 982.762   2
  -3  -3   4 49260.2 978.699  13
   3  -3  -3 11451.0 393.112  20
  -3  -3   3 11798.0 352.179   1
  -3  -3   3 11739.1 426.253   2
   3  -3  -3 11907.2 428.800  12
  -3  -3   3 11632.7 446.117  13
  -3  -3   2 17591.3 476.453   2
   3  -3  -2 17923.0 433.110  20
  -3  -3   2 18652.8 360.598   1
   3  -3  -2 18302.7 525.450  12
  -3  -3   2 17935.7 521.394  13
   3  -3  -1 8018.39 350.184  12
   3  -3  -1 8342.48 238.183  20
  -3  -3   1 7940.35 330.129  13
  -3  -3   1 8193.47 287.405   2
  -3  -3   1 7801.86 162.735   1
   3  -3   0 128638. 1538.82  12
   3  -3   0 125654. 1564.91   3
   3  -3   0 128455. 1386.68  13
  -3  -3   0 129450. 1158.91   2
  -3  -3   0 132063. 1401.43  13
   3  -3   1 119521. 1534.23  12
   3  -3   1 118994. 1616.34   3
  -3  -3  -1 116711. 1005.49   1
   3  -3   1 118332. 1285.63  13
  -3  -3  -1 119516. 968.811   2
  -3  -3  -1 117752. 1296.78  13
  -3  -3  -2 3242.01 179.406  13
  -3  -3  -2 3100.46 201.277   3
   3  -3   2 3343.22 272.013   3
   3  -3   2 3266.57 243.806  12
  -3  -3  -2 3616.50 240.908  20
   3  -3   2 3416.14 177.024  13
  -3  -3  -2 3406.16 176.727   1
  -3  -3  -3 24842.7 643.797   3
  -3  -3  -3 23509.7 746.187  21
   3  -3   3 24055.6 697.852  12
  -3  -3  -3 23511.8 653.804  20
  -3  -3  -3 23835.0 561.449   1
   3  -3   3 23443.1 424.819  13
  -3  -3  -3 24034.9 457.282  13
  -3  -3  -4 10312.6 462.660   3
  -3  -3  -4 8948.59 500.128  21
  -3  -3  -4 10633.9 471.038  20
  -3  -3  -4 10010.8 415.264   1
  -3  -3  -5 6229.69 392.847  20
  -3  -3  -5 6636.20 378.958   1
   3  -3   5 6666.49 177.466   9
  -3  -3  -6 3869.19 336.664  20
  -3  -3  -6 3535.70 308.103   1
   3  -3   6 3542.20 142.402   9
   3  -3   6 3674.12 144.237  26
   3  -3   6 3705.54 135.600   6
   3  -3   7 7570.30 202.546   6
   3  -3   7 7815.34 220.926   9
   3  -3   7 7396.89 217.253  26
   3  -3   8 1111.54 95.2755   6
   3  -3   8 1236.69 110.557   9
   3  -3   8 1109.01 112.200  26
  -3  -2  11 2667.25 147.554  26
  -3  -2  11 2811.88 159.157   9
  -3  -2  11 2622.08 145.285   8
   3  -2 -11 2857.55 170.431  23
  -3  -2  11 2627.73 148.767  25
  -3  -2  10 3599.32 152.596  26
   3  -2 -10 3742.01 159.527  19
  -3  -2  10 3982.15 167.963   9
  -3  -2  10 3604.47 152.779   8
  -3  -2  10 3815.44 156.978  25
   3  -2 -10 3692.07 175.573  23
   3  -2  -9 2050.02 115.847  19
  -3  -2   9 1942.92 99.6320  10
  -3  -2   9 2108.91 124.385   9
  -3  -2   9 2244.85 115.555  25
  -3  -2   9 2096.19 108.467   8
   3  -2  -8 2480.67 269.870  13
   3  -2  -8 2347.22 248.801  12
  -3  -2   8 2454.20 119.262  22
  -3  -2   8 2528.13 122.172   9
   3  -2  -7 49474.0 1211.18  20
  -3  -2   7 47120.3 1137.39   2
  -3  -2   7 47328.9 502.549  22
   3  -2  -7 46770.1 1026.40  12
   3  -2  -6 27814.0 737.383  12
  -3  -2   6 25539.8 829.398  21
   3  -2  -6 28380.4 841.128  20
  -3  -2   6 27034.0 784.716   1
  -3  -2   6 28211.3 815.044   2
   3  -2  -6 27647.0 340.354  23
   3  -2  -5 9921.47 420.079  12
   3  -2  -5 10112.0 450.755  20
  -3  -2   5 9890.25 424.216   1
  -3  -2   5 9386.50 436.469   2
   3  -2  -4 29690.3 693.988  12
  -3  -2   4 29734.4 761.104  21
   3  -2  -4 29381.4 699.173  20
  -3  -2   4 29252.6 659.441   1
  -3  -2   4 29375.9 720.740   2
  -3  -2   4 29399.7 720.995  13
   3  -2  -3 32167.4 698.364  12
   3  -2  -3 31004.6 633.319  20
  -3  -2   3 30801.9 683.180   2
  -3  -2   3 31526.4 595.839   1
  -3  -2   3 31826.2 705.373  13
   3  -2  -2 93521.6 1219.96  12
   3  -2  -2 92061.9 1016.03  20
  -3  -2   2 92376.3 967.826   1
  -3  -2   2 91949.5 1149.70   2
  -3  -2   2 92943.8 1210.38  13
  -3  -2   1 19146.5 437.075   2
   3  -2  -1 19091.0 321.510  20
   3  -2  -1 18572.9 504.416  12
  -3  -2   1 19026.1 478.763  13
  -3  -2   0 17820.1 371.106   2
   3  -2   0 17678.2 490.332  12
  -3  -2   0 18024.3 432.329  13
   3  -2   0 16965.4 506.797   3
   3  -2   1 128080. 1506.88  12
   3  -2   1 128914. 1619.03   3
  -3  -2  -1 129540. 1251.58  13
  -3  -2  -1 129514. 1190.64   1
   3  -2   1 126559. 1233.09  13
   3  -2   2 5442.83 323.251   3
   3  -2   2 5732.87 297.973  12
  -3  -2  -2 5465.90 274.964   3
  -3  -2  -2 5215.10 257.631  20
  -3  -2  -2 5212.92 150.089   2
   3  -2   2 5466.16 185.173  13
  -3  -2  -2 5224.17 237.257   1
  -3  -2  -2 5307.91 190.694  13
  -3  -2  -3 2978.95 237.041   3
  -3  -2  -3 2827.21 260.683  21
   3  -2   3 2541.97 211.369  12
  -3  -2  -3 2890.01 216.204  20
  -3  -2  -3 2704.81 200.758   1
  -3  -2  -3 2170.67 90.5551   2
   3  -2   3 2101.70 81.3736  13
  -3  -2  -3 2119.13 101.033  13
  -3  -2  -4 16389.3 549.990  20
  -3  -2  -4 16957.6 612.364   3
  -3  -2  -4 15556.0 652.163  21
  -3  -2  -4 16564.0 551.608   1
   3  -2   5 24120.1 345.647   9
  -3  -2  -5 23446.4 738.478   1
  -3  -2  -5 23875.3 733.987  20
   3  -2   6 5843.63 164.932   6
   3  -2   6 5859.45 179.277   9
   3  -2   6 5983.32 181.052  26
  -3  -2  -6 5426.85 391.327   1
  -3  -2  -6 5416.47 381.703  20
   3  -2   7 999.778 79.4627   6
   3  -2   7 897.839 92.6582  26
   3  -2   7 859.966 90.0040   9
   3  -2   8 2165.04 118.157   6
   3  -2   8 2359.30 148.604  26
   3  -2   8 2158.71 136.730   9
   3  -2   9 2871.51 176.683  26
   3  -2   9 3058.05 168.975   9
  -3  -1  11 1532.26 126.874  26
  -3  -1  11 1471.55 109.945  10
  -3  -1  11 1623.89 120.899   9
  -3  -1  11 1542.58 118.143   8
  -3  -1  10 3076.19 135.827  10
  -3  -1  10 3329.66 148.385   8
  -3  -1  10 3350.18 153.649   9
  -3  -1  10 3180.72 150.623  26
  -3  -1  10 3331.05 146.705  25
  -3  -1   9 1533.16 86.3144  11
  -3  -1   9 1522.75 90.8641  10
  -3  -1   9 1617.92 107.753   9
   3  -1  -9 1372.72 215.444  13
  -3  -1   9 1453.25 95.5869   8
  -3  -1   9 1551.56 106.245  26
  -3  -1   8 21679.2 342.354  22
  -3  -1   8 21099.3 316.806   8
  -3  -1   8 21533.7 330.372   9
  -3  -1   8 21354.1 784.666   2
   3  -1  -8 21698.6 760.684  13
   3  -1  -7 17474.7 713.623  20
   3  -1  -7 17735.7 657.363   2
  -3  -1   7 18517.9 687.548   2
  -3  -1   7 17565.1 286.615  22
   3  -1  -7 18319.8 662.873  13
  -3  -1   6 60571.0 1178.88   2
   3  -1  -6 60171.2 1223.21  20
  -3  -1   6 58077.4 1170.05   1
   3  -1  -6 60381.7 1159.26   2
   3  -1  -6 56897.1 1139.61  13
   3  -1  -5 4122.37 278.125   2
  -3  -1   5 4399.08 293.452   2
  -3  -1   5 4232.53 281.863   1
  -3  -1   4 162652. 1761.84   1
   3  -1  -4 160859. 1813.19  20
  -3  -1   4 163571. 1921.34  21
  -3  -1   4 160814. 1833.98   2
   3  -1  -4 163828. 1811.28  12
   3  -1  -3 173680. 1821.82  12
   3  -1  -3 172760. 1725.65  20
  -3  -1   3 175163. 1809.56   2
  -3  -1   3 178605. 1705.40   1
   3  -1  -2 7001.36 301.975  12
  -3  -1   2 7196.08 291.521   2
   3  -1  -2 7186.73 250.118  20
   3  -1  -1 32366.3 424.899  20
  -3  -1   1 32422.1 577.948   2
   3  -1  -1 32033.6 636.922  12
  -3  -1   1 33227.3 608.635  13
  -3  -1   0 34206.0 551.908   2
   3  -1   0 34630.4 654.377  12
  -3  -1   0 35032.9 576.289  13
   3  -1   1 110772. 1293.62  12
  -3  -1  -1 107672. 1270.33   3
   3  -1   1 111850. 1407.70   3
  -3  -1  -1 112406. 1147.72  12
   3  -1   2 32882.1 666.251  12
  -3  -1  -2 34028.6 726.455   3
  -3  -1  -2 33388.1 590.811  20
   3  -1   2 30631.8 381.750  13
   3  -1   2 31308.8 384.812  13
  -3  -1  -2 32980.0 650.884   1
  -3  -1  -2 33034.3 546.045  12
   3  -1   3 4185.85 245.799  12
  -3  -1  -3 4594.92 243.027  20
  -3  -1  -3 4640.54 205.531  12
  -3  -1  -3 4004.88 175.324   2
  -3  -1  -3 4301.63 294.963   3
  -3  -1  -3 4486.56 267.796   1
  -3  -1  -4 51908.9 735.526  12
  -3  -1  -4 52151.5 1126.12   3
  -3  -1  -4 48561.1 1169.61  21
  -3  -1  -4 52212.5 946.037  20
  -3  -1  -4 50992.2 1026.13   1
  -3  -1  -4 50864.2 709.720   2
  -3  -1  -5 15605.7 614.859   1
  -3  -1  -5 16797.6 743.835  21
  -3  -1  -5 16796.3 580.649  20
   3  -1   6 3271.84 123.760   6
  -3  -1  -6 3280.35 286.648  20
   3  -1   6 3375.81 139.623  26
   3  -1   6 3385.59 136.549   9
   3  -1   7 2651.72 120.562   6
   3  -1   7 2702.32 133.110   9
   3  -1   7 2739.41 141.432  26
   3  -1   8 838.976 83.5016   6
   3  -1   8 880.317 100.106   9
   3  -1   8 770.859 112.316  26
   3  -1   9 1343.37 121.234   9
   3  -1   9 1194.33 141.279  26
  -3   0  11 192.279 95.6577  26
  -3   0  11 358.602 72.3745  10
  -3   0  11 235.246 77.3297   9
  -3   0  11 192.529 68.8847   8
  -3   0  10 35.7186 51.3304  10
  -3   0  10 198.494 68.8610   9
  -3   0  10 11.0587 79.3931  26
  -3   0  10-11.0769 61.9014   8
  -3   0   9 10092.7 220.471  10
  -3   0   9 10191.1 235.440   9
  -3   0   9 10079.7 237.383  26
  -3   0   9 10129.6 233.998   8
   3   0  -9 10277.5 544.193  13
  -3   0   8 37482.7 474.497  22
  -3   0   8 39323.7 1048.40   2
  -3   0   8 38055.2 450.000   8
   3   0  -8 39460.7 1024.07  13
   3   0  -7 170907. 2392.92  20
   3   0  -7 171858. 2339.30   1
   3   0  -7 166868. 2173.06  13
  -3   0   7 169346. 2197.34   2
  -3   0   7 166859. 1238.80  22
  -3   0   6-69.4052 165.967  21
   3   0  -6 39.0396 85.4326  20
   3   0  -6 32.5609 75.0242   1
  -3   0   6 104.521 104.162   2
   3   0  -6 88.5550 59.4542   2
   3   0  -6 60.8660 75.3505  13
  -3   0   6 56.3749 71.1326  22
  -3   0   6 2.18919 84.5987   1
  -3   0   5 33736.4 875.674  21
   3   0  -5 35718.3 830.133   2
  -3   0   5 35051.3 815.980   2
  -3   0   5 35055.0 822.684   1
   3   0  -5 34864.0 826.982  13
   3   0  -4 314854. 2800.99  20
   3   0  -4 309274. 2802.21   2
  -3   0   4 310769. 2749.50   1
   3   0  -4 306765. 2802.57  13
  -3   0   4 310382. 2778.36   2
  -3   0   3 4884.88 259.603   2
  -3   0   3 5027.09 248.528   1
   3   0  -3 5193.03 274.691   2
   3   0  -3 5196.66 277.512  13
  -3   0   2 529247. 3810.88   2
   3   0  -2 524051. 3845.26  13
   3   0  -2 531790. 3855.37  12
  -3   0   1 2355.76 157.305   2
   3   0  -1 2259.49 164.573  12
   3   0  -1 2439.90 165.625  13
  -3   0   0 37041.8 642.637  12
   3   0   0 37258.3 640.645  12
   3   0   0 36691.1 424.234  20
   3   0   0 36881.6 584.318  13
  -3   0  -1 48088.1 740.898  12
   3   0   1 49957.5 750.036  12
   3   0   1 47849.1 823.499   3
   3   0   1 46839.3 524.126  20
  -3   0  -1 49025.0 846.805   3
   3   0   1 48272.9 589.797  13
  -3   0  -2 73277.5 938.227  12
   3   0   2 71117.5 927.241  12
   3   0   2 71061.2 786.147  20
  -3   0  -2 72437.9 1136.41   3
  -3   0  -2 72346.5 800.254  20
  -3   0  -3 32801.5 631.715  12
   3   0   3 31990.9 623.057  12
  -3   0  -3 33432.0 833.620   3
  -3   0  -3 31646.6 597.426   2
  -3   0  -3 31326.3 750.751   1
  -3   0  -3 32863.2 607.076  20
  -3   0  -4 37676.8 1023.18  21
  -3   0  -4 41098.1 1025.32   3
  -3   0  -4 40436.9 783.302  20
  -3   0  -4 40501.6 939.473   1
  -3   0  -4 39514.7 716.833   2
  -3   0  -4 40995.5 745.205  12
  -3   0  -5 17696.8 780.105  21
  -3   0  -5 19526.1 601.117  20
  -3   0  -5 18051.3 679.570   1
   3   0   6 105.976 57.6005  26
   3   0   6 189.443 52.2589   9
   3   0   6 140.839 52.1401   7
   3   0   7 584.604 74.4955   6
   3   0   7 536.996 89.0679  26
   3   0   7 616.262 79.1885   9
   3   0   8 4473.88 160.225   6
   3   0   8 4711.62 200.590  26
   3   0   8 4685.66 182.156   9
   3   0   9 152.154 77.9041   9
   3   0   9 173.535 113.044  26
  -3   1  11 1498.76 138.436  26
  -3   1  11 1487.49 112.834  10
  -3   1  11 1599.16 116.495   9
  -3   1  11 1410.03 115.676   8
  -3   1  10 3264.75 150.464   8
  -3   1  10 3218.20 140.784  10
  -3   1  10 3343.57 146.219   9
  -3   1  10 3268.95 161.765  26
  -3   1   9 1511.89 92.3319  10
  -3   1   9 1505.16 97.1544   9
  -3   1   9 1456.55 96.4325   8
  -3   1   8 21623.8 327.947   8
  -3   1   8 22550.4 352.591  22
  -3   1   8 21520.7 758.673   2
   3   1  -8 22102.4 762.368  13
  -3   1   7 17770.6 293.706  22
   3   1  -7 18955.7 748.379  20
   3   1  -7 18257.4 708.414   1
  -3   1   7 18090.6 653.250   2
   3   1  -7 18036.9 655.147  13
   3   1  -6 58063.5 1170.31   2
   3   1  -6 60206.6 1199.97   1
  -3   1   6 57272.4 1181.12   1
  -3   1   6 60529.9 564.810  22
  -3   1   6 58950.5 1135.54   2
   3   1  -6 59288.3 1157.64  13
   3   1  -5 4360.89 284.094   1
  -3   1   5 3197.60 301.123  21
   3   1  -5 4199.68 286.161   2
  -3   1   5 4230.27 288.962   1
   3   1  -5 3975.04 278.385  13
  -3   1   5 4342.11 288.571   2
  -3   1   4 163596. 1812.39   2
   3   1  -4 159752. 1819.71   2
  -3   1   4 161349. 1814.08   1
   3   1  -4 162716. 1842.13  13
   3   1  -3 171737. 1812.68   2
  -3   1   3 175283. 1811.15   2
   3   1  -3 173190. 1843.35  13
   3   1  -2 7512.29 303.872   2
  -3   1   2 7089.18 298.360   2
   3   1  -2 7330.72 305.294  13
  -3   1   1 31577.4 638.855  12
   3   1  -1 32449.8 605.969  12
   3   1  -1 33261.2 612.855  13
   3   1   0 34045.3 590.607   3
   3   1   0 35402.6 601.317  12
  -3   1   0 34567.8 663.488  12
   3   1   0 33943.9 570.161  13
   3   1   0 35090.0 517.067  20
  -3   1  -1 112286. 1299.37  12
   3   1   1 110713. 1135.70  12
   3   1   1 110376. 1085.28  20
   3   1   1 110091. 1259.91   3
   3   1   1 113103. 1048.86  13
   3   1   2 33273.2 582.290  20
   3   1   2 32527.3 542.423  12
   3   1   2 32156.2 405.065  13
  -3   1  -2 32433.0 440.390  20
  -3   1  -2 32790.5 777.231   3
  -3   1  -2 33656.3 677.664  12
  -3   1  -3 4243.40 195.678  20
   3   1   3 4231.71 231.377  20
  -3   1  -3 3992.70 311.089   3
   3   1   3 4364.31 194.178  12
  -3   1  -3 4579.00 248.547   2
  -3   1  -3 4497.78 254.898  12
  -3   1  -3 4234.44 284.866   1
  -3   1  -4 51742.6 939.097  12
   3   1   4 51174.2 927.659  20
  -3   1  -4 50680.6 843.463  20
  -3   1  -4 50945.2 912.607   2
  -3   1  -4 50380.7 1092.46   1
  -3   1  -5 16641.8 546.078  12
  -3   1  -5 16224.9 737.019  21
  -3   1  -5 16246.7 525.431  20
  -3   1  -5 15743.3 650.678   1
  -3   1  -5 16418.9 533.190   2
   3   1   6 3531.53 147.051  26
   3   1   6 3533.63 133.051  10
   3   1   6 3472.42 132.604   9
   3   1   6 3455.31 136.277   7
   3   1   7 2785.63 129.972  10
   3   1   7 2855.61 153.828  26
   3   1   7 2775.67 121.211   6
   3   1   7 2816.84 132.215   9
   3   1   7 2702.40 135.732   7
   3   1   8 813.915 118.382  26
   3   1   8 839.338 89.8966   9
   3   1   8 800.465 97.8540   7
   3   1   9 1221.42 113.032   9
   3   1   9 1255.10 150.228  26
  -3   2  11 2564.59 150.970   8
  -3   2  11 2633.46 144.343  10
  -3   2  11 2973.88 146.043   9
  -3   2  11 2874.57 172.371  26
  -3   2  10 3564.16 148.920  10
  -3   2  10 3690.43 148.597   9
  -3   2  10 4100.39 178.539  26
  -3   2  10 3551.72 155.074   8
  -3   2   9 2063.53 114.645   8
  -3   2   9 1936.52 93.3579   7
  -3   2   9 2121.19 108.879  10
  -3   2   9 2121.04 109.086   9
  -3   2   8 2472.11 110.677   8
  -3   2   8 2601.67 128.091  26
  -3   2   8 2470.16 269.056   2
  -3   2   8 2422.68 104.531  24
   3   2  -8 2478.76 266.051  13
  -3   2   7 45903.4 514.728  22
   3   2  -7 46971.8 1198.59  20
   3   2  -7 48206.0 1165.50   1
  -3   2   7 47769.9 1067.06   2
   3   2  -7 47184.4 1090.17  13
   3   2  -6 27377.4 806.418   2
  -3   2   6 27534.9 849.441  21
  -3   2   6 28130.7 816.387   1
   3   2  -6 27353.6 796.640   1
  -3   2   6 27436.0 351.407  22
   3   2  -6 27757.8 789.226  13
  -3   2   6 27314.4 758.953   2
   3   2  -5 9515.61 438.837   2
  -3   2   5 9535.33 476.977  21
  -3   2   5 9639.86 421.227   2
   3   2  -5 9958.08 426.993   1
  -3   2   5 9796.14 444.188   1
   3   2  -5 9607.30 440.493  13
  -3   2   4 28552.8 754.445  21
   3   2  -4 29573.8 722.592   2
  -3   2   4 29798.6 705.231   2
  -3   2   4 29441.6 721.878   1
   3   2  -4 29932.5 671.524   1
   3   2  -4 28642.1 716.057  13
   3   2  -3 31459.2 686.525   2
  -3   2   3 32296.4 702.223   2
   3   2  -3 30881.4 707.080  13
  -3   2   2 90638.1 1224.28  12
   3   2  -2 91463.7 1157.82   2
   3   2  -2 92678.1 1212.42  13
  -3   2   1 18346.3 508.419  12
   3   2  -1 18566.8 435.346   2
   3   2  -1 18761.1 480.472  13
   3   2   0 17467.7 405.229  12
  -3   2   0 17679.2 495.760  12
   3   2   0 17751.4 378.668   3
   3   2   0 18292.6 429.122  20
   3   2   0 17494.7 428.295  13
   3   2   1 129155. 1195.40  12
   3   2   1 129056. 1347.96  20
  -3   2  -1 130123. 1526.42  12
   3   2   1 128336. 1252.96  13
  -3   2  -2 5503.06 296.925  12
   3   2   2 5528.15 192.702  13
   3   2   2 5250.29 179.743  12
   3   2   2 5051.42 251.061  20
  -3   2  -2 4983.60 146.248  20
  -3   2  -2 4908.38 318.832   3
  -3   2  -3 2754.13 221.357  12
  -3   2  -3 2778.45 261.250  21
   3   2   3 2652.68 201.311  20
  -3   2  -3 2728.77 147.831  20
  -3   2  -4 15643.4 655.861  21
   3   2   4 16141.7 544.699  20
  -3   2  -4 16296.2 631.981   1
  -3   2  -4 16500.8 548.883   2
  -3   2  -4 16707.1 567.971  12
  -3   2  -4 17100.9 456.828  20
  -3   2  -5 24849.4 730.002  12
   3   2   5 23409.9 715.243  20
  -3   2  -5 24944.7 640.321  20
   3   2   5 23625.4 355.860  26
  -3   2  -5 23828.3 704.542   2
  -3   2  -5 24950.6 845.278   1
   3   2   6 5730.04 188.764  26
   3   2   6 5874.72 170.349  10
   3   2   6 5832.32 170.022   9
   3   2   6 6196.63 182.533   7
   3   2   7 809.325 74.9694   6
   3   2   7 960.056 109.857  26
   3   2   7 982.009 89.1785  10
   3   2   7 957.606 87.0451   9
   3   2   7 879.634 91.8136   7
   3   2   7 887.153 78.8495  17
   3   2   8 2223.98 159.674  26
   3   2   8 2312.15 129.817   9
   3   2   8 2339.50 142.292   7
   3   2   8 2275.80 131.978  10
   3   2   9 3265.42 176.917   7
   3   2   9 3122.56 158.158   9
   3   2   9 3018.15 194.902  26
  -3   3  11 4965.54 191.807  10
  -3   3  11 5006.19 199.303   8
  -3   3  11 5246.24 183.529   9
  -3   3  11 5509.95 229.183  26
  -3   3  10 3489.18 136.957   7
  -3   3  10 3285.03 147.293  10
  -3   3  10 3692.80 144.103   9
  -3   3  10 3710.21 179.243  26
  -3   3  10 3132.33 144.686  24
  -3   3  10 3633.07 160.218   8
  -3   3   9 1233.03 94.5595   8
  -3   3   9 1212.04 91.2546  10
  -3   3   9 1291.19 84.3487   9
  -3   3   9 1440.85 131.318  26
  -3   3   9 1214.75 78.7171   7
  -3   3   9 1252.61 94.3700  24
  -3   3   8 41170.8 490.707   8
  -3   3   8 41314.8 472.430  10
  -3   3   8 40704.7 505.840  26
  -3   3   8 42743.7 1055.22   2
  -3   3   8 39658.3 470.524  24
   3   3  -8 41936.6 1094.22  13
  -3   3   7 61162.2 621.454  22
   3   3  -7 65836.7 1380.28   1
  -3   3   7 61664.9 592.373  24
   3   3  -7 65014.3 1312.20  13
  -3   3   7 63224.9 1235.14   2
  -3   3   6 8423.53 187.501  22
  -3   3   6 9197.45 522.217  21
   3   3  -6 7689.75 422.754   1
  -3   3   6 7941.06 407.847   2
   3   3  -6 8019.88 433.854  13
  -3   3   6 8339.69 449.742   1
  -3   3   5 6380.06 346.812   2
   3   3  -5 6303.18 343.434   1
  -3   3   5 5658.60 363.985  20
   3   3  -5 6337.85 378.240   2
  -3   3   5 6258.19 364.357   1
   3   3  -5 6304.22 366.001  13
  -3   3   4 49722.4 991.160  21
  -3   3   4 49393.3 949.744  20
   3   3  -4 48540.8 870.499   1
  -3   3   4 49368.6 947.798   2
   3   3  -4 49831.6 990.053  13
   3   3  -4 48934.2 976.304   2
   3   3  -3 11895.8 435.604   2
  -3   3   3 11483.2 428.285  12
   3   3  -3 11922.0 357.494   1
   3   3  -3 11912.3 452.617  13
  -3   3   3 11534.8 401.181  20
  -3   3   2 18304.9 535.324  12
   3   3  -2 17865.3 483.538   2
  -3   3   2 18056.2 436.355  20
   3   3  -2 18083.1 529.132  13
  -3   3   1 8014.25 352.456  12
  -3   3   1 8242.17 235.631  20
   3   3  -1 7946.74 286.588   2
   3   3  -1 8016.48 333.357  13
  -3   3   0 128976. 989.276  20
   3   3   0 131761. 1455.76  20
  -3   3   0 129172. 1591.46  12
   3   3   0 130180. 1214.99   2
   3   3   0 129608. 1100.67   3
   3   3   0 128880. 1435.11  13
   3   3   1 119052. 1093.30  12
   3   3   1 118989. 1389.89  20
  -3   3  -1 121429. 1538.52  12
   3   3   1 118376. 1281.13  13
   3   3   2 3394.25 183.079  13
  -3   3  -2 3352.75 250.342  12
   3   3   2 3154.35 119.256  12
  -3   3  -2 3131.31 127.863  20
  -3   3  -2 3360.41 273.587   3
   3   3   2 3320.06 230.568  20
  -3   3  -3 24548.8 703.023  12
  -3   3  -3 24444.3 463.872  20
   3   3   3 23374.6 640.860  20
  -3   3  -3 24928.5 793.841   3
  -3   3  -3 23651.4 757.514  21
   3   3   3 24065.8 460.049  13
  -3   3  -4 10320.0 477.132  12
  -3   3  -4 10490.6 354.940  20
  -3   3  -4 10045.5 460.068   2
   3   3   4 10118.3 457.206  20
  -3   3  -4 9715.48 506.485   1
   3   3   5 6789.83 176.224   7
  -3   3  -5 6458.43 400.050  12
   3   3   5 6209.30 387.102  20
  -3   3  -5 6252.30 387.745   2
   3   3   5 6760.60 190.311  26
   3   3   6 3786.98 139.270  10
   3   3   6 3577.63 136.014  17
   3   3   6 3703.44 133.854   9
   3   3   6 3605.53 158.053  26
   3   3   6 3714.17 145.977   7
   3   3   7 7487.17 201.277  17
   3   3   7 7662.07 211.886  10
   3   3   7 7850.43 211.314   9
   3   3   7 7585.36 194.697   6
   3   3   7 7853.19 242.447  26
   3   3   7 7576.67 221.263   7
   3   3   8 1267.92 108.455  10
   3   3   8 1218.40 99.3801   9
   3   3   8 1302.89 138.990  26
   3   3   8 1108.58 111.113   7
  -3   4  11 3111.47 142.359   7
  -3   4  11 3039.11 159.798  10
   3   4 -11 2950.00 160.173  15
  -3   4  11 2955.96 158.563   8
  -3   4  10 1786.01 152.512  26
  -3   4  10 1862.91 125.314  10
   3   4 -10 1757.23 126.091  15
  -3   4  10 1988.35 124.758   8
  -3   4  10 2009.02 109.672   7
  -3   4  10 1719.41 117.520  24
  -3   4   9 15489.5 302.771   8
  -3   4   9 15575.1 298.652  10
   3   4  -9 15603.5 300.594  15
  -3   4   9 15366.9 324.184  26
  -3   4   9 15290.0 269.632   7
  -3   4   9 15262.1 303.867  24
  -3   4   8 1953.12 103.106  10
  -3   4   8 1668.44 229.456   2
  -3   4   8 1733.82 128.364  26
  -3   4   8 1863.90 103.736   8
   3   4  -8 1633.55 230.655  13
  -3   4   8 2001.45 115.455  24
   3   4  -7 1303.02 199.849   1
   3   4  -7 1174.50 191.473  13
  -3   4   7 1366.48 200.987   2
  -3   4   7 1154.13 91.6744  24
  -3   4   6 22880.1 322.997  22
  -3   4   6 22308.4 692.538   2
  -3   4   6 21633.4 312.860  24
   3   4  -6 22404.2 727.152   1
   3   4  -6 22502.9 758.442  13
  -3   4   5 4026.05 322.087  21
  -3   4   5 3721.83 304.013  20
   3   4  -5 3743.67 266.920   1
  -3   4   5 3722.38 275.234   2
   3   4  -5 3974.34 312.582   2
  -3   4   5 3496.23 283.587   1
   3   4  -5 3508.18 288.063  13
  -3   4   4 5131.33 328.352  21
  -3   4   4 6526.43 347.940  20
   3   4  -4 6628.08 312.994   1
  -3   4   4 6691.13 347.420   2
   3   4  -4 6694.75 373.590  13
   3   4  -4 6490.02 364.159   2
  -3   4   4 6328.04 335.832  12
  -3   4   3 8195.78 379.436  12
  -3   4   3 8715.72 361.460  20
   3   4  -3 8715.64 303.395   1
   3   4  -3 8287.19 398.333  13
   3   4  -3 8692.61 386.362   2
  -3   4   2 87681.6 1113.58  20
  -3   4   2 86972.2 1293.87  12
   3   4  -2 86695.9 1296.46  13
   3   4  -2 85392.9 1187.54   2
   3   4  -1 11144.2 353.502   2
  -3   4   1 11715.6 451.803  12
  -3   4   1 11495.7 323.007  20
   3   4  -1 11121.4 423.041  13
  -3   4   0 105146. 1476.25  12
   3   4   0 102720. 1076.81   2
   3   4   0 104492. 1386.58  20
  -3   4   0 106614. 1013.33  20
   3   4   0 104370. 1351.98  13
  -3   4  -1 61997.0 1133.34  12
   3   4   1 62427.7 1052.54  20
  -3   4  -1 61739.8 680.877  20
   3   4   1 60951.2 964.182  13
  -3   4  -2 75515.9 1291.23  12
   3   4   2 75021.5 1202.05  20
  -3   4  -2 74901.1 799.108  20
  -3   4  -2 77579.4 1384.30   3
   3   4   2 73089.5 1022.42  13
  -3   4  -3 55210.8 779.753  20
  -3   4  -3 56125.6 1161.67  12
  -3   4  -3 54747.8 1166.50  21
   3   4   3 53994.5 1071.16  20
   3   4   3 53581.1 516.852  14
   3   4   3 54452.1 846.104  13
  -3   4  -4 14054.9 598.996  12
  -3   4  -4 13470.2 617.895  21
  -3   4  -4 14732.0 439.526  20
   3   4   4 13474.2 558.537  20
  -3   4  -4 13821.2 629.800   1
   3   4   4 13986.2 241.787  14
  -3   4  -5 8025.08 475.642  12
   3   4   5 8440.83 200.553  18
   3   4   5 8434.07 213.505  26
   3   4   5 8476.98 202.047  17
   3   4   5 8498.73 204.183   7
  -3   4  -6-14.3919 107.427  12
   3   4   6 105.479 54.5519   7
   3   4   6 89.9484 43.8516   6
   3   4   6 84.4831 79.4289  26
   3   4   6 88.5661 47.8905  10
   3   4   6 109.758 61.2091  17
   3   4   6 26.7921 40.7091   9
   3   4   6 145.149 44.9179   8
   3   4   7 3374.33 135.162   6
   3   4   7 3882.07 181.721  26
   3   4   7 3751.89 153.446  10
   3   4   7 3666.83 143.077   9
   3   4   7 3461.31 147.170  17
   3   4   7 3492.75 159.077   7
   3   4   8 1331.96 113.580  10
   3   4   8 1289.57 107.696  17
   3   4   8 1347.05 102.346   9
   3   4   8 1524.17 147.065  26
   3   4   8 1473.81 120.191   7
  -3   5  11 291.643 72.5918   7
  -3   5  11 170.727 86.8203  10
  -3   5  11 195.481 80.9358   8
  -3   5  10 2862.52 145.558   8
  -3   5  10 2860.08 146.791  10
   3   5 -10 2749.03 145.178  15
  -3   5  10 2824.20 130.917   7
  -3   5  10 2778.92 151.649  24
  -3   5   9 934.875 89.2187   8
  -3   5   9 939.614 87.5700  10
   3   5  -9 1047.63 104.167  15
  -3   5   9 1028.27 102.296  24
  -3   5   9 1011.53 78.0240   7
  -3   5   8 5956.12 177.746  10
  -3   5   8 5812.42 177.726   8
   3   5  -8 6240.26 178.540  15
  -3   5   8 5787.07 194.022  24
   3   5  -7 5267.35 394.897   1
  -3   5   7 5142.72 154.799  10
  -3   5   7 4888.34 168.439  24
  -3   5   7 5238.05 158.174   8
  -3   5   7 4945.30 347.717   2
   3   5  -7 5417.77 401.159  13
   3   5  -6 4514.30 333.404   1
  -3   5   6 4787.24 380.478  21
  -3   5   6 4108.90 305.741   2
  -3   5   6 4899.06 154.688  24
   3   5  -6 4693.27 363.231  13
   3   5  -5 20718.0 637.689   1
  -3   5   5 20925.9 708.987   1
  -3   5   5 21970.0 311.674  24
  -3   5   5 20914.8 666.741   2
   3   5  -5 20682.9 718.984  13
  -3   5   4 58613.9 1089.97  21
  -3   5   4 56540.3 1084.06  12
  -3   5   4 59344.4 1140.03  20
   3   5  -4 57589.7 972.190   1
   3   5  -4 57349.5 1157.16   2
   3   5  -4 58196.3 1185.63  13
  -3   5   3 3132.03 246.929  12
  -3   5   3 3435.19 241.889  20
   3   5  -3 3132.57 186.287   1
   3   5  -3 3353.72 256.765   2
   3   5  -3 3410.46 275.676  13
  -3   5   2 2122.57 178.279  20
  -3   5   2 2132.25 204.034  12
   3   5  -2 2062.71 187.575   2
   3   5  -2 2101.46 116.558   1
   3   5  -2 2261.82 218.325  13
  -3   5   1 11919.7 376.272  20
   3   5  -1 12083.2 478.929  20
  -3   5   1 11796.0 481.063  12
   3   5  -1 12169.1 474.300  13
   3   5  -1 12069.2 394.021   2
   3   5   0 34193.4 592.770   2
  -3   5   0 33839.9 848.958  12
  -3   5   0 34453.6 602.353  20
   3   5   0 33750.7 810.662  20
   3   5   0 33461.3 780.452  13
  -3   5  -1 61536.6 1199.94  12
   3   5   1 60746.0 1127.49  20
  -3   5  -1 61280.2 800.491  20
   3   5   1 60595.0 1041.35  13
  -3   5  -1 56948.9 1181.38   3
   3   5   1 58113.4 665.040   2
   3   5   2 22004.5 595.438  13
  -3   5  -2 21618.4 721.910  12
   3   5   2 22523.6 690.826  20
  -3   5  -2 22425.2 467.934  20
   3   5   2 22859.3 294.712  14
  -3   5  -2 22303.1 757.743   3
   3   5   2 20473.0 294.419  12
   3   5   3 63086.1 590.166  14
  -3   5  -3 65162.4 1334.09  12
   3   5   3 64943.2 1260.49  20
   3   5   3 63445.0 1036.46  13
  -3   5  -4 33383.1 982.809  12
  -3   5  -4 33544.8 1002.06  21
   3   5   4 33792.6 409.787  14
   3   5   5 11513.7 243.402  18
   3   5   5 11388.4 227.991  10
   3   5   5 11363.7 229.449  14
   3   5   5 11274.4 246.664  17
   3   5   5 11526.9 254.424  26
   3   5   5 11576.7 245.854   7
   3   5   6 2625.14 118.283   6
   3   5   6 2593.13 120.855  10
   3   5   6 2645.49 132.986  17
   3   5   6 2724.42 113.723   9
   3   5   6 2771.42 111.622   8
   3   5   6 2828.22 149.711  26
   3   5   6 2899.29 137.225   7
   3   5   7 625.104 80.0891  10
   3   5   7 668.215 92.5938  17
   3   5   7 633.641 70.3539   9
   3   5   7 790.398 93.0523   7
   3   5   7 668.117 72.6464   8
   3   5   7 803.586 113.135  26
   3   5   8 2183.62 137.316  10
   3   5   8 2178.52 137.484  17
   3   5   8 2296.37 148.308   7
   3   5   8 2208.70 166.504  26
  -3   6  10 6273.58 212.738   8
  -3   6  10 5994.07 210.328  10
  -3   6  10 5782.44 186.490   7
  -3   6   9 6769.59 206.732   8
  -3   6   9 6812.94 210.155  10
  -3   6   9 6560.95 186.095   7
   3   6  -9 6380.61 203.345  15
  -3   6   9 7081.31 226.871  24
  -3   6   8 4330.59 156.622   8
  -3   6   8 4089.20 177.189  24
  -3   6   8 4401.35 159.162  10
   3   6  -8 4079.69 150.199  15
  -3   6   8 4206.41 137.752   7
  -3   6   7 1246.30 186.603   2
   3   6  -7 1164.32 73.9522  14
  -3   6   7 1121.17 84.8613  10
  -3   6   7 1146.28 85.6700   8
  -3   6   6 20030.5 736.162  21
  -3   6   6 22761.6 729.292   2
   3   6  -6 23423.3 767.088   1
  -3   6   6 20929.7 342.708  24
   3   6  -6 21884.0 295.294  14
   3   6  -6 22177.6 812.372  13
  -3   6   5 17320.8 631.706  21
  -3   6   5 18856.8 653.697   2
   3   6  -5 18707.4 268.420  14
   3   6  -5 18474.9 711.024  13
   3   6  -5 19178.7 625.368   1
  -3   6   5 20193.3 315.985  24
  -3   6   4 4547.12 300.602  21
  -3   6   4 4025.53 308.237  20
   3   6  -4 3992.13 313.832   2
   3   6  -4 4329.69 339.431  13
  -3   6   4 3932.59 294.013  12
   3   6  -4 4368.74 260.718   1
  -3   6   3 4131.57 299.397  12
  -3   6   3 4411.92 274.649  21
  -3   6   3 4154.96 290.866  20
  -3   6   3 4840.73 145.277  24
   3   6  -3 4215.53 217.837   1
   3   6  -3 4178.23 321.711  13
   3   6  -3 3945.14 290.903   2
  -3   6   2 93916.8 1481.24  12
   3   6  -2 89053.0 788.286   3
   3   6  -2 92175.4 928.753   1
  -3   6   2 94749.0 1348.83  20
   3   6  -2 92594.2 1353.48   2
   3   6  -2 93624.1 1523.94  13
  -3   6   1 37408.3 930.819  12
  -3   6   1 35969.5 747.824  20
   3   6  -1 37264.4 919.671  20
   3   6  -1 36623.8 747.335   2
   3   6  -1 37433.7 912.424  13
  -3   6   0 46056.4 1057.83  12
   3   6   0 46473.8 1027.50  20
   3   6   0 45519.2 457.441  14
   3   6   0 46011.8 990.242  13
   3   6   0 46557.0 759.085   2
  -3   6   0 45681.2 800.452  20
   3   6   1 9540.47 269.769   2
  -3   6  -1 9759.12 497.013  12
   3   6   1 9234.97 461.478  20
  -3   6  -1 9767.82 345.196  20
   3   6   1 9616.45 189.347  14
   3   6   1 9551.75 434.787  13
   3   6   2 8143.86 446.428  20
   3   6   2 7972.27 201.951  12
  -3   6  -2 7551.97 398.932  21
  -3   6  -2 7936.90 315.851  20
   3   6   2 8389.76 405.921  13
   3   6   2 7223.60 192.735  12
  -3   6  -2 8180.52 475.891  12
   3   6   2 8374.33 181.781  14
  -3   6  -2 7297.50 185.153  24
  -3   6  -3 57588.1 1321.03  12
  -3   6  -3 55441.3 571.252  24
   3   6   3 55391.9 556.015  14
   3   6   3 56619.1 1065.46  13
  -3   6  -4 1210.63 208.881  21
   3   6   4 1075.52 78.7851  14
   3   6   4 1161.66 84.0691  18
   3   6   4 1157.67 90.0717  17
   3   6   4 1205.31 87.1838   7
   3   6   5 2925.54 122.579  14
   3   6   5 2863.41 130.973  18
   3   6   5 2792.91 118.157  10
   3   6   5 2934.81 140.178  26
   3   6   5 2909.81 131.938   7
   3   6   5 2944.98 138.865  17
   3   6   6 1091.05 96.2542  18
   3   6   6 1252.53 93.6979  10
   3   6   6 1121.24 103.001  17
   3   6   6 1273.66 118.195  26
   3   6   6 1125.38 98.8479   7
   3   6   7 5519.90 188.062  10
   3   6   7 5345.18 198.028  17
   3   6   7 5652.50 170.605   8
   3   6   7 5631.36 215.964  26
   3   6   7 5563.79 202.658   7
   3   6   8 4575.45 186.256  10
   3   6   8 4066.00 182.061  17
   3   6   8 4277.97 206.902  26
   3   6   8 4523.01 198.375   7
  -3   7  10 165.162 73.2856   8
  -3   7  10 222.397 82.8131  10
  -3   7  10 199.493 61.1850   7
  -3   7  10 267.668 89.7123  24
  -3   7   9 221.581 73.5626  10
  -3   7   9 176.757 51.8382   7
  -3   7   9 153.228 61.2764   8
  -3   7   9 124.099 90.7225  24
  -3   7   8 5219.07 175.271   8
  -3   7   8 5283.82 182.788  10
  -3   7   8 5370.00 161.671   7
   3   7  -7 23827.2 384.817  18
  -3   7   7 23086.5 366.188  10
   3   7  -7 23713.9 336.773  14
  -3   7   7 23483.9 364.485   8
  -3   7   6 4068.62 336.097  21
  -3   7   6 5328.16 369.462   2
   3   7  -6 5317.68 176.828  18
  -3   7   6 5386.43 163.667  10
   3   7  -6 6188.14 160.744  14
  -3   7   6 5329.87 161.129   8
   3   7  -6 5544.00 379.031   1
  -3   7   6 4751.23 172.233  24
  -3   7   5 56115.4 1149.43  21
   3   7  -5 56229.1 555.389  14
   3   7  -5 59593.9 1152.68   1
  -3   7   5 57179.0 611.278  24
   3   7  -5 57217.6 1342.63  13
  -3   7   5 56047.4 1160.93  12
  -3   7   4 3533.72 296.448  12
  -3   7   4 4093.14 283.979  21
  -3   7   4 3729.93 312.275  20
   3   7  -4 4164.61 251.743   3
  -3   7   4 4455.85 159.179  24
   3   7  -4 4251.03 280.311   1
   3   7  -4 4366.39 141.020  14
   3   7  -4 4510.68 363.772  13
  -3   7   3 6777.99 338.165  21
   3   7  -3 8657.57 290.711   3
  -3   7   3 8312.61 434.717  20
  -3   7   3 7535.88 418.525  12
   3   7  -3 7695.67 303.351   1
   3   7  -3 7641.20 171.970  14
   3   7  -3 7621.46 422.276   2
  -3   7   3 7831.62 189.497  24
   3   7  -3 7535.02 452.862  13
  -3   7   2 13083.5 507.009  20
  -3   7   2 12869.7 551.282  12
   3   7  -2 12885.2 312.125   1
   3   7  -2 12144.0 220.021  14
   3   7  -2 12497.4 500.210   2
  -3   7   2 12764.7 247.100  24
   3   7  -2 12890.9 576.046  13
  -3   7   1 8923.04 470.079  12
   3   7  -1 8706.66 474.524  20
  -3   7   1 9259.80 208.123  24
   3   7  -1 8328.04 373.971   2
   3   7  -1 8346.09 181.058  14
  -3   7   1 8486.63 389.973  20
   3   7  -1 8716.03 462.025  13
  -3   7   0 11330.1 546.596  12
   3   7   0 10959.1 529.972  20
  -3   7   0 11074.0 423.361  20
   3   7   0 11425.6 391.814   2
   3   7   0 11104.2 212.024  14
  -3   7   0 11010.7 229.760  24
   3   7   0 10977.4 511.813  13
   3   7   1 613.364 135.374  13
   3   7   1 534.316 88.0530  12
  -3   7  -1 544.396 141.325  12
  -3   7  -1 660.281 110.349  20
   3   7   1 506.886 83.9686   2
   3   7   1 545.750 59.2386  14
  -3   7  -1 631.936 83.6999  24
  -3   7  -2 4902.84 390.684  12
  -3   7  -2 4529.76 309.278  21
   3   7   2 4328.07 137.303  14
   3   7   2 4631.46 331.177  13
  -3   7  -2 4292.15 262.174  20
  -3   7  -2 4710.97 152.946  24
   3   7   3 18787.6 310.619  18
   3   7   3 18816.7 317.493  17
   3   7   3 19234.0 301.838  14
   3   7   3 18833.4 658.302  13
  -3   7  -3 18781.9 312.764  24
   3   7   3 19110.5 309.785   7
  -3   7  -4 4529.11 383.797  21
  -3   7  -4 5233.40 176.857  24
   3   7   4 4729.79 153.177  14
   3   7   4 4715.57 157.851  18
   3   7   4 4749.48 167.638  17
   3   7   4 4870.29 162.380  26
   3   7   4 4858.10 166.434   7
   3   7   5 260.346 67.1882   7
   3   7   5 368.029 67.8628  18
   3   7   5 353.709 62.9722  10
   3   7   5 315.472 80.0275  26
   3   7   5 281.868 57.3429  14
  -3   7  -5 112.861 65.7659  24
   3   7   5 409.589 86.6373  17
   3   7   6 245.935 57.8415  14
   3   7   6 240.940 68.1572  18
   3   7   6 245.891 80.9864  17
   3   7   6 254.547 60.2920  10
   3   7   6 190.991 83.5392  26
   3   7   6 285.435 73.0844   7
   3   7   7 9594.76 252.489  10
   3   7   7 9228.76 266.130  17
   3   7   7 9335.29 279.344  26
   3   7   7 9022.08 264.975   7
   3   8  -9 1757.32 156.528  18
  -3   8   9 1747.29 124.222  10
  -3   8   9 1850.56 122.530   8
  -3   8   9 1582.43 138.318  24
  -3   8   9 1674.60 106.783   7
  -3   8   8 643.816 72.7393   7
  -3   8   8 654.280 80.0644   8
  -3   8   8 667.265 92.0387  10
   3   8  -8 629.582 74.5940  14
  -3   8   8 673.264 115.936  24
   3   8  -8 585.216 109.732  18
   3   8  -7 1899.50 131.731  18
  -3   8   7 1795.21 114.521  10
   3   8  -7 1928.04 106.764  14
  -3   8   7 1855.95 108.892   8
  -3   8   7 1671.67 136.984  24
  -3   8   7 1910.66 99.6656   7
   3   8  -6 7707.76 461.267   1
   3   8  -6 7642.79 218.106  18
  -3   8   6 7912.46 458.135   2
  -3   8   6 7906.69 207.427  10
   3   8  -6 7868.79 197.083  14
  -3   8   6 8153.13 206.882   8
  -3   8   6 8785.57 243.473  24
  -3   8   5 25538.6 791.039  12
   3   8  -5 26082.5 383.982  18
   3   8  -5 25312.2 755.080   1
   3   8  -5 25047.5 359.457  14
  -3   8   5 25838.2 399.921  24
  -3   8   4 11503.2 536.605  12
   3   8  -4 11061.9 233.759  18
   3   8  -4 11063.6 440.496   1
   3   8  -4 10934.2 224.697  14
  -3   8   4 10503.6 241.957  24
   3   8  -3 20.0976 44.0003   1
  -3   8   3 45.0813 74.7030  12
  -3   8   3-12.1824 81.7260  20
   3   8  -3 40.7509 111.205  13
   3   8  -3 5.39237 42.0949  14
  -3   8   3 8.69045 68.5350  24
  -3   8   2 2214.09 250.052  12
  -3   8   2 2311.81 238.967  20
  -3   8   2 2219.49 94.0269  14
   3   8  -2 2266.96 101.731  14
   3   8  -2 2256.47 232.782   2
  -3   8   2 3038.33 136.653  24
   3   8  -2 2194.71 258.768  13
  -3   8   1 17525.0 609.241  20
  -3   8   1 19292.5 733.011  12
   3   8  -1 18185.8 289.835  14
   3   8  -1 17960.7 585.689   2
  -3   8   1 18766.2 319.764  24
   3   8  -1 18641.4 718.821  13
  -3   8   0 9094.86 517.096  12
   3   8   0 9044.32 401.339  12
  -3   8   0 8535.89 408.506  20
  -3   8   0 8043.63 210.219  24
   3   8   0 8945.33 498.318  13
   3   8   0 8530.39 196.616  14
   3   8   0 8626.36 366.251   2
   3   8   1 11655.9 560.425  13
  -3   8  -1 11012.3 427.221  21
  -3   8  -1 11771.3 472.062  20
   3   8   1 11842.7 235.296  14
  -3   8  -1 11139.2 239.122  24
   3   8   2 30442.5 404.620  18
   3   8   2 30024.1 408.416  17
   3   8   2 30682.7 912.869  13
   3   8   2 30606.7 401.041  14
   3   8   2 29137.7 397.450   7
   3   8   3 2455.54 118.726  18
   3   8   3 2583.46 129.193  17
   3   8   3 2341.08 119.540   7
   3   8   3 2480.46 264.054  13
   3   8   3 2123.33 110.135  14
   3   8   4 4654.52 169.080   7
   3   8   4 4704.62 167.347  18
   3   8   4 4612.57 148.410  10
   3   8   4 5113.45 181.277  17
   3   8   4 4757.14 163.907  26
   3   8   4 4672.68 160.859  14
  -3   8  -4 4329.87 165.898  24
   3   8   5 1325.72 98.4587  14
   3   8   5 1383.04 108.978  18
   3   8   5 1529.47 97.3784  10
   3   8   5 1366.39 114.626  17
   3   8   5 1451.77 110.586  26
   3   8   5 1315.44 106.814   7
   3   8   6 3412.47 163.128  18
   3   8   6 3817.99 154.973  10
   3   8   6 3679.67 176.670  17
   3   8   6 3795.41 173.886  26
   3   8   6 3499.02 147.044  14
   3   8   6 3498.76 164.079   7
   3   8   7 1131.35 105.800  10
   3   8   7 1269.33 125.977  17
   3   8   7 1109.13 124.880  26
   3   8   7 1197.32 122.395   7
   3   9  -9 3674.44 196.667  18
  -3   9   9 3798.24 184.604  10
  -3   9   9 3777.16 170.149   8
  -3   9   9 3872.63 159.926   7
  -3   9   8 1625.37 114.070   8
   3   9  -8 1732.83 144.684  18
  -3   9   8 1718.30 125.055  10
   3   9  -8 1744.78 113.930  14
  -3   9   8 1670.68 145.542  24
  -3   9   8 1705.66 106.524   7
   3   9  -7 5950.65 213.224  18
  -3   9   7 6268.84 204.362  10
   3   9  -7 5864.26 185.115  14
  -3   9   7 6254.19 192.346   8
  -3   9   7 5637.47 227.859  24
  -3   9   7 6016.31 180.555   7
   3   9  -6 5845.71 200.401  18
  -3   9   6 5661.22 187.291  10
  -3   9   6 5930.89 171.455   7
   3   9  -6 5731.94 181.105  14
  -3   9   6 5927.89 180.604   8
  -3   9   6 5251.77 199.994  24
  -3   9   5 17251.7 680.220  12
   3   9  -5 17437.3 323.648  18
   3   9  -5 17632.5 313.007  14
  -3   9   5 17449.1 345.802  24
  -3   9   5 17148.1 287.876   7
  -3   9   4 4097.84 346.368  12
   3   9  -4 4593.80 164.586  18
  -3   9   4 4321.04 124.729  14
   3   9  -4 4732.49 157.334  14
  -3   9   4 4462.31 172.337  24
  -3   9   3 596.364 151.010  12
   3   9  -3 617.606 81.6078  18
  -3   9   3 471.409 57.1716  14
   3   9  -3 485.251 61.4697  14
  -3   9   3 520.841 87.0825  24
   3   9  -2 3019.22 289.127  12
   3   9  -2 2914.74 124.775  18
  -3   9   2 2885.38 299.579  12
  -3   9   2 3129.50 116.666  14
   3   9  -2 2832.88 121.500  14
  -3   9   2 2740.16 136.070  24
   3   9  -1 1924.14 220.305  12
  -3   9   1 1914.83 221.778  20
   3   9  -1 2012.48 104.396  18
  -3   9   1 1905.97 102.190  14
   3   9  -1 1944.14 222.826   2
  -3   9   1 1947.30 105.320  27
   3   9  -1 1947.81 105.048  14
  -3   9   1 2085.28 126.047  24
   3   9   0 4978.89 319.619  12
  -3   9   0 4808.66 332.709  20
   3   9   0 4947.78 156.951  18
  -3   9   0 4330.13 163.287  24
  -3   9   0 4968.12 157.431  27
   3   9   0 4812.98 157.452  14
   3   9   1 7511.64 197.323  18
   3   9   1 7656.01 197.262  17
   3   9   1 7714.96 191.189  15
   3   9   1 7694.44 200.879   7
   3   9   1 7570.16 200.802  14
  -3   9  -1 7762.88 212.532  24
  -3   9  -1 7365.05 193.776  27
  -3   9  -2 8887.83 220.489  27
   3   9   2 9490.78 225.869  18
   3   9   2 9372.91 229.347  17
   3   9   2 9214.53 225.172  14
   3   9   2 9387.04 224.206   7
   3   9   3 1041.83 75.3421  10
   3   9   3 1000.04 89.5422  18
   3   9   3 965.380 100.082  17
   3   9   3 996.883 86.9879  14
  -3   9  -3 801.419 104.361  24
   3   9   3 994.410 91.4203   7
   3   9   4 5643.80 193.037  18
   3   9   4 5909.39 172.356  10
   3   9   4 5902.79 202.463  17
   3   9   4 5624.62 183.415  14
   3   9   4 5667.20 179.359  26
   3   9   4 5647.26 193.104   7
   3   9   5 2407.38 138.686  18
   3   9   5 2224.86 117.452  10
   3   9   5 2199.37 134.926   7
   3   9   5 2467.08 153.434  17
   3   9   5 2233.62 123.098  14
   3   9   5 2359.02 137.798  26
   3   9   6 5395.11 208.346  18
   3   9   6 5354.72 186.136  10
   3   9   6 5279.82 213.918  17
   3   9   6 5126.23 204.828  26
   3   9   6 5076.94 180.974  14
   3   9   6 5158.85 202.972   7
   3  10  -8 3882.55 196.668  18
  -3  10   8 4019.29 184.720  10
   3  10  -8 3790.93 166.150  14
  -3  10   8 3724.77 164.335   8
  -3  10   8 3910.15 161.312   7
   3  10  -7 1079.60 125.401  18
  -3  10   7 1263.87 113.035  10
   3  10  -7 1265.75 105.580  14
  -3  10   7 1157.50 100.221   8
  -3  10   7 1143.51 142.996  24
  -3  10   7 1160.58 93.6068   7
  -3  10   6 327.903 69.4919   8
  -3  10   6 285.367 64.8311   7
   3  10  -6 279.220 99.8769  18
  -3  10   6 374.228 83.1172  10
   3  10  -6 322.203 68.3227  14
  -3  10   5 3078.67 119.175  18
   3  10  -5 2966.24 152.428  18
   3  10  -5 2891.53 138.012  14
  -3  10   5 2828.36 126.965   7
   3  10  -4 2846.25 143.218  18
  -3  10   4 2974.05 112.445  14
   3  10  -4 2961.88 136.792  14
  -3  10   4 3129.63 154.248  24
   3  10  -3 3383.10 145.792  18
  -3  10   3 3459.59 125.188  14
   3  10  -3 3381.42 142.426  14
   3  10  -2 21600.0 801.014  12
  -3  10   2 22150.9 378.000  24
   3  10  -2 22878.1 360.700  18
  -3  10   2 22256.5 333.217  14
   3  10  -2 22064.2 361.082  14
   3  10  -1 4641.56 360.821  12
   3  10  -1 4690.83 161.745  18
  -3  10   1 4859.16 159.180  14
  -3  10   1 5113.19 171.368  27
   3  10  -1 4982.06 168.323  14
  -3  10   1 5047.70 183.253  24
   3  10   0 4304.26 155.870  18
   3  10   0 4409.88 152.755  17
   3  10   0 4551.87 146.986  15
  -3  10   0 4707.76 176.572  14
  -3  10   0 4171.81 157.311  27
   3  10   0 4260.27 157.629  14
  -3  10   0 4021.88 167.467  24
  -3  10  -1 27.4475 60.3136  27
   3  10   1 19.3896 53.2979  18
   3  10   1 34.2344 63.9686  17
   3  10   1 112.998 56.6444  14
   3  10   2 1684.67 113.345   7
   3  10   2 1838.85 112.445  18
   3  10   2 1869.12 122.471  17
   3  10   2 1676.31 91.1073  10
  -3  10  -2 1747.12 114.849  27
   3  10   2 1726.42 110.045  14
  -3  10  -2 1445.85 121.345  24
   3  10   3 1253.01 104.164  18
   3  10   3 1149.04 84.0847  10
   3  10   3 1200.51 112.231  17
  -3  10  -3 1190.98 106.542  27
  -3  10  -3 1081.30 115.322  24
   3  10   3 1299.58 101.446  14
   3  10   3 1286.11 106.061   7
   3  10   4 1508.25 117.074  18
   3  10   4 1572.08 100.873  10
   3  10   4 1526.45 126.268  17
   3  10   4 1443.93 105.565  14
   3  10   4 1333.65 104.702  26
   3  10   4 1586.18 124.272   7
   3  10   5 841.426 106.229   7
   3  10   5 828.241 88.8677  10
   3  10   5 944.068 105.644  18
   3  10   5 1089.38 126.202  17
   3  10   5 814.262 89.6528  14
   3  10   5 845.867 102.713  26
   3  10   6 85.7426 82.7909   7
   3  10   6 126.106 58.1681  14
   3  10   6-26.5735 81.2037  18
   3  10   6 40.4898 63.6437  10
   3  10   6-30.7770 94.7607  17
   3  10   6-19.1641 88.5714  26
  -3  11   7 1679.07 114.787   7
   3  11  -7 1435.82 141.585  18
  -3  11   7 1428.28 122.191  10
  -3  11   7 1529.96 110.897   8
   3  11  -7 1453.09 118.924  14
  -3  11   7 1118.23 148.885  24
  -3  11   6 86.2372 62.4094   7
   3  11  -6-15.8724 93.7073  18
  -3  11   6 46.9022 80.0617  10
   3  11  -6 119.233 73.4757  14
  -3  11   6 22.9068 59.6239   8
  -3  11   6 82.7100 125.970  24
  -3  11   5 248.195 111.793  24
   3  11  -5 133.514 89.4895  18
  -3  11   5 136.426 62.2534   8
   3  11  -5 322.737 74.5017  14
  -3  11   4 1591.63 135.819  24
   3  11  -4 1623.39 122.860  18
  -3  11   4 1682.41 96.6455  14
   3  11  -4 1760.53 117.606  14
   3  11  -3 636.940 86.6890  18
   3  11  -3 633.313 72.1604  27
  -3  11   3 722.698 73.9188  14
   3  11  -3 578.375 79.7768  14
  -3  11   3 740.921 112.835  24
   3  11  -2 14421.6 296.864  18
   3  11  -2 14613.0 262.904  15
  -3  11   2 14811.2 280.414  14
   3  11  -2 14315.9 302.666  14
   3  11  -2 14473.5 263.186  27
  -3  11   2 13709.3 310.264  24
   3  11  -1 6076.99 191.777  18
   3  11  -1 6037.03 177.258  17
   3  11  -1 6121.02 173.459  15
  -3  11   1 6286.96 190.284  14
  -3  11   1 5864.23 192.311  27
   3  11  -1 5825.77 191.794  14
  -3  11   1 5404.12 199.030  24
   3  11   0 1308.03 101.249  18
   3  11   0 1512.48 107.229  17
   3  11   0 1517.05 95.2856  15
  -3  11   0 1481.58 114.625  14
  -3  11   0 1382.00 106.909  27
   3  11   0 1407.81 105.270  14
  -3  11   0 1492.20 123.158  24
   3  11   1 2587.28 134.696  18
   3  11   1 2511.05 135.507  17
  -3  11  -1 4736.66 182.638  14
  -3  11  -1 2630.47 140.761  27
   3  11   1 2491.73 134.336  14
  -3  11  -1 4136.98 177.493  24
  -3  11  -2 3120.54 153.391  27
   3  11   2 2924.21 148.344   7
   3  11   2 3036.48 148.644  18
   3  11   2 3063.20 153.157  17
   3  11   2 2907.50 124.807  10
  -3  11  -2 3150.72 167.554  14
   3  11   2 3145.78 148.995  14
  -3  11  -2 2649.86 153.678  24
  -3  11  -3 2539.84 145.747  27
   3  11   3 2461.19 140.815  18
   3  11   3 2533.77 120.808  10
   3  11   3 2416.50 146.400  17
  -3  11  -3 2523.48 166.646  14
   3  11   3 2472.46 136.234  14
   3  11   3 2503.83 147.670   7
   3  11   4 197.068 87.9557   7
   3  11   4 181.539 80.1403  18
   3  11   4 215.380 61.7412  10
   3  11   4 489.944 105.420  17
  -3  11  -4 268.479 116.153  14
  -3  11  -4 252.717 86.3960  27
   3  11   4 264.853 70.9578  14
   3  11   5 1495.14 130.140  18
   3  11   5 1359.97 108.245  10
   3  11   5 1254.24 133.216  17
   3  11   5 1269.91 109.193  14
  -3  11  -5 1373.76 157.089  14
   3  11   5 1509.03 136.755   7
  -3  12   6 103.171 58.5680   8
   3  12  -6 160.123 102.067  18
  -3  12   6 126.003 89.4991  10
  -3  12   6 177.731 70.1579   7
   3  12  -6 69.2737 69.6871  14
  -3  12   6 171.346 120.854  24
   3  12  -5 560.958 106.674  18
   3  12  -5 547.463 89.5431  14
  -3  12   5 475.824 75.1350   8
  -3  12   5 528.644 133.908  24
  -3  12   5 494.962 79.6782   7
   3  12  -4 311.240 85.2738  18
   3  12  -4 269.649 77.2124  14
  -3  12   4 254.092 108.925  24
  -3  12   3 217.699 94.9373  24
   3  12  -3 208.504 76.2983  18
   3  12  -3 198.078 64.3823  27
  -3  12   3 370.928 73.1277  14
   3  12  -3 325.401 78.6764  14
   3  12  -2 689.645 77.7462  27
   3  12  -2 764.622 93.3719  18
  -3  12   2 873.230 91.0449  14
   3  12  -2 734.135 91.2214  14
  -3  12   2 625.709 109.232  24
   3  12  -1 12152.5 287.727  18
   3  12  -1 12604.9 269.962  17
   3  12  -1 12393.8 296.403  14
   3  12  -1 12572.9 258.926  15
  -3  12   1 12910.7 284.052  14
  -3  12   1 12095.6 298.552  24
   3  12   0 3232.56 154.989  18
   3  12   0 3074.39 143.811  17
   3  12   0 3281.84 158.636  14
  -3  12   0 3154.68 156.527  14
  -3  12   0 3252.59 169.340  24
  -3  12   0 3223.04 161.770  27
  -3  12  -1 10298.0 272.770  27
   3  12   1 10825.2 274.800  18
   3  12   1 10379.7 269.271  17
  -3  12  -1 11406.0 296.039  14
   3  12   1 10684.1 275.180  14
  -3  12  -1 10254.7 273.601  24
   3  12   1 10823.4 278.823   7
   3  12   2 2343.43 141.614  18
   3  12   2 2302.99 147.364  17
  -3  12  -2 2456.51 168.868  14
  -3  12  -2 2155.03 143.735  27
   3  12   2 2368.86 139.819  14
  -3  12  -2 2035.40 141.546  24
   3  12   2 2437.76 150.354   7
   3  12   3 3541.31 173.433  18
   3  12   3 3475.08 179.517  17
   3  12   3 3432.61 147.178  10
  -3  12  -3 3480.82 189.200  14
  -3  12  -3 3513.69 176.232  27
   3  12   3 3493.47 165.777  14
   3  12   3 3546.92 179.537   7
   3  12   4 6604.43 236.106  18
   3  12   4 6379.71 203.536  10
   3  12   4 6612.99 248.496  17
   3  12   4 6405.37 221.644  14
  -3  12  -4 6155.38 249.759  14
  -3  12  -4 6052.90 234.942  27
   3  12   4 6594.36 238.749   7
  -3  13   5-23.1218 73.2166   7
   3  13  -5 139.849 89.9033  18
   3  13  -5 32.1571 76.1637  14
  -3  13   5 80.4348 62.4362   8
  -3  13   5 139.048 126.222  24
  -3  13   4 2214.88 173.564  24
   3  13  -4 2353.60 135.973  27
   3  13  -4 2384.99 150.192  18
   3  13  -4 2444.00 152.886  14
  -3  13   3 3490.64 193.051  24
   3  13  -3 3693.21 157.235  27
   3  13  -3 3608.66 173.126  18
  -3  13   3 3716.53 156.459  14
   3  13  -3 3598.28 178.386  14
   3  13  -2 413.865 77.2983  27
   3  13  -2 496.176 89.7625  18
  -3  13   2 339.983 80.4840  14
   3  13  -2 462.801 93.9452  14
  -3  13   2 430.559 109.889  24
   3  13  -1 6759.33 225.622  18
  -3  13   1 7066.45 224.857  14
   3  13  -1 7183.93 238.390  14
  -3  13   1 7059.76 244.188  24
  -3  13   0 3823.25 183.644  24
   3  13   0 3364.72 167.186  18
  -3  13   0 3251.97 171.666  27
  -3  13   0 3670.29 177.001  14
   3  13   0 3514.88 172.573  14
  -3  13  -1 3716.67 183.847  27
   3  13   1 3592.81 173.985  18
  -3  13  -1 3724.19 183.004  14
   3  13   1 3759.39 178.328  14
  -3  13  -1 3499.86 180.283  24
   3  13   1 3593.17 180.856   7
  -3  13  -2 2097.06 151.728  27
   3  13   2 2290.28 149.610  18
  -3  13  -2 1992.36 158.676  14
   3  13   2 2047.74 139.245  14
   3  13   2 2102.45 156.342   7
   3  14  -2 328.058 90.7076  18
   3  14  -2 289.055 75.2589  27
  -3  14   2 352.964 87.9199  14
   3  14  -2 302.430 91.8651  14
  -3  14   2 421.375 118.069  24
   3  14  -1 1496.61 128.179  18
  -3  14   1 1501.50 128.046  14
   3  14  -1 1476.98 131.671  14
  -3  14   1 1302.44 137.918  24
   3  14   0 2295.50 153.531  14
  -3  14   0 2028.17 150.393  24
   3  14   0 2352.36 153.196  18
  -3  14   0 2191.84 150.594  14
   4 -13  -4 828.438 119.662  19
   4 -13  -4 914.876 130.012  16
  -4 -13   4 775.627 136.193  16
  -4 -13   4 880.238 109.039   5
  -4 -13   4 668.395 165.942  25
   4 -13  -4 777.624 97.4886   4
   4 -13  -4 681.032 106.830  23
   4 -13  -3 2595.33 134.458   6
   4 -13  -3 2722.52 157.405  19
  -4 -13   3 2752.10 162.774   5
   4 -13  -3 2723.94 154.973   4
   4 -13  -3 2563.02 173.504  16
  -4 -13   3 2584.14 188.417  16
  -4 -13   3 2662.82 213.037  25
   4 -13  -3 2843.65 166.961  23
   4 -13  -2 7576.08 228.764   6
   4 -13  -2 7794.18 229.771  19
  -4 -13   2 7669.05 248.468   5
   4 -13  -2 7180.41 258.878  16
  -4 -13   2 6998.43 271.612  16
   4 -13  -2 7459.31 242.675   4
   4 -13  -2 7529.61 249.254  23
   4 -13  -1 15054.3 348.411  23
   4 -13  -1 14643.9 325.892   6
  -4 -13   1 15519.1 344.212   5
   4 -13  -1 14424.1 360.349  16
  -4 -13   1 13685.6 372.046  16
   4 -13  -1 15417.8 347.188   4
   4 -13   0 3304.61 165.204   6
  -4 -13   0 3454.23 170.410   5
   4 -13   0 3429.65 189.929  16
   4 -13   0 3524.66 172.180   4
   4 -13   0 3556.41 178.950  23
   4 -13   1 1342.63 121.620   6
  -4 -13  -1 1414.98 117.804   5
   4 -13   1 1530.71 139.732  16
  -4 -13  -1 1447.62 186.715  16
   4 -13   1 1463.89 125.181   4
   4 -13   1 1450.90 126.143  23
   4 -12  -6 949.911 137.198  19
   4 -12  -6 787.860 118.376  16
  -4 -12   6 937.930 104.389   5
  -4 -12   6 1046.34 167.571  25
   4 -12  -6 997.677 116.724  23
   4 -12  -5 6481.65 240.188  19
  -4 -12   5 6603.05 227.290   5
   4 -12  -5 6401.10 230.568  16
   4 -12  -5 6819.09 232.648   4
  -4 -12   5 6133.67 274.517  25
   4 -12  -5 6571.59 230.877  23
   4 -12  -4 2180.84 150.776  19
  -4 -12   4 2422.48 145.852   5
   4 -12  -4 2269.62 156.865  16
  -4 -12   4 2399.25 163.235  16
  -4 -12   4 1963.84 181.472  25
   4 -12  -4 2474.51 139.623   4
   4 -12  -4 2358.55 150.323  23
   4 -12  -3 2423.15 139.225   4
   4 -12  -3 2218.17 144.432  23
   4 -12  -3 1958.90 112.937   6
   4 -12  -3 1876.65 135.773  19
  -4 -12   3 2193.61 138.120   5
   4 -12  -3 2227.41 161.144  16
  -4 -12   3 2041.98 163.286  16
  -4 -12   3 1721.26 172.146  25
   4 -12  -2 7.63415 77.2944  19
   4 -12  -2 51.6699 49.0186   6
   4 -12  -2 122.144 102.230  16
  -4 -12   2-46.4005 117.449  16
  -4 -12   2-15.9116 76.2282   5
   4 -12  -2 39.5407 63.4216   4
   4 -12  -2 26.5238 79.1226  23
   4 -12  -1 2188.45 127.565   6
  -4 -12   1 2200.06 135.062   5
   4 -12  -1 2390.32 155.394  16
   4 -12  -1 2286.22 133.711   4
   4 -12  -1 2421.89 146.913  23
   4 -12   0 5472.17 206.901  23
   4 -12   0 5202.15 191.924   6
  -4 -12   0 5376.60 195.885   5
   4 -12   0 5533.29 215.792  16
  -4 -12   0 4911.95 232.649  16
   4 -12   0 5613.13 200.170   4
   4 -12   1 6155.48 215.478   6
  -4 -12  -1 6229.88 208.004   5
   4 -12   1 6056.93 223.597  16
   4 -12   1 6389.53 218.377   4
   4 -12   1 6204.93 222.627  23
   4 -12   2 988.586 107.643   6
  -4 -12  -2 940.584 96.9428   5
   4 -12   2 1102.69 121.800  16
  -4 -12  -2 774.909 150.765  16
   4 -12   2 920.518 104.754   4
   4 -12   2 1011.52 113.291  23
   4 -12   3 1034.46 115.157   6
   4 -12   3 1207.23 115.314   4
  -4 -12  -3 1085.32 99.9204   5
   4 -12   3 1309.50 125.695  16
  -4 -12  -3 1019.15 175.231  16
  -4 -11   7 3533.85 167.592   5
   4 -11  -7 2960.56 160.548  16
  -4 -11   7 3534.34 159.423   9
   4 -11  -7 3556.58 202.401  19
  -4 -11   7 2727.39 197.040  25
   4 -11  -7 3531.14 174.553  23
   4 -11  -6 1569.93 153.178  19
   4 -11  -6 1561.58 130.171  16
  -4 -11   6 1921.96 176.911  25
  -4 -11   6 1681.24 119.702   5
   4 -11  -6 1723.50 126.593  23
   4 -11  -5 23229.3 422.236  19
  -4 -11   5 23495.5 408.641   5
   4 -11  -5 22075.5 402.783  16
  -4 -11   5 22026.5 451.585  25
   4 -11  -5 23601.4 414.345  23
  -4 -11   4 3702.99 163.524   5
   4 -11  -4 3614.42 175.199  16
  -4 -11   4 3918.29 177.162  16
   4 -11  -4 3835.86 164.779   4
  -4 -11   4 3856.47 209.244  25
   4 -11  -4 3632.11 171.411  19
   4 -11  -4 3611.91 164.206  23
   4 -11  -3 997.984 78.9227   6
   4 -11  -3 1047.47 106.977  19
  -4 -11   3 961.616 95.6013   5
   4 -11  -3 1016.72 111.411  16
  -4 -11   3 1151.00 126.388  16
   4 -11  -3 1093.45 95.2230   4
   4 -11  -3 987.343 102.276  23
   4 -11  -2 2953.26 139.258   4
   4 -11  -2 2563.78 124.959   6
   4 -11  -2 2717.28 137.365  19
  -4 -11   2 2826.09 140.825   5
   4 -11  -2 2663.12 157.138  16
  -4 -11   2 2485.05 164.211  16
   4 -11  -2 2944.46 149.043  23
   4 -11  -1 672.975 75.1308   6
   4 -11  -1 662.188 77.9029  19
   4 -11  -1 653.593 99.0732  16
  -4 -11   1 736.369 85.8161   5
   4 -11  -1 716.229 93.9381  23
   4 -11  -1 745.726 81.4601   4
   4 -11   0 2756.81 137.064   6
   4 -11   0 2729.13 137.161   4
  -4 -11   0 2774.25 136.200   5
   4 -11   0 2720.03 151.147  16
  -4 -11   0 2528.42 178.021  16
   4 -11   0 2769.56 145.609  23
   4 -11   1 1391.23 108.562   6
   4 -11   1 1520.63 109.619   4
  -4 -11  -1 1438.21 105.383   5
   4 -11   1 1439.60 118.942  16
  -4 -11  -1 1344.23 147.713  16
  -4 -11  -1 1341.86 105.122  22
   4 -11   1 1519.82 114.221  23
   4 -11   2 153.115 65.9017   4
   4 -11   2 21.8564 63.3608   6
   4 -11   2 105.251 73.5771  16
  -4 -11  -2 46.7468 113.803  16
  -4 -11  -2 126.802 56.6324   5
   4 -11   2 130.152 67.5013  23
   4 -11   3 2255.81 143.856   6
   4 -11   3 2362.84 146.989  16
  -4 -11  -3 2467.51 128.762   5
  -4 -11  -3 2201.65 183.507  16
   4 -11   3 2017.56 127.111  25
   4 -11   3 2479.44 141.569   4
   4 -11   4 860.572 102.064   4
   4 -11   4 761.258 102.726   6
  -4 -11  -4 621.484 153.640  16
   4 -11   4 697.444 96.8330  25
  -4 -10   8 7496.32 223.648   5
   4 -10  -8 7530.75 245.977  23
  -4 -10   8 7769.97 238.588   9
  -4 -10   8 7032.55 275.995  25
   4 -10  -8 7572.14 273.687  19
   4 -10  -7 452.725 123.067  19
  -4 -10   7 320.267 66.4696   5
  -4 -10   7 365.195 83.9225   9
  -4 -10   7 403.333 124.830  25
   4 -10  -7 302.527 86.7508  23
   4 -10  -6 4282.43 198.607  19
  -4 -10   6 4389.06 170.049   5
  -4 -10   6 4284.61 215.299  25
   4 -10  -6 4197.26 176.841  16
  -4 -10   6 4763.24 167.959   9
   4 -10  -6 4483.24 181.815  23
  -4 -10   5 4252.90 209.670  25
  -4 -10   5 4714.11 173.070   5
   4 -10  -5 4404.73 176.748  16
   4 -10  -5 4678.58 191.904  19
  -4 -10   5 4953.84 162.065   9
   4 -10  -5 4465.50 175.533  23
   4 -10  -4 6192.07 204.143  19
  -4 -10   4 5666.44 188.104   5
   4 -10  -4 6070.75 198.840  16
  -4 -10   4 6413.83 199.906  16
  -4 -10   4 5716.96 238.078  25
   4 -10  -4 6021.35 195.432  23
   4 -10  -3 3937.86 135.506   6
   4 -10  -3 4103.73 161.723  19
  -4 -10   3 4205.72 160.293   5
   4 -10  -3 4410.32 174.404  16
  -4 -10   3 4147.20 172.596  16
   4 -10  -3 4139.71 156.128   4
   4 -10  -3 4107.93 161.612  23
   4 -10  -2 599.235 69.7351   4
   4 -10  -2 502.640 61.5305   6
   4 -10  -2 602.702 84.6613  19
   4 -10  -2 520.277 87.9237  16
  -4 -10   2 617.994 98.3734  16
  -4 -10   2 496.004 69.3752   5
   4 -10  -2 522.729 83.4148  23
   4 -10  -1 5849.51 176.908   6
   4 -10  -1 5889.05 171.470  19
   4 -10  -1 6032.13 190.528  23
  -4 -10   1 6140.15 187.193   5
   4 -10  -1 6139.11 199.546  16
  -4 -10   1 6615.21 222.615  16
   4 -10  -1 5938.54 182.587   4
   4 -10   0 1964.11 111.323   4
  -4 -10   0 1845.47 105.685  22
   4 -10   0 1663.00 105.696   6
  -4 -10   0 1719.21 104.997   5
   4 -10   0 1943.19 127.305  16
  -4 -10   0 1848.51 140.854  16
   4 -10   0 1773.71 111.966  23
   4 -10   1 4213.22 164.461  23
   4 -10   1 3989.44 160.798   6
   4 -10   1 4360.91 173.118  16
  -4 -10  -1 4053.86 154.149   5
  -4 -10  -1 3964.68 188.738  16
   4 -10   1 4296.10 161.460   4
  -4 -10  -1 4063.99 158.111  22
   4 -10   2 1593.60 112.333   6
   4 -10   2 1672.28 110.824   4
   4 -10   2 1811.41 121.780  16
  -4 -10  -2 1569.98 100.467   5
  -4 -10  -2 1869.60 157.586  16
   4 -10   2 1743.29 107.287  25
   4 -10   2 1607.75 112.315  23
   4 -10   3 753.633 87.5928   4
   4 -10   3 600.549 84.0849   6
   4 -10   3 695.782 93.6456  16
  -4 -10  -3 529.611 124.288  16
  -4 -10  -3 693.005 74.7216   5
   4 -10   3 560.428 79.9261  25
   4 -10   4 2946.83 159.144   6
  -4 -10  -4 3127.92 200.799  16
   4 -10   4 2880.50 148.255   4
   4 -10   4 3136.92 159.771  25
   4 -10   5 366.958 88.9262   6
  -4 -10  -5 395.275 141.021  16
   4 -10   5 369.222 69.8504   9
   4 -10   5 358.220 86.4742  25
   4  -9  -9 5869.22 247.273  19
   4  -9  -9 5678.83 220.357  23
  -4  -9   9 5736.72 216.854   9
   4  -9  -8 45.6636 111.446  19
  -4  -9   8 62.0047 51.2028   5
  -4  -9   8 87.3109 78.6198   9
  -4  -9   8 109.466 106.748  25
   4  -9  -8-5.68075 79.5365  23
   4  -9  -7 198.159 103.821  19
  -4  -9   7 28.4722 48.3208   5
  -4  -9   7 128.466 80.6268   9
  -4  -9   7 182.102 109.466  25
   4  -9  -7 109.616 71.2340  23
   4  -9  -6 11045.2 285.289  19
  -4  -9   6 11225.6 251.098   5
   4  -9  -6 11386.8 254.672  16
  -4  -9   6 11309.7 250.135   9
   4  -9  -6 11340.3 266.518  23
  -4  -9   5 11887.1 305.605  25
   4  -9  -5 13831.0 297.854  19
   4  -9  -5 13692.4 285.710  23
  -4  -9   5 13502.1 272.974   5
   4  -9  -5 13105.6 271.614  16
  -4  -9   5 12425.3 252.518   9
   4  -9  -4 12664.2 273.278  19
  -4  -9   4 12753.6 262.759   5
   4  -9  -4 12354.0 269.455  16
   4  -9  -4 12625.2 266.697  23
   4  -9  -3 2506.15 275.482  20
   4  -9  -3 2654.90 129.455  19
   4  -9  -3 2369.93 119.772  23
  -4  -9   3 2398.05 117.025   5
   4  -9  -3 2623.81 137.508  16
   4  -9  -3 2579.94 118.133   4
  -4  -9   2 71.4316 54.9914  22
   4  -9  -2 115.803 63.4261  19
   4  -9  -2 180.614 75.7096  16
   4  -9  -2 237.872 70.2162  23
  -4  -9   2 165.803 53.1283   5
   4  -9  -2 176.122 46.2857   4
  -4  -9   1 14022.9 251.551  22
   4  -9  -1 13098.0 254.129   6
   4  -9  -1 13668.2 282.349  16
  -4  -9   1 13122.9 260.902   5
   4  -9  -1 13184.8 258.673   4
   4  -9  -1 13512.2 269.344  23
   4  -9   0 26709.9 388.703   6
   4  -9   0 28579.7 422.224  16
  -4  -9   0 26959.8 387.794   5
  -4  -9   0 28137.0 433.849  16
   4  -9   0 27881.5 399.856  23
   4  -9   0 27738.7 392.214   4
  -4  -9   0 28357.5 385.041  22
   4  -9   1 903.226 79.9718   6
   4  -9   1 920.147 88.0953  16
  -4  -9  -1 1002.34 81.0155   5
  -4  -9  -1 686.518 106.895  16
   4  -9   1 955.668 79.7999   4
   4  -9   1 910.308 84.7178  23
   4  -9   2 4148.67 159.485   6
   4  -9   2 4277.94 156.878   4
   4  -9   2 4458.75 167.910  16
  -4  -9  -2 4297.95 147.510   5
  -4  -9  -2 4505.30 189.103  16
   4  -9   2 4458.85 158.914  25
   4  -9   2 4224.65 158.060  23
   4  -9   3 6953.61 213.099   6
   4  -9   3 7311.04 219.245  16
   4  -9   3 6833.92 182.022   9
  -4  -9  -3 7409.42 193.385   5
  -4  -9  -3 6708.23 240.410  16
   4  -9   3 6913.99 210.792  25
   4  -9   3 7013.91 206.400   4
   4  -9   4 2315.63 134.717   6
   4  -9   4 2398.88 120.158   9
  -4  -9  -4 2139.27 172.517  16
   4  -9   4 2172.46 131.547  25
   4  -9   4 2427.79 132.243   4
   4  -9   5 401.995 84.6926   6
  -4  -9  -5 321.016 125.297  16
   4  -9   5 392.180 87.1855  25
   4  -9   5 486.003 74.5628   9
   4  -8  -9-36.3076 118.053  19
  -4  -8   9 215.705 82.9204   9
  -4  -8   9-9.92679 99.2054  25
   4  -8  -9 69.5743 77.1525  23
  -4  -8   8 573.861 68.9320   5
   4  -8  -8 501.642 88.4736  23
  -4  -8   8 428.963 89.6448   9
  -4  -8   8 477.051 107.060  25
   4  -8  -7 468.799 107.900  19
  -4  -8   7 424.359 60.4423   5
  -4  -8   7 376.615 78.7383   9
  -4  -8   7 371.168 104.880  25
   4  -8  -7 448.955 81.7157  23
   4  -8  -6 4367.92 177.448  19
  -4  -8   6 4206.56 146.753   5
  -4  -8   6 3923.25 150.371   9
  -4  -8   6 3761.96 187.375  25
   4  -8  -6 4060.71 158.916  23
   4  -8  -5 41363.1 520.477  19
  -4  -8   5 40896.8 485.070   5
  -4  -8   5 41532.7 559.121  25
   4  -8  -5 41258.7 505.263  23
   4  -8  -4 24163.8 827.440  20
   4  -8  -4 24347.4 367.278  19
  -4  -8   4 22969.0 839.293   2
  -4  -8   4 23159.6 344.438   5
  -4  -8   4 23234.8 399.351  25
   4  -8  -4 24138.0 358.419  23
   4  -8  -3 912.603 162.715  20
   4  -8  -3 725.760 199.139   3
  -4  -8   3 1032.07 78.6739   5
  -4  -8   3 774.858 169.442   2
   4  -8  -3 988.941 81.4473  23
  -4  -8   2 7244.95 176.505  22
   4  -8  -2 6972.76 392.193  20
   4  -8  -2 6617.92 468.659   3
  -4  -8   2 6247.03 389.735   2
  -4  -8   2 6712.48 175.149   5
   4  -8  -2 6589.52 171.033   4
   4  -8  -2 6564.17 175.982  23
   4  -8  -1 47599.9 523.983  23
   4  -8  -1 49854.1 524.058   4
   4  -8  -1 49756.3 1257.39   3
   4  -8  -1 47802.4 539.007  16
  -4  -8   1 48285.4 523.062   5
  -4  -8   1 48262.1 502.305  22
   4  -8   0 3346.11 129.816  23
   4  -8   0 3250.89 125.503   6
   4  -8   0 3407.00 123.861   4
   4  -8   0 3460.40 139.659  16
  -4  -8   0 3299.56 124.857   5
  -4  -8   0 3356.29 147.067  16
  -4  -8   0 3390.49 128.127  22
   4  -8   1 3806.78 138.814   6
   4  -8   1 3887.63 150.114  16
  -4  -8  -1 3645.99 129.272   5
  -4  -8  -1 3755.71 167.321  16
   4  -8   1 3770.99 135.728   4
   4  -8   1 3639.67 136.468  23
   4  -8   2 3379.53 138.110   6
   4  -8   2 3702.36 146.400  16
  -4  -8  -2 3420.95 126.891   5
  -4  -8  -2 3655.05 165.372  16
   4  -8   2 3516.92 134.495   4
   4  -8   2 3510.16 138.093  23
   4  -8   3 6598.75 198.855   6
   4  -8   3 6439.99 175.127   9
  -4  -8  -3 6838.32 178.808   5
  -4  -8  -3 6436.13 226.188  16
   4  -8   3 6742.86 198.041  25
   4  -8   3 6307.34 176.118  26
   4  -8   3 6625.67 190.527   4
   4  -8   4 2999.06 143.580   6
   4  -8   4 3186.22 134.434   9
  -4  -8  -4 3090.13 121.692   5
  -4  -8  -4 3495.85 178.591  16
   4  -8   4 3158.21 130.410  26
   4  -8   4 3388.80 160.988  25
   4  -8   5 3868.98 169.440   6
   4  -8   5 4199.99 183.550  25
   4  -8   5 3806.87 158.667   9
  -4  -8  -5 4198.04 210.200  16
   4  -8   6 5191.87 203.017   6
   4  -8   6 5291.53 196.368   9
  -4  -8  -6 5013.51 229.317  16
   4  -7 -10 2234.18 170.578  19
  -4  -7  10 2182.20 149.284   9
  -4  -7  10 1997.43 153.624  25
   4  -7 -10 2136.16 148.422  23
   4  -7  -9 784.539 132.249  19
  -4  -7   9 834.094 104.621   9
  -4  -7   9 560.112 108.427  25
   4  -7  -9 906.008 105.816  23
   4  -7  -8 8558.61 254.303  19
  -4  -7   8 8377.03 198.496   5
  -4  -7   8 8615.53 236.152   9
  -4  -7   8 8900.02 265.959  25
   4  -7  -8 8835.01 241.479  23
  -4  -7   7 9570.57 209.039   5
  -4  -7   7 9658.80 237.923   9
   4  -7  -7 9410.64 238.089  23
   4  -7  -7 9306.40 248.925  19
   4  -7  -6 18509.7 334.839  19
  -4  -7   6 17668.7 287.906   5
  -4  -7   6 17460.5 303.260   9
  -4  -7   6 19327.1 287.800  22
   4  -7  -6 18904.9 323.895  23
  -4  -7   5 5101.79 140.587  22
  -4  -7   5 4931.74 355.599  21
   4  -7  -5 4884.58 382.493  20
   4  -7  -5 5427.04 174.510  19
  -4  -7   5 5028.87 183.725  25
   4  -7  -5 5096.33 160.291  23
   4  -7  -4 40400.4 469.249  23
  -4  -7   4 40511.3 1066.37   2
   4  -7  -4 40824.2 1023.19  20
   4  -7  -3 11830.0 506.664  20
  -4  -7   3 12490.9 548.118   2
   4  -7  -3 11959.4 229.115  23
   4  -7  -2 1407.67 172.636  20
   4  -7  -2 1436.27 220.333   3
  -4  -7   2 1397.01 186.064   2
   4  -7  -2 1418.00 76.7858   4
   4  -7  -2 1511.03 90.5864  23
  -4  -7   1 27543.3 347.066  22
   4  -7  -1 27943.9 900.121   3
  -4  -7   1 25899.0 682.544   2
   4  -7  -1 26226.5 339.304   4
   4  -7  -1 25977.1 346.463  23
   4  -7   0 48519.8 1213.23   3
  -4  -7   0 48056.4 505.009  22
   4  -7   0 47192.2 490.428   4
   4  -7   0 46188.6 493.969  23
   4  -7   1 807.161 194.915   3
   4  -7   1 738.040 69.3870  16
   4  -7   1 776.528 62.7765   4
   4  -7   1 761.835 149.344  13
   4  -7   1 781.963 66.6122  23
  -4  -7  -1 693.287 152.371  13
  -4  -7  -2 2138.68 237.255  21
   4  -7   2 2151.77 108.766   6
   4  -7   2 2311.01 114.666  16
  -4  -7  -2 2182.04 128.593  16
   4  -7   2 2170.12 226.102  13
   4  -7   2 2155.60 101.695   4
  -4  -7  -2 2103.05 229.559  13
   4  -7   2 2230.55 106.462  23
  -4  -7  -3 8928.83 506.812  21
   4  -7   3 9072.62 223.891   6
   4  -7   3 9087.27 206.040   9
  -4  -7  -3 9217.25 251.798  16
   4  -7   3 9310.88 214.391   4
   4  -7   4 1930.80 114.725   6
   4  -7   4 1979.38 105.242  26
   4  -7   4 2031.65 108.331   9
  -4  -7  -4 2224.07 143.809  16
  -4  -7  -4 1958.21 95.4090   5
   4  -7   4 2040.73 126.713  25
   4  -7   5 1708.33 117.433   6
   4  -7   5 1601.46 107.804   9
  -4  -7  -5 1702.13 147.802  16
   4  -7   5 1641.59 103.065  26
   4  -7   6 455.259 81.6097   6
  -4  -7  -6 490.091 120.922  16
   4  -7   6 461.271 81.1905   9
   4  -7   6 535.315 76.2055  26
   4  -6 -10 799.427 126.082  19
  -4  -6  10 982.574 115.226   9
  -4  -6  10 721.362 78.9947   8
  -4  -6  10 529.778 106.137  25
   4  -6 -10 749.958 104.384  23
  -4  -6   9 1406.29 103.876  22
   4  -6  -9 1629.67 145.910  19
  -4  -6   9 1305.21 124.414  25
  -4  -6   9 1720.85 130.530   9
   4  -6  -9 1612.74 124.731  23
   4  -6  -8 2818.32 151.817  19
  -4  -6   8 3070.01 158.785  25
  -4  -6   8 2667.17 137.252   9
  -4  -6   8 2790.97 127.374  22
   4  -6  -8 2905.16 142.876  23
  -4  -6   7 3031.36 121.552  22
   4  -6  -7 3377.15 153.652  19
  -4  -6   7 3246.54 142.154   9
  -4  -6   7 3163.88 156.284  25
   4  -6  -7 2955.60 134.776  23
  -4  -6   6 5932.45 158.266  22
   4  -6  -6 5958.29 181.648  19
   4  -6  -6 5750.28 170.156  23
  -4  -6   5 18995.0 691.009  21
   4  -6  -5 20526.8 736.776  20
  -4  -6   5 20177.0 762.356   2
   4  -6  -5 19771.8 306.256  23
   4  -6  -4 110331. 886.047  23
  -4  -6   4 114878. 1671.31  21
  -4  -6   4 109778. 1751.69   2
   4  -6  -4 112247. 1680.83  20
   4  -6  -4 107412. 1711.72  12
   4  -6  -3 47628.0 1097.14  12
   4  -6  -3 49640.0 998.162  20
  -4  -6   3 47662.3 1044.03   2
   4  -6  -3 46992.0 481.692  23
   4  -6  -2 13724.0 468.625  20
   4  -6  -2 13269.7 599.761   3
  -4  -6   2 13374.2 503.681   2
   4  -6  -2 13453.9 219.336   4
   4  -6  -2 13014.9 564.869  13
  -4  -6   2 13370.9 573.371  13
   4  -6  -2 13446.2 226.315  23
   4  -6  -1 12288.0 207.203   4
   4  -6  -1 13237.7 592.263   3
  -4  -6   1 11788.8 430.942   2
   4  -6  -1 11700.0 521.256  13
  -4  -6   1 12047.8 537.671  13
   4  -6  -1 12178.6 212.347  23
   4  -6   0 5106.46 132.521   4
   4  -6   0 5386.18 388.414   3
   4  -6   0 4549.39 323.977  13
  -4  -6   0 5063.60 244.405   2
  -4  -6   0 4840.66 336.528  13
   4  -6   0 4993.26 134.908  23
   4  -6   1 7655.33 484.658   3
  -4  -6  -1 6923.00 385.428  13
   4  -6   1 6916.08 383.645  13
   4  -6   1 7416.54 166.029   4
   4  -6   1 7157.87 164.538  23
   4  -6   2 36611.5 858.317  13
   4  -6   2 36972.7 423.526   4
  -4  -6  -2 36389.8 871.681  13
   4  -6   2 37235.2 425.140  23
  -4  -6  -3 19540.3 743.621  21
   4  -6   3 19951.3 326.062   6
   4  -6   3 20245.4 310.472   4
   4  -6   4 28773.8 418.080   6
   4  -6   4 28767.7 404.886   9
   4  -6   4 29431.7 406.046  26
   4  -6   5 3265.86 146.782   6
   4  -6   5 3239.43 141.215   9
   4  -6   5 3155.60 136.555  26
   4  -6   6 4768.22 175.307  26
   4  -6   6 4737.87 181.111   6
   4  -6   6 4569.66 180.989   9
   4  -6   7 12134.0 293.644  26
   4  -6   7 11513.0 290.906   6
   4  -6   7 11942.4 303.925   9
   4  -5 -11 708.475 128.655  19
  -4  -5  11 867.820 121.667   9
  -4  -5  11 756.263 107.098  25
  -4  -5  11 741.598 86.1516   8
   4  -5 -11 824.072 119.998  23
   4  -5 -10 1646.94 141.869  19
  -4  -5  10 1714.47 140.928   9
  -4  -5  10 1734.22 108.263   8
  -4  -5  10 1539.44 133.758  25
   4  -5 -10 1623.94 133.298  23
   4  -5  -9 5944.52 208.256  19
  -4  -5   9 6137.43 203.266   9
  -4  -5   9 5699.33 187.413  22
  -4  -5   9 5878.93 173.626   8
  -4  -5   9 6352.66 216.094  25
   4  -5  -9 6036.40 201.285  23
  -4  -5   8 16989.5 298.300  22
   4  -5  -8 16579.1 321.359  19
  -4  -5   8 16567.6 332.693  25
  -4  -5   8 17074.7 317.796   9
   4  -5  -8 16340.1 311.716  23
  -4  -5   7 7642.78 194.308  11
  -4  -5   7 6767.13 208.060  25
   4  -5  -7 7348.43 204.772  19
  -4  -5   7 6968.14 181.414  22
  -4  -5   7 6799.58 192.073   9
   4  -5  -7 7100.92 191.131  23
   4  -5  -6 12953.5 559.793  12
  -4  -5   6 13477.7 238.831  22
   4  -5  -6 12933.5 610.216  20
  -4  -5   6 13855.6 645.208   2
  -4  -5   6 13077.4 555.497   1
   4  -5  -6 13718.9 252.603  23
   4  -5  -5 9188.17 462.920  12
   4  -5  -5 9319.18 475.860  20
  -4  -5   5 8855.07 407.298   1
   4  -5  -5 9367.19 198.889  23
  -4  -5   5 9499.50 501.121   2
   4  -5  -4 65740.5 1253.83  12
   4  -5  -4 66016.3 1193.22  20
  -4  -5   4 63658.0 1257.23   2
  -4  -5   4 63158.4 1005.67   1
   4  -5  -4 64701.1 586.895  23
   4  -5  -3 961.145 155.737  12
   4  -5  -3 936.163 134.153  20
  -4  -5   3 1104.20 162.610   2
  -4  -5   3 985.527 104.220   1
   4  -5  -3 1074.31 68.2119  23
  -4  -5   3 1080.11 173.101  13
   4  -5  -2 16460.3 643.942   3
   4  -5  -2 16262.3 605.536  12
   4  -5  -2 16742.8 477.162  20
  -4  -5   2 16825.6 536.565   2
   4  -5  -2 16671.2 607.195  13
  -4  -5   2 17087.0 608.492  13
   4  -5  -1 12442.4 537.081  12
   4  -5  -1 13009.7 367.338  20
   4  -5  -1 13108.5 563.762   3
  -4  -5   1 13007.1 426.787   2
   4  -5  -1 12405.3 507.525  13
  -4  -5   1 12628.8 509.689  13
   4  -5   0 19719.3 689.041  12
   4  -5   0 21377.6 732.054   3
  -4  -5   0 20115.1 468.431   2
   4  -5   0 20159.7 625.826  13
  -4  -5   0 20175.8 626.183  13
   4  -5   1 6746.28 432.152   3
  -4  -5  -1 5934.58 190.776   2
   4  -5   1 7219.15 358.895  13
   4  -5   1 6435.59 143.237   4
  -4  -5  -1 6009.89 333.012  13
   4  -5   2 34194.6 1010.31   3
   4  -5   2 33851.5 380.452  23
  -4  -5  -2 34002.4 770.253  13
   4  -5   2 33845.2 751.562  13
   4  -5   2 33944.1 381.796   4
  -4  -5  -3 10874.9 555.135  21
   4  -5   3 10056.7 219.855   6
  -4  -5  -3 10038.9 511.346  20
   4  -5   3 10209.3 205.070   4
   4  -5   4 21649.0 344.664   6
  -4  -5  -4 21607.6 786.217  20
   4  -5   4 21098.6 332.776   9
   4  -5   4 21446.7 336.372  26
   4  -5   5 154.380 52.4672   6
   4  -5   5 112.076 48.1789  26
   4  -5   5 115.418 56.9559   9
   4  -5   6 436.812 75.6549   6
   4  -5   6 387.313 68.5850  26
   4  -5   6 422.847 75.4893   9
   4  -5   7 462.375 82.1473  26
   4  -5   7 551.464 83.4786   6
   4  -5   7 434.044 85.8567   9
   4  -4 -11 202.464 99.6939  19
   4  -4 -11 227.828 94.2044  23
  -4  -4  11 35.2825 86.7922   9
  -4  -4  11 168.236 73.5461  25
  -4  -4  11 142.123 62.4518   8
  -4  -4  10 14988.8 316.869  22
   4  -4 -10 15542.8 329.384  19
  -4  -4  10 15825.5 337.987   9
  -4  -4  10 14972.3 298.819   8
  -4  -4  10 14893.6 331.015  25
   4  -4 -10 15661.4 338.720  23
  -4  -4   9 610.861 85.8134  22
   4  -4  -9 850.319 101.267  19
  -4  -4   9 785.453 97.3192   9
  -4  -4   9 780.337 72.4272   8
  -4  -4   9 572.437 88.4696  25
   4  -4  -9 709.256 90.9735  23
   4  -4  -8 1855.73 118.538  19
  -4  -4   8 2044.29 113.772  22
  -4  -4   8 1847.54 104.925  11
  -4  -4   8 1810.23 113.588   9
  -4  -4   8 1915.87 118.119  25
   4  -4  -8 1993.63 114.193  23
  -4  -4   7 6120.99 171.654  11
  -4  -4   7 6129.06 167.966  22
  -4  -4   7 5729.76 171.767   9
   4  -4  -7 6444.73 178.270  23
   4  -4  -6 40095.3 982.099  12
  -4  -4   6 39979.3 442.304  22
   4  -4  -6 38900.5 1036.44  20
  -4  -4   6 38691.8 1061.85   2
   4  -4  -6 38971.6 447.507  23
  -4  -4   6 37966.5 949.025   1
   4  -4  -5 23506.7 724.228  12
  -4  -4   5 20826.8 725.511  21
   4  -4  -5 23358.7 726.112  20
  -4  -4   5 23117.0 759.020   2
   4  -4  -5 23487.2 311.781  23
  -4  -4   5 22807.7 654.480   1
   4  -4  -4 24433.5 723.468  12
   4  -4  -4 23860.4 668.685  20
  -4  -4   4 23336.2 712.589   2
  -4  -4   4 24319.1 594.344   1
  -4  -4   4 24216.2 747.424  13
  -4  -4   3 1010.34 106.848   1
   4  -4  -3 952.436 148.860  12
   4  -4  -3 1005.65 129.039  20
  -4  -4   3 886.453 150.997   2
  -4  -4   3 795.751 151.670  13
   4  -4  -2 1708.58 195.200  12
  -4  -4   2 1490.67 96.7774   1
   4  -4  -2 1470.38 133.612  20
  -4  -4   2 1490.91 161.448   2
  -4  -4   2 1570.43 183.349  13
   4  -4  -1 5163.47 326.998  12
   4  -4  -1 5295.50 199.560  20
   4  -4  -1 5053.49 343.124   3
  -4  -4   1 5351.95 261.731   2
  -4  -4   1 5082.65 308.012  13
  -4  -4   0 192.413 78.6728  13
   4  -4   0 92.1560 76.2769  12
   4  -4   0 79.6849 109.621   3
  -4  -4   0 118.073 51.9250   2
   4  -4   0 105.882 64.5094  13
   4  -4   1 17354.9 626.371  12
   4  -4   1 16527.8 503.123  13
  -4  -4  -1 16996.6 510.856  13
  -4  -4  -1 16626.4 325.879   2
   4  -4   1 16560.3 651.435   3
  -4  -4  -1 15125.2 272.117   1
   4  -4   2 20658.6 743.311   3
   4  -4   2 19792.8 692.195  12
  -4  -4  -2 18366.1 513.273   3
  -4  -4  -2 19999.7 420.107   1
   4  -4   2 19835.6 514.693  13
  -4  -4  -2 19977.5 529.400  13
  -4  -4  -3 2796.74 286.565  21
  -4  -4  -3 2370.47 218.867   3
  -4  -4  -3 2551.30 242.697  20
  -4  -4  -3 2511.80 181.012   1
   4  -4   4 30722.6 409.756   6
  -4  -4  -4 30686.0 880.398  20
   4  -4   4 30870.4 408.147   9
   4  -4   4 30513.5 409.296  26
   4  -4   5 30456.7 426.303   6
   4  -4   5 30585.2 429.154  26
   4  -4   6 2079.08 118.193   6
   4  -4   6 1901.14 118.268  26
   4  -4   6 2054.90 121.724   9
   4  -4   7 2291.42 128.882   6
   4  -4   7 2338.17 141.126   9
   4  -4   7 2455.10 140.721  26
   4  -3 -11 2212.11 144.516  19
  -4  -3  11 1919.90 142.230   9
   4  -3 -11 2181.66 156.315  23
  -4  -3  11 2087.74 127.702   8
  -4  -3  11 1699.95 121.005  25
  -4  -3  10 606.667 90.6081  22
   4  -3 -10 692.373 102.719  19
  -4  -3  10 579.277 96.7213   9
  -4  -3  10 753.030 86.1879  25
  -4  -3  10 632.140 76.5948   8
   4  -3 -10 438.457 94.6628  23
  -4  -3   9 1031.58 82.5570  11
   4  -3  -9 721.836 89.5364  19
  -4  -3   9 932.202 97.7672  22
  -4  -3   9 947.176 94.6472   9
  -4  -3   9 853.339 73.9517   8
  -4  -3   9 796.985 88.2764  25
   4  -3  -9 964.874 99.8806  23
  -4  -3   8 24725.1 365.634  11
  -4  -3   8 24861.6 371.597  22
  -4  -3   8 25245.3 376.234   9
   4  -3  -8 24854.9 377.155  23
  -4  -3   7 5943.02 168.568  22
  -4  -3   7 5383.41 412.598   2
   4  -3  -7 5702.15 167.285  23
   4  -3  -6 41114.2 986.048  12
  -4  -3   6 40351.5 444.404  22
  -4  -3   6 40697.7 973.565   1
  -4  -3   6 39712.8 1033.43   2
   4  -3  -6 40914.0 1037.17  20
   4  -3  -6 39825.7 443.283  23
  -4  -3   5 17818.7 676.927  21
   4  -3  -5 18043.9 620.688  20
  -4  -3   5 17243.0 566.577   1
   4  -3  -5 18829.5 637.185  12
  -4  -3   5 17743.4 643.194   2
   4  -3  -5 18019.0 259.436  23
  -4  -3   5 17747.9 645.058  13
   4  -3  -4 8941.01 426.135  12
   4  -3  -4 8475.59 383.713  20
  -4  -3   4 8755.61 424.299   2
  -4  -3   4 8642.15 351.719   1
  -4  -3   4 8790.73 431.437  13
   4  -3  -3 3276.17 254.077  12
   4  -3  -3 3129.83 207.144  20
  -4  -3   3 3356.88 190.350   1
  -4  -3   3 3454.36 250.866   2
  -4  -3   3 3546.36 266.237  13
   4  -3  -2 6428.07 348.755  12
  -4  -3   2 6472.31 222.241   1
   4  -3  -2 6444.96 249.822  20
  -4  -3   2 6523.93 311.365   2
  -4  -3   2 6643.84 344.074  13
   4  -3  -1 53877.5 609.883  20
   4  -3  -1 51178.5 1045.97   3
  -4  -3   1 54067.1 853.795   2
   4  -3  -1 54223.7 1037.65  12
  -4  -3   1 54647.8 966.861  13
   4  -3   0 11419.2 470.260  12
   4  -3   0 11364.0 487.352   3
  -4  -3   0 11708.6 339.467   2
  -4  -3   0 11328.5 409.852  13
   4  -3   1 8640.55 416.582  12
   4  -3   1 8523.75 445.834   3
   4  -3   1 8498.89 328.649  13
  -4  -3  -1 8816.51 248.320   2
  -4  -3  -1 7934.11 246.822   1
  -4  -3  -1 8583.81 332.359  13
   4  -3   2 19257.9 704.284   3
   4  -3   2 19216.7 640.810  12
  -4  -3  -2 19852.6 474.517   1
  -4  -3  -2 19563.6 469.639  13
  -4  -3  -2 17572.4 274.035   2
   4  -3   2 19756.1 454.559  13
  -4  -3  -3 3114.91 253.493   3
  -4  -3  -3 2899.84 243.109  20
  -4  -3  -3 2837.47 207.058   1
   4  -3   3 2895.52 265.153  12
   4  -3   4 19427.2 310.461   6
  -4  -3  -4 19936.0 698.201   3
  -4  -3  -4 20177.0 664.413  20
   4  -3   4 19578.2 314.577   9
  -4  -3  -4 19675.1 613.226   1
   4  -3   5 4592.45 156.340   6
   4  -3   5 5019.79 167.213  26
   4  -3   5 4755.16 164.954   9
   4  -3   6 11365.5 256.008   6
   4  -3   6 10933.8 261.500   9
   4  -3   6 11497.1 270.444  26
   4  -3   7 3042.38 144.432   6
   4  -3   7 3111.19 154.883   9
   4  -3   7 2945.16 152.645  26
   4  -3   8 535.290 103.231  26
   4  -3   8 580.254 84.8568   6
   4  -3   8 472.686 94.3660   9
  -4  -2  11 4293.47 185.747   9
  -4  -2  11 4512.81 179.723   8
   4  -2 -11 4576.10 205.812  23
   4  -2 -10 7741.22 213.099  19
  -4  -2  10 7354.37 223.148   9
  -4  -2  10 7553.21 213.189   8
  -4  -2  10 7549.05 215.395  25
   4  -2 -10 7464.00 235.635  23
  -4  -2   9 454.179 81.0176  22
  -4  -2   9 473.959 63.2259   8
  -4  -2   9 450.971 60.4882  11
   4  -2  -9 456.831 75.0814  19
  -4  -2   9 473.641 80.0801   9
   4  -2  -9 424.752 86.3333  23
  -4  -2   8 6198.30 188.298  22
  -4  -2   8 6337.06 171.856  11
  -4  -2   8 6060.60 182.958   9
   4  -2  -8 6242.69 184.204  23
   4  -2  -8 5870.31 432.060  13
   4  -2  -7 13744.1 635.505  20
  -4  -2   7 13362.7 623.345   2
  -4  -2   7 14542.4 271.569  22
   4  -2  -7 13519.3 253.686  23
   4  -2  -6 83624.9 1438.57  12
   4  -2  -6 85395.5 1503.07  20
  -4  -2   6 82655.8 1490.24   2
  -4  -2   6 83698.2 1429.59   1
   4  -2  -6 82028.1 700.572  23
  -4  -2   6 82006.8 713.998  22
   4  -2  -5 1945.62 205.817  12
   4  -2  -5 1940.00 203.022  20
  -4  -2   5 1836.99 189.203   1
  -4  -2   5 1779.53 213.657   2
   4  -2  -4 23468.5 678.999  12
   4  -2  -4 21770.2 603.406  20
  -4  -2   4 22253.8 662.720   2
  -4  -2   4 22527.7 584.294   1
   4  -2  -3 10039.8 432.228  12
   4  -2  -3 9912.52 350.835  20
  -4  -2   3 10250.2 348.989   1
  -4  -2   3 9819.79 405.069   2
  -4  -2   3 9380.41 418.306  13
   4  -2  -2 23616.9 462.399  20
   4  -2  -2 24169.7 652.120  12
  -4  -2   2 24467.7 486.947   1
  -4  -2   2 24686.0 600.478   2
  -4  -2   2 24647.1 637.533  13
  -4  -2   1 39113.3 707.745   2
   4  -2  -1 38447.9 828.268  12
   4  -2  -1 37884.0 454.368  20
   4  -2  -1 37786.0 840.603   3
  -4  -2   1 38888.1 764.440  13
   4  -2   0 1724.69 176.423  12
  -4  -2   0 1931.95 141.652   2
   4  -2   0 1960.15 202.909   3
  -4  -2   0 1848.90 155.506  13
   4  -2   1 103183. 1463.54  12
   4  -2   1 106128. 1587.91   3
  -4  -2  -1 108071. 1104.88   2
  -4  -2  -1 104571. 1197.45  13
   4  -2   2 29595.6 752.387  12
  -4  -2  -2 27982.0 715.132   3
  -4  -2  -2 31078.0 487.949   2
   4  -2   2 30504.1 846.283   3
   4  -2   2 29798.9 498.187  13
  -4  -2  -2 29552.4 637.063   1
  -4  -2  -3 8336.74 372.695   1
   4  -2   3 8175.67 406.120  12
  -4  -2  -3 8925.98 434.376   3
  -4  -2  -3 8400.21 365.160  20
  -4  -2  -3 8359.59 224.375   2
  -4  -2  -3 7864.33 217.030   2
  -4  -2  -4 4893.69 306.815  20
  -4  -2  -4 4448.77 306.472   1
   4  -2   4 4681.43 147.278   9
   4  -2   5 5915.90 179.927  26
   4  -2   5 5527.21 168.202   6
   4  -2   5 6015.38 179.319   9
  -4  -2  -5 5636.58 377.965   1
   4  -2   6 7176.08 201.255   6
   4  -2   6 7326.03 212.878   9
   4  -2   6 7498.45 219.222  26
   4  -2   7 820.589 87.8759   6
   4  -2   7 632.068 89.8938   9
   4  -2   7 636.715 92.5587  26
   4  -2   8 1590.48 113.860   6
   4  -2   8 1644.61 130.329   9
   4  -2   8 1705.21 144.461  26
  -4  -1  11 1911.87 115.814  10
  -4  -1  11 1963.06 135.885   9
  -4  -1  11 2166.03 131.923   8
  -4  -1  10 854.877 75.1760  11
  -4  -1  10 835.347 76.9146  10
  -4  -1  10 859.790 95.4431   9
  -4  -1  10 925.110 89.8453   8
  -4  -1   9 18877.9 343.253  22
  -4  -1   9 19635.6 315.730  11
  -4  -1   9 19026.2 331.768   9
  -4  -1   9 18987.5 319.687   8
  -4  -1   8 11186.1 247.337  22
  -4  -1   8 11379.2 240.096   9
   4  -1  -8 11374.3 588.792  13
  -4  -1   7 13241.1 251.904  22
   4  -1  -7 12470.0 629.230  20
   4  -1  -7 12669.2 591.185  13
  -4  -1   7 13640.5 612.508   2
  -4  -1   6 1926.74 103.050  22
   4  -1  -6 1709.45 219.448  13
   4  -1  -6 1595.41 203.432  12
   4  -1  -6 1652.50 220.221  20
  -4  -1   6 1824.85 215.615   1
  -4  -1   6 1960.88 234.450   2
   4  -1  -5 25983.1 741.671  12
   4  -1  -5 25680.6 734.410  20
  -4  -1   5 25831.0 751.538   2
  -4  -1   5 25689.4 704.833   1
   4  -1  -4 26489.2 718.399  12
   4  -1  -4 26686.1 669.906  20
  -4  -1   4 26619.8 653.865   1
  -4  -1   4 26196.6 706.842   2
  -4  -1   3 131203. 1472.23   1
   4  -1  -3 131198. 1460.92  20
   4  -1  -3 130976. 1659.88  12
  -4  -1   3 132016. 1613.46   2
   4  -1  -2 17424.7 398.626  20
  -4  -1   2 17232.9 497.192   2
   4  -1  -2 17235.3 538.055  12
   4  -1  -1 20781.0 339.412  20
  -4  -1   1 20383.2 509.664   2
   4  -1  -1 20947.5 575.916  12
   4  -1   0 24955.6 625.425  12
   4  -1   0 25077.9 667.047   3
  -4  -1   0 25598.2 543.775   2
   4  -1   1 13426.3 460.738  12
   4  -1   1 14764.8 532.409   3
   4  -1   1 13916.0 360.756  13
  -4  -1  -2 20364.9 497.336  12
   4  -1   2 20286.4 576.316  12
  -4  -1  -2 18437.3 601.314   3
   4  -1   2 19918.7 347.984  13
  -4  -1  -2 19524.0 548.717   1
   4  -1   2 19690.1 351.825  13
  -4  -1  -3 36842.1 680.519  12
   4  -1   3 37413.2 815.603  12
  -4  -1  -3 38974.3 952.124   3
  -4  -1  -3 37937.6 721.689  20
  -4  -1  -3 36979.6 625.103   2
  -4  -1  -3 36833.5 840.977   1
  -4  -1  -4 2936.90 263.230   1
  -4  -1  -4 2198.77 280.425  21
  -4  -1  -4 2981.66 219.126  20
   4  -1   5 6468.41 179.083   6
  -4  -1  -5 5991.72 405.470   1
   4  -1   5 6735.82 188.036   9
   4  -1   5 6386.11 188.980  26
   4  -1   6 9133.72 226.616   6
   4  -1   6 9052.67 233.811   9
   4  -1   6 9166.61 241.591  26
   4  -1   7 1099.68 93.0689   6
   4  -1   7 1224.82 107.086   9
   4  -1   7 1095.50 111.483  26
   4  -1   8 1965.43 128.834   6
   4  -1   8 2050.34 140.548   9
   4  -1   8 2257.23 156.982  26
  -4   0  11 1140.10 94.9959  10
  -4   0  11 1329.70 115.668   9
  -4   0  11 1183.70 105.611   8
  -4   0  10 405.117 56.2287  11
  -4   0  10 410.732 61.8314  10
  -4   0  10 504.216 76.8515   8
  -4   0   9 116.711 73.4864  22
  -4   0   9 68.1078 41.7335  10
  -4   0   9 91.9640 51.4368   8
  -4   0   9 21.1303 68.4972   9
  -4   0   9 141.770 44.9718  11
  -4   0   8 1042.63 79.7629   8
  -4   0   8 853.750 100.253  22
  -4   0   8 1027.72 86.7753   9
   4   0  -8 853.789 185.338  13
  -4   0   7 1971.83 112.642  22
   4   0  -7 2108.51 261.212  20
  -4   0   7 1821.53 236.293   2
   4   0  -7 1741.97 226.391  13
  -4   0   6 29988.7 372.028  22
   4   0  -6 28355.6 864.958  20
   4   0  -6 29199.1 846.600   2
  -4   0   6 28088.4 816.077   1
  -4   0   6 28892.9 832.839   2
   4   0  -6 29206.0 850.869  13
  -4   0   5 4209.19 339.959  21
  -4   0   5 5058.00 316.780   1
   4   0  -5 4920.54 330.303   2
   4   0  -5 4992.50 334.582  13
  -4   0   5 5287.25 336.514   2
  -4   0   4 4376.11 287.413   2
  -4   0   4 4869.06 285.869   1
   4   0  -4 4668.71 299.010   2
   4   0  -4 4763.24 309.324  13
   4   0  -3 107596. 1464.93  12
  -4   0   3 105516. 1420.65   2
   4   0  -3 105652. 1458.05  13
   4   0  -2 2093.34 189.441  12
  -4   0   2 2276.40 184.604   2
   4   0  -2 2041.16 181.585  13
   4   0  -1 232.735 85.4434  12
   4   0  -1 163.276 88.3604   3
   4   0  -1 168.243 70.7300  13
  -4   0   1 165.762 64.1941   2
   4   0   0 1306.58 149.986   3
   4   0   0 1206.62 78.1088  20
  -4   0   0 1160.67 137.918  12
   4   0   0 1268.42 122.612  13
   4   0   0 1159.37 134.598  12
   4   0   1 15872.9 523.608   3
   4   0   1 14834.7 276.460  20
   4   0   1 15600.5 464.539  12
   4   0   1 15917.5 375.800  13
  -4   0  -1 15848.5 468.843  12
   4   0   2 18393.4 509.232  12
   4   0   2 18076.7 360.571  20
  -4   0  -2 18932.4 623.004   3
  -4   0  -2 18675.3 515.463  12
   4   0   2 17885.2 312.077  13
  -4   0  -3 14628.9 463.467  12
   4   0   3 14032.4 450.811  12
  -4   0  -3 14236.8 382.711  20
  -4   0  -3 14147.0 586.415   3
  -4   0  -3 13709.9 530.173   1
  -4   0  -4 10631.5 402.108  12
  -4   0  -4 9897.87 487.018   1
   4   0   5 4767.92 154.774   6
   4   0   5 4873.82 154.928   7
   4   0   5 4826.90 166.380  26
   4   0   5 4824.23 158.814   9
   4   0   6 2325.87 131.674  26
   4   0   6 2325.79 118.333   6
   4   0   6 2190.64 120.637   9
   4   0   6 2273.98 120.800   7
   4   0   7 8380.25 226.433   6
   4   0   7 8856.03 244.215   9
   4   0   7 8418.61 252.871  26
   4   0   8 2175.46 128.770   6
   4   0   8 2201.23 141.272   9
   4   0   8 2299.52 164.428  26
  -4   1  11 2049.96 121.024  10
  -4   1  11 2067.39 128.574   9
  -4   1  11 2133.06 135.042   8
  -4   1  10 810.680 70.3834  11
  -4   1  10 715.767 74.7170  10
  -4   1  10 742.211 87.1129   9
  -4   1  10 817.923 86.8177   8
  -4   1   9 19596.1 352.261  22
  -4   1   9 19028.2 299.387  11
  -4   1   9 19070.9 303.177  10
  -4   1   9 19098.0 322.290   9
  -4   1   9 18985.3 327.297   8
   4   1  -8 11709.2 593.948  13
  -4   1   8 11061.2 248.090  22
  -4   1   8 11319.2 231.965   8
  -4   1   8 11562.6 586.595   2
   4   1  -7 14169.0 651.120  20
  -4   1   7 13323.2 256.823  22
  -4   1   7 13165.8 592.004   2
   4   1  -7 13034.8 597.305  13
  -4   1   6 1793.35 215.935   1
   4   1  -6 1631.70 211.698  13
  -4   1   6 1987.00 103.712  22
  -4   1   6 1692.14 217.750   2
  -4   1   5 26088.8 742.056   2
  -4   1   5 24301.8 771.417  21
   4   1  -5 25629.5 759.121   2
  -4   1   5 26206.4 739.356   1
   4   1  -5 25355.5 753.554  13
  -4   1   4 26298.5 711.373   2
   4   1  -4 27067.5 731.022   2
  -4   1   4 26912.3 700.117   1
   4   1  -4 25852.2 726.295  13
  -4   1   3 131563. 1639.53   2
   4   1  -3 127652. 1625.13   2
   4   1  -3 129891. 1655.23  13
   4   1  -2 17043.2 519.935  12
  -4   1   2 17099.3 517.956   2
   4   1  -2 17275.0 521.437  13
  -4   1   1 19852.8 569.265  12
   4   1  -1 21355.5 552.608  12
   4   1  -1 21141.8 541.012  13
  -4   1   0 24492.0 626.198  12
   4   1   0 25105.1 577.899  12
   4   1   0 23890.0 578.175   3
   4   1   0 25575.1 465.965  20
   4   1   0 25020.0 545.191  13
  -4   1  -1 13800.3 469.991  12
   4   1   1 13776.4 462.334   3
   4   1   1 13694.7 411.081  12
   4   1   1 13858.5 345.600  20
   4   1   1 13972.9 362.124  13
   4   1   2 19852.6 488.333  12
   4   1   2 20103.9 455.961  20
  -4   1  -2 20220.9 577.881  12
  -4   1  -2 19006.9 660.793   3
   4   1   2 20198.9 361.976  13
   4   1   3 36849.4 676.294  12
   4   1   3 37043.8 702.609  20
  -4   1  -3 37449.1 560.199  20
  -4   1  -3 37955.1 828.227  12
  -4   1  -3 37238.0 921.910   1
  -4   1  -4 2509.36 220.670  12
  -4   1  -4 2642.62 222.547   2
  -4   1  -4 2679.52 266.903   1
   4   1   5 6368.29 191.326  26
   4   1   5 6183.75 174.048   6
   4   1   5 6374.78 180.652   9
   4   1   5 6464.85 179.710   7
   4   1   6 8908.42 242.183  26
   4   1   6 8871.61 219.486   6
   4   1   6 8724.39 204.692  17
   4   1   6 9319.24 232.990   9
   4   1   6 9525.38 234.880   7
   4   1   7 1095.07 92.8077   6
   4   1   7 1216.24 123.239  26
   4   1   7 1116.89 99.2915   9
   4   1   7 1251.94 109.020   7
   4   1   8 2114.42 126.427   6
   4   1   8 2279.02 140.424   9
   4   1   8 2038.52 159.373  26
  -4   2  11 4373.79 172.506  10
  -4   2  11 4426.26 172.215   9
  -4   2  11 4407.37 186.389   8
  -4   2  10 7408.86 205.323  10
  -4   2  10 7116.10 214.802   8
  -4   2  10 7433.44 204.554   9
  -4   2   9 498.956 88.2219  22
  -4   2   9 504.551 64.7402  10
  -4   2   9 587.921 79.4873   9
  -4   2   9 495.740 69.6769   8
  -4   2   8 6268.76 192.147  22
  -4   2   8 6316.60 176.235   8
  -4   2   8 6367.17 433.698   2
  -4   2   8 6431.27 170.791  24
   4   2  -8 5807.28 430.437  13
  -4   2   7 13081.0 254.816  22
   4   2  -7 13751.9 611.168   1
   4   2  -7 13195.4 608.874  13
  -4   2   7 13241.7 592.985   2
  -4   2   6 83352.8 1455.01   2
  -4   2   6 82922.1 728.849  22
   4   2  -6 83803.0 1442.16   1
   4   2  -6 83369.7 1501.19  13
  -4   2   5 1966.27 208.628   2
   4   2  -5 2071.58 222.686   2
  -4   2   5 1978.18 212.049   1
   4   2  -5 2096.59 225.466  13
   4   2  -4 21841.9 661.530   2
  -4   2   4 22680.2 667.738   2
   4   2  -4 21662.8 673.386  13
   4   2  -3 9270.35 402.382   2
  -4   2   3 10257.2 427.395   2
   4   2  -3 9714.47 422.009  13
   4   2  -2 23783.1 604.767   2
  -4   2   2 24173.3 664.344  12
   4   2  -2 24873.5 647.513  13
   4   2  -1 39382.1 753.284  12
  -4   2   1 38777.7 833.163  12
   4   2  -1 38972.1 771.151  13
   4   2   0 2037.43 162.418  12
  -4   2   0 2033.63 195.466  12
   4   2   0 2012.91 156.090   3
   4   2   0 1835.68 147.995  20
   4   2   0 1915.30 161.692  13
  -4   2  -1 104297. 1474.81  12
   4   2   1 104505. 1228.86  20
   4   2   1 104772. 1195.95  12
   4   2   1 106744. 1198.76  13
   4   2   2 30495.7 561.815  12
   4   2   2 29741.0 637.957  20
   4   2   2 30856.0 519.638  13
  -4   2  -2 29294.2 854.141   3
   4   2   2 30129.9 356.597  14
  -4   2  -2 30656.2 770.797  12
  -4   2  -3 8675.49 416.101  12
   4   2   3 8403.73 266.245  12
   4   2   3 8401.55 358.346  20
  -4   2  -3 7872.86 204.977  20
   4   2   4 4403.60 287.117  20
   4   2   4 4501.15 150.707  26
  -4   2  -4 4908.36 328.948  12
  -4   2  -4 4588.54 362.033   1
  -4   2  -4 4405.88 304.725   2
   4   2   5 5770.10 169.112   6
   4   2   5 6049.39 166.017  10
   4   2   5 5835.39 165.490  17
   4   2   5 5882.07 171.129   9
   4   2   5 5724.54 183.498  26
   4   2   5 5846.15 172.548   7
   4   2   6 7557.89 203.846   6
   4   2   6 7445.96 201.174  10
   4   2   6 7197.64 193.206  17
   4   2   6 7432.48 207.207   9
   4   2   6 7289.60 223.772  26
   4   2   6 7627.34 213.738   7
   4   2   7 629.847 77.4130   6
   4   2   7 583.661 76.7032  17
   4   2   7 669.479 111.907  26
   4   2   7 645.295 80.4581   9
   4   2   7 676.681 91.6446   7
   4   2   8 1624.90 153.387  26
   4   2   8 1605.38 120.198   9
   4   2   8 1766.44 116.577   6
   4   2   8 1810.34 132.493   7
  -4   3  11 2149.33 141.414   8
  -4   3  11 2061.97 129.302  10
  -4   3  11 2186.49 124.051   9
   4   3 -11 1763.30 140.539  15
  -4   3  10 762.015 83.2158  10
   4   3 -10 640.212 100.843  15
  -4   3  10 547.132 78.0239   9
  -4   3  10 654.650 86.3546   8
  -4   3   9 1033.29 91.4026   8
  -4   3   9 897.254 77.6154  10
  -4   3   9 888.562 78.5244   9
   4   3  -9 913.422 99.2277  15
  -4   3   9 770.084 84.0494  24
  -4   3   8 24430.6 384.598  22
   4   3  -8 25473.8 379.804  15
  -4   3   8 24647.2 365.203   8
  -4   3   8 24279.1 350.102  24
  -4   3   8 25075.7 857.398   2
  -4   3   7 5829.70 401.732   2
  -4   3   7 5861.52 172.990  22
   4   3  -7 5627.20 396.848   1
  -4   3   7 6129.82 161.152  24
   4   3  -7 5711.51 411.099  13
   4   3  -6 41202.5 1053.22  13
  -4   3   6 40239.7 456.535  22
  -4   3   6 40795.9 999.207   2
   4   3  -6 40365.6 972.796   1
  -4   3   5 17407.7 651.995  21
   4   3  -5 17138.2 637.673   2
  -4   3   5 18703.2 644.021   2
  -4   3   5 18473.5 652.682   1
   4   3  -5 18193.6 583.641   1
   4   3  -5 17987.4 659.096  13
   4   3  -4 8584.77 421.816   2
  -4   3   4 8966.81 428.273   2
   4   3  -4 8774.69 437.746  13
  -4   3   3 3390.13 266.594  12
   4   3  -3 3283.21 246.785   2
   4   3  -3 3411.95 261.627  13
  -4   3   2 6422.74 351.874  12
   4   3  -2 5978.76 302.695   2
   4   3  -2 6402.44 340.942  13
  -4   3   1 54446.6 1046.81  12
   4   3  -1 54045.9 859.102   2
   4   3  -1 55355.1 968.945  13
   4   3   0 11823.9 379.547  12
  -4   3   0 12224.9 487.497  12
   4   3   0 11428.2 328.591   3
   4   3   0 11982.7 411.040  20
   4   3   0 11755.8 412.426  13
   4   3   1 8730.48 296.204  12
  -4   3  -1 9199.19 431.807  12
   4   3   1 8705.74 359.387  20
   4   3   1 8184.74 324.865  13
   4   3   2 19471.2 400.423  12
   4   3   2 19513.2 566.501  20
   4   3   2 19971.0 470.251  13
  -4   3  -2 20831.7 672.637  12
   4   3   2 19206.5 281.479  14
  -4   3  -3 2680.30 252.281  12
   4   3   3 2839.17 232.512  20
   4   3   3 2762.09 108.796  14
   4   3   3 2720.51 151.455  13
  -4   3  -4 20320.9 714.318  12
   4   3   4 19361.0 642.190  20
  -4   3  -4 19113.2 672.842   2
   4   3   4 19348.2 320.735  26
   4   3   5 4936.27 158.046   6
  -4   3  -5 4629.56 358.163  12
   4   3   5 4981.27 152.232  10
   4   3   5 4782.32 155.753  17
   4   3   5 5066.66 159.007   9
   4   3   5 4913.67 171.796  26
   4   3   5 5016.95 163.839   7
   4   3   6 11074.3 249.781   6
   4   3   6 11664.4 250.477  10
   4   3   6 11152.8 250.461  17
   4   3   6 11006.7 277.698  26
   4   3   6 10952.4 251.339   9
   4   3   6 11355.8 263.971   7
   4   3   7 2974.23 153.959   7
   4   3   7 3129.73 144.606  10
   4   3   7 3136.21 145.608  17
   4   3   7 2912.89 142.992   9
   4   3   7 3028.24 174.615  26
   4   3   7 3011.62 138.982   6
   4   3   8 607.895 93.0178  10
   4   3   8 466.384 81.8296   9
   4   3   8 592.908 105.985   7
   4   3   8 483.830 133.487  26
  -4   4  11 68.0627 63.1731  10
   4   4 -11 136.178 90.7017  15
  -4   4  11 142.351 80.9956   8
  -4   4  10 15858.3 326.710   8
  -4   4  10 15486.3 313.758  10
   4   4 -10 15241.7 326.825  15
  -4   4   9 780.290 78.1024  10
   4   4  -9 722.954 96.3700  15
  -4   4   9 769.735 82.8163   8
  -4   4   9 693.600 89.8121  24
  -4   4   8 1935.30 117.548  22
  -4   4   8 1900.92 101.608  10
  -4   4   8 1721.12 252.414   2
   4   4  -8 2110.67 120.393  15
  -4   4   8 1918.09 107.033   8
  -4   4   8 1720.37 112.177  24
  -4   4   7 6261.24 179.240  22
  -4   4   7 6216.21 412.033   2
   4   4  -7 6070.28 412.800   1
  -4   4   7 6452.78 174.642   8
   4   4  -7 6200.03 441.480  13
  -4   4   7 6171.55 173.521  24
  -4   4   6 39400.6 461.794  22
  -4   4   6 39801.2 1001.22   2
  -4   4   6 39297.0 448.440  24
   4   4  -6 38997.3 961.059   1
   4   4  -6 40151.8 1066.88  13
  -4   4   5 23926.2 319.280  22
  -4   4   5 22817.8 760.248  21
  -4   4   5 23584.3 730.761  20
   4   4  -5 23535.1 664.910   1
  -4   4   5 24340.8 756.162   2
  -4   4   5 25846.2 334.888  24
   4   4  -5 23334.4 775.086  13
   4   4  -4 23903.4 721.111   2
  -4   4   4 24073.8 678.698  20
   4   4  -4 22824.9 736.430  13
  -4   4   4 23669.0 723.330  12
   4   4  -3 897.865 139.259   2
  -4   4   3 939.574 125.803  20
  -4   4   3 772.216 146.987  12
   4   4  -3 1083.59 163.355  13
  -4   4   2 1563.84 194.793  12
  -4   4   2 1666.78 141.725  20
   4   4  -2 1627.51 165.424   2
   4   4  -2 1473.86 176.591  13
  -4   4   1 5352.42 337.911  12
  -4   4   1 5264.38 201.423  20
   4   4  -1 4858.64 173.821   3
   4   4  -1 5590.33 314.180  20
   4   4  -1 5205.47 262.246   2
   4   4  -1 5539.48 321.535  13
  -4   4   0 174.249 95.9777  12
  -4   4   0 86.9594 24.4808  20
   4   4   0 143.235 77.2608  20
   4   4   0 41.2382 64.4971  13
   4   4   1 17417.5 420.451  12
  -4   4  -1 17512.5 632.819  12
   4   4   1 17580.3 564.036  20
   4   4   1 17124.4 258.618  14
   4   4   1 17433.0 519.736  13
  -4   4  -2 20008.6 699.959  12
   4   4   2 19173.1 358.251  12
   4   4   2 19637.2 620.076  20
   4   4   2 19605.4 524.175  13
  -4   4  -3 2471.59 262.597  12
  -4   4  -3 2645.35 297.237  21
   4   4   3 2654.46 244.256  20
   4   4   3 2633.73 109.373  14
  -4   4  -4 31478.9 951.799  12
   4   4   4 30269.5 864.612  20
   4   4   4 30407.8 418.461  26
   4   4   4 30956.6 412.989  17
   4   4   4 30318.4 399.723   6
   4   4   4 30686.1 402.752   7
   4   4   5 29788.9 413.063   6
  -4   4  -5 29918.4 961.252  12
   4   4   5 29388.9 412.668  18
   4   4   5 30326.0 399.787  10
   4   4   5 29633.4 420.636  17
   4   4   5 29976.1 402.816   9
   4   4   5 30068.4 441.548  26
   4   4   5 30018.0 425.534   7
   4   4   6 1891.54 110.680   6
   4   4   6 1949.93 136.582  26
   4   4   6 1981.88 111.008  10
   4   4   6 2058.27 118.650  17
   4   4   6 2052.59 112.784   9
   4   4   6 2005.29 120.844   7
   4   4   7 2268.29 123.973   6
   4   4   7 2439.15 131.133  10
   4   4   7 2261.17 132.156  17
   4   4   7 2544.81 132.427   9
   4   4   7 2312.25 162.259  26
   4   4   7 2331.30 141.961   7
  -4   5  11 881.164 102.391  10
   4   5 -11 759.332 116.447  15
  -4   5  11 684.466 99.6036   8
  -4   5  11 672.590 100.240  24
  -4   5  10 1792.18 120.478  10
  -4   5  10 1850.71 124.326   8
   4   5 -10 1539.19 130.614  15
  -4   5  10 1602.53 125.383  24
  -4   5   9 6039.87 187.841  10
   4   5  -9 5530.58 197.304  15
  -4   5   9 6049.47 195.430   8
  -4   5   9 5972.44 198.932  24
  -4   5   8 16204.4 293.627  10
   4   5  -8 15793.5 305.523  15
  -4   5   8 16192.0 306.053   8
  -4   5   8 16424.0 311.436  24
  -4   5   7 7430.75 197.430  22
  -4   5   7 7031.80 446.688   2
  -4   5   7 7413.73 182.566  10
   4   5  -7 7389.53 457.912   1
  -4   5   7 7137.60 190.624   8
  -4   5   7 6672.84 192.131  24
  -4   5   6 13620.7 590.720   2
  -4   5   6 13764.7 261.451  24
   4   5  -6 13782.6 644.296  13
  -4   5   6 14104.8 254.270  22
   4   5  -6 13760.0 563.388   1
  -4   5   5 9431.07 192.256  22
  -4   5   5 8760.18 467.007  20
   4   5  -5 9059.62 408.877   1
  -4   5   5 9780.57 491.064   2
  -4   5   5 9451.54 206.465  24
   4   5  -5 9254.58 506.164  13
  -4   5   4 65670.5 1263.51  12
  -4   5   4 67455.1 1209.54  20
   4   5  -4 66212.7 1334.59  13
   4   5  -4 65094.9 1013.49   1
  -4   5   4 66162.7 622.378  24
   4   5  -4 65237.7 1271.07   2
  -4   5   3 1016.58 144.436  20
  -4   5   3 766.768 152.267  12
   4   5  -3 844.685 144.610   2
   4   5  -3 1248.53 185.885  13
  -4   5   2 16458.2 622.760  12
   4   5  -2 17015.7 539.241   2
  -4   5   2 17543.9 487.914  20
   4   5  -2 16638.5 613.994  13
  -4   5   2 16935.7 267.389  24
  -4   5   1 13278.6 367.398  20
   4   5  -1 12088.1 413.475   2
   4   5  -1 12834.6 512.395  20
  -4   5   1 12900.1 550.669  12
   4   5  -1 12364.5 213.751  14
  -4   5   1 13025.1 243.158  24
   4   5  -1 13306.8 522.457  13
  -4   5   0 20462.9 392.573  20
   4   5   0 20334.5 648.043  20
   4   5   0 19518.0 467.405   2
  -4   5   0 20177.4 307.689  24
   4   5   0 19345.0 282.044  14
  -4   5   0 19909.8 700.070  12
   4   5   0 20436.7 629.827  13
   4   5   1 6331.01 253.753  12
  -4   5  -1 6031.35 178.480  20
   4   5   1 6514.75 371.931  20
   4   5   1 6174.76 156.676  14
  -4   5  -1 6750.61 416.392  12
  -4   5  -1 6517.81 182.093  24
  -4   5  -2 34602.3 980.864  12
   4   5   2 33463.8 876.985  20
   4   5   2 33694.4 410.176  14
   4   5   2 34010.0 769.680  13
  -4   5  -3 10564.2 558.793  12
  -4   5  -3 11399.8 584.300  21
   4   5   3 9873.74 494.889  20
   4   5   3 10044.8 217.784  14
   4   5   3 10273.2 224.441  17
   4   5   4 21134.0 332.929   6
   4   5   4 21260.3 334.378  18
   4   5   4 21524.9 336.846   7
   4   5   4 21102.8 347.343  17
   4   5   4 21380.9 346.139  26
   4   5   4 21691.0 337.621  14
   4   5   5 148.943 60.7083   7
   4   5   5 57.1051 77.3859  26
   4   5   5 194.084 61.2991   6
   4   5   5 100.161 56.4944  18
   4   5   5 136.532 52.2226  10
   4   5   5 145.840 65.7292  17
   4   5   5 97.2999 47.1758   9
   4   5   6 463.557 81.5597   7
   4   5   6 403.573 71.0791   6
   4   5   6 455.985 68.6575  10
   4   5   6 268.151 74.3095  17
   4   5   6 572.127 69.1230   9
   4   5   6 574.574 106.782  26
   4   5   7 444.361 92.0015   7
   4   5   7 558.189 76.7237   6
   4   5   7 492.628 78.4361  10
   4   5   7 322.549 85.9697  17
   4   5   7 467.417 70.7939   9
   4   5   7 418.985 110.919  26
  -4   6  10 785.131 92.4201  10
   4   6 -10 754.006 103.577  15
  -4   6  10 844.102 101.715   8
  -4   6  10 709.831 103.244  24
  -4   6   9 1483.45 107.747   8
  -4   6   9 1518.97 108.637  10
   4   6  -9 1484.59 115.186  15
  -4   6   9 1340.30 125.012  24
  -4   6   8 2904.66 131.154  10
   4   6  -8 3039.53 137.152  15
  -4   6   8 2813.20 131.098   8
  -4   6   8 2792.99 150.707  24
  -4   6   7 2784.69 289.469   2
  -4   6   7 2922.27 125.724  10
   4   6  -7 3022.52 128.391  15
   4   6  -7 2727.61 280.776   1
  -4   6   7 2795.20 126.351   8
  -4   6   7 2819.97 145.697  24
  -4   6   6 6024.88 168.053  22
  -4   6   6 5528.71 391.762   2
   4   6  -6 6039.14 181.805  18
   4   6  -6 5813.48 146.078  14
   4   6  -6 5839.19 373.122   1
  -4   6   6 5805.85 170.798   8
  -4   6   6 5811.69 182.873  24
  -4   6   5 19928.2 291.021  22
   4   6  -5 20264.8 618.109   1
  -4   6   5 20235.9 726.289   2
  -4   6   5 19708.7 713.987  12
   4   6  -5 19729.1 278.960  14
  -4   6   5 19320.7 317.409  24
   4   6  -5 19766.8 769.245  13
  -4   6   4 108911. 1748.85  12
  -4   6   4 111689. 1682.77  20
   4   6  -4 112244. 1385.13   1
   4   6  -4 110915. 863.151  14
  -4   6   4 111725. 926.397  24
   4   6  -4 111305. 1854.00  13
  -4   6   3 48545.1 1122.09  12
  -4   6   3 49999.9 997.961  20
   4   6  -3 48265.6 483.206  14
  -4   6   3 50577.0 530.414  24
   4   6  -3 48878.4 1156.03  13
   4   6  -3 47639.0 1030.10   2
   4   6  -2 13181.4 497.830   2
  -4   6   2 13684.7 590.750  12
  -4   6   2 13558.4 460.709  20
   4   6  -2 13272.6 228.107  14
  -4   6   2 13690.0 265.246  24
   4   6  -2 13771.7 584.252  13
  -4   6   1 12547.4 570.484  12
   4   6  -1 11925.4 428.392   2
  -4   6   1 12710.0 405.945  20
   4   6  -1 12116.5 534.947  20
   4   6  -1 11766.1 218.133  14
  -4   6   1 12095.2 248.325  24
   4   6  -1 12424.5 542.435  13
  -4   6   0 5051.72 229.079  20
   4   6   0 5331.39 359.053  20
   4   6   0 5034.36 244.405   2
   4   6   0 5020.12 144.350  14
  -4   6   0 5256.49 381.059  12
   4   6   0 5189.71 343.224  13
  -4   6  -1 7661.70 470.385  12
   4   6   1 7297.68 425.364  20
   4   6   1 7289.06 179.293  14
  -4   6  -1 6417.24 193.512  24
   4   6   1 7508.05 398.032  13
  -4   6  -2 37401.9 1077.47  12
   4   6   2 37172.1 444.846  14
  -4   6  -2 35027.2 463.897  24
   4   6   2 38012.6 885.700  13
  -4   6  -3 19525.1 762.222  21
   4   6   3 19855.6 320.285  18
   4   6   3 19685.1 331.595  17
   4   6   3 19997.2 317.260   7
   4   6   3 20174.0 322.474  14
   4   6   4 29174.8 413.177  18
   4   6   4 28749.8 372.924  10
   4   6   4 28837.7 425.082  17
   4   6   4 28621.4 417.045  26
   4   6   4 29052.7 411.126  14
   4   6   4 29848.1 418.021   7
   4   6   5 3264.21 143.919  18
   4   6   5 3209.91 130.687  10
   4   6   5 3191.09 150.383  17
   4   6   5 3191.83 158.178  26
   4   6   5 2923.99 136.006  14
   4   6   5 3127.00 144.048   7
   4   6   6 4906.05 170.702  10
   4   6   6 4828.60 190.079  17
   4   6   6 4515.28 197.300  26
   4   6   6 4681.42 184.852   7
   4   6   7 12521.1 291.431  10
   4   6   7 11606.7 298.608  17
   4   6   7 11872.8 323.525  26
   4   6   7 12481.9 313.339   7
  -4   7  10 2236.24 143.646  10
  -4   7  10 2215.29 141.798   8
  -4   7  10 1941.40 146.507  24
  -4   7   9 948.081 96.7737  10
   4   7  -9 798.452 97.6587  15
  -4   7   9 837.861 95.6152   8
  -4   7   9 611.362 113.133  24
   4   7  -8 8607.94 252.635  18
  -4   7   8 8797.26 230.527  10
   4   7  -8 8650.38 223.272  15
  -4   7   8 8909.94 237.301   8
  -4   7   8 8489.32 250.231  24
   4   7  -7 9497.77 248.478  18
  -4   7   7 9423.44 227.480  10
   4   7  -7 9768.57 223.043  15
   4   7  -7 9284.85 202.593  14
  -4   7   7 9120.21 231.964   8
   4   7  -6 18934.5 333.639  18
  -4   7   6 18717.5 739.175   2
  -4   7   6 18964.0 316.289  10
   4   7  -6 18238.8 665.182   1
   4   7  -6 18509.7 289.710  14
  -4   7   6 18915.5 321.165   8
  -4   7   6 18868.2 340.945  24
  -4   7   5 5346.22 147.829  22
   4   7  -5 4994.36 165.928  18
   4   7  -5 5587.67 326.966   1
  -4   7   5 5011.39 374.573  12
   4   7  -5 5222.45 147.574  14
  -4   7   5 5075.50 179.134  24
  -4   7   4 41021.4 1063.77  12
  -4   7   4 38910.1 938.585  21
  -4   7   4 41203.5 1032.76  20
   4   7  -4 42421.8 1154.90  13
   4   7  -4 40667.9 454.426  14
  -4   7   4 41265.8 498.987  24
   4   7  -4 41937.5 793.269   1
  -4   7   3 12587.0 515.069  20
   4   7  -3 12092.7 226.807  14
  -4   7   3 12577.0 259.733  24
   4   7  -3 12390.5 600.834  13
   4   7  -3 12038.6 533.071   2
  -4   7   3 12081.4 570.579  12
  -4   7   2 1312.50 205.007  12
   4   7  -2 1281.53 176.307   2
   4   7  -2 1378.68 80.6977  14
  -4   7   2 1477.12 169.382  20
   4   7  -2 1506.44 214.100  13
  -4   7   1 27759.9 894.659  12
  -4   7   1 26816.6 658.215  20
   4   7  -1 26169.7 356.978  14
   4   7  -1 26708.3 678.811   2
   4   7  -1 26481.2 846.338  13
  -4   7   1 26734.0 393.755  24
  -4   7   0 47960.7 1219.88  12
   4   7   0 46209.6 810.075   2
   4   7   0 46203.3 511.276  14
  -4   7   0 47756.0 549.869  24
   4   7   0 46514.8 1102.02  13
   4   7   1 758.252 149.494  13
   4   7   1 917.587 78.8368  14
  -4   7  -2 2527.35 271.799  21
   4   7   2 2192.98 108.298  18
   4   7   2 2231.86 114.637  17
   4   7   2 2216.64 240.799  13
   4   7   2 2251.64 113.282  15
   4   7   2 2168.89 111.380  14
  -4   7  -2 2823.20 141.232  24
   4   7   2 2165.41 109.277   7
  -4   7  -3 8754.47 519.643  21
   4   7   3 9316.33 223.202  18
  -4   7  -3 9788.27 248.649  24
   4   7   3 9110.57 230.021  17
   4   7   3 9382.94 223.650  14
   4   7   3 9111.61 213.723  26
   4   7   3 9287.68 221.190   7
   4   7   4 1882.84 115.194  18
   4   7   4 2016.41 100.186  10
   4   7   4 2138.31 128.774  17
   4   7   4 2057.39 124.629  26
  -4   7  -4 2117.26 130.329  24
   4   7   4 2009.16 115.516   7
   4   7   4 2019.11 112.805  14
   4   7   5 1731.54 118.090  18
   4   7   5 1688.19 101.383  10
   4   7   5 1710.86 123.231  17
   4   7   5 1708.13 126.787  26
   4   7   5 1566.74 106.284  14
  -4   7  -5 1423.90 119.665  24
   4   7   5 1616.50 114.157   7
   4   7   6 440.438 86.0259   7
   4   7   6 538.919 87.3325  18
   4   7   6 414.183 103.472  26
   4   7   6 436.917 72.7523  10
   4   7   6 614.097 101.759  17
  -4   7  -6 358.332 94.0965  24
   4   8  -9 154.417 109.167  18
  -4   8   9 173.056 78.2029  10
  -4   8   9 179.524 70.1564   8
  -4   8   9 13.1502 103.186  24
  -4   8   8 511.918 79.2837   8
   4   8  -8 456.310 108.255  18
  -4   8   8 602.840 87.3171  10
   4   8  -8 466.893 80.7433  15
  -4   8   8 555.955 130.043  24
  -4   8   7 451.584 72.3303   8
   4   8  -7 397.331 94.1149  18
  -4   8   7 475.012 76.4057  10
   4   8  -7 320.141 66.0859  15
   4   8  -7 386.778 58.5035  14
  -4   8   7 325.645 93.8470  24
   4   8  -6 4514.50 177.934  18
  -4   8   6 4169.21 155.556  10
   4   8  -6 4324.34 151.347  15
   4   8  -6 4194.27 145.436  14
  -4   8   6 4074.33 152.890   8
  -4   8   6 3788.16 166.673  24
  -4   8   5 40248.1 1114.05  12
   4   8  -5 40821.9 508.107  18
   4   8  -5 40967.1 481.959  14
  -4   8   5 40366.5 527.256  24
  -4   8   4 23534.6 842.899  12
   4   8  -4 23352.9 360.163  18
   4   8  -4 24272.2 352.161  14
  -4   8   4 24091.3 381.038  24
  -4   8   3 1282.85 184.843  20
  -4   8   3 1055.62 196.630  12
   4   8  -3 1135.05 95.0324  18
  -4   8   3 1046.07 72.2009  14
   4   8  -3 915.616 72.9644  14
  -4   8   3 1253.58 110.289  24
  -4   8   2 6470.12 373.665  20
   4   8  -2 6772.76 180.606  18
  -4   8   2 6632.72 454.600  12
   4   8  -2 6692.29 180.002  14
  -4   8   2 6697.34 202.453  24
   4   8  -2 6534.32 389.286   2
   4   8  -1 48157.7 525.507  18
   4   8  -1 47094.3 528.800  14
   4   8  -1 49058.0 1223.61  13
   4   8  -1 48566.5 975.122   2
   4   8   0 3337.65 129.567  18
   4   8   0 3478.58 128.425  15
  -4   8   0 3355.45 127.775  27
   4   8   0 3322.52 133.471  14
  -4   8   0 3142.92 158.912  24
   4   8   0 3459.52 319.680  13
  -4   8  -1 3544.42 135.492  27
   4   8   1 3799.35 140.287  18
   4   8   1 3759.80 143.033  17
   4   8   1 3582.02 137.149  15
   4   8   1 3578.91 141.352  14
  -4   8  -1 3437.76 158.190  24
   4   8   1 3830.86 336.101  13
   4   8   1 3557.43 135.853   7
   4   8   2 3322.00 139.813  14
  -4   8  -2 2990.62 149.591  24
   4   8   2 3580.44 140.935  18
   4   8   2 3471.00 143.408  17
  -4   8  -2 3496.98 136.723  27
   4   8   2 3454.82 314.614  13
   4   8   2 3353.12 136.808   7
   4   8   3 6486.01 195.619  14
   4   8   3 6658.58 198.981  18
   4   8   3 6513.50 203.326  17
   4   8   3 6523.60 182.806  26
   4   8   3 6633.38 195.430   7
   4   8   4 3339.65 148.897  14
   4   8   4 3068.09 148.221  18
   4   8   4 3154.29 126.641  10
   4   8   4 3143.75 153.120  17
   4   8   4 3098.67 144.078  26
  -4   8  -4 3232.32 161.444  24
   4   8   4 3222.73 151.219   7
   4   8   5 3940.51 171.481  18
   4   8   5 3986.78 150.583  10
   4   8   5 3854.00 178.686  17
   4   8   5 4235.06 179.777  26
   4   8   5 4085.76 165.193  14
   4   8   5 3931.07 172.423   7
   4   8   6 4942.93 187.952  14
   4   8   6 5239.78 215.321  17
   4   8   6 4806.40 200.011  18
   4   8   6 5566.24 187.732  10
   4   8   6 5085.80 207.847  26
   4   8   6 5230.89 204.845   7
   4   9  -9 5788.51 236.622  18
  -4   9   9 5542.74 213.776  10
  -4   9   9 5783.43 208.949   8
  -4   9   9 5181.07 228.565  24
   4   9  -8 1.94282 103.428  18
  -4   9   8 39.0139 68.8359  10
   4   9  -8 72.7922 48.5313  14
  -4   9   8 5.57104 62.5287   8
  -4   9   8 113.999 118.699  24
   4   9  -7 20.3886 94.6565  18
  -4   9   7 177.820 71.5577  10
   4   9  -7 30.6323 51.1376  14
  -4   9   7 53.0377 62.3001   8
  -4   9   7 169.004 111.200  24
   4   9  -6 10996.3 273.943  18
  -4   9   6 10745.9 259.417  10
   4   9  -6 11168.7 238.718  15
   4   9  -6 10999.1 249.383  14
  -4   9   6 11117.8 259.855   8
  -4   9   6 10865.4 284.862  24
  -4   9   5 13010.7 239.014  11
   4   9  -5 13444.8 290.699  18
   4   9  -5 13258.3 256.833  15
   4   9  -5 13391.7 272.678  14
  -4   9   5 12683.5 293.208  24
  -4   9   4 12542.1 235.288  11
   4   9  -4 12864.4 274.967  18
   4   9  -4 12909.5 246.734  15
   4   9  -4 12784.1 262.161  14
  -4   9   4 12334.9 285.691  24
   4   9  -3 2439.50 125.484  18
   4   9  -3 2432.78 109.812  15
  -4   9   3 2522.64 107.396  14
   4   9  -3 2528.13 119.427  14
  -4   9   3 2808.19 152.582  24
   4   9  -2 236.191 63.6129  18
   4   9  -2 115.029 51.0077  15
  -4   9   2 278.516 67.9407  14
   4   9  -2 187.099 56.0992  14
  -4   9   2 82.2390 96.6981  24
   4   9  -1 14332.8 589.187  12
   4   9  -1 13680.5 271.712  18
   4   9  -1 13423.1 254.978  17
   4   9  -1 13530.3 258.147  15
  -4   9   1 13169.6 264.917  27
   4   9  -1 13350.0 270.922  14
  -4   9   1 13351.8 294.355  24
   4   9   0 27639.9 401.640  18
   4   9   0 27330.7 394.952  17
   4   9   0 27430.1 390.113  15
  -4   9   0 27303.9 395.154  27
   4   9   0 28069.7 409.102  14
  -4   9   0 27428.0 426.383  24
   4   9   1 827.457 81.0713   7
   4   9   1 964.510 84.4861  18
   4   9   1 970.289 91.1826  17
   4   9   1 944.975 84.0281  15
  -4   9  -1 887.541 84.5249  27
   4   9   1 861.028 84.6793  14
   4   9   2 4301.78 161.734  18
   4   9   2 4207.22 168.668  17
  -4   9  -2 4148.78 159.928  27
   4   9   2 4026.96 159.787  14
  -4   9  -2 4015.01 177.178  24
   4   9   2 4277.46 159.365   7
  -4   9  -3 6243.18 218.138  24
   4   9   3 7133.97 214.386  18
   4   9   3 6945.00 219.835  17
   4   9   3 6981.42 210.830  14
  -4   9  -3 6570.45 206.387  27
   4   9   3 6695.34 209.246   7
   4   9   4 2304.24 137.117  18
   4   9   4 2115.82 108.519  10
   4   9   4 2447.06 149.277  17
   4   9   4 2227.58 129.945  14
   4   9   4 2304.71 131.303  26
   4   9   4 2257.03 135.524   7
   4   9   5 401.305 91.5800   7
   4   9   5 421.964 77.0254  14
   4   9   5 367.178 86.6837  18
   4   9   5 463.217 71.2382  10
   4   9   5 361.525 101.821  17
   4   9   5 477.408 97.4102  26
   4  10  -8 7763.78 267.993  18
  -4  10   8 7665.79 246.965  10
   4  10  -8 7177.33 220.535  14
  -4  10   8 7696.07 237.099   8
  -4  10   8 7003.65 266.447  24
   4  10  -7 353.204 117.113  18
  -4  10   7 264.875 81.2624  10
   4  10  -7 288.611 66.3123  14
  -4  10   7 211.009 71.3189   8
  -4  10   7 391.526 125.171  24
   4  10  -6 4145.19 189.599  18
  -4  10   6 4235.66 177.029  10
   4  10  -6 4447.37 168.845  14
  -4  10   6 4200.22 167.452   8
  -4  10   6 3984.33 196.974  24
  -4  10   5 4402.86 143.028  11
   4  10  -5 4691.51 189.702  18
   4  10  -5 4560.32 154.814  15
   4  10  -5 4617.23 168.592  14
  -4  10   5 4315.43 189.276  24
  -4  10   5 4546.97 151.476   7
  -4  10   4 5832.06 166.435  11
   4  10  -4 5444.13 194.694  18
   4  10  -4 5652.53 169.729  15
   4  10  -4 5911.25 188.587  14
   4  10  -3 4177.38 164.510  18
   4  10  -3 3922.34 143.941  15
  -4  10   3 4136.56 140.816  14
   4  10  -3 4243.71 162.441  14
  -4  10   3 4269.71 184.255  24
   4  10  -2 460.653 75.8296  18
   4  10  -2 600.430 69.0769  17
   4  10  -2 509.494 63.6841  15
  -4  10   2 769.553 81.6878  14
   4  10  -2 636.854 78.6904  14
  -4  10   2 714.077 121.237  24
   4  10  -1 5897.12 188.787  18
   4  10  -1 6110.54 180.240  17
   4  10  -1 5915.19 177.752  15
  -4  10   1 6557.33 193.927  14
  -4  10   1 5704.89 185.393  27
   4  10  -1 6005.67 192.187  14
  -4  10   1 6422.45 227.080  24
   4  10   0 1671.03 108.809  18
   4  10   0 1792.47 113.949  17
   4  10   0 1861.50 108.447  15
  -4  10   0 1586.29 108.861  27
   4  10   0 1888.96 119.662  14
  -4  10   0 2057.70 149.967  24
   4  10   1 4162.20 164.814  18
   4  10   1 4242.58 168.840  17
   4  10   1 4224.92 161.221  15
  -4  10  -1 4098.52 165.155  27
   4  10   1 4374.34 169.248  14
  -4  10  -1 3519.33 172.140  24
   4  10   1 3748.11 158.465   7
   4  10   2 1467.89 111.076  18
   4  10   2 1419.21 112.000  17
  -4  10  -2 1630.35 115.741  27
   4  10   2 1528.41 115.202  14
  -4  10  -2 1760.86 136.849  24
   4  10   2 1789.23 117.125   7
   4  10   3 749.958 96.9853   7
   4  10   3 670.111 88.0183  18
   4  10   3 696.236 104.085  17
  -4  10  -3 577.381 89.9795  27
   4  10   3 692.424 89.8645  14
  -4  10  -3 410.146 110.544  24
   4  10   4 2845.88 157.530  18
   4  10   4 2755.29 145.555  14
   4  10   4 3024.41 169.614  17
   4  10   4 2821.58 155.539   7
  -4  10  -4 2689.65 151.226  27
   4  10   5 471.653 94.0984  18
   4  10   5 365.061 67.9862  10
   4  10   5 413.167 116.230  17
   4  10   5 272.847 85.1274   7
   4  10   5 413.367 94.1690  26
   4  10   5 354.540 75.0280  14
   4  11  -7 3647.48 201.095  18
  -4  11   7 3067.97 157.267   8
  -4  11   7 3593.68 178.586  10
   4  11  -7 3404.04 160.811  14
  -4  11   7 2975.60 204.756  24
   4  11  -6 1474.92 136.942  18
  -4  11   6 1695.83 130.258  10
   4  11  -6 1526.82 112.906  14
  -4  11   6 1547.65 113.914   8
  -4  11   6 1694.46 159.885  24
   4  11  -5 22474.4 413.934  18
   4  11  -5 23140.6 404.938  14
  -4  11   5 21826.9 429.700  24
  -4  11   5 22424.1 363.374   7
  -4  11   4 3646.14 137.268  11
   4  11  -4 3740.16 169.989  18
   4  11  -4 3638.31 142.233  15
   4  11  -4 3725.78 160.503  14
  -4  11   4 3775.84 187.290  24
   4  11  -3 1032.98 105.357  18
   4  11  -3 1125.77 90.8086  15
  -4  11   3 1060.78 87.7944  14
   4  11  -3 1063.18 97.7553  14
  -4  11   3 967.681 119.550  24
   4  11  -2 2754.87 141.934  18
   4  11  -2 2881.89 126.763  17
   4  11  -2 2746.31 126.124  15
  -4  11   2 2822.11 132.997  14
   4  11  -2 2719.47 142.416  14
  -4  11   2 2931.59 166.160  24
   4  11  -1 741.577 88.5428  18
   4  11  -1 726.686 85.3829  17
   4  11  -1 669.488 72.9068  15
  -4  11   1 669.177 93.3028  14
   4  11  -1 689.252 87.2029  14
  -4  11   1 559.336 117.370  24
  -4  11   0 2534.22 160.624  24
   4  11   0 2725.16 144.339  18
   4  11   0 2760.07 138.694  17
   4  11   0 2791.10 133.095  15
  -4  11   0 3030.75 157.674  14
  -4  11   0 2834.10 148.116  27
   4  11   0 2623.17 142.867  14
   4  11   1 1454.20 112.832  18
   4  11   1 1456.92 118.280  17
  -4  11  -1 1578.02 136.844  14
  -4  11  -1 1446.79 118.187  27
   4  11   1 1380.62 111.462  14
  -4  11  -1 1678.14 150.251  24
   4  11   1 1474.36 118.588   7
   4  11   2 60.6956 68.8685  18
   4  11   2 200.229 88.2842  17
  -4  11  -2 130.998 72.7749  27
   4  11   2 40.0693 73.5713   7
   4  11   3 2340.99 139.019  14
   4  11   3 2539.42 154.149  18
   4  11   3 2422.00 155.388  17
  -4  11  -3 2308.33 141.328  27
  -4  11  -3 1927.24 152.733  24
   4  11   3 2561.17 152.968   7
   4  11   4 722.314 106.708   7
   4  11   4 750.597 106.270  18
   4  11   4 791.188 98.9583  14
   4  11   4 856.193 121.729  17
  -4  11  -4 764.447 108.215  27
   4  12  -6 892.619 128.945  18
  -4  12   6 799.387 114.343  10
   4  12  -6 803.991 96.7539  14
  -4  12   6 886.669 99.4384   8
  -4  12   6 729.812 141.292  24
   4  12  -5 6505.06 224.862  14
   4  12  -5 6639.51 235.902  18
  -4  12   5 6378.14 251.363  24
  -4  12   5 6459.77 205.131   7
  -4  12   4 2416.50 118.180  11
   4  12  -4 2460.31 152.164  18
   4  12  -4 2361.45 143.577  14
   4  12  -4 2430.55 123.620  27
  -4  12   4 2013.79 159.319  24
   4  12  -3 1909.02 133.596  18
   4  12  -3 2114.57 114.016  15
  -4  12   3 2066.63 117.689  14
   4  12  -3 2024.26 135.165  14
  -4  12   3 2283.44 176.437  24
   4  12  -2 54.3053 68.3148  18
   4  12  -2 82.2788 56.5072  15
  -4  12   2 206.976 78.6136  14
   4  12  -2 44.1894 70.3060  14
  -4  12   2 118.579 108.696  24
   4  12  -1 2348.42 141.897  18
   4  12  -1 2239.20 127.621  17
   4  12  -1 2431.05 125.109  15
  -4  12   1 2194.09 138.546  14
   4  12  -1 2268.35 141.954  14
  -4  12   1 2480.74 167.824  24
   4  12   0 5533.87 205.792  18
   4  12   0 5578.41 201.221  17
  -4  12   0 5524.53 206.903  14
  -4  12   0 5686.33 210.277  27
   4  12   0 5312.99 204.223  14
  -4  12   0 5306.14 217.224  24
   4  12   1 5940.98 216.242  18
   4  12   1 5990.77 216.936  17
  -4  12  -1 5838.66 221.919  14
  -4  12  -1 5823.15 215.758  27
   4  12   1 5825.00 215.726  14
  -4  12  -1 5413.55 216.407  24
   4  12   1 5211.73 208.180   7
   4  12   2 1020.84 121.485   7
   4  12   2 937.524 109.312  18
   4  12   2 907.088 119.159  17
  -4  12  -2 1008.10 116.219  27
   4  12   2 1075.42 113.416  14
  -4  12  -2 1064.86 137.257  14
  -4  12  -2 828.271 126.394  24
  -4  12  -3 1227.44 154.033  14
   4  12   3 1263.49 124.747  18
   4  12   3 1261.08 141.709  17
  -4  12  -3 1160.72 123.627  27
   4  12   3 1209.39 117.601  14
   4  12   3 1184.19 125.239   7
   4  13  -4 702.175 108.478  18
   4  13  -4 743.112 87.4739  27
   4  13  -4 783.187 106.872  14
  -4  13   4 608.790 127.611  24
   4  13  -3 2583.69 156.947  18
  -4  13   3 2724.93 140.086  14
   4  13  -3 2832.93 164.211  14
  -4  13   3 2433.42 173.369  24
   4  13  -2 7710.19 251.533  18
   4  13  -2 7752.33 220.807  15
  -4  13   2 7669.28 230.881  14
   4  13  -2 7669.90 256.627  14
  -4  13   2 7413.77 261.057  24
   4  13  -1 14916.7 345.593  18
   4  13  -1 15052.7 322.355  17
   4  13  -1 15088.0 315.692  15
  -4  13   1 14929.5 333.241  14
   4  13  -1 14807.8 355.100  14
  -4  13   1 14038.2 350.265  24
   4  13   0 3560.52 177.708  18
   4  13   0 3541.62 173.035  17
  -4  13   0 3631.66 181.576  14
  -4  13   0 3491.85 183.366  27
   4  13   0 3320.41 180.420  14
  -4  13   0 3130.66 184.106  24
   4  13   0 3224.99 174.164   7
   4  13   1 1273.87 125.627  18
   4  13   1 1592.15 136.599  17
  -4  13  -1 1440.45 134.432  27
   4  13   1 1306.63 128.530  14
  -4  13  -1 1404.19 140.080  14
  -4  13  -1 1175.00 139.089  24
   4  13   1 1495.46 139.210   7
   5 -13  -3 6750.58 239.685   4
   5 -13  -3 6319.56 206.620   6
   5 -13  -3 6669.81 231.571  19
  -5 -13   3 6912.25 246.233   5
   5 -13  -3 6539.29 250.083  16
  -5 -13   3 6245.71 255.124  16
   5 -13  -3 6962.28 250.248  23
   5 -13  -2 6529.53 244.486  23
   5 -13  -2 6336.49 214.465   6
   5 -13  -2 6184.33 212.111  19
  -5 -13   2 6350.55 234.589   5
   5 -13  -2 6151.28 243.671  16
  -5 -13   2 5887.80 262.624  16
   5 -13  -2 6258.45 228.511   4
   5 -12  -5 136.971 73.7270   4
   5 -12  -5 250.687 110.113  19
   5 -12  -5 117.536 94.1992  16
  -5 -12   5 193.024 87.7558   5
  -5 -12   5 144.582 141.709  25
   5 -12  -5 144.764 85.5530  23
   5 -12  -4 2093.06 151.778  19
  -5 -12   4 2165.10 142.963   5
   5 -12  -4 2163.86 152.081  16
  -5 -12   4 1933.12 156.274  16
   5 -12  -4 2162.13 136.770   4
  -5 -12   4 1928.62 198.255  25
   5 -12  -4 2141.42 149.478  23
   5 -12  -3 3210.38 142.162   6
   5 -12  -3 3423.86 166.217  19
  -5 -12   3 3236.36 168.957   5
   5 -12  -3 3313.17 172.639  16
  -5 -12   3 3094.82 185.187  16
   5 -12  -3 3475.86 163.829   4
   5 -12  -3 3300.62 171.487  23
   5 -12  -2 4530.48 173.279   6
   5 -12  -2 4881.77 183.906  19
  -5 -12   2 4839.27 196.956   5
   5 -12  -2 5057.68 208.192  16
  -5 -12   2 4611.33 221.904  16
   5 -12  -2 4748.81 190.416   4
   5 -12  -2 4566.52 195.889  23
   5 -12  -1 11864.2 287.787   6
  -5 -12   1 12491.3 305.246   5
   5 -12  -1 11775.9 310.220  16
   5 -12  -1 12283.8 302.886   4
   5 -12  -1 12202.9 309.143  23
   5 -12   0 3878.64 172.908   6
  -5 -12   0 4048.67 178.241   5
   5 -12   0 4404.03 201.333  16
  -5 -12   0 3746.80 224.410  16
   5 -12   0 4222.57 182.302   4
   5 -12   0 4381.52 189.457  23
   5 -12   1 2124.19 140.814   6
  -5 -12  -1 2320.95 141.320   5
   5 -12   1 2280.61 157.408  16
  -5 -12  -1 1966.30 187.680  16
   5 -12   1 2213.43 139.944   4
   5 -12   1 2358.84 146.968  23
   5 -11  -7 2622.59 190.129  19
  -5 -11   7 2799.05 153.912   5
  -5 -11   7 2643.47 146.858   9
  -5 -11   7 2479.00 203.575  25
   5 -11  -7 2620.84 162.665  23
   5 -11  -6 1405.62 146.174  19
  -5 -11   6 1477.64 121.019   5
   5 -11  -6 1443.52 121.406  16
  -5 -11   6 1426.19 168.178  25
   5 -11  -6 1399.23 130.732  23
   5 -11  -5 6071.44 228.902  19
  -5 -11   5 6969.07 226.173   5
  -5 -11   5 5877.49 262.712  25
   5 -11  -5 6050.01 214.822  16
   5 -11  -5 6726.56 222.939   4
   5 -11  -5 6613.46 228.878  23
   5 -11  -4 1297.02 126.966  19
  -5 -11   4 1459.49 117.664   5
   5 -11  -4 1180.48 119.457  16
  -5 -11   4 1295.24 131.105  16
   5 -11  -4 1367.78 107.508   4
   5 -11  -4 1386.07 119.908  23
   5 -11  -3 1108.18 85.4560   6
   5 -11  -3 1031.40 110.136  19
  -5 -11   3 1341.16 113.116   5
   5 -11  -3 1099.07 112.672  16
  -5 -11   3 958.660 128.374  16
   5 -11  -3 1076.93 98.7572   4
   5 -11  -3 1072.35 108.705  23
   5 -11  -2 804.097 80.5376   6
   5 -11  -2 843.356 96.6049  19
  -5 -11   2 948.109 100.901   5
   5 -11  -2 977.976 109.748  16
  -5 -11   2 756.939 127.946  16
   5 -11  -2 942.042 105.936  23
   5 -11  -2 979.472 94.4738   4
   5 -11  -1 286.298 72.8301   4
   5 -11  -1 272.734 65.2359  19
   5 -11  -1 299.622 67.8848   6
   5 -11  -1 176.189 85.3426  16
  -5 -11   1 137.427 114.793  16
  -5 -11   1 326.252 74.6064   5
   5 -11  -1 247.529 79.4406  23
   5 -11   0 3.09094 58.6980   4
  -5 -11   0 69.4281 75.7364  22
   5 -11   0-27.8022 60.9421   6
   5 -11   0-43.2330 74.9502  16
  -5 -11   0 105.417 125.940  16
  -5 -11   0 104.612 71.7566   5
   5 -11   0 24.6825 54.2865  26
   5 -11   0 7.41608 71.8361  23
   5 -11   1 1278.50 111.585   6
   5 -11   1 1279.05 119.771  16
  -5 -11  -1 1486.34 114.076   5
  -5 -11  -1 1411.59 156.197  16
   5 -11   1 1342.39 111.226   4
   5 -11   1 1274.68 109.460  23
  -5 -11  -1 1164.56 112.897  22
   5 -11   2 1385.66 120.674   6
   5 -11   2 1292.63 124.622  16
  -5 -11  -2 1433.07 109.871   5
  -5 -11  -2 1258.30 160.505  16
   5 -11   2 1278.01 109.706   4
   5 -11   2 1273.16 110.607  23
  -5 -11  -2 1177.18 119.503  22
   5 -11   3 1716.24 127.033   4
   5 -11   3 1736.57 134.916   6
  -5 -11  -3 1728.54 118.341   5
  -5 -11  -3 2104.12 194.433  16
   5 -10  -8 2965.38 194.955  19
  -5 -10   8 3250.13 154.175   5
  -5 -10   8 3309.60 168.231   9
  -5 -10   8 2629.29 195.348  25
   5 -10  -8 3174.63 175.129  23
   5 -10  -7 10608.1 305.351  19
  -5 -10   7 10047.8 263.890   5
  -5 -10   7 11164.5 272.800   9
  -5 -10   7 10564.7 339.755  25
   5 -10  -7 10483.0 284.732  23
   5 -10  -6 844.244 128.003  19
  -5 -10   6 865.047 97.1221   5
   5 -10  -6 919.184 112.202  16
  -5 -10   6 854.280 98.6814   9
  -5 -10   6 877.549 150.132  25
   5 -10  -6 841.459 102.641  23
   5 -10  -5 3087.84 168.180  19
  -5 -10   5 3344.30 153.497   5
   5 -10  -5 3072.08 150.010  16
  -5 -10   5 2768.88 189.593  25
  -5 -10   5 3263.78 141.471   9
   5 -10  -5 3248.29 160.645  23
   5 -10  -4 10498.3 267.217  19
  -5 -10   4 10942.4 265.254   5
   5 -10  -4 10166.2 259.283  16
  -5 -10   4 10797.9 264.650  16
   5 -10  -4 10878.7 261.871   4
   5 -10  -4 10760.8 267.071  23
   5 -10  -3 4491.75 148.698   6
   5 -10  -3 4454.94 175.005  19
  -5 -10   3 4491.62 170.036   5
   5 -10  -3 4130.65 173.829  16
  -5 -10   3 4325.77 183.264  16
   5 -10  -3 4598.73 167.320   4
   5 -10  -3 4630.93 178.222  23
  -5 -10   2 1421.48 106.979  22
   5 -10  -2 1406.05 98.6397   4
   5 -10  -2 1396.72 94.2098   6
   5 -10  -2 1436.60 103.340  19
   5 -10  -2 1483.98 115.509  16
  -5 -10   2 1368.54 105.252   5
  -5 -10   2 1625.24 133.392  16
   5 -10  -2 1469.19 112.931  23
   5 -10  -1 1779.22 106.308   6
   5 -10  -1 1812.46 108.063  19
   5 -10  -1 1824.06 118.792  16
  -5 -10   1 1727.15 113.170   5
  -5 -10   1 1549.79 137.379  16
  -5 -10   1 1696.48 114.743  22
   5 -10  -1 1881.30 112.721   4
   5 -10  -1 1885.70 121.100  23
   5 -10   0 4189.80 165.067   6
   5 -10   0 4138.57 145.031  19
   5 -10   0 4444.15 178.650  16
  -5 -10   0 4115.70 162.395   5
   5 -10   0 4395.49 165.390   4
  -5 -10   0 4013.46 165.996  22
   5 -10   0 4377.65 170.852  23
   5 -10   1 2254.09 118.060  26
   5 -10   1 2189.40 127.655   6
   5 -10   1 2210.13 135.134  16
  -5 -10  -1 2215.63 124.025   5
  -5 -10  -1 2198.61 168.126  16
   5 -10   1 2281.13 126.858   4
   5 -10   1 2213.23 132.004  23
  -5 -10  -1 1852.21 127.986  22
   5 -10   2 1209.81 109.377   6
   5 -10   2 1241.17 116.039  16
  -5 -10  -2 1241.88 100.379   5
  -5 -10  -2 1268.37 155.803  16
   5 -10   2 1329.56 105.890   4
   5 -10   2 1294.95 107.778  23
   5 -10   3 271.812 77.9037   6
  -5 -10  -3 226.297 132.310  16
  -5 -10  -3 372.902 69.6481   5
   5 -10   3 354.563 73.4978   4
   5 -10   4 1658.15 134.752   6
   5 -10   4 1668.51 111.428   9
  -5 -10  -4 1502.75 166.182  16
   5  -9  -9 416.263 127.118  19
  -5  -9   9 416.054 104.279   9
  -5  -9   9 453.959 124.108  25
   5  -9  -9 477.502 112.277  23
   5  -9  -8 3333.69 192.144  19
  -5  -9   8 2884.33 193.495  25
  -5  -9   8 3383.44 149.008   5
  -5  -9   8 3617.70 171.077   9
   5  -9  -8 3439.35 172.005  23
   5  -9  -7 4321.16 197.765  19
  -5  -9   7 4831.63 174.443   5
  -5  -9   7 5165.23 189.527   9
  -5  -9   7 4799.39 222.706  25
   5  -9  -7 4890.51 192.461  23
   5  -9  -6 3764.20 180.463  19
  -5  -9   6 3602.31 152.312   5
   5  -9  -6 3541.41 150.240  16
  -5  -9   6 3699.89 155.917   9
  -5  -9   6 4032.35 201.444  25
   5  -9  -6 3668.98 166.794  23
   5  -9  -5 3454.75 162.749  19
  -5  -9   5 3161.38 141.108   5
   5  -9  -5 3382.45 146.373  16
  -5  -9   5 3507.33 143.105   9
   5  -9  -5 3405.77 151.430  23
   5  -9  -4 150.888 79.4491  19
   5  -9  -4 263.428 70.3424  16
  -5  -9   4 132.783 58.3180   5
  -5  -9   4 133.628 62.0529   9
   5  -9  -4 160.632 57.1824   4
   5  -9  -4 185.963 68.3130  23
  -5  -9   3 11788.8 242.335  22
   5  -9  -3 11463.3 260.831  19
  -5  -9   3 10622.8 572.019   2
   5  -9  -3 11895.6 261.473  16
  -5  -9   3 11537.9 257.349   5
  -5  -9   3 10832.5 256.665  16
   5  -9  -3 11714.6 253.574   4
   5  -9  -3 11805.2 262.376  23
  -5  -9   2 8081.01 207.465  22
   5  -9  -2 8885.59 217.964   4
   5  -9  -2 8725.63 205.002   6
   5  -9  -2 8830.46 219.059  19
   5  -9  -2 8825.79 232.935  16
  -5  -9   2 8709.44 223.179   5
  -5  -9   2 8584.30 237.947  16
   5  -9  -2 8972.48 227.639  23
   5  -9  -1 3714.48 141.652   6
   5  -9  -1 3749.20 139.467  19
   5  -9  -1 3926.04 155.732  16
  -5  -9   1 3832.00 149.557   5
  -5  -9   1 3616.20 165.369  16
   5  -9  -1 3716.17 140.990   4
   5  -9  -1 3755.50 150.560  23
  -5  -9   1 3810.36 151.398  22
   5  -9   0 16580.4 311.741   6
   5  -9   0 16539.6 285.393  19
   5  -9   0 17121.7 330.646  16
  -5  -9   0 17139.0 312.797   5
  -5  -9   0 16561.1 345.058  16
   5  -9   0 17245.7 310.908   4
   5  -9   0 16820.3 314.155  23
  -5  -9   0 16488.3 315.832  22
   5  -9   1 2873.93 137.917   6
   5  -9   1 3088.80 150.750  16
  -5  -9  -1 2992.96 133.603   5
  -5  -9  -1 3121.92 168.822  16
   5  -9   1 3203.86 135.732  26
   5  -9   1 3103.14 136.688   4
   5  -9   1 3175.68 142.219  23
  -5  -9  -1 3046.86 146.997  22
   5  -9   2 10837.6 270.817   6
  -5  -9  -2 11067.1 252.485   5
  -5  -9  -2 12016.6 309.011  16
   5  -9   2 11173.5 260.606   4
   5  -9   2 11127.7 255.728  26
   5  -9   2 11509.4 266.792  23
   5  -9   3 1513.62 119.689   6
   5  -9   3 1694.74 104.019   9
  -5  -9  -3 1647.97 106.054   5
  -5  -9  -3 1546.39 156.900  16
   5  -9   3 1608.94 104.371  26
   5  -9   3 1737.38 112.994   4
   5  -9   4 6504.71 230.868   6
   5  -9   4 6988.02 211.802   9
  -5  -9  -4 7087.65 204.306   5
  -5  -9  -4 7274.83 275.765  16
   5  -8  -9 2167.75 147.264  23
   5  -8  -9 2156.70 166.077  19
  -5  -8   9 2227.59 149.483   9
  -5  -8   9 2035.40 159.775  25
   5  -8  -8 857.102 128.648  19
  -5  -8   8 877.423 81.5264   5
  -5  -8   8 906.332 110.824   9
  -5  -8   8 1026.28 135.264  25
   5  -8  -8 1067.40 114.317  23
   5  -8  -7 5420.52 207.954  19
  -5  -8   7 5474.24 173.906   5
  -5  -8   7 4955.91 184.673   9
  -5  -8   7 4712.03 209.696  25
   5  -8  -7 5301.22 191.927  23
   5  -8  -6 5273.13 196.177  19
  -5  -8   6 5520.56 174.263   5
  -5  -8   6 5803.21 185.407   9
  -5  -8   6 4941.60 207.251  25
   5  -8  -6 5806.75 192.495  23
  -5  -8   5 5499.51 163.045  22
   5  -8  -5 5405.45 188.023  19
  -5  -8   5 5102.73 164.873   5
  -5  -8   5 5306.88 171.108   9
   5  -8  -5 5170.16 174.057  23
   5  -8  -4 1085.00 186.142  20
   5  -8  -4 1058.87 98.7431  19
   5  -8  -4 1054.66 85.4601  16
  -5  -8   4 971.106 83.2158   5
  -5  -8   4 1281.11 90.8602  22
   5  -8  -4 1093.11 90.5116  23
  -5  -8   3 7952.60 194.836  22
   5  -8  -3 7180.56 410.160  20
   5  -8  -3 7554.21 202.143  19
  -5  -8   3 7248.16 456.765   2
   5  -8  -3 7689.96 200.673  16
  -5  -8   3 7242.61 193.999   5
   5  -8  -3 7254.54 189.074   4
   5  -8  -3 7330.21 195.542  23
   5  -8  -2 17000.8 296.628  19
  -5  -8   2 15969.7 624.177   2
   5  -8  -2 17217.3 304.640  16
  -5  -8   2 16636.2 297.760   5
   5  -8  -2 16612.6 286.162   4
   5  -8  -2 16672.4 295.629  23
   5  -8  -1 5579.56 163.472   6
   5  -8  -1 5910.66 166.200  19
   5  -8  -1 5763.29 179.885  16
  -5  -8   1 5536.36 168.399   5
  -5  -8   1 6040.54 193.495  16
   5  -8  -1 5513.87 161.289   4
   5  -8  -1 5677.75 171.591  23
  -5  -8   1 6060.61 181.380  22
   5  -8   0 291.788 52.9689   4
  -5  -8   0 322.516 72.7963  22
   5  -8   0 383.173 59.2080   6
   5  -8   0 384.902 68.2754  16
  -5  -8   0 515.964 100.704  16
  -5  -8   0 419.481 62.4137   5
   5  -8   0 441.002 65.9472  23
   5  -8   1 1061.04 86.8084   6
   5  -8   1 994.556 90.2893  16
  -5  -8  -1 971.366 81.0936   5
  -5  -8  -1 1061.87 114.810  16
   5  -8   1 1133.08 86.8032  26
   5  -8   1 952.318 76.4338   4
   5  -8   1 1058.80 84.3348  23
   5  -8   2 1501.44 105.756   6
   5  -8   2 1457.08 89.8615   9
  -5  -8  -2 1533.34 131.095  16
  -5  -8  -2 1435.91 94.3360   5
   5  -8   2 1491.83 98.3968  26
   5  -8   2 1501.54 96.2929   4
   5  -8   2 1341.68 95.0961  23
   5  -8   3 5177.63 188.808   6
   5  -8   3 5267.39 170.757   9
  -5  -8  -3 5128.84 167.008   5
  -5  -8  -3 5327.08 218.212  16
   5  -8   3 5258.57 177.612  26
   5  -8   3 5394.31 180.507   4
   5  -8   4 2790.37 152.683   6
   5  -8   4 2681.30 133.559   9
  -5  -8  -4 2940.51 130.979   5
  -5  -8  -4 3012.52 185.556  16
   5  -8   4 2924.06 140.869  26
   5  -8   5 4607.68 196.090   6
   5  -8   5 4655.24 184.012   9
  -5  -8  -5 4599.67 228.879  16
   5  -8   5 4820.47 182.151  26
   5  -7 -10 3998.22 206.372  19
  -5  -7  10 3764.71 186.310   9
   5  -7 -10 3875.79 191.671  23
   5  -7  -9 1620.12 146.719  19
   5  -7  -9 1759.16 135.218  23
  -5  -7   9 1920.19 141.208   9
  -5  -7   9 1741.33 143.841  25
  -5  -7   8 671.542 86.7937  22
   5  -7  -8 756.856 117.260  19
  -5  -7   8 669.366 69.4819   5
  -5  -7   8 914.195 109.003   9
   5  -7  -8 675.536 100.723  23
  -5  -7   7 4229.35 153.429  22
   5  -7  -7 4320.45 177.851  19
  -5  -7   7 4160.92 144.191   5
  -5  -7   7 4155.95 164.697   9
  -5  -7   7 4090.36 184.307  25
   5  -7  -7 4506.77 171.131  23
  -5  -7   6 46108.3 515.596  22
  -5  -7   6 44547.9 540.029  11
   5  -7  -6 45742.4 565.712  19
  -5  -7   6 46404.7 517.541   5
  -5  -7   6 46020.6 540.255   9
   5  -7  -6 45571.5 548.833  23
  -5  -7   5 6686.17 178.817  22
  -5  -7   5 6025.97 177.475  11
   5  -7  -5 6825.25 443.236  20
   5  -7  -5 6489.81 198.602  19
  -5  -7   5 6708.97 177.548   5
  -5  -7   5 6842.08 186.725   9
   5  -7  -5 6596.32 186.636  23
  -5  -7   4 422.984 62.8954  22
   5  -7  -4 654.363 146.159  20
   5  -7  -4 544.662 79.2031  19
  -5  -7   4 581.589 67.0854   5
  -5  -7   4 606.880 170.090   2
   5  -7  -4 526.956 67.7028  23
  -5  -7   3 193.317 65.2322  22
   5  -7  -3 133.313 89.9760  20
   5  -7  -3 89.4298 41.8643   4
   5  -7  -3 54.6470 61.5556  19
  -5  -7   3-20.3845 107.358   2
  -5  -7   3 201.364 47.8519   5
   5  -7  -3 232.419 54.0363  23
  -5  -7   2 10475.2 223.785  22
  -5  -7   2 10619.4 489.346   2
  -5  -7   2 10656.0 223.345   5
   5  -7  -2 10612.0 211.676   4
   5  -7  -2 10515.8 219.878  23
   5  -7  -1 8673.30 205.924  16
  -5  -7   1 8136.41 195.280   5
   5  -7  -1 8432.87 187.675   4
   5  -7  -1 8286.52 194.465  23
  -5  -7   1 8361.52 204.151  22
   5  -7   0 8884.90 206.809   6
   5  -7   0 8933.24 214.722  16
  -5  -7   0 8738.38 223.023  16
  -5  -7   0 8900.20 207.379   5
   5  -7   0 8965.10 197.413   4
  -5  -7   0 8178.48 210.228  22
   5  -7   0 8705.27 200.703  23
   5  -7   1 11271.2 244.937   6
  -5  -7  -1 11359.3 266.436  16
  -5  -7  -1 11265.6 235.660   5
   5  -7   1 11508.7 242.877  26
   5  -7   1 10942.5 226.431   4
   5  -7   1 11170.1 230.583  23
   5  -7   2 15151.3 295.952   6
   5  -7   2 15187.3 270.264   9
  -5  -7  -2 15111.7 278.095   5
   5  -7   2 15468.3 292.539  26
   5  -7   2 15293.6 279.349   4
   5  -7   2 15586.0 281.463  23
   5  -7   3 12357.4 280.659   6
   5  -7   3 12409.3 258.863   9
  -5  -7  -3 12598.8 254.383   5
   5  -7   3 12437.9 269.430  26
   5  -7   3 12666.8 261.346   4
   5  -7   4 19156.3 369.164   6
   5  -7   4 19995.2 359.008  26
   5  -7   4 19403.1 350.149   9
  -5  -7  -4 19592.3 327.634   5
   5  -7   5 7776.52 241.762   6
   5  -7   5 7748.56 231.325   9
   5  -7   5 8162.57 234.942  26
   5  -7   6 2563.30 158.551   6
   5  -7   6 2337.60 146.148   9
  -5  -7  -6 2668.18 185.244  16
   5  -7   6 2412.11 142.190  26
  -5  -6  10 1156.19 108.782  22
   5  -6 -10 1264.52 134.530  19
  -5  -6  10 1182.39 121.558   9
  -5  -6  10 1173.07 122.246  25
   5  -6 -10 1081.84 116.825  23
  -5  -6   9 5270.94 188.996  22
   5  -6  -9 5474.45 208.040  19
  -5  -6   9 5592.50 209.742   9
  -5  -6   9 5328.46 211.614  25
   5  -6  -9 5578.82 204.946  23
  -5  -6   8 46.4602 63.6196  22
   5  -6  -8 185.684 92.8330  19
  -5  -6   8 130.434 82.5018   9
  -5  -6   8 122.999 84.9232  25
   5  -6  -8 83.4284 71.2132  23
   5  -6  -7 6650.49 198.387  23
  -5  -6   7 6488.91 195.090  11
   5  -6  -7 6464.30 204.351  19
  -5  -6   7 6731.73 198.374   9
  -5  -6   7 6317.91 217.104  25
  -5  -6   7 6717.57 192.740  22
  -5  -6   6 8697.08 212.988  11
   5  -6  -6 8424.38 223.252  19
  -5  -6   6 8702.94 206.134  22
  -5  -6   6 9149.40 216.358   9
   5  -6  -6 8861.85 216.470  23
  -5  -6   5 6592.56 172.351  22
  -5  -6   5 6095.34 168.116  11
   5  -6  -5 6144.43 401.056  20
   5  -6  -5 6448.36 187.657  19
  -5  -6   5 5967.34 443.046   2
   5  -6  -5 6257.89 174.137  23
  -5  -6   4 21581.3 315.059  22
   5  -6  -4 21690.5 694.901  20
  -5  -6   4 21449.5 761.587   2
   5  -6  -4 21381.5 317.746  23
  -5  -6   3 17218.2 277.630  22
   5  -6  -3 16782.0 553.574  20
  -5  -6   3 16996.2 631.722   2
   5  -6  -3 16976.4 271.223  23
   5  -6  -2 18674.5 517.708  20
   5  -6  -2 17343.9 736.627   3
  -5  -6   2 18055.4 290.705  22
  -5  -6   2 18016.9 605.514   2
   5  -6  -2 18134.5 267.764   4
   5  -6  -2 17883.4 275.501  23
   5  -6  -1 4883.05 394.522   3
  -5  -6   1 4379.23 274.616   2
   5  -6  -1 4456.54 127.405   4
   5  -6  -1 4363.77 132.366  23
  -5  -6   1 4180.16 142.545  22
   5  -6   0 19547.3 288.627  23
   5  -6   0 17986.4 668.490  13
   5  -6   0 19437.0 283.162   4
  -5  -6   0 19335.1 686.110  13
  -5  -6   0 19200.3 314.841  22
   5  -6   1 2942.53 121.310   6
  -5  -6  -1 2958.86 117.981   5
   5  -6   1 2798.49 253.439  13
   5  -6   1 3062.85 110.685   4
  -5  -6  -1 2773.53 258.928  13
   5  -6   1 3048.66 113.439  23
   5  -6   2 2274.23 115.011   6
   5  -6   2 2361.55 106.816   9
  -5  -6  -2 2329.42 107.171   5
   5  -6   2 2525.42 117.788  26
   5  -6   2 2347.45 104.543   4
   5  -6   2 2473.39 107.128  23
   5  -6   3 14364.3 292.761   6
   5  -6   3 14188.8 274.479   9
  -5  -6  -3 14298.4 266.878   5
   5  -6   3 14977.5 289.562  26
   5  -6   4 416.982 76.4145   6
   5  -6   4 433.405 69.5081  26
   5  -6   4 375.053 69.0617   9
  -5  -6  -4 375.252 58.4528   5
   5  -6   5 203.880 62.9342  26
   5  -6   5 192.049 75.0141   6
   5  -6   5 182.580 65.0063   9
   5  -6   6 5500.54 208.174   6
   5  -6   6 5447.57 202.972  26
   5  -6   6 5370.98 204.476   9
  -5  -5  11 4810.55 196.631  22
   5  -5 -11 5166.27 214.980  19
  -5  -5  11 5056.79 221.459   9
  -5  -5  11 5057.08 183.000   8
  -5  -5  11 4382.35 205.589  25
   5  -5 -11 5150.61 221.673  23
  -5  -5  10 4311.26 180.050  22
   5  -5 -10 4234.75 191.851  19
  -5  -5  10 4158.86 187.906  25
  -5  -5  10 4749.01 202.591   9
  -5  -5  10 4172.93 156.207   8
   5  -5 -10 4456.79 193.179  23
  -5  -5   9 3173.68 149.299  22
   5  -5  -9 3295.52 167.664  19
  -5  -5   9 3097.20 160.818  25
  -5  -5   9 3498.93 165.681   9
   5  -5  -9 3340.73 158.877  23
  -5  -5   8 4914.66 170.460  22
  -5  -5   8 4978.85 171.857  11
   5  -5  -8 5040.23 184.598  19
  -5  -5   8 4935.25 181.539   9
  -5  -5   8 5532.45 197.931  25
   5  -5  -8 4915.00 175.580  23
  -5  -5   7 10018.8 227.220  22
  -5  -5   7 9683.35 229.583  11
   5  -5  -7 9738.94 239.994  19
  -5  -5   7 10234.8 239.401   9
  -5  -5   7 9124.38 243.532  25
   5  -5  -7 9779.03 231.827  23
  -5  -5   6 2115.92 115.195  22
   5  -5  -6 2076.20 251.069  20
  -5  -5   6 2062.53 104.416  11
   5  -5  -6 2321.12 125.058  19
  -5  -5   6 1906.71 112.885   9
  -5  -5   6 1915.20 216.295   1
   5  -5  -6 1941.75 105.970  23
  -5  -5   5 58963.2 582.732  22
   5  -5  -5 60132.5 1229.16  20
  -5  -5   5 59499.3 1322.75   2
  -5  -5   5 58664.8 1065.68   1
   5  -5  -5 59173.8 583.949  23
  -5  -5   4 8116.71 189.908  22
   5  -5  -4 7639.35 395.739  20
  -5  -5   4 7774.48 441.754   2
  -5  -5   4 8016.81 330.352   1
   5  -5  -4 7660.15 175.967  23
   5  -5  -3 8620.67 373.272  20
  -5  -5   3 8183.32 419.368   2
  -5  -5   3 8225.89 272.269   1
   5  -5  -3 8583.91 178.423  23
  -5  -5   3 9039.17 196.555  22
   5  -5  -2 3823.21 213.854  20
   5  -5  -2 3817.65 352.527   3
  -5  -5   2 3539.86 262.689   2
   5  -5  -2 3567.83 106.408   4
   5  -5  -2 3628.98 304.860  13
   5  -5  -2 3837.16 116.188  23
  -5  -5   2 3378.57 290.576  13
  -5  -5   2 4056.55 135.476  22
  -5  -5   1 15439.0 264.201  22
   5  -5  -1 15616.2 662.148   3
  -5  -5   1 14860.0 484.487   2
   5  -5  -1 15069.2 225.897   4
   5  -5  -1 14796.2 585.319  13
   5  -5  -1 15119.5 233.018  23
  -5  -5   1 14771.4 588.999  13
   5  -5   0 3056.44 308.152   3
  -5  -5   0 2818.34 186.432   2
   5  -5   0 2938.32 258.543  13
   5  -5   0 3209.09 102.700   4
  -5  -5   0 2798.93 254.737  13
   5  -5   0 3159.42 105.453  23
  -5  -5   0 3213.34 130.326  22
   5  -5   1 158.150 35.4119   4
   5  -5   1 162.539 38.2242  23
   5  -5   1 118.037 61.7651  13
  -5  -5  -1 150.148 82.5966  13
   5  -5   2 35578.2 452.040   6
   5  -5   2 35894.5 452.119  26
   5  -5   2 36377.4 415.303   4
   5  -5   3 5853.84 178.407  26
   5  -5   3 5706.29 179.740   6
   5  -5   3 5668.45 169.821   9
  -5  -5  -3 5685.50 161.720   5
   5  -5   4 191.146 61.8416   6
   5  -5   4 308.509 65.1807   9
  -5  -5  -4 227.989 53.9016   5
   5  -5   4 250.236 59.1346  26
   5  -5   5 208.996 66.4192  26
   5  -5   5 139.454 67.0739   6
   5  -5   5 217.773 69.1831   9
   5  -5   6 1116.58 105.755   6
   5  -5   6 1000.01 106.470   9
   5  -5   6 933.590 101.799  26
  -5  -4  11 5543.10 211.613  22
   5  -4 -11 5737.14 216.031  19
  -5  -4  11 5585.25 221.068   9
  -5  -4  11 5290.55 192.146   8
  -5  -4  11 5528.41 207.700  25
   5  -4 -11 5839.71 230.639  23
  -5  -4  10 205.482 81.1091  22
   5  -4 -10 412.840 100.400  19
  -5  -4  10 335.134 95.4462   9
  -5  -4  10 525.159 88.9744  25
  -5  -4  10 360.974 63.6812   8
   5  -4 -10 560.021 98.5608  23
  -5  -4   9 1890.39 121.164  22
  -5  -4   9 2072.02 118.931  11
   5  -4  -9 1946.10 124.804  19
  -5  -4   9 1704.96 97.1961   8
  -5  -4   9 2074.36 125.659  25
   5  -4  -9 1866.99 125.108  23
  -5  -4   8 11639.3 260.165  22
  -5  -4   8 12164.8 260.041  11
   5  -4  -8 12417.1 266.586  19
   5  -4  -8 12118.6 264.250  23
  -5  -4   8 12076.5 271.504  25
  -5  -4   7 58613.9 612.892  22
  -5  -4   7 58603.7 613.452  11
   5  -4  -7 58326.5 618.028  19
  -5  -4   7 58352.9 620.453   9
   5  -4  -7 58511.1 615.610  23
  -5  -4   6 24600.9 354.503  22
  -5  -4   6 24052.6 744.921   1
   5  -4  -6 25307.1 830.441  20
  -5  -4   6 24054.1 853.966   2
   5  -4  -6 24397.8 345.097  23
  -5  -4   5 43767.3 474.450  22
   5  -4  -5 42536.1 989.735  20
  -5  -4   5 42717.4 902.343   1
  -5  -4   5 41292.2 1057.29   2
   5  -4  -5 41475.6 455.405  23
  -5  -4   4 11822.9 222.348  22
  -5  -4   4 10779.6 504.058   2
   5  -4  -4 10725.7 444.059  20
  -5  -4   4 10405.1 386.496   1
   5  -4  -4 11232.6 205.809  23
  -5  -4   3 40893.6 449.497  22
   5  -4  -3 42937.9 808.636  20
  -5  -4   3 42156.3 689.185   1
  -5  -4   3 43227.3 952.373   2
  -5  -4   3 42090.9 1018.03  13
   5  -4  -2 4362.20 330.415  12
   5  -4  -2 3856.62 199.237  20
  -5  -4   2 3762.00 163.068   1
  -5  -4   2 3954.15 269.618   2
  -5  -4   2 4168.92 312.973  13
  -5  -4   2 4033.20 130.706  22
  -5  -4   1 499.206 52.4449   1
   5  -4  -1 602.672 153.253   3
  -5  -4   1 680.302 117.161   2
  -5  -4   1 527.974 122.757  13
  -5  -4   1 702.696 77.1139  22
  -5  -4   0 287.380 56.0493  22
   5  -4   0 413.132 148.161   3
  -5  -4   0 391.332 83.7917   2
  -5  -4   0 389.973 43.1749   1
   5  -4   0 207.408 78.9871  13
  -5  -4   0 307.266 98.7459  13
   5  -4   1 3245.62 330.172   3
   5  -4   1 2935.73 226.342  13
  -5  -4  -1 3135.51 237.934  13
   5  -4   2 4488.93 145.309   6
   5  -4   2 4475.21 124.540   4
   5  -4   3 1974.29 106.549   6
   5  -4   3 1913.13 101.322   9
   5  -4   3 1989.50 106.776  26
   5  -4   4 1399.83 98.4045   6
   5  -4   4 1575.37 102.726   9
   5  -4   4 1372.30 97.0423  26
  -5  -4  -4 1431.61 88.0769   5
   5  -4   5 1351.47 102.369   6
   5  -4   5 1286.71 102.755   9
   5  -4   5 1259.71 100.783  26
   5  -4   6 963.968 98.9853   6
   5  -4   6 869.111 97.2103  26
   5  -4   6 865.441 100.653   9
   5  -4   7 1432.73 120.870   6
   5  -4   7 1371.24 124.812  26
   5  -4   7 1383.07 123.743   9
  -5  -3  11 1568.52 132.346  22
  -5  -3  11 1812.73 119.914   8
   5  -3 -11 1697.68 131.481  19
  -5  -3  11 1691.02 139.294   9
   5  -3 -11 1696.52 141.285  23
  -5  -3  10 12068.4 294.071  22
  -5  -3  10 12795.2 283.722  11
   5  -3 -10 11849.5 279.200  19
  -5  -3  10 12583.1 297.297   9
  -5  -3  10 12335.3 265.431   8
  -5  -3  10 11344.6 278.174  25
   5  -3 -10 12290.0 296.894  23
  -5  -3   9 3609.33 161.318  22
  -5  -3   9 3673.39 151.576  11
   5  -3  -9 3853.31 159.106  19
  -5  -3   9 3877.12 164.873   9
  -5  -3   9 3646.09 148.966  25
  -5  -3   9 3905.99 137.881   8
   5  -3  -9 3875.74 166.841  23
  -5  -3   8 1276.90 105.347  22
  -5  -3   8 1257.09 88.3773  11
   5  -3  -8 1515.79 105.794  19
  -5  -3   8 1300.97 106.885   9
   5  -3  -8 1360.90 98.9005  23
  -5  -3   7 4270.39 157.193  22
  -5  -3   7 4321.06 144.926  11
  -5  -3   7 4596.78 165.372   9
   5  -3  -7 4332.10 148.655  23
  -5  -3   6 23627.0 339.375  22
   5  -3  -6 23063.5 779.019  20
  -5  -3   6 22625.9 808.373   2
  -5  -3   6 22195.7 718.513   1
   5  -3  -6 22436.5 321.327  23
  -5  -3   5 39650.9 445.470  22
   5  -3  -5 39696.0 940.991  20
  -5  -3   5 40364.2 888.342   1
  -5  -3   5 39430.7 1013.80   2
   5  -3  -5 38986.3 421.588  23
   5  -3  -4 2160.11 236.300  12
   5  -3  -4 2013.72 194.075  20
  -5  -3   4 1782.44 93.3199  22
  -5  -3   4 2036.29 176.945   1
  -5  -3   4 1993.51 221.547   2
  -5  -3   4 2013.54 227.661  13
   5  -3  -3 50508.8 1105.40  12
  -5  -3   3 51347.9 819.539   1
   5  -3  -3 50097.5 848.457  20
  -5  -3   3 49846.8 1013.90   2
  -5  -3   3 50432.3 1082.26  13
   5  -3  -2 23928.3 746.990  12
  -5  -3   2 24798.1 493.806   1
   5  -3  -2 24883.8 480.235  20
  -5  -3   2 24453.4 652.079   2
  -5  -3   2 23963.9 709.555  13
   5  -3  -1 56464.7 1162.93  12
   5  -3  -1 54339.6 1171.34   3
  -5  -3   1 57892.1 958.604   2
  -5  -3   1 55590.5 1055.04  13
  -5  -3   1 56174.2 546.461  22
   5  -3   0 15344.9 600.008  12
   5  -3   0 16261.5 639.024   3
  -5  -3   0 15941.3 446.331   2
  -5  -3   0 15000.9 511.674  13
  -5  -3   0 15228.7 260.551  22
   5  -3   1 13640.6 573.520  12
   5  -3   1 13172.9 613.986   3
  -5  -3  -1 14687.1 394.921   1
   5  -3   1 13866.1 455.239  13
  -5  -3  -1 14510.7 377.235   2
  -5  -3  -1 13414.8 453.688  13
   5  -3   2 3851.29 360.896   3
  -5  -3  -2 3843.56 228.469   1
   5  -3   3 764.841 75.5089  26
   5  -3   3 771.629 75.2656   6
  -5  -3  -3 714.847 163.669   3
   5  -3   3 698.630 69.3921   9
   5  -3   4 2643.08 125.192   6
   5  -3   4 2599.11 125.345   9
   5  -3   4 2527.02 124.419  26
   5  -3   5 11707.9 268.805   6
   5  -3   5 12093.1 281.191  26
   5  -3   5 11790.1 271.948   9
   5  -3   6 9264.98 250.473   6
   5  -3   6 9141.92 256.690   9
   5  -3   6 9187.20 260.676  26
   5  -3   7 401.217 81.3957   6
   5  -3   7 376.222 93.7617   9
   5  -3   7 359.530 87.9939  26
  -5  -2  11 797.211 110.586  22
  -5  -2  11 863.512 88.7333  11
  -5  -2  11 799.307 108.534   9
  -5  -2  11 859.754 92.4174   8
   5  -2 -11 829.385 117.942  23
  -5  -2  10 1046.42 113.027  22
  -5  -2  10 1069.11 90.3728  11
   5  -2 -10 1302.76 110.540  19
  -5  -2  10 1017.50 111.649   9
  -5  -2  10 1011.74 87.7253   8
   5  -2 -10 1223.48 126.264  23
  -5  -2   9 2610.40 143.161  22
  -5  -2   9 2714.60 126.777  11
   5  -2  -9 2935.31 131.471  19
  -5  -2   9 2664.74 138.989   9
  -5  -2   9 2935.22 122.458   8
   5  -2  -9 2939.76 145.392  23
  -5  -2   8 1516.67 114.112  22
  -5  -2   8 1322.55 89.7125  11
  -5  -2   8 1495.43 110.049   9
   5  -2  -8 1594.67 107.963  23
  -5  -2   7 31747.2 422.072  22
   5  -2  -7 33151.4 1009.38  20
  -5  -2   7 31838.6 411.312   9
   5  -2  -7 31665.2 406.929  23
   5  -2  -7 32432.2 1016.60  13
  -5  -2   6 6522.92 179.716  22
   5  -2  -6 6078.54 397.557  20
  -5  -2   6 6343.31 387.387   1
  -5  -2   6 6295.11 425.791   2
   5  -2  -6 6668.08 167.087  23
   5  -2  -5 1377.24 199.983  12
   5  -2  -5 1052.62 163.634  20
  -5  -2   5 1241.49 197.440   2
  -5  -2   5 1377.99 172.090   1
   5  -2  -5 1306.06 74.6229  23
   5  -2  -4 3971.22 311.857  12
   5  -2  -4 3797.21 258.166  20
  -5  -2   4 3832.62 251.028   1
  -5  -2   4 3710.55 290.493   2
   5  -2  -3 20592.7 678.653  12
   5  -2  -3 19643.5 508.486  20
  -5  -2   3 20734.5 533.952   1
  -5  -2   3 20952.2 641.731   2
  -5  -2   2 71806.1 1158.81   2
   5  -2  -2 73436.1 1296.36  12
   5  -2  -2 72069.4 864.440  20
   5  -2  -1 12665.6 516.242  12
  -5  -2   1 12667.3 434.674   2
   5  -2  -1 11304.8 184.322  20
   5  -2  -1 12849.3 538.760   3
   5  -2   0 20579.2 664.665  12
  -5  -2   0 21130.5 529.668   2
   5  -2   0 20720.3 693.840   3
  -5  -2   0 19859.1 294.167  22
   5  -2   1 20234.8 662.896  12
  -5  -2  -1 20984.5 495.787   2
   5  -2   1 20364.9 516.425  13
   5  -2   2 5684.52 403.463   3
   5  -2   2 5569.61 357.249  12
  -5  -2  -2 6143.86 315.330   1
   5  -2   3 51.0044 78.7913  12
   5  -2   3 48.8778 47.7061   6
  -5  -2  -3 5.11553 112.719   3
  -5  -2  -3 177.675 78.5510   1
   5  -2   3 88.4677 45.0272  26
   5  -2   3 108.249 46.2042   9
   5  -2   4 12405.7 260.192   6
   5  -2   4 12732.3 266.954   9
   5  -2   4 12766.9 272.463  26
   5  -2   5 14576.5 297.198   6
   5  -2   5 14760.9 302.142   9
   5  -2   5 14365.0 308.372  26
   5  -2   6 9665.89 252.250   6
   5  -2   6 9513.60 267.387  26
   5  -2   6 9790.59 260.693   9
   5  -2   7 3095.23 158.229   6
   5  -2   7 2860.59 164.335  26
   5  -2   7 2977.37 162.643   9
  -5  -1  11 728.978 79.7625  11
  -5  -1  11 861.670 110.722   9
  -5  -1  11 858.506 94.1592   8
   5  -1 -11 832.774 118.701  23
  -5  -1  10 8924.51 259.404  22
  -5  -1  10 9426.24 234.052  11
  -5  -1  10 9812.20 241.680   8
   5  -1 -10 9354.41 260.408  23
  -5  -1  10 9240.80 251.535   9
  -5  -1   9 10791.2 265.797  22
  -5  -1   9 11528.4 247.459  11
  -5  -1   9 10536.2 252.288   9
  -5  -1   9 11148.6 240.986   8
   5  -1  -9 11791.7 266.480  23
  -5  -1   8 842.174 98.5524  22
  -5  -1   8 1052.53 82.5862  11
  -5  -1   8 1080.72 95.5347   9
   5  -1  -8 883.455 87.3797  23
  -5  -1   7 7675.05 201.953  22
   5  -1  -7 7953.11 495.098  20
  -5  -1   7 7808.42 490.398   2
   5  -1  -7 7720.59 188.361  23
   5  -1  -7 7670.78 486.893  13
  -5  -1   6 11113.3 231.650  22
  -5  -1   6 11095.5 513.794   1
   5  -1  -6 11345.8 542.505  20
  -5  -1   6 11032.9 547.800   2
   5  -1  -6 11533.2 213.912  23
   5  -1  -6 10993.3 561.402  13
   5  -1  -5 19370.8 693.511  12
  -5  -1   5 19294.0 289.966  22
   5  -1  -5 17681.4 631.478  20
  -5  -1   5 18697.5 618.957   1
  -5  -1   5 18289.8 672.902   2
   5  -1  -5 18014.7 679.501  13
  -5  -1   4 28273.0 787.417   2
   5  -1  -4 29832.5 830.196  12
   5  -1  -4 28347.9 716.228  20
  -5  -1   4 28579.3 714.955   1
   5  -1  -4 28824.8 827.276  13
   5  -1  -3 11104.0 501.833  12
  -5  -1   3 9736.07 435.563   2
   5  -1  -3 10484.8 378.125  20
   5  -1  -3 10347.8 465.374  13
   5  -1  -2 99524.3 1510.43  12
   5  -1  -2 100722. 1100.49  20
  -5  -1   2 100003. 1406.98   2
   5  -1  -2 100456. 1454.71  13
   5  -1  -1 7861.66 392.508  12
   5  -1  -1 7948.29 200.250  20
  -5  -1   1 7752.03 350.290   2
   5  -1  -1 7729.62 404.582   3
   5  -1  -1 8085.18 365.924  13
   5  -1   0 3634.08 267.079  12
   5  -1   0 3649.46 292.417   3
  -5  -1   0 3952.40 238.379   2
   5  -1   0 3784.92 237.978  13
   5  -1   1 68.8683 59.7152  12
   5  -1   1 36.1674 96.4921   3
  -5  -1  -1 69.5360 58.8660   2
   5  -1   1 82.0741 51.4936  13
   5  -1   2 699.554 128.980  12
  -5  -1  -2 454.994 149.065   3
  -5  -1  -2 576.611 119.861   1
   5  -1   3 33376.2 423.456   6
   5  -1   3 33114.3 836.150  12
   5  -1   3 34244.9 440.822  26
   5  -1   3 33487.0 426.940   9
  -5  -1  -3 32744.1 853.954   1
   5  -1   4 310.985 58.3725   6
  -5  -1  -4 392.262 127.111   1
   5  -1   4 399.414 65.6656   9
   5  -1   4 265.473 55.0437  26
   5  -1   5 12630.7 289.178  26
   5  -1   5 12835.5 275.762   6
   5  -1   5 13090.6 283.474   9
   5  -1   6 11872.1 280.318   6
   5  -1   6 11945.2 287.710   9
   5  -1   6 12017.0 299.441  26
   5  -1   7 1007.85 103.986   6
   5  -1   7 1127.22 113.594   9
   5  -1   7 1052.51 118.843  26
  -5   0  11 16057.2 315.450  11
  -5   0  11 15895.0 303.164  10
  -5   0  11 16269.1 340.541   9
  -5   0  11 16127.9 337.435   8
  -5   0  10 12078.4 296.042  22
  -5   0  10 12152.3 261.322  11
  -5   0  10 11994.9 275.948   9
  -5   0  10 11805.0 268.714   8
  -5   0   9-6.74883 75.2873  22
  -5   0   9 61.2758 41.5815  11
  -5   0   9 48.9967 64.8320   9
  -5   0   9 125.183 54.5294   8
  -5   0   8 20423.0 350.384  22
  -5   0   8 21122.0 323.668  11
  -5   0   8 21189.0 333.231   9
  -5   0   8 20816.9 319.032   8
  -5   0   7 3574.32 146.248  22
   5   0  -7 4224.73 362.874  20
  -5   0   7 4254.82 366.819   2
   5   0  -7 3680.80 336.668  13
  -5   0   6 1257.28 91.8867  22
   5   0  -6 1145.53 196.799  20
  -5   0   6 1345.32 189.658   1
  -5   0   6 1489.42 216.716   2
   5   0  -6 1338.91 204.992  13
   5   0  -5 6619.35 406.148  12
  -5   0   5 5870.17 376.210   2
  -5   0   5 6837.21 173.477  22
   5   0  -5 6297.11 367.161  20
  -5   0   5 5950.94 357.277   1
   5   0  -5 6096.25 395.385  13
   5   0  -4 292.236 110.000  12
  -5   0   4 303.420 109.807   2
  -5   0   4 238.789 81.2057   1
   5   0  -4 220.243 101.907  13
   5   0  -3 170.181 88.0286  12
  -5   0   3 266.517 92.1312   2
   5   0  -3 209.208 95.8994  13
   5   0  -2 67414.4 1196.14  12
  -5   0   2 66210.8 1137.39   2
   5   0  -2 66362.5 1146.95  13
   5   0  -1 37447.8 848.125  12
   5   0  -1 37813.8 852.606   3
  -5   0   1 39226.7 825.515   2
   5   0  -1 38197.8 807.873  13
   5   0   0 1684.39 179.579  12
   5   0   0 1959.77 209.068   3
   5   0   0 1772.63 95.9940  20
   5   0   0 1733.94 163.570  13
  -5   0   0 2004.18 199.642  12
  -5   0  -1 6116.67 329.567  12
   5   0   1 5760.63 319.457  12
   5   0   1 5979.41 359.757   3
   5   0   1 4931.28 146.782  20
   5   0   1 5962.00 259.599  13
  -5   0  -1 6060.02 153.172  22
  -5   0  -2 57483.4 1044.02  12
   5   0   2 57114.4 1037.21  12
   5   0   2 55217.4 688.273  13
  -5   0  -3 4742.73 291.014  12
   5   0   3 4753.59 150.797   6
   5   0   3 4784.13 155.278  26
   5   0   3 4983.64 154.684   9
  -5   0  -3 4662.81 337.049   1
   5   0   4 1548.78 98.4530   6
  -5   0  -4 1225.65 203.033   1
   5   0   4 1558.32 97.1551   9
   5   0   4 1540.14 101.184  26
   5   0   4 1581.89 90.7432   7
   5   0   5 4607.45 167.966   6
   5   0   5 4437.16 147.609  17
   5   0   5 4529.10 168.019   9
   5   0   5 4495.78 174.518  26
   5   0   6 315.387 72.3576   6
   5   0   6 337.384 73.6885   9
   5   0   6 451.464 87.6891  26
   5   0   7 2998.79 152.664   6
   5   0   7 3215.20 166.568   9
   5   0   7 3160.40 180.020  26
  -5   1  11 789.139 76.5112  11
  -5   1  11 741.866 81.3773  10
  -5   1  11 829.565 104.667   9
  -5   1  11 769.674 98.8901   8
  -5   1  10 9262.83 264.886  22
  -5   1  10 9725.46 228.128  11
  -5   1  10 9591.37 219.654  10
  -5   1  10 9439.12 241.305   8
  -5   1  10 9099.89 240.673   9
  -5   1   9 11145.5 272.863  22
  -5   1   9 11553.0 238.013  11
  -5   1   9 10531.6 212.666  10
  -5   1   9 11272.5 249.033   9
  -5   1   9 11079.0 247.775   8
  -5   1   8 882.105 96.0736  22
  -5   1   8 925.353 70.7597  11
  -5   1   8 944.031 76.3508   8
  -5   1   8 906.115 83.9863   9
   5   1  -8 1058.75 105.066  15
  -5   1   7 7754.80 203.516  22
  -5   1   7 7544.13 476.715   2
   5   1  -7 7890.27 494.264  13
  -5   1   6 11094.4 547.457   2
  -5   1   6 11324.4 233.103  22
   5   1  -6 11514.0 569.969  13
  -5   1   5 18704.3 288.000  22
  -5   1   5 19606.3 685.687   2
   5   1  -5 18361.9 679.162   2
  -5   1   5 18793.3 653.520   1
   5   1  -5 18256.3 685.932  13
  -5   1   4 28313.5 796.015   2
   5   1  -4 29384.8 820.983  12
   5   1  -4 29001.1 826.715  13
   5   1  -3 10071.0 458.364  12
  -5   1   3 10553.3 463.076   2
   5   1  -3 9778.03 459.213  13
   5   1  -2 99774.1 1473.32  12
  -5   1   2 98761.2 1457.31   2
   5   1  -2 100959. 1456.55  13
  -5   1   1 8399.39 410.007  12
   5   1  -1 7901.73 379.107  12
   5   1  -1 7885.22 361.987  13
  -5   1   0 3678.59 276.515  12
   5   1   0 3570.63 248.617  12
   5   1   0 4122.29 274.701   3
   5   1   0 3818.02 185.463  20
   5   1   0 3514.17 227.130  13
  -5   1  -1 12.1046 70.6653  12
   5   1   1 20.2897 52.9967  12
   5   1   1 85.4115 46.5859  20
   5   1   1 184.010 103.541   3
   5   1   1 54.4588 47.8870  13
   5   1   2 723.839 89.0566  20
  -5   1  -2 729.577 132.263  12
   5   1   2 569.953 99.8997  12
   5   1   2 648.084 75.0027  13
  -5   1  -3 35227.7 866.500  12
   5   1   3 32944.1 421.933   6
   5   1   3 33798.2 423.360   9
  -5   1  -3 33349.6 941.571   1
   5   1   3 33462.8 436.918  26
   5   1   4 298.120 62.5376  26
   5   1   4 355.873 65.1974   6
   5   1   4 341.362 54.6370  17
   5   1   4 321.232 59.8202   9
   5   1   4 412.314 59.6707   7
   5   1   5 12896.7 293.223  26
   5   1   5 13234.7 279.128   6
   5   1   5 12858.6 260.538  17
   5   1   5 12717.6 277.447   9
   5   1   5 13352.3 273.781   7
   5   1   6 12466.2 283.286   6
   5   1   6 11866.6 259.609  17
   5   1   6 11893.6 283.027   9
   5   1   6 12024.7 303.331  26
   5   1   6 12414.9 284.888   7
   5   1   7 1060.10 108.281   6
   5   1   7 1003.75 105.599   9
   5   1   7 1169.42 132.679  26
  -5   2  11 780.512 84.8359  10
  -5   2  11 945.405 100.248   9
   5   2 -11 748.028 119.371  15
  -5   2  11 858.134 99.9864   8
  -5   2  10 1205.38 124.761  22
  -5   2  10 1009.15 80.2123  11
  -5   2  10 924.187 83.3825  10
  -5   2  10 1055.32 96.6430   8
  -5   2  10 1125.96 100.705   9
   5   2 -10 1135.39 117.841  15
  -5   2   9 2833.15 148.290  22
  -5   2   9 2705.22 116.346  11
  -5   2   9 2842.22 115.547  10
  -5   2   9 2775.37 127.253   9
   5   2  -9 2635.65 143.739  15
  -5   2   9 2875.61 131.529   8
  -5   2   8 1414.48 111.291  22
  -5   2   8 1373.84 82.8187  11
   5   2  -8 1250.32 106.149  15
  -5   2   8 1470.57 91.5168   8
  -5   2   8 1429.81 88.5070  24
  -5   2   7 30823.3 422.813  22
   5   2  -7 32431.3 422.652  15
  -5   2   7 31020.7 374.961  24
   5   2  -7 31853.4 999.244  13
  -5   2   7 32869.2 987.366   2
  -5   2   6 6561.80 178.463  22
  -5   2   6 6473.83 419.445   2
   5   2  -6 6523.46 435.112  13
  -5   2   5 1837.45 104.755  22
  -5   2   5 1255.33 189.839   2
  -5   2   5 1406.21 193.233   1
   5   2  -5 1124.35 188.720  13
  -5   2   4 4044.00 303.665   2
   5   2  -4 3404.94 284.114   2
   5   2  -4 3467.15 294.345  13
  -5   2   3 20423.8 663.778   2
   5   2  -3 19773.0 634.907   2
   5   2  -3 20047.7 658.968  13
  -5   2   2 71334.2 1297.45  12
   5   2  -2 74968.3 1244.12  12
   5   2  -2 73668.4 1244.07  13
  -5   2   1 13163.7 532.074  12
   5   2  -1 13240.2 481.630  12
   5   2  -1 12999.0 413.150  20
   5   2  -1 13621.3 486.845  13
  -5   2   0 20743.8 671.785  12
   5   2   0 20824.3 577.894  12
   5   2   0 20859.1 578.808   3
   5   2   0 20766.9 512.940  20
   5   2   0 19909.5 282.705  14
   5   2   0 20691.5 568.991  13
  -5   2  -1 21807.2 695.073  12
   5   2   1 20445.0 546.677  12
   5   2   1 19919.5 294.857  14
   5   2   1 20510.2 512.038  20
   5   2   1 20516.2 520.359  13
  -5   2  -2 6480.26 384.803  12
   5   2   2 5780.80 275.703  12
   5   2   2 5850.27 284.668  20
  -5   2  -3 59.7183 76.6367  12
   5   2   3 42.2618 46.5253   6
   5   2   3 71.2888 45.3496   9
   5   2   3 80.1308 42.4995  26
   5   2   4 12931.2 263.229   6
   5   2   4 12700.5 256.028  17
   5   2   4 12809.4 260.149   9
   5   2   4 12409.9 248.680   7
   5   2   4 12636.9 272.626  26
   5   2   5 14959.4 316.289  26
   5   2   5 14089.4 291.145   6
   5   2   5 14633.0 287.464  17
   5   2   5 14996.8 297.886   9
   5   2   5 15032.6 295.812   7
   5   2   6 9482.08 271.235  26
   5   2   6 10171.7 256.844   6
   5   2   6 9672.87 241.745  17
   5   2   6 10103.5 257.841   9
   5   2   6 10042.6 259.008   7
   5   2   7 2977.62 153.709   6
   5   2   7 2743.57 152.473   9
   5   2   7 2943.39 179.688  26
   5   2   7 3015.31 160.405   7
  -5   3  11 1632.63 123.975   8
  -5   3  11 1629.13 116.100  10
  -5   3  11 1663.59 115.271   9
   5   3 -11 1602.68 143.642  15
  -5   3  10 12168.0 248.267  11
  -5   3  10 12288.9 263.907  10
  -5   3  10 12008.8 263.316   9
   5   3 -10 12119.7 301.742  15
  -5   3  10 12029.8 284.090   8
  -5   3   9 3755.65 166.690  22
  -5   3   9 3804.80 135.398  11
  -5   3   9 3689.02 136.420  10
  -5   3   9 3987.47 146.420   9
   5   3  -9 3876.06 167.898  15
  -5   3   9 3790.91 151.491   8
  -5   3   8 1407.15 112.372  22
  -5   3   8 1440.98 83.3063  11
   5   3  -8 1382.87 110.842  15
  -5   3   8 1332.76 91.6021   8
  -5   3   8 1238.54 91.7522  24
  -5   3   7 4241.44 155.150  22
   5   3  -7 3855.98 153.659  15
  -5   3   7 4444.23 149.005   8
  -5   3   7 4290.48 143.995  24
  -5   3   6 21605.7 333.075  22
  -5   3   6 23723.9 807.459   2
  -5   3   6 24034.8 326.997  24
   5   3  -6 23120.6 830.000  13
  -5   3   5 39192.9 441.309  22
  -5   3   5 39811.6 438.482  24
  -5   3   5 40639.1 1028.66   2
   5   3  -5 39838.8 1051.05  13
   5   3  -4 2015.57 220.417   2
  -5   3   4 1812.53 214.338   2
   5   3  -4 1881.13 223.953  13
   5   3  -3 50486.5 1043.18   2
   5   3  -3 51501.1 1106.19  13
  -5   3   3 49598.2 1112.65  12
  -5   3   2 24030.8 753.749  12
   5   3  -2 24529.6 716.894  13
   5   3  -1 56166.6 1018.69  12
  -5   3   1 56167.6 1170.24  12
   5   3  -1 55935.7 871.935   3
   5   3  -1 56996.6 994.194  20
   5   3  -1 55348.5 522.540  14
   5   3  -1 56613.0 1064.40  13
   5   3   0 15960.7 498.681  12
  -5   3   0 15688.1 611.849  12
   5   3   0 15328.4 452.607   3
   5   3   0 15714.1 496.146  20
   5   3   0 14968.1 246.500  14
   5   3   0 16206.3 525.159  13
  -5   3  -1 14669.6 598.855  12
   5   3   1 13756.9 429.699  12
   5   3   1 14135.1 475.193  20
   5   3   1 14096.2 247.208  14
   5   3   1 14130.2 460.827  13
  -5   3  -2 4047.92 319.826  12
   5   3   2 3737.03 256.417  20
   5   3   2 3710.39 131.775  14
   5   3   3 757.144 73.8819   6
  -5   3  -3 612.443 148.668  12
   5   3   3 676.959 69.0072  26
   5   3   3 654.540 66.1267  17
  -5   3  -4 2553.76 279.038  12
   5   3   4 2384.29 119.296   6
   5   3   4 2514.05 110.776  18
   5   3   4 2538.72 106.004  10
   5   3   4 2409.84 119.010  17
   5   3   4 2497.34 118.768   9
   5   3   4 2551.34 129.494  26
   5   3   4 2361.78 114.773   7
   5   3   5 11544.1 263.735   6
   5   3   5 11929.7 247.489  10
   5   3   5 12002.0 266.875  17
   5   3   5 11686.5 261.065   9
   5   3   5 11592.8 281.560  26
   5   3   5 11936.4 265.630   7
   5   3   6 9068.03 244.454   6
   5   3   6 9072.99 242.715  17
   5   3   6 9137.53 245.644   9
   5   3   6 9266.45 269.605  26
   5   3   6 9760.98 257.479   7
   5   3   7 364.121 81.0206   6
   5   3   7 290.205 81.2136  17
   5   3   7 375.870 76.6959   9
   5   3   7 379.492 115.682  26
   5   3   7 415.701 92.4336   7
  -5   4  11 5334.66 193.182  10
  -5   4  11 5784.18 213.820   8
   5   4 -11 5340.41 227.656  15
  -5   4  10 422.328 82.3476  24
  -5   4  10 373.991 71.1721  10
   5   4 -10 409.498 98.4287  15
  -5   4  10 391.569 85.1001   8
  -5   4   9 1884.25 129.711  22
  -5   4   9 1879.58 96.2653  11
  -5   4   9 1841.76 103.483  10
   5   4  -9 1633.24 126.122  15
  -5   4   9 1786.81 113.702   8
  -5   4   9 1765.94 117.235  24
  -5   4   8 11634.6 267.905  22
  -5   4   8 11983.5 232.485  11
  -5   4   8 11816.8 235.342  10
   5   4  -8 11663.4 274.069  15
  -5   4   8 12133.8 262.325   8
  -5   4   8 11728.7 249.687  24
  -5   4   7 57395.4 620.614  22
   5   4  -7 58569.8 621.586  15
  -5   4   7 57336.7 612.648   8
  -5   4   7 59231.3 606.506  24
  -5   4   6 24958.8 358.691  22
  -5   4   6 24414.2 836.349   2
   5   4  -6 23880.9 863.287  13
  -5   4   6 26569.4 364.552  24
  -5   4   5 43343.9 471.505  22
  -5   4   5 42565.8 1089.56   2
  -5   4   5 43498.2 480.499  24
   5   4  -5 42115.1 1114.25  13
   5   4  -4 11172.7 514.642   2
  -5   4   4 11477.0 539.526   2
  -5   4   4 12883.7 241.695  24
   5   4  -4 11079.7 544.808  13
  -5   4   4 10579.4 536.828  12
  -5   4   3 42666.1 1054.73  12
   5   4  -3 42115.4 952.716   2
  -5   4   3 41491.6 471.956  24
   5   4  -3 42657.4 1038.73  13
  -5   4   2 3467.64 309.231  12
   5   4  -2 3845.65 268.429   2
   5   4  -2 4255.03 126.461  14
   5   4  -2 4084.85 308.740  13
  -5   4   1 701.014 162.866  12
   5   4  -1 745.743 136.982  20
   5   4  -1 469.810 79.8141   3
   5   4  -1 682.719 137.833  13
   5   4  -1 691.949 61.2562  14
   5   4  -1 649.877 119.130  12
   5   4   0 347.251 95.3967  12
  -5   4   0 418.656 121.488  12
   5   4   0 220.971 82.7174  20
   5   4   0 325.457 51.2020  14
   5   4   0 376.798 107.928  13
  -5   4  -1 3180.77 299.998  12
   5   4   1 3591.32 212.561  12
   5   4   1 3097.54 248.587  20
   5   4   1 3368.67 123.750  14
   5   4   1 3520.38 250.297  13
   5   4   2 4412.85 145.707   6
  -5   4  -2 4640.07 370.017  12
   5   4   2 4362.97 302.283  20
   5   4   2 4422.86 146.524  17
   5   4   2 4444.36 147.128  14
   5   4   3 1930.93 105.788  26
   5   4   3 2009.10 108.259   6
  -5   4  -3 2018.04 252.846  12
   5   4   3 1940.00 105.699  17
   5   4   3 1958.40 108.143  14
   5   4   3 2195.99 104.740   7
   5   4   4 1346.96 95.9496   6
   5   4   4 1422.63 95.1459   7
   5   4   4 1515.63 94.5203  18
   5   4   4 1401.53 81.5035  10
   5   4   4 1447.09 99.9269  17
   5   4   4 1396.14 92.6912   9
   5   4   4 1387.11 104.295  26
   5   4   5 1247.55 97.9655   6
   5   4   5 1336.99 89.8473  10
   5   4   5 1219.96 97.9651  17
   5   4   5 1280.61 96.0924   9
   5   4   5 1286.57 110.687  26
   5   4   5 1452.18 103.553   7
   5   4   6 818.512 84.4408  10
   5   4   6 801.919 93.5827  17
   5   4   6 777.967 87.7451   9
   5   4   6 839.160 114.523  26
   5   4   6 806.431 90.2236   6
   5   4   6 877.239 98.2860   7
   5   4   7 1379.92 118.890  17
   5   4   7 1350.15 110.666   9
   5   4   7 1441.96 149.085  26
   5   4   7 1312.64 123.419   7
   5   4   7 1328.71 110.706   6
  -5   5  11 4847.72 204.442   8
  -5   5  11 4935.28 192.849  10
   5   5 -11 5139.52 215.371  15
  -5   5  10 4465.55 170.592  10
   5   5 -10 4131.60 192.150  15
  -5   5  10 4186.55 178.476   8
  -5   5  10 3899.92 179.082  24
  -5   5   9 3329.97 139.416  10
   5   5  -9 3312.70 161.314  15
  -5   5   9 3235.24 149.784   8
  -5   5   9 2966.11 158.800  24
  -5   5   8 5165.72 180.402  22
  -5   5   8 4767.48 146.903  11
  -5   5   8 4902.24 158.798  10
   5   5  -8 4889.55 176.319  15
  -5   5   8 5066.04 174.072   8
  -5   5   8 5302.38 184.158  24
  -5   5   7 10146.5 235.227  22
  -5   5   7 10106.9 213.899  10
   5   5  -7 10237.0 237.669  15
   5   5  -7 9926.49 524.495   1
  -5   5   7 9325.14 229.443   8
  -5   5   7 9797.18 229.864  24
  -5   5   6 2094.37 108.874  22
  -5   5   6 2000.60 250.022   2
   5   5  -6 1974.79 113.526  18
  -5   5   6 2110.67 115.469  24
   5   5  -6 2035.16 85.6019  14
  -5   5   5 59220.8 578.354  22
  -5   5   5 61000.2 1340.22   2
   5   5  -5 58062.0 540.052  14
  -5   5   5 58190.7 605.539  24
   5   5  -5 59529.1 1376.58  13
  -5   5   4 7897.73 468.564  12
  -5   5   4 7886.59 399.618  20
   5   5  -4 7988.12 170.282  14
  -5   5   4 8278.02 208.981  24
   5   5  -4 7826.83 478.423  13
  -5   5   3 8443.31 487.879  12
  -5   5   3 8467.13 368.498  20
   5   5  -3 8227.55 423.287   2
   5   5  -3 8553.04 179.536  14
  -5   5   3 8412.25 213.527  24
   5   5  -3 8379.60 473.548  13
  -5   5   2 3736.57 214.125  20
   5   5  -2 3527.07 262.904   2
  -5   5   2 3841.07 331.374  12
   5   5  -2 3795.63 122.366  14
  -5   5   2 4294.09 152.938  24
   5   5  -2 3764.22 306.895  13
  -5   5   1 15032.4 650.473  12
   5   5  -1 14788.2 587.152  13
   5   5  -1 14678.9 568.543  20
   5   5  -1 14567.3 484.122   2
   5   5  -1 16042.3 265.209  14
  -5   5   1 15891.5 288.963  24
  -5   5   0 3004.47 299.929  12
   5   5   0 2955.16 261.903  20
   5   5   0 3183.43 223.747  12
   5   5   0 3176.16 122.868  14
  -5   5   0 3205.94 152.886  24
   5   5   0 3225.36 268.378  13
  -5   5  -1 72.0216 87.3824  12
   5   5   1 129.071 89.4407  20
   5   5   1 237.441 57.1541  14
   5   5   1 231.073 88.7379  13
   5   5   2 36015.9 453.116   6
   5   5   2 34532.4 922.885  20
   5   5   2 35378.0 459.013  17
   5   5   2 35062.2 448.357  15
   5   5   2 36078.3 455.723  14
   5   5   3 5726.24 178.083   6
   5   5   3 5769.34 168.324  18
   5   5   3 5829.34 182.512  17
   5   5   3 5629.80 164.775   9
   5   5   3 5671.01 173.795  26
   5   5   3 5724.82 177.691  14
   5   5   3 5832.82 168.321   7
   5   5   4 212.432 59.7086   7
   5   5   4 218.129 62.3211   6
   5   5   4 222.232 58.5108  18
   5   5   4 225.963 48.3991  10
   5   5   4 234.214 68.5020  17
   5   5   4 155.501 57.0955   9
   5   5   4 248.020 73.3735  26
   5   5   5 197.259 66.0175   6
   5   5   5 236.876 64.0850  18
   5   5   5 85.9205 49.3984  10
   5   5   5 113.142 65.8784  17
   5   5   5 112.274 55.3094   9
   5   5   5 168.454 83.0894  26
   5   5   5 248.856 69.4673   7
   5   5   6 1017.10 98.5366   6
   5   5   6 1144.15 93.3320  10
   5   5   6 1064.05 114.787  17
   5   5   6 1008.27 95.7752   9
   5   5   6 1090.55 131.951  26
   5   5   6 1081.44 107.964   7
  -5   6  10 1192.12 105.710  10
   5   6 -10 1231.82 120.518  15
  -5   6  10 1118.26 108.871   8
  -5   6  10 1157.68 121.590  24
  -5   6   9 5623.61 186.493  10
   5   6  -9 5417.43 197.328  15
  -5   6   9 5454.53 196.060   8
  -5   6   9 4948.25 198.999  24
  -5   6   8 50.5684 38.9411  11
   5   6  -8 38.6810 88.8831  18
  -5   6   8 35.2484 54.9073  10
   5   6  -8 57.4595 68.6045  15
  -5   6   8 3.69814 56.1203   8
  -5   6   8 34.6510 76.7440  24
  -5   6   7 6814.61 192.602  22
  -5   6   7 6463.81 168.833  11
   5   6  -7 5826.04 403.641   1
   5   6  -7 6550.77 205.656  18
  -5   6   7 6608.78 182.287  10
   5   6  -7 6363.40 191.302  15
  -5   6   7 6475.78 195.750   8
  -5   6   7 6397.32 199.321  24
  -5   6   6 9299.69 213.466  22
   5   6  -6 8717.98 222.756  18
  -5   6   6 8535.25 197.555  10
   5   6  -6 8724.05 214.875  15
   5   6  -6 8594.28 184.791  14
   5   6  -6 8225.47 431.640   1
  -5   6   6 9168.60 230.600  24
  -5   6   5 6563.29 168.410  22
   5   6  -5 6113.65 177.954  18
   5   6  -5 6376.25 159.958  14
  -5   6   5 6661.59 198.885  24
  -5   6   4 21308.7 800.785  12
  -5   6   4 21699.8 297.165  22
   5   6  -4 21644.3 307.957  14
  -5   6   4 19712.4 343.715  24
   5   6  -4 21890.8 821.724  13
  -5   6   3 16778.7 707.881  12
   5   6  -3 16877.9 624.581   2
  -5   6   3 16551.5 556.127  20
   5   6  -3 16910.7 272.307  14
  -5   6   3 17337.2 307.590  24
   5   6  -3 16536.8 692.679  13
  -5   6   2 18550.9 753.458  12
  -5   6   2 18974.5 524.154  20
   5   6  -2 18514.8 608.947   2
   5   6  -2 18394.3 290.039  14
  -5   6   2 17505.2 325.309  24
   5   6  -2 18136.1 708.708  13
  -5   6   1 4420.02 373.191  12
   5   6  -1 4272.33 142.556  14
   5   6  -1 4359.03 271.349   2
  -5   6   1 3849.57 163.356  24
   5   6  -1 4758.88 355.198  13
   5   6   0 19028.7 309.222  14
  -5   6   0 19223.7 344.009  24
   5   6   0 20092.2 702.843  13
   5   6   0 19227.3 560.395  12
   5   6   1 3129.64 127.492  17
   5   6   1 2941.11 124.617  15
   5   6   1 2859.62 125.632  14
  -5   6  -1 2843.15 147.743  24
   5   6   1 3197.13 273.086  13
   5   6   2 2356.88 113.038  18
   5   6   2 2348.41 120.192  17
   5   6   2 2368.19 118.593  15
   5   6   2 2188.19 115.994  14
  -5   6  -2 2015.13 133.571  24
   5   6   2 2413.03 110.592   7
   5   6   3 14147.4 282.209  26
   5   6   3 14224.3 279.637  18
   5   6   3 14289.3 296.837  17
   5   6   3 14703.9 292.142  14
   5   6   3 14216.4 277.773   7
   5   6   4 327.223 69.8116   7
   5   6   4 464.184 73.8777  18
   5   6   4 392.311 77.1984  17
   5   6   4 299.156 68.7372   9
   5   6   4 388.961 81.5937  26
   5   6   4 348.017 70.4183  14
   5   6   5 275.326 68.5147  18
   5   6   5 192.339 58.9435  10
   5   6   5 195.277 77.8964  17
   5   6   5 180.507 63.6838   9
   5   6   5 267.968 96.7480  26
   5   6   5 268.792 74.7047   7
   5   6   6 5608.84 188.504  10
   5   6   6 5366.11 211.714  17
   5   6   6 5451.29 229.166  26
   5   6   6 5769.83 212.597   7
   5   7 -10 3853.37 209.432  18
  -5   7  10 3977.19 174.332  10
   5   7 -10 3512.06 177.469  15
  -5   7  10 3862.15 181.497   8
   5   7  -9 1803.38 154.856  18
  -5   7   9 1578.32 113.566  10
   5   7  -9 1692.09 126.481  15
  -5   7   9 1754.77 124.827   8
  -5   7   9 1489.50 146.782  24
   5   7  -8 639.673 112.540  18
  -5   7   8 517.137 75.8845  10
   5   7  -8 828.861 97.3073  15
  -5   7   8 673.428 91.7836   8
  -5   7   8 641.726 105.318  24
  -5   7   7 4408.84 161.355  22
  -5   7   7 4261.17 140.967  11
   5   7  -7 4418.17 179.460  18
  -5   7   7 4284.54 157.550  10
   5   7  -7 4057.08 158.947  15
   5   7  -7 4296.05 138.630  14
  -5   7   7 4059.96 161.934   8
  -5   7   7 4072.79 170.968  24
  -5   7   6 46583.1 520.793  22
  -5   7   6 44912.4 498.522  11
   5   7  -6 44789.2 549.570  18
  -5   7   6 44303.2 520.475  10
   5   7  -6 45482.6 533.032  15
   5   7  -6 45283.3 500.904  14
  -5   7   6 45681.3 569.610  24
  -5   7   5 6845.83 174.537  22
  -5   7   5 6300.92 166.782  11
   5   7  -5 6512.90 194.922  18
   5   7  -5 6479.60 183.891  15
   5   7  -5 6508.64 171.814  14
  -5   7   5 6790.23 204.655  24
  -5   7   4 521.833 60.8854  22
  -5   7   4 708.375 157.461  20
   5   7  -4 658.859 80.6526  18
   5   7  -4 627.159 78.9829  15
   5   7  -4 681.755 68.4885  14
  -5   7   4 531.209 102.614  24
  -5   7   3 56.8090 71.8901  20
   5   7  -3 259.680 66.9386  18
   5   7  -3 144.881 47.2110  14
   5   7  -2 10133.2 464.311   2
   5   7  -2 10944.5 226.069  18
   5   7  -2 10743.5 225.879  15
   5   7  -2 10683.5 228.041  14
  -5   7   2 11210.2 264.016  24
   5   7  -2 10562.3 569.170  13
   5   7  -1 8402.33 196.563  18
   5   7  -1 8400.66 201.691  15
   5   7  -1 8142.45 202.383  14
   5   7  -1 8945.05 506.144  13
   5   7   0 8882.41 207.071  18
   5   7   0 8553.31 209.139  17
   5   7   0 9506.08 227.879  14
   5   7   0 8528.20 208.623  15
  -5   7   0 8217.42 231.184  24
   5   7   0 8894.08 493.187  13
   5   7   1 11098.1 238.097  18
   5   7   1 11015.9 248.137  17
   5   7   1 10845.4 242.090  15
  -5   7  -1 11085.5 225.003  27
   5   7   1 10900.2 248.677  14
  -5   7  -1 10599.9 271.102  24
   5   7   1 10756.4 531.827  13
   5   7   1 11463.6 233.293   7
   5   7   2 15268.5 291.421  18
   5   7   2 14789.7 300.725  17
   5   7   2 15669.5 303.764  15
  -5   7  -2 15153.0 275.716  27
   5   7   2 15081.9 300.031  14
  -5   7  -2 14475.6 318.598  24
   5   7   2 15561.5 285.850   7
   5   7   3 12199.3 271.914  18
   5   7   3 12574.2 285.077  17
  -5   7  -3 12189.6 254.508  27
   5   7   3 12641.1 269.021  26
   5   7   3 12831.9 280.229  14
   5   7   3 12265.2 266.455   7
   5   7   4 19167.5 359.214  18
   5   7   4 19823.3 377.479  17
   5   7   4 19740.7 363.949  26
   5   7   4 19156.7 362.966  14
  -5   7  -4 18688.3 387.391  24
   5   7   4 19508.6 356.233   7
   5   7   5 7788.49 236.917  18
   5   7   5 7963.20 210.529  10
   5   7   5 7569.48 245.532  17
   5   7   5 7929.99 248.705  26
   5   7   5 7865.44 240.387   7
   5   7   6 2579.42 134.187  10
   5   7   6 2499.56 161.587  17
   5   7   6 2494.96 168.168  26
  -5   7  -6 2503.15 167.815  24
   5   7   6 2497.08 154.509   7
   5   8  -9 2041.54 164.398  18
  -5   8   9 2130.95 135.079  10
   5   8  -9 2288.67 140.569  15
  -5   8   9 2087.55 139.231   8
  -5   8   9 1843.07 156.272  24
   5   8  -8 934.701 127.864  18
  -5   8   8 899.473 96.6670  10
   5   8  -8 838.690 102.465  15
  -5   8   8 935.396 100.002   8
  -5   8   7 5207.09 158.575  11
   5   8  -7 5408.01 205.076  18
  -5   8   7 5280.40 181.334  10
   5   8  -7 5129.28 182.227  15
   5   8  -7 5085.72 162.455  14
  -5   8   7 5217.55 191.359   8
  -5   8   7 4817.11 198.744  24
  -5   8   6 5671.51 165.605  11
   5   8  -6 5705.02 200.610  18
   5   8  -6 5628.91 180.262  15
   5   8  -6 5700.16 172.111  14
  -5   8   6 5375.96 201.807  24
  -5   8   5 4973.04 154.267  11
   5   8  -5 5317.13 184.957  18
   5   8  -5 5378.59 170.829  15
   5   8  -5 4993.05 161.451  14
  -5   8   5 5666.65 200.956  24
  -5   8   4 1003.68 76.3078  11
   5   8  -4 935.435 83.2870  15
   5   8  -4 900.824 77.9032  14
  -5   8   3 7470.13 187.034  11
   5   8  -3 7566.87 204.239  18
   5   8  -3 7267.37 191.096  15
   5   8  -3 7514.24 198.064  14
  -5   8   3 7002.66 228.213  24
   5   8  -2 16757.6 298.750  18
   5   8  -2 16634.2 294.765  15
   5   8  -2 16464.0 303.442  14
  -5   8   2 17151.3 367.808  24
   5   8  -1 5625.74 171.641  18
   5   8  -1 5634.79 169.698  17
   5   8  -1 5357.34 169.366  15
   5   8  -1 5366.75 173.059  14
  -5   8   1 6052.25 209.944  24
   5   8   0 397.071 62.8836   7
   5   8   0 318.544 60.6679  18
   5   8   0 359.748 63.6581  17
   5   8   0 343.548 61.6945  15
  -5   8   0 401.821 63.2345  27
   5   8   0 319.901 71.1055  14
  -5   8   0 596.667 113.829  24
   5   8   1 935.311 83.1871  18
   5   8   1 1079.57 93.1114  17
   5   8   1 1040.21 90.0150  15
  -5   8  -1 1040.78 84.3997  27
   5   8   1 1072.18 93.7928  14
  -5   8  -1 1059.90 112.642  24
   5   8   1 988.024 85.6707   7
   5   8   2 1425.97 102.794  18
   5   8   2 1402.45 107.722  17
  -5   8  -2 1430.63 99.5555  27
   5   8   2 1359.70 104.481  14
  -5   8  -2 1042.15 122.695  24
   5   8   2 1430.24 101.909   7
   5   8   3 4948.51 183.277  18
   5   8   3 5233.18 196.472  17
  -5   8  -3 5064.75 176.568  27
   5   8   3 5467.15 180.107  26
   5   8   3 4979.66 186.030  14
  -5   8  -3 4935.96 208.542  24
   5   8   3 5466.69 185.759   7
   5   8   4 2775.16 149.615  18
   5   8   4 3093.73 167.686  17
  -5   8  -4 2885.35 141.898  27
   5   8   4 2855.92 149.811  26
   5   8   4 2769.65 147.614  14
  -5   8  -4 2673.62 169.358  24
   5   8   4 2819.10 147.013   7
   5   8   5 4798.09 196.066  18
   5   8   5 4622.93 205.800  17
   5   8   5 4673.83 199.853  26
   5   8   5 4436.53 185.975  14
  -5   8  -5 4063.44 201.712  24
   5   8   5 4714.20 193.997   7
   5   9  -9 454.424 133.215  18
  -5   9   9 404.266 93.4443  10
  -5   9   9 423.314 91.8368   8
  -5   9   9 309.242 121.807  24
   5   9  -8 3419.41 193.601  18
  -5   9   8 3520.09 165.843  10
   5   9  -8 3344.56 161.238  15
  -5   9   8 3358.34 165.013   8
  -5   9   8 3080.44 190.319  24
   5   9  -7 4661.52 204.267  18
  -5   9   7 4866.58 186.132  10
   5   9  -7 4667.06 176.646  15
   5   9  -7 4695.27 166.800  14
  -5   9   7 4491.92 184.238   8
  -5   9   7 4711.54 207.541  24
  -5   9   6 3607.02 137.293  11
   5   9  -6 3557.73 174.447  18
   5   9  -6 3630.70 152.010  15
   5   9  -6 3684.82 148.260  14
  -5   9   6 3831.47 188.490  24
  -5   9   5 3271.88 130.071  11
   5   9  -5 3198.99 159.000  18
   5   9  -5 3318.00 140.904  15
   5   9  -5 3299.17 140.213  14
  -5   9   5 3493.23 173.216  24
  -5   9   4 170.161 49.6269  11
   5   9  -4 133.468 76.6001  18
   5   9  -4 82.9279 56.2334  15
   5   9  -4 170.338 56.9534  14
  -5   9   4 234.014 102.706  24
   5   9  -3 11572.6 262.012  18
   5   9  -3 11595.0 250.125  15
  -5   9   3 11806.1 233.532  14
   5   9  -3 11698.2 261.461  14
  -5   9   3 11336.5 283.376  24
   5   9  -2 8978.86 227.767  18
   5   9  -2 8859.39 211.196  17
   5   9  -2 9075.29 221.920  15
   5   9  -2 8593.89 226.756  14
  -5   9   2 8240.66 251.356  24
   5   9  -1 3581.53 147.487  18
   5   9  -1 3791.55 143.810  17
   5   9  -1 3840.37 149.502  15
   5   9  -1 3811.42 156.438  14
   5   9   0 16577.7 317.860  18
   5   9   0 16737.3 318.816  17
   5   9   0 16563.5 316.861  15
  -5   9   0 17127.8 313.119  27
   5   9   0 17321.5 331.664  14
   5   9   0 15849.0 300.562   7
   5   9   1 3100.39 143.350  18
   5   9   1 2912.95 144.118  17
   5   9   1 3069.95 145.141  15
  -5   9  -1 3138.57 140.116  27
   5   9   1 3031.29 149.658  14
  -5   9  -1 3586.54 185.245  24
   5   9   1 3042.48 137.406   7
   5   9   2 10820.1 268.909  18
   5   9   2 10981.5 276.516  17
  -5   9  -2 10975.3 261.165  27
   5   9   2 10678.8 272.852  14
  -5   9  -2 10003.2 283.401  24
   5   9   2 11120.0 263.446   7
   5   9   3 1571.85 119.714  18
   5   9   3 1513.40 124.197  17
   5   9   3 1541.72 116.867  14
  -5   9  -3 1535.11 113.370  27
  -5   9  -3 1350.45 139.996  24
   5   9   3 1610.55 118.554   7
   5   9   4 7075.07 230.472  14
   5   9   4 7071.01 235.313  18
   5   9   4 7079.68 246.857  17
  -5   9  -4 6763.74 221.208  27
   5   9   4 6929.86 221.313  26
  -5   9  -4 6183.55 243.559  24
   5   9   4 6922.48 227.793   7
   5  10  -8 3074.70 196.826  18
  -5  10   8 3081.55 168.299  10
   5  10  -8 3172.58 149.091  14
  -5  10   8 2880.26 164.160   8
  -5  10   8 2689.17 185.639  24
   5  10  -7 10436.9 299.303  18
  -5  10   7 10420.8 277.248  10
   5  10  -7 10111.8 257.170  15
   5  10  -7 10428.4 261.640  14
  -5  10   7 9923.37 273.082   8
  -5  10   7 9708.74 304.423  24
  -5  10   6 884.212 79.2285  11
   5  10  -6 793.976 122.600  18
   5  10  -6 837.188 90.9996  15
   5  10  -6 821.739 85.9375  14
  -5  10   6 982.061 138.502  24
  -5  10   5 3291.78 179.864  24
  -5  10   5 3283.89 136.177  11
   5  10  -5 3076.98 163.778  18
   5  10  -5 3082.45 138.719  15
   5  10  -5 3325.71 150.536  14
  -5  10   4 10759.7 241.921  11
   5  10  -4 10911.8 271.020  18
   5  10  -4 10866.2 249.781  15
   5  10  -4 10717.1 262.954  14
  -5  10   4 10359.7 289.884  24
   5  10  -3 4306.82 173.643  18
   5  10  -3 4504.86 150.931  17
   5  10  -3 4469.40 163.869  15
  -5  10   3 4799.24 158.164  14
   5  10  -3 4309.70 169.458  14
  -5  10   3 4309.11 199.023  24
   5  10  -2 1458.94 110.338  18
   5  10  -2 1554.78 101.488  17
   5  10  -2 1486.07 102.942  15
  -5  10   2 1557.52 109.099  14
   5  10  -2 1471.85 110.990  14
  -5  10   2 1405.16 139.896  24
   5  10  -1 1689.42 114.729  18
   5  10  -1 1778.73 109.853  17
   5  10  -1 1811.20 112.604  15
   5  10  -1 1681.11 121.012  14
  -5  10   1 1651.28 152.725  24
   5  10   0 4207.89 172.025  18
   5  10   0 4119.51 168.684  17
   5  10   0 4399.11 170.397  15
  -5  10   0 4236.72 170.797  27
   5  10   0 4313.92 180.047  14
  -5  10   0 3635.48 190.720  24
   5  10   0 4062.71 164.934   7
   5  10   1 2155.49 130.835  18
   5  10   1 2113.25 135.279  17
   5  10   1 2156.50 129.047  15
  -5  10  -1 2057.26 128.968  27
   5  10   1 2276.86 137.616  14
  -5  10  -1 1787.15 157.700  24
   5  10   1 2185.16 128.880   7
   5  10   2 1237.80 109.592  18
   5  10   2 1141.01 109.821  14
   5  10   2 1185.51 118.682  17
  -5  10  -2 1238.31 112.025  27
  -5  10  -2 838.760 133.306  24
   5  10   2 1157.93 105.089   7
   5  10   3 365.518 84.3429   7
   5  10   3 392.637 86.4341  18
   5  10   3 269.815 99.8359  17
  -5  10  -3 370.191 83.2099  27
   5  10   3 425.594 86.2920  14
  -5  10  -3 312.376 126.453  24
   5  10   4 1497.01 129.272  18
   5  10   4 1441.79 142.578  17
  -5  10  -4 1478.55 123.283  27
   5  10   4 1501.73 124.693  14
  -5  10  -4 994.369 137.320  24
   5  10   4 1493.57 128.729   7
   5  11  -7 2639.40 183.062  18
  -5  11   7 2609.62 159.522  10
   5  11  -7 2584.39 145.658  14
  -5  11   7 2361.46 146.728   8
  -5  11   7 2352.18 192.390  24
   5  11  -6 1456.83 148.782  18
   5  11  -6 1442.03 106.747  15
   5  11  -6 1476.46 115.489  14
  -5  11   6 1574.54 156.882  24
  -5  11   5 6454.82 191.769  11
   5  11  -5 6231.02 226.997  18
   5  11  -5 6528.28 201.831  15
   5  11  -5 6574.03 218.268  14
  -5  11   5 5812.72 242.376  24
  -5  11   4 1258.04 95.1266  11
   5  11  -4 1325.40 119.623  18
   5  11  -4 1381.66 103.456  15
   5  11  -4 1334.74 111.679  14
  -5  11   4 1216.95 146.841  24
   5  11  -3 1179.29 113.688  18
   5  11  -3 1447.52 106.410  15
  -5  11   3 1032.81 93.7718  14
   5  11  -3 1111.87 106.276  14
  -5  11   3 949.073 145.534  24
   5  11  -2 918.706 101.368  18
   5  11  -2 927.992 89.4749  17
   5  11  -2 909.335 91.8440  15
  -5  11   2 946.036 101.354  14
   5  11  -2 868.504 101.336  14
  -5  11   2 760.376 141.930  24
   5  11  -1 291.718 80.1372  18
   5  11  -1 310.989 79.6062  17
   5  11  -1 249.477 69.6058  15
   5  11  -1 165.401 74.9460  14
  -5  11   1 341.424 129.172  24
   5  11   0-28.0410 69.4457   7
   5  11   0 140.344 74.4914  18
   5  11   0-105.773 77.5885  17
   5  11   0-13.5918 62.6108  15
  -5  11   0 36.6349 77.0429  27
   5  11   0 36.5300 72.1871  14
  -5  11   0 146.462 137.637  24
   5  11   1 1476.18 124.624  18
   5  11   1 1331.80 120.939  17
  -5  11  -1 1260.56 114.681  27
   5  11   1 1318.93 119.994  14
  -5  11  -1 1566.72 158.587  24
   5  11   1 1315.90 114.793   7
   5  11   2 1368.59 124.318  18
   5  11   2 1409.19 138.568  17
  -5  11  -2 1168.06 115.066  27
   5  11   2 1457.44 127.677  14
  -5  11  -2 1389.81 146.770  24
   5  11   2 1333.88 119.059   7
   5  11   3 1742.65 141.073  18
   5  11   3 1871.59 158.443  17
   5  11   3 1742.21 133.213  14
  -5  11  -3 1762.31 136.197  27
  -5  11  -3 1799.21 168.645  24
   5  11   3 1809.63 135.527   7
  -5  12   5 300.755 64.6349  11
   5  12  -5 181.914 98.0492  18
   5  12  -5 220.655 64.8648  15
   5  12  -5 217.401 74.2711  14
  -5  12   5 279.444 124.164  24
  -5  12   4 2080.28 119.841  11
   5  12  -4 2148.41 145.416  18
   5  12  -4 2088.42 123.830  15
   5  12  -4 2172.45 141.177  14
  -5  12   4 2087.76 167.139  24
   5  12  -3 3357.39 171.699  18
   5  12  -3 3315.10 151.371  15
  -5  12   3 3485.71 151.410  14
   5  12  -3 3375.01 174.349  14
  -5  12   3 3053.14 187.971  24
   5  12  -2 4727.50 198.013  18
   5  12  -2 4709.46 176.923  17
   5  12  -2 4839.82 182.189  15
  -5  12   2 4669.90 181.379  14
   5  12  -2 4555.84 197.738  14
  -5  12   2 4597.32 221.322  24
   5  12  -1 11880.3 306.954  18
   5  12  -1 11831.3 289.275  17
   5  12  -1 12617.2 295.397  15
  -5  12   1 12378.2 300.102  14
   5  12  -1 12404.4 318.170  14
  -5  12   1 11254.9 325.326  24
   5  12  -1 12225.2 299.349   7
   5  12   0 4236.04 190.573  18
   5  12   0 4068.62 184.118  17
   5  12   0 4274.05 180.883  15
  -5  12   0 4476.88 200.610  14
  -5  12   0 4275.10 191.902  27
   5  12   0 4133.84 191.917  14
  -5  12   0 3728.36 205.868  24
   5  12   0 3988.27 184.822   7
   5  12   1 2453.48 158.753  18
   5  12   1 1977.25 145.878  17
  -5  12  -1 2272.43 174.036  14
  -5  12  -1 2097.08 146.027  27
   5  12   1 2162.37 152.248  14
   5  12   1 2142.67 145.748   7
   5  13  -3 6719.15 246.532  18
   5  13  -3 6539.57 215.130  15
  -5  13   3 6978.36 218.260  14
   5  13  -3 6582.21 242.844  14
  -5  13   3 6381.13 256.308  24
   5  13  -2 6466.87 242.425  18
   5  13  -2 6228.35 214.151  15
  -5  13   2 6350.48 218.916  14
   5  13  -2 6278.18 239.610  14
  -5  13   2 5859.16 253.098  24
   6 -12  -4 2782.36 165.141  19
  -6 -12   4 2899.85 170.833   5
   6 -12  -4 2606.29 158.753  16
  -6 -12   4 2350.61 168.301  16
   6 -12  -4 2768.10 159.446   4
   6 -12  -4 2878.98 173.364  23
   6 -12  -3 5610.89 190.100   6
   6 -12  -3 5400.26 207.815  19
   6 -12  -3 5956.55 218.840   4
  -6 -12   3 5762.98 225.843   5
   6 -12  -3 5236.35 218.941  16
   6 -12  -3 5632.42 221.725  23
   6 -12  -2 1992.79 126.987   6
   6 -12  -2 2195.66 137.818  19
  -6 -12   2 1969.66 147.746   5
   6 -12  -2 2133.63 149.337  16
  -6 -12   2 2248.80 179.146  16
   6 -12  -2 2053.32 135.513   4
   6 -12  -2 2252.11 155.345  23
   6 -12  -1 6545.84 221.495   6
   6 -12  -1 6771.21 212.615  19
   6 -12  -1 6903.52 246.948  16
  -6 -12   1 6851.32 238.436   5
  -6 -12   1 6075.09 267.504  16
   6 -12  -1 6784.99 232.319   4
   6 -12  -1 6737.85 240.666  23
   6 -11  -6 3897.67 205.744  19
  -6 -11   6 4183.89 189.214   5
   6 -11  -6 4161.68 178.818  16
  -6 -11   6 3816.36 169.419   9
   6 -11  -6 3887.35 180.408   4
  -6 -11   6 3865.23 237.791  25
   6 -11  -6 4231.94 199.834  23
   6 -11  -5 269.521 74.5290   4
   6 -11  -5 271.488 109.643  19
   6 -11  -5 282.104 83.7479  16
  -6 -11   5 266.458 83.5221   5
  -6 -11   5 309.675 156.375  25
   6 -11  -5 314.291 93.3357  23
   6 -11  -4 1673.95 135.628  19
  -6 -11   4 1667.74 129.589   5
   6 -11  -4 1586.19 127.192  16
  -6 -11   4 1698.70 144.150  16
   6 -11  -4 1626.69 117.978   4
   6 -11  -4 1892.22 140.762  23
   6 -11  -3 222.187 70.4755   4
   6 -11  -3 242.986 89.8070  19
   6 -11  -3 144.188 55.1669   6
   6 -11  -3 211.141 80.8186  16
  -6 -11   3 242.140 110.932  16
  -6 -11   3 329.563 87.2421   5
   6 -11  -3 176.931 82.3785  23
   6 -11  -2 88.2550 58.7462   4
   6 -11  -2-7.28474 61.0725  19
   6 -11  -2 114.174 58.6294   6
   6 -11  -2 89.8555 74.6698  16
  -6 -11   2 132.944 114.139  16
  -6 -11   2 171.607 78.5298   5
   6 -11  -2 117.452 81.2758  23
   6 -11  -1 3406.42 157.824   6
   6 -11  -1 3763.27 156.282  19
   6 -11  -1 3713.63 185.077  16
  -6 -11   1 3699.14 173.280   5
  -6 -11   1 3208.73 199.218  16
   6 -11  -1 3580.93 163.178   4
   6 -11  -1 3490.26 171.508  23
  -6 -11   1 3195.08 169.737  22
   6 -11   0 5663.52 206.913   6
   6 -11   0 6399.62 230.803  16
  -6 -11   0 6034.36 215.628   5
  -6 -11   0 5619.32 247.115  16
   6 -11   0 6115.34 208.219  26
   6 -11   0 6127.01 213.437   4
   6 -11   0 6004.40 214.134  23
  -6 -11   0 5425.52 214.222  22
   6 -11   1 2070.30 139.060   6
  -6 -11  -1 2092.94 137.108   5
  -6 -11  -1 1977.25 191.317  16
   6 -11   1 1964.92 125.153  26
   6 -11   1 2183.73 133.930   4
   6 -11   1 2013.48 134.311  23
  -6 -11  -1 2027.76 150.189  22
   6 -10  -7 64.3839 113.255  19
  -6 -10   7 79.5497 67.9725   5
  -6 -10   7 147.516 87.1384   9
  -6 -10   7 234.733 134.932  25
   6 -10  -7 35.1728 85.9335  23
   6 -10  -6 512.121 115.175  19
   6 -10  -6 416.466 83.6814  16
  -6 -10   6 643.321 95.0721   5
  -6 -10   6 710.508 97.2161   9
  -6 -10   6 328.547 133.697  25
   6 -10  -6 694.587 104.809  23
   6 -10  -5 2861.21 167.241  19
  -6 -10   5 2827.41 149.126   5
   6 -10  -5 2857.11 143.200  16
  -6 -10   5 2958.37 146.147   9
   6 -10  -5 2786.01 145.027   4
  -6 -10   5 2595.54 195.347  25
   6 -10  -5 2804.59 154.442  23
   6 -10  -4 1403.13 124.779  19
   6 -10  -4 1504.84 113.370  16
  -6 -10   4 1441.23 110.553   5
   6 -10  -4 1410.83 109.803   4
   6 -10  -4 1492.72 119.820  23
   6 -10  -3 151.465 61.7998   4
  -6 -10   3 203.386 88.1609  22
   6 -10  -3 144.437 74.4989  19
   6 -10  -3 226.971 53.2568   6
   6 -10  -3 281.142 79.4223  16
  -6 -10   3 172.907 100.907  16
  -6 -10   3 173.022 70.2708   5
   6 -10  -3 258.943 82.0266  23
  -6 -10   2 908.203 110.943  22
   6 -10  -2 622.800 77.5490   4
   6 -10  -2 688.178 85.2257  19
   6 -10  -2 540.882 67.7996   6
   6 -10  -2 667.875 92.2492  16
  -6 -10   2 466.087 106.576  16
  -6 -10   2 620.471 85.0497   5
   6 -10  -2 655.747 91.9770  23
   6 -10  -1 204.188 62.2003   4
  -6 -10   1 211.392 92.8789  22
   6 -10  -1 207.001 63.1864  19
   6 -10  -1 260.551 65.7862   6
   6 -10  -1 258.872 81.0586  16
  -6 -10   1 168.038 118.533  16
  -6 -10   1 275.818 71.5649   5
   6 -10  -1 263.116 76.7193  23
   6 -10   0 4564.09 180.228   6
   6 -10   0 4897.95 169.617  19
   6 -10   0 4766.88 192.993  16
  -6 -10   0 4635.35 179.039   5
  -6 -10   0 4560.76 224.646  16
   6 -10   0 4900.45 183.357  26
   6 -10   0 4957.09 181.532   4
   6 -10   0 4775.20 184.447  23
  -6 -10   0 4574.31 195.402  22
   6 -10   1 2477.99 144.048   6
  -6 -10  -1 2462.27 137.338   5
  -6 -10  -1 2460.65 176.563  16
   6 -10   1 2176.35 128.153  26
   6 -10   1 2460.46 135.950   4
   6 -10   1 2479.92 138.333  23
  -6 -10  -1 2319.37 155.311  22
   6 -10   2 996.087 108.398   6
   6 -10   2 1210.48 101.767  26
  -6 -10  -2 1093.37 98.8808   5
  -6 -10  -2 1059.23 155.334  16
   6 -10   2 1002.85 97.7640   4
  -6 -10  -2 1158.69 132.464  22
   6  -9  -8 1394.88 153.341  19
  -6  -9   8 1396.39 107.686   5
  -6  -9   8 1303.78 125.628   9
  -6  -9   8 1386.33 164.369  25
   6  -9  -8 1388.41 131.578  23
   6  -9  -7 7323.67 254.803  19
  -6  -9   7 7469.88 222.610   5
  -6  -9   7 7921.64 239.772   9
  -6  -9   7 7284.97 273.758  25
   6  -9  -7 7543.30 243.252  23
   6  -9  -6 3069.63 174.150  19
  -6  -9   6 3365.00 151.788   5
  -6  -9   6 3681.01 163.835   9
  -6  -9   6 3253.17 204.000  25
   6  -9  -6 3391.24 161.900  23
  -6  -9   5 1831.57 118.763  22
   6  -9  -5 1679.45 131.213  19
  -6  -9   5 1825.75 120.842   5
   6  -9  -5 1830.94 112.525  16
   6  -9  -5 2025.41 130.191  23
  -6  -9   4 1312.34 106.194  22
   6  -9  -4 1483.14 123.073  19
   6  -9  -4 1389.38 100.173  16
  -6  -9   4 1389.25 105.173   5
   6  -9  -4 1388.59 97.7686   4
   6  -9  -4 1357.75 110.249  23
  -6  -9   3 4066.33 163.258  22
   6  -9  -3 4089.85 142.824   6
   6  -9  -3 3986.88 165.248  19
   6  -9  -3 4055.47 163.494  16
  -6  -9   3 4069.47 163.094   5
   6  -9  -3 4258.96 156.003   4
   6  -9  -3 4116.78 165.490  23
  -6  -9   2 971.007 105.310  22
   6  -9  -2 622.980 70.0784   6
   6  -9  -2 815.423 87.4755  19
   6  -9  -2 705.083 87.1889  16
  -6  -9   2 594.130 108.000  16
  -6  -9   2 721.649 80.8975   5
   6  -9  -2 787.680 76.2305   4
   6  -9  -2 736.582 83.9168  23
   6  -9  -1 2425.68 123.857   6
   6  -9  -1 2548.75 125.382  19
   6  -9  -1 2634.12 140.097  16
  -6  -9   1 2312.01 128.322   5
  -6  -9   1 2318.50 155.459  16
   6  -9  -1 2408.60 120.424   4
   6  -9  -1 2479.17 129.340  23
  -6  -9   1 2345.06 140.113  22
   6  -9   0 4585.48 172.781   6
   6  -9   0 4769.75 162.807  19
   6  -9   0 4953.77 191.924  16
  -6  -9   0 4594.55 173.834   5
  -6  -9   0 4740.30 206.624  16
   6  -9   0 4728.85 176.480  26
   6  -9   0 4591.60 166.982   4
   6  -9   0 4656.27 169.992  23
  -6  -9   0 4625.94 188.317  22
   6  -9   1 6279.59 211.076   6
   6  -9   1 6587.40 209.871  26
  -6  -9  -1 6569.58 205.653   5
  -6  -9  -1 6546.29 252.041  16
   6  -9   1 6382.48 198.578   4
   6  -9   1 6596.41 205.100  23
  -6  -9  -1 6236.79 225.238  22
   6  -9   2 1202.94 112.870   6
   6  -9   2 1143.85 100.235  26
   6  -9   2 1213.20 92.6688   9
  -6  -9  -2 1178.58 99.2486   5
  -6  -9  -2 1394.58 153.911  16
   6  -9   2 1174.27 97.5298   4
  -6  -9  -2 1113.25 127.738  22
   6  -9   3 1628.23 131.851   6
   6  -9   3 1534.77 108.465   9
  -6  -9  -3 1676.30 113.909   5
  -6  -9  -3 1815.80 174.659  16
   6  -9   3 1891.74 124.408  26
   6  -9   3 1795.48 120.938   4
   6  -8  -9 4307.56 217.328  19
  -6  -8   9 4560.07 201.812   9
  -6  -8   9 4333.78 216.859  25
   6  -8  -9 4875.84 212.347  23
   6  -8  -8 21185.3 424.682  19
  -6  -8   8 22318.4 371.219   5
  -6  -8   8 21294.3 397.849   9
  -6  -8   8 21550.9 445.772  25
   6  -8  -8 22402.9 417.984  23
  -6  -8   7 4836.41 179.869  22
   6  -8  -7 4498.14 198.140  19
  -6  -8   7 4692.37 168.638   5
  -6  -8   7 4754.12 188.322   9
  -6  -8   7 4672.51 220.318  25
   6  -8  -7 4514.97 184.723  23
  -6  -8   6 4974.56 171.425  22
   6  -8  -6 4892.16 195.854  19
  -6  -8   6 4882.54 168.912   5
  -6  -8   6 5422.20 184.835   9
  -6  -8   6 4872.71 219.229  25
   6  -8  -6 4972.49 184.331  23
  -6  -8   5 3141.94 137.428  22
  -6  -8   5 2917.57 133.452  11
   6  -8  -5 3160.24 157.799  19
   6  -8  -5 2847.36 128.886  16
  -6  -8   5 2945.95 133.528   5
   6  -8  -5 3068.56 141.939  23
  -6  -8   4 7172.23 202.239  22
  -6  -8   4 6871.64 187.876  11
   6  -8  -4 6930.00 212.061  19
   6  -8  -4 6649.07 193.662  16
  -6  -8   4 6884.72 200.910   5
   6  -8  -4 7089.99 193.796   4
   6  -8  -4 6978.97 202.436  23
  -6  -8   3 1137.11 101.911  22
  -6  -8   3 998.272 73.7440  11
   6  -8  -3 838.857 68.7728   6
   6  -8  -3 991.914 93.6804  19
   6  -8  -3 942.152 84.1477  16
  -6  -8   3 1020.45 90.6931   5
   6  -8  -3 892.855 74.7242   4
   6  -8  -3 925.977 89.2513  23
  -6  -8   2 2546.88 136.655  22
   6  -8  -2 2929.30 122.227   6
   6  -8  -2 2933.92 133.744  19
   6  -8  -2 2976.52 136.223  16
  -6  -8   2 3112.70 138.682   5
  -6  -8   2 2691.65 149.490  16
   6  -8  -2 2891.71 122.282   4
   6  -8  -2 2901.78 131.242  23
   6  -8  -1 2889.06 129.785   6
   6  -8  -1 3007.35 129.336  19
   6  -8  -1 3066.31 141.906  16
  -6  -8   1 2853.87 150.320  16
  -6  -8   1 2953.95 133.794   5
   6  -8  -1 3041.02 125.395   4
   6  -8  -1 2892.93 130.735  23
  -6  -8   1 2566.32 138.368  22
   6  -8   0 1197.57 93.9424   6
   6  -8   0 1292.26 92.3503  19
  -6  -8   0 1332.29 124.181  16
  -6  -8   0 1390.06 101.932   5
   6  -8   0 1337.60 104.545  26
   6  -8   0 1289.89 86.0637   4
   6  -8   0 1312.67 95.3823  23
  -6  -8   0 1332.11 113.221  22
   6  -8   1 826.272 87.7942  26
  -6  -8  -1 869.117 106.850  22
   6  -8   1 797.776 78.3973  19
   6  -8   1 674.577 82.7223   6
  -6  -8  -1 681.961 118.740  16
   6  -8   1 691.596 69.9074   9
  -6  -8  -1 738.991 80.8803   5
   6  -8   1 814.748 76.5617   4
   6  -8   1 757.475 77.1446  23
   6  -8   2 3309.60 157.970   6
   6  -8   2 3308.25 137.000   9
  -6  -8  -2 3454.40 188.656  16
  -6  -8  -2 3138.42 144.503   5
   6  -8   2 3379.61 153.582  26
   6  -8   2 3494.64 145.512   4
   6  -8   3 7488.52 241.425   6
   6  -8   3 7767.54 233.647  26
   6  -8   3 7581.54 218.713   9
  -6  -8  -3 7163.32 266.689  16
  -6  -8  -3 7787.37 220.558   5
   6  -8   4 29287.2 504.234   6
   6  -8   4 29684.2 470.625   9
  -6  -8  -4 29661.4 451.797   5
  -6  -8  -4 29886.8 543.652  16
   6  -8   4 29700.0 484.706  26
  -6  -7  10 2288.30 143.652  22
   6  -7 -10 2221.34 168.210  19
  -6  -7  10 2696.41 170.286   9
   6  -7 -10 2550.09 166.707  23
  -6  -7   9 10272.3 269.085  22
   6  -7  -9 10032.9 291.735  19
  -6  -7   9 10459.1 285.297   9
  -6  -7   9 10191.0 306.492  25
   6  -7  -9 10409.0 287.270  23
  -6  -7   8 3554.42 160.894  22
   6  -7  -8 3710.76 184.658  19
  -6  -7   8 3504.76 141.230   5
  -6  -7   8 3558.18 173.149   9
  -6  -7   8 4108.36 199.453  25
   6  -7  -8 3678.46 174.049  23
  -6  -7   7 1778.56 118.032  22
  -6  -7   7 1652.22 115.525  11
   6  -7  -7 1920.04 142.874  19
  -6  -7   7 1923.56 106.036   5
  -6  -7   7 2053.34 131.118   9
  -6  -7   7 1971.41 149.245  25
   6  -7  -7 2117.84 131.465  23
  -6  -7   6 6897.82 197.992  22
  -6  -7   6 6276.60 192.532  11
   6  -7  -6 6487.81 214.527  19
  -6  -7   6 6542.60 187.236   5
  -6  -7   6 6883.36 204.376   9
  -6  -7   6 6660.95 231.229  25
   6  -7  -6 6472.82 199.853  23
  -6  -7   5 3539.93 140.475  11
   6  -7  -5 3587.68 159.532  19
  -6  -7   5 4029.25 152.692  22
  -6  -7   5 3761.73 140.947   5
   6  -7  -5 3622.72 147.712  23
  -6  -7   4 20249.9 338.122  22
  -6  -7   4 19693.9 316.012  11
   6  -7  -4 20037.6 344.608  19
  -6  -7   4 19657.7 328.301   5
  -6  -7   4 19335.6 772.943   2
   6  -7  -4 19616.4 327.526  23
  -6  -7   3 2614.83 139.932  22
   6  -7  -3 2376.95 119.391  19
   6  -7  -3 2007.87 109.391  16
  -6  -7   3 2337.20 116.333   5
  -6  -7   3 2138.49 261.227   2
   6  -7  -3 2048.74 100.071   4
   6  -7  -3 2289.27 113.543  23
  -6  -7   2 5291.65 180.615  22
   6  -7  -2 5006.35 151.561   6
   6  -7  -2 5247.77 165.099  19
   6  -7  -2 5237.01 168.582  16
  -6  -7   2 5312.78 174.922  16
  -6  -7   2 5113.84 165.855   5
   6  -7  -2 4974.33 149.331   4
   6  -7  -2 4937.71 157.242  23
   6  -7  -1 362.652 50.9209   4
  -6  -7   1 253.637 77.8622  22
   6  -7  -1 353.366 62.1066  19
   6  -7  -1 449.867 62.7739   6
   6  -7  -1 508.158 69.7410  16
  -6  -7   1 395.802 80.9682  16
  -6  -7   1 444.711 68.6821   5
   6  -7  -1 457.565 65.8921  23
   6  -7   0 16223.7 304.120   6
   6  -7   0 16644.0 292.535  19
   6  -7   0 16240.4 270.396   9
  -6  -7   0 17485.6 337.164  16
  -6  -7   0 16741.2 307.665   5
   6  -7   0 17057.2 321.626  26
   6  -7   0 16711.7 286.282   4
   6  -7   0 16674.2 290.902  23
  -6  -7   0 17090.1 331.371  22
   6  -7   1 3479.74 147.987   6
   6  -7   1 3409.09 131.796  19
   6  -7   1 3365.05 130.416   9
  -6  -7  -1 3159.32 136.435   5
   6  -7   1 3398.81 147.579  26
   6  -7   1 3374.61 130.078   4
   6  -7   1 3319.59 132.718  23
  -6  -7  -1 3359.53 160.500  22
   6  -7   2 564.583 66.5635   4
   6  -7   2 552.941 69.6773  19
   6  -7   2 528.026 78.9840   6
   6  -7   2 612.414 72.7744   9
  -6  -7  -2 528.183 71.9952   5
   6  -7   2 535.915 74.7582  26
   6  -7   3 2632.95 140.119  26
   6  -7   3 2554.07 143.104   6
   6  -7   3 2600.54 132.144   9
  -6  -7  -3 2714.33 132.377   5
   6  -7   4 3978.53 182.740   6
   6  -7   4 4030.76 170.866   9
  -6  -7  -4 3935.11 158.521   5
   6  -7   4 4046.87 177.378  26
  -6  -6  10 1886.81 137.450  22
   6  -6 -10 1802.16 156.580  19
  -6  -6  10 1805.53 148.841   9
  -6  -6  10 1775.66 144.662  25
   6  -6 -10 1852.31 143.354  23
  -6  -6   9 2245.69 141.368  22
  -6  -6   9 2238.60 136.994  11
   6  -6  -9 2173.63 153.746  19
  -6  -6   9 2123.83 147.770   9
  -6  -6   9 2115.54 152.370  25
   6  -6  -9 2390.96 148.228  23
  -6  -6   8 5703.76 198.056  22
  -6  -6   8 5545.73 193.477  11
   6  -6  -8 5613.01 211.460  19
  -6  -6   8 5860.95 205.762   9
  -6  -6   8 5631.95 217.404  25
   6  -6  -8 5570.53 198.033  23
  -6  -6   7 674.517 92.6269  22
   6  -6  -7 681.406 102.889  19
  -6  -6   7 666.091 77.3049  11
  -6  -6   7 678.694 68.0767   5
  -6  -6   7 600.112 88.4685   9
  -6  -6   7 797.650 106.874  25
   6  -6  -7 841.310 90.9595  23
  -6  -6   6 22309.9 357.439  22
  -6  -6   6 22617.6 359.403  11
   6  -6  -6 21813.9 374.737  19
  -6  -6   6 22730.2 340.012   5
  -6  -6   6 20818.5 353.420   9
  -6  -6   6 21155.1 383.268  25
   6  -6  -6 22527.8 361.510  23
  -6  -6   5 6131.25 182.920  22
  -6  -6   5 5614.15 169.039  11
   6  -6  -5 5301.06 371.729  20
   6  -6  -5 5746.60 189.193  19
  -6  -6   5 5569.76 163.624   5
   6  -6  -5 5822.98 174.533  23
  -6  -6   4 63789.6 644.586  22
   6  -6  -4 61994.4 650.190  19
  -6  -6   4 60876.3 621.775   5
  -6  -6   4 61836.7 1360.55   2
   6  -6  -4 61719.3 621.240  23
  -6  -6   3 3520.30 146.529  22
   6  -6  -3 3745.32 140.106  19
  -6  -6   3 3569.37 132.659   5
  -6  -6   3 3389.19 309.602   2
   6  -6  -3 3691.01 122.309   4
   6  -6  -3 3599.23 129.940  23
  -6  -6   2 2525.57 130.920  22
   6  -6  -2 2689.05 102.779   4
   6  -6  -2 2666.22 117.846  19
  -6  -6   2 2789.69 120.585   5
  -6  -6   2 2348.10 244.987   2
   6  -6  -2 2681.30 111.111  23
   6  -6  -1 9707.87 213.029   6
   6  -6  -1 9802.10 216.201  19
  -6  -6   1 9541.19 220.319   5
   6  -6  -1 9807.18 198.925   4
   6  -6  -1 9760.47 206.172  23
  -6  -6   1 9226.56 230.068  22
   6  -6   0 23167.1 358.598   6
   6  -6   0 23217.0 345.696  19
  -6  -6   0 23684.1 361.729   5
   6  -6   0 23880.6 375.942  26
   6  -6   0 23731.4 330.131   4
   6  -6   0 23522.1 334.437  23
  -6  -6   0 24378.4 388.036  22
   6  -6   1 6153.28 187.834   6
   6  -6   1 6258.87 175.023  19
   6  -6   1 6583.49 195.716  26
   6  -6   1 6329.61 174.624   9
  -6  -6  -1 6366.90 184.898   5
   6  -6   1 6305.03 166.827   4
   6  -6   1 6364.69 168.993  23
  -6  -6  -1 6525.67 206.221  22
   6  -6   2 5179.36 182.675   6
   6  -6   2 5162.20 168.763   9
  -6  -6  -2 5015.79 168.956   5
   6  -6   2 4952.50 179.414  26
   6  -6   2 5207.15 158.573   4
   6  -6   3 1422.61 111.507   6
   6  -6   3 1521.65 105.329   9
  -6  -6  -3 1542.07 101.826   5
   6  -6   3 1479.41 106.519  26
   6  -6   4 9055.45 261.611   6
   6  -6   4 8957.36 247.910   9
  -6  -6  -4 8709.55 229.256   5
   6  -6   4 8935.86 253.439  26
   6  -6   5 4005.57 185.866   6
   6  -6   5 3950.63 182.531  26
   6  -6   5 4240.08 185.002   9
  -6  -5  10 4596.45 192.997  22
  -6  -5  10 4761.03 194.546  11
   6  -5 -10 4667.25 202.991  19
  -6  -5  10 4678.47 204.176   9
  -6  -5  10 4337.33 194.953  25
   6  -5 -10 4914.70 204.810  23
  -6  -5   9 1055.33 111.850  22
  -6  -5   9 910.934 96.1050  11
   6  -5  -9 1043.67 116.895  19
  -6  -5   9 955.329 109.092  25
   6  -5  -9 1066.93 110.938  23
  -6  -5   8 8675.66 239.484  22
  -6  -5   8 8703.00 235.423  11
   6  -5  -8 8262.86 237.967  19
  -6  -5   8 8499.97 239.355   9
  -6  -5   8 9040.71 250.250  25
   6  -5  -8 8683.57 237.416  23
  -6  -5   7 6726.54 203.821  22
  -6  -5   7 7133.67 204.035  11
   6  -5  -7 6901.71 211.646  19
  -6  -5   7 7710.31 219.650   9
  -6  -5   7 6137.89 211.872  25
   6  -5  -7 7383.08 206.398  23
  -6  -5   6 47342.4 550.111  22
   6  -5  -6 46240.5 1166.85  20
  -6  -5   6 46527.5 539.196  11
   6  -5  -6 46442.6 556.987  19
   6  -5  -6 46353.8 535.593  23
  -6  -5   5 21446.2 338.634  22
   6  -5  -5 20468.4 702.553  20
  -6  -5   5 19920.0 319.270  11
   6  -5  -5 20375.2 339.419  19
   6  -5  -5 20256.0 316.614  23
  -6  -5   4 23232.8 350.935  22
   6  -5  -4 22254.8 663.090  20
   6  -5  -4 23020.5 349.825  19
  -6  -5   4 22405.1 783.544   2
   6  -5  -4 22793.0 325.249  23
  -6  -5   3 31402.4 415.891  22
   6  -5  -3 30786.9 403.581  19
   6  -5  -3 30360.7 357.085   4
  -6  -5   3 30070.7 863.553   2
   6  -5  -3 30262.0 373.192  23
  -6  -5   2 2778.66 138.730  22
  -6  -5   2 2767.74 115.227   5
  -6  -5   2 2495.21 239.291   2
   6  -5  -2 2776.28 96.8260   4
   6  -5  -2 2726.27 105.027  23
  -6  -5   1 8207.62 198.084   5
   6  -5  -1 8757.43 174.422   4
   6  -5  -1 8706.95 182.740  23
  -6  -5   1 8476.43 215.442  22
   6  -5   0 7477.09 187.858   6
   6  -5   0 7330.44 183.864  19
  -6  -5   0 7307.66 190.467   5
   6  -5   0 7616.20 202.490  26
   6  -5   0 7041.34 408.543  13
   6  -5   0 7493.49 165.847   4
   6  -5   0 7533.11 169.613  23
  -6  -5   0 6795.77 413.632  13
  -6  -5   0 7401.23 207.737  22
   6  -5   1 13507.7 270.323   6
   6  -5   1 13311.2 276.256  26
   6  -5   1 13087.2 251.513  19
   6  -5   1 13414.8 254.714   9
  -6  -5  -1 13743.9 265.660   5
   6  -5   1 13587.9 234.898   4
   6  -5   1 13706.4 236.517  23
  -6  -5  -1 13192.8 289.980  22
   6  -5   2 15375.0 307.198  26
   6  -5   2 15115.3 300.600   6
   6  -5   2 15560.2 290.646   9
  -6  -5  -2 15133.0 286.942   5
   6  -5   2 15609.6 264.072   4
   6  -5   3 390.465 72.9946   6
   6  -5   3 335.447 69.3848   9
  -6  -5  -3 325.279 61.8104   5
   6  -5   3 264.713 65.8573  26
   6  -5   4 4143.61 175.665  26
   6  -5   4 4292.40 177.706   6
   6  -5   4 4373.41 175.466   9
  -6  -5  -4 4376.63 159.999   5
   6  -5   5 2693.18 152.108  26
   6  -5   5 2866.44 157.750   6
   6  -5   5 2924.99 154.672   9
  -6  -4  11 3003.21 173.020  22
   6  -4 -11 3102.53 169.633  19
  -6  -4  11 3030.59 182.512   9
  -6  -4  11 3220.32 147.333   8
   6  -4 -11 3131.53 178.926  23
  -6  -4  10 2190.80 148.609  22
  -6  -4  10 2207.12 134.791  11
   6  -4 -10 2149.81 143.249  19
  -6  -4  10 2541.91 160.796   9
   6  -4 -10 2302.12 149.797  23
  -6  -4   9 2207.60 139.517  22
  -6  -4   9 2081.38 126.273  11
   6  -4  -9 2195.85 142.580  19
  -6  -4   9 1922.13 124.498  25
  -6  -4   9 1823.92 140.541   9
   6  -4  -9 2142.75 131.858  23
  -6  -4   8 2219.63 133.114  22
  -6  -4   8 2331.17 123.777  11
   6  -4  -8 2394.90 134.310  19
  -6  -4   8 2435.77 136.552   9
  -6  -4   8 2107.18 128.123  25
   6  -4  -8 2349.68 128.288  23
  -6  -4   7 1847.97 120.595  22
  -6  -4   7 1942.54 109.901  11
   6  -4  -7 1962.71 120.265  19
  -6  -4   7 1911.78 124.246   9
   6  -4  -7 1984.72 112.048  23
  -6  -4   6 15572.1 294.884  22
   6  -4  -6 16224.2 666.780  20
  -6  -4   6 16180.3 286.457  11
  -6  -4   6 15569.0 598.241   1
   6  -4  -6 15523.7 291.979  19
   6  -4  -6 16088.0 280.201  23
  -6  -4   5 5750.15 174.498  22
   6  -4  -5 5766.51 365.019  20
   6  -4  -5 5472.60 169.003  19
  -6  -4   5 5229.49 313.873   1
  -6  -4   5 5529.77 409.607   2
   6  -4  -5 5232.89 151.176  23
  -6  -4   4 83056.6 760.605  22
   6  -4  -4 83813.5 1301.20  20
  -6  -4   4 81729.2 1179.17   1
  -6  -4   4 85819.0 1533.80   2
   6  -4  -4 82405.6 706.805  23
  -6  -4   3 23544.0 350.151  22
   6  -4  -3 22485.3 557.134  20
  -6  -4   3 22524.6 723.451   2
   6  -4  -3 21995.9 294.248  23
  -6  -4   2 44326.3 509.490  22
   6  -4  -2 44041.6 440.156  23
   6  -4  -1 4332.07 373.624   3
  -6  -4   1 4500.64 283.551   2
  -6  -4   1 3988.89 312.781  13
  -6  -4   1 4210.54 151.238  22
  -6  -4   0 17823.7 293.764   5
   6  -4   0 18923.4 315.781  26
   6  -4   0 17229.4 611.827  13
   6  -4   0 17814.1 249.385   4
   6  -4   0 18009.6 252.846  23
  -6  -4   0 17891.7 632.515  13
  -6  -4   0 18794.5 323.713  22
   6  -4   1 2484.00 114.690   6
   6  -4   1 2519.83 111.049  19
   6  -4   1 2478.36 111.559   9
  -6  -4  -1 2411.70 111.195   5
   6  -4   1 2578.68 123.042  26
   6  -4   1 2498.98 92.2960   4
   6  -4   1 2323.53 90.0646  23
  -6  -4  -1 2404.37 127.826  22
   6  -4   2 2866.08 134.512  26
   6  -4   2 2832.10 129.423   6
   6  -4   2 2936.20 127.806   9
  -6  -4  -2 2823.30 121.155   5
   6  -4   3 2853.70 138.723   6
   6  -4   3 2719.14 114.749  17
   6  -4   3 2823.59 134.088   9
  -6  -4  -3 2689.37 122.726   5
   6  -4   3 2894.79 139.628  26
   6  -4   4 55.3792 69.4752   6
   6  -4   4 76.0375 64.3917   9
  -6  -4  -4 118.943 53.1151   5
   6  -4   4 77.4907 61.0449  26
   6  -4   5 925.509 103.391   6
   6  -4   5 978.781 105.527   9
  -6  -4  -5 946.050 86.1814   5
   6  -4   5 850.793 102.045  26
  -6  -3  11 1365.41 134.056  22
  -6  -3  11 1525.44 120.184  11
   6  -3 -11 1749.41 130.997  19
  -6  -3  11 1551.88 141.210   9
  -6  -3  11 1532.68 112.838   8
   6  -3 -11 1477.85 135.871  23
  -6  -3  10 5691.54 216.113  22
  -6  -3  10 6375.81 210.679  11
   6  -3 -10 5871.25 202.576  19
  -6  -3  10 6120.82 219.710   9
  -6  -3  10 6250.43 189.022   8
   6  -3 -10 5914.78 211.934  23
  -6  -3   9 4890.89 191.578  22
  -6  -3   9 5091.37 181.701  11
  -6  -3   9 4943.70 156.303   8
   6  -3  -9 5201.93 184.947  19
  -6  -3   9 5344.21 194.953   9
   6  -3  -9 5429.86 192.651  23
  -6  -3   8 7202.03 217.999  22
  -6  -3   8 7263.54 205.225  11
   6  -3  -8 7069.29 203.762  19
  -6  -3   8 7641.10 218.095   9
   6  -3  -8 7218.59 206.179  23
  -6  -3   7 4506.37 169.674  22
  -6  -3   7 4502.35 151.964  11
   6  -3  -7 4361.43 157.568  19
  -6  -3   7 3966.16 154.061   9
   6  -3  -7 4321.11 150.259  23
  -6  -3   6 31253.1 427.583  22
   6  -3  -6 31876.2 923.162  20
  -6  -3   6 31411.8 409.143  11
  -6  -3   6 32130.0 879.572   1
   6  -3  -6 31942.9 399.286  23
  -6  -3   5 2738.03 126.936  22
   6  -3  -5 2660.80 244.489  20
  -6  -3   5 2640.48 231.381   1
  -6  -3   5 2703.34 295.236   2
   6  -3  -5 2664.20 105.835  23
  -6  -3   4 33066.0 426.111  22
  -6  -3   4 33955.1 757.819   1
   6  -3  -4 33760.1 778.418  20
  -6  -3   4 33573.1 927.147   2
   6  -3  -4 33936.4 376.354  23
  -6  -3   3 10099.6 224.845  22
   6  -3  -3 9845.40 355.917  20
  -6  -3   3 10142.1 371.089   1
  -6  -3   3 10190.1 479.857   2
  -6  -3   2 3323.17 136.247  22
   6  -3  -2 3642.65 161.075  20
  -6  -3   2 3982.28 215.275   1
  -6  -3   2 3690.29 279.718   2
   6  -3  -1 6027.54 425.180   3
  -6  -3   1 6683.01 347.370   2
  -6  -3   1 6796.52 188.218  22
   6  -3   0 1115.91 213.870   3
  -6  -3   0 1105.73 146.309   2
  -6  -3   0 1034.90 87.0778  22
   6  -3   1 5040.64 156.079   6
   6  -3   1 5063.34 152.801   9
   6  -3   1 5087.71 163.699  26
  -6  -3  -1 4778.10 168.175  22
   6  -3   2 6767.60 191.371   6
   6  -3   2 7159.44 193.028   9
   6  -3   2 6966.00 198.470  26
   6  -3   3 7508.40 212.030   6
   6  -3   3 7442.84 214.785  26
   6  -3   3 7399.95 187.609  17
   6  -3   3 7283.45 205.106   9
   6  -3   4 2243.21 128.384   6
   6  -3   4 2183.08 128.974   9
   6  -3   4 2170.70 129.496  26
   6  -3   5 3430.20 167.682  26
   6  -3   5 3524.16 167.600   6
   6  -3   5 3617.23 168.142   9
  -6  -3  -5 3389.79 143.600   5
   6  -3   6 541.147 96.6151  26
   6  -3   6 577.624 101.386   6
   6  -3   6 542.830 92.7699   9
  -6  -2  11 260.108 98.8092  22
  -6  -2  11 300.870 72.0218  11
  -6  -2  11 268.274 98.4600   9
  -6  -2  11 330.034 73.9246   8
   6  -2 -11 172.042 98.7671  23
  -6  -2  10 109.532 89.8365  22
   6  -2 -10 255.932 83.6989  19
  -6  -2  10 233.890 65.4229  11
  -6  -2  10 296.688 91.8041   9
  -6  -2  10 288.393 60.1784   8
   6  -2 -10 181.769 89.6864  23
  -6  -2   9 1593.05 129.037  22
  -6  -2   9 1675.18 106.294  11
   6  -2  -9 1535.40 111.970  19
  -6  -2   9 1624.15 97.0169   8
  -6  -2   9 1585.57 122.218   9
   6  -2  -9 1673.50 120.756  23
  -6  -2   8 615.591 92.9308  22
  -6  -2   8 792.344 74.8025  11
   6  -2  -8 662.892 78.2177  19
  -6  -2   8 711.837 86.9504   9
   6  -2  -8 593.398 78.4103  23
  -6  -2   7 7877.35 217.647  22
  -6  -2   7 7392.60 193.001  11
   6  -2  -7 7301.18 205.627  15
   6  -2  -7 7361.04 188.903  23
  -6  -2   6 3319.13 140.015  22
  -6  -2   6 3056.36 119.931  11
  -6  -2   6 3012.19 276.696   1
   6  -2  -6 3188.41 117.221  23
  -6  -2   5 10358.2 226.899  22
   6  -2  -5 10419.5 472.958  20
  -6  -2   5 10367.8 466.648   1
  -6  -2   5 11111.2 551.474   2
   6  -2  -5 10579.5 197.524  23
  -6  -2   4 31098.6 401.333  22
   6  -2  -4 31045.4 738.655  20
  -6  -2   4 32070.6 769.854   1
  -6  -2   4 31736.5 889.340   2
  -6  -2   3 13258.5 250.867  22
   6  -2  -3 13028.0 410.442  20
  -6  -2   3 13523.2 461.170   1
  -6  -2   3 13614.7 549.842   2
  -6  -2   2 24846.0 351.995  22
   6  -2  -2 24683.1 447.550  20
  -6  -2   1 4548.90 288.819   2
   6  -2  -1 4130.47 339.299   3
   6  -2  -1 4410.97 309.430  13
  -6  -2   1 4054.96 144.351  22
  -6  -2   0 13363.4 464.671   2
   6  -2   0 13655.5 624.950   3
   6  -2   0 12990.5 484.799  13
  -6  -2   0 12240.0 247.798  22
   6  -2   1 9371.55 536.700   3
   6  -2   1 9422.74 211.091   6
   6  -2   1 9631.80 211.355   9
   6  -2   1 9832.14 225.037  26
  -6  -2  -1 9693.11 228.527  22
   6  -2   2 2278.17 115.075   6
   6  -2   2 2104.16 109.420   9
   6  -2   2 2229.44 116.033  26
   6  -2   3 9999.95 241.275   6
   6  -2   3 10438.8 252.662  26
   6  -2   3 10348.8 224.379  17
   6  -2   3 9953.38 239.619   9
   6  -2   4 1022.10 97.6388  26
   6  -2   4 1069.26 97.7089   6
   6  -2   4 1003.79 79.1331  17
   6  -2   4 974.843 92.4640   9
   6  -2   5 188.435 75.0693   6
   6  -2   5 162.122 75.3678   9
   6  -2   5 96.8895 65.4656  26
   6  -2   6 1504.64 126.324   6
   6  -2   6 1535.86 131.969   9
   6  -2   6 1355.16 130.734  26
  -6  -1  11 5370.07 223.074  22
  -6  -1  11 5834.46 199.767  11
  -6  -1  11 5400.44 211.877   9
  -6  -1  11 5355.36 197.387   8
   6  -1 -11 5515.07 223.150  23
  -6  -1  10 20055.9 394.328  22
  -6  -1  10 20774.5 368.645  11
  -6  -1  10 19896.8 376.906   9
  -6  -1  10 19938.2 355.902   8
   6  -1 -10 20879.3 387.547  23
  -6  -1   9 1159.24 114.493  22
  -6  -1   9 1150.84 91.0538  11
   6  -1  -9 1266.29 97.0059  19
  -6  -1   9 1123.23 103.828   9
  -6  -1   9 1129.24 83.4980   8
   6  -1  -9 1198.35 105.918  23
  -6  -1   8 363.153 87.3956  22
  -6  -1   8 428.505 63.1054  11
   6  -1  -8 393.165 86.8936  15
  -6  -1   8 358.688 83.3516   9
  -6  -1   8 293.754 50.8327   8
   6  -1  -8 320.062 69.4922  23
  -6  -1   7 16332.9 309.219  22
  -6  -1   7 16626.9 291.139  11
   6  -1  -7 16590.5 308.236  15
   6  -1  -7 16835.7 282.744  23
  -6  -1   6 1497.33 102.319  22
   6  -1  -6 1718.45 216.897  20
  -6  -1   6 1592.13 242.980   2
   6  -1  -6 1765.51 88.0003  23
  -6  -1   5 16410.8 290.321  22
   6  -1  -5 17706.6 625.184  20
  -6  -1   5 17658.1 627.697   1
   6  -1  -5 16702.3 244.545  23
   6  -1  -5 16286.4 687.537  13
  -6  -1   5 16496.5 672.733   2
  -6  -1   4 29887.1 391.673  22
  -6  -1   4 31382.5 884.330   2
   6  -1  -4 31545.7 757.048  20
  -6  -1   4 31865.0 796.653   1
   6  -1  -4 31528.1 917.440  13
  -6  -1   3 33932.6 417.488  22
  -6  -1   3 34306.5 883.971   2
   6  -1  -3 35716.6 710.408  20
   6  -1  -3 33280.0 913.160  13
  -6  -1   2 1549.67 101.177  22
   6  -1  -2 1545.46 204.984  12
   6  -1  -2 1729.28 130.535  20
  -6  -1   2 1634.85 188.649   2
   6  -1  -2 1658.84 197.489  13
   6  -1  -1 5698.86 371.203  12
   6  -1  -1 4923.99 131.060  20
   6  -1  -1 4838.32 130.447  20
   6  -1  -1 4851.88 359.161   3
  -6  -1   1 5376.76 319.017   2
   6  -1  -1 5264.69 328.768  13
  -6  -1   1 4967.84 158.619  22
   6  -1   0 20948.7 706.281  12
   6  -1   0 21522.6 759.951   3
  -6  -1   0 22357.0 632.996   2
   6  -1   0 21410.2 609.099  13
  -6  -1   0 21857.9 336.600  22
   6  -1   1 7178.71 452.985   3
   6  -1   1 6158.74 385.355  12
   6  -1   1 6674.61 175.631   6
  -6  -1  -1 6932.06 338.981   2
   6  -1   1 6707.49 176.957   9
   6  -1   1 6582.48 180.902  26
  -6  -1  -1 6880.31 190.493  22
   6  -1   2 3957.60 149.358  26
   6  -1   2 4216.89 149.290   6
   6  -1   2 3814.91 301.200  12
   6  -1   2 4173.30 146.976   9
  -6  -1  -2 3689.56 289.193   1
   6  -1   3 1022.56 89.6493   6
   6  -1   3 1049.67 77.8155  17
   6  -1   3 1136.23 91.0715   9
   6  -1   3 981.960 88.5890  26
   6  -1   4 3089.86 146.524   6
   6  -1   4 3013.45 126.948  17
   6  -1   4 2967.67 142.962   9
   6  -1   4 2952.17 146.174  26
   6  -1   5 4730.42 188.413   6
   6  -1   5 4789.73 187.884   9
   6  -1   5 4779.57 195.720  26
   6  -1   6 17924.5 370.873   6
   6  -1   6 17371.5 375.227   9
   6  -1   6 17447.0 388.755  26
  -6   0  11 9303.64 284.607  22
  -6   0  11 10183.1 258.696  11
  -6   0  11 10090.6 273.429   9
   6   0 -11 9501.39 293.721  15
  -6   0  11 9595.38 260.447   8
   6   0 -11 10236.8 289.288  23
  -6   0  10 7478.22 247.193  22
  -6   0  10 7943.66 220.567  11
  -6   0  10 7650.32 229.441   9
   6   0 -10 7784.14 256.740  15
  -6   0  10 7859.13 221.553   8
   6   0 -10 8296.63 244.640  23
  -6   0   9 3515.96 168.121  22
  -6   0   9 3533.21 142.727  11
  -6   0   9 3718.29 158.019   9
   6   0  -9 3346.36 166.597  15
  -6   0   9 3454.46 139.351   8
   6   0  -9 3439.60 152.282  23
  -6   0   8 2547.44 137.293  22
  -6   0   8 3035.31 128.139  11
  -6   0   8 3366.97 142.503   9
   6   0  -8 2757.52 146.990  15
  -6   0   8 3058.39 122.268   8
   6   0  -8 3045.24 133.644  23
  -6   0   7 1460.57 110.331  22
  -6   0   7 1413.74 89.0066  11
   6   0  -7 1595.49 107.690  15
   6   0  -7 1556.15 93.5287  23
  -6   0   6 550.291 92.5950  22
   6   0  -6 672.696 165.388  20
  -6   0   6 496.611 172.670   2
   6   0  -6 581.260 159.059  13
  -6   0   5 14782.0 269.849  22
  -6   0   5 13314.1 602.745   2
   6   0  -5 13475.9 567.169  20
  -6   0   5 14068.4 577.638   1
   6   0  -5 13699.7 630.072  13
  -6   0   4 13111.2 246.090  22
  -6   0   4 13477.3 577.002   2
   6   0  -4 14286.1 615.643  13
  -6   0   3 24328.6 339.421  22
  -6   0   3 23459.9 736.505   2
   6   0  -3 24005.0 764.968  13
  -6   0   2 78.8440 63.9805  22
   6   0  -2 2.70272 69.3745  12
   6   0  -2 156.087 122.079   3
  -6   0   2 56.3873 68.9273   2
   6   0  -2 35.2453 78.5685  13
  -6   0   1 491.994 76.4774  22
   6   0  -1 288.166 103.294  12
   6   0  -1 315.608 57.6231  20
   6   0  -1 456.853 140.647   3
  -6   0   1 299.289 85.8761   2
   6   0  -1 349.954 96.0185  13
   6   0   0 13477.0 551.326  12
   6   0   0 14364.3 591.587   3
  -6   0   0 14846.8 539.114   2
   6   0   0 14458.6 493.013  13
  -6   0   0 14662.9 263.856  22
   6   0   1 48260.3 1139.12   3
   6   0   1 46521.3 1024.66  12
  -6   0  -1 47714.8 529.605  22
  -6   0  -1 47678.2 1036.63  12
  -6   0  -2 462.925 114.315  12
   6   0   2 521.005 66.9867   6
   6   0   2 466.284 61.3174  17
   6   0   2 526.796 69.9237   9
   6   0   2 539.038 67.0675  26
  -6   0  -2 666.474 78.0914  22
  -6   0  -3 408.960 129.127   1
   6   0   3 375.045 69.3349   6
   6   0   3 306.700 52.4452  17
   6   0   3 377.350 66.0879   9
   6   0   3 382.371 66.4932  26
   6   0   4 786.931 87.3954   6
   6   0   4 937.025 78.4687  17
   6   0   4 671.943 80.1749   9
   6   0   4 861.891 90.2994  26
   6   0   5 1839.13 126.329   6
   6   0   5 1870.31 109.213  17
   6   0   5 1973.05 131.854   9
   6   0   5 1894.87 132.959  26
   6   0   6 3235.41 165.952   6
   6   0   6 3371.55 167.711   9
   6   0   6 3186.54 178.899  26
  -6   1  11 5169.67 221.358  22
  -6   1  11 5724.86 192.338  11
  -6   1  11 5314.64 199.177   8
  -6   1  11 5373.18 202.715   9
   6   1 -11 5092.92 221.696  15
  -6   1  10 20031.9 397.608  22
  -6   1  10 21302.0 361.314  11
  -6   1  10 20101.2 366.954   9
   6   1 -10 20476.1 406.627  15
  -6   1  10 20684.1 368.060   8
  -6   1   9 1330.40 120.905  22
  -6   1   9 1349.61 93.6731  11
  -6   1   9 1209.33 102.575   9
   6   1  -9 1237.84 119.779  15
  -6   1   9 1259.25 94.3480   8
  -6   1   8 358.273 86.5279  22
  -6   1   8 341.513 57.5251  11
   6   1  -8 413.329 86.7571  15
  -6   1   8 486.508 77.7230   9
  -6   1   8 369.078 59.9953   8
  -6   1   7 15914.4 306.184  22
  -6   1   7 16775.3 287.135  11
   6   1  -7 16211.3 309.873  15
  -6   1   6 1716.87 107.887  22
  -6   1   6 1637.55 234.503   2
   6   1  -6 1692.93 84.8077  23
  -6   1   5 16401.0 283.155  22
  -6   1   5 15962.9 665.313   2
   6   1  -5 16795.3 695.017  13
  -6   1   4 31901.2 399.567  22
  -6   1   4 31327.7 901.481   2
   6   1  -4 31366.9 915.582  13
  -6   1   3 34037.3 409.051  22
   6   1  -3 34939.2 933.626  12
  -6   1   3 33451.2 902.238   2
  -6   1   3 36147.6 413.885  24
   6   1  -3 34360.1 921.581  13
  -6   1   2 1698.14 100.043  22
   6   1  -2 1585.51 201.474  12
  -6   1   2 1605.07 196.203   2
   6   1  -2 1531.94 193.522  13
  -6   1   1 5636.93 161.294  22
   6   1  -1 5364.00 340.160  12
   6   1  -1 4964.77 325.229   3
   6   1  -1 5723.44 250.170  20
   6   1  -1 5436.89 330.084  13
  -6   1   0 21550.3 723.163  12
   6   1   0 21579.0 669.677  12
   6   1   0 22181.8 706.575   3
   6   1   0 21401.4 608.298  13
  -6   1   0 20606.8 312.876  22
  -6   1  -1 6927.47 406.960  12
   6   1   1 6596.76 404.457   3
   6   1   1 6751.23 176.869   6
   6   1   1 6432.47 357.927  12
  -6   1  -1 6808.10 177.907  22
  -6   1  -2 4495.24 329.436  12
   6   1   2 3998.62 147.446   6
   6   1   2 4229.94 145.748  17
   6   1   2 3966.44 146.707   9
   6   1   2 4217.01 151.421  26
  -6   1  -2 3963.82 150.247  22
   6   1   3 924.011 87.7283   6
   6   1   3 939.320 78.7775  17
   6   1   3 923.257 84.6314   9
   6   1   3 1052.58 91.1667  26
   6   1   3 1044.68 75.8758   7
   6   1   4 2819.57 143.181  26
   6   1   4 3130.95 145.757   6
   6   1   4 2977.86 133.564  17
   6   1   4 2905.54 140.741   9
   6   1   4 3139.32 131.988   7
   6   1   5 4738.87 185.482   6
   6   1   5 5008.51 175.066  17
   6   1   5 4884.92 188.680   9
   6   1   5 5034.46 199.978  26
   6   1   5 4872.90 178.497   7
   6   1   6 17086.0 361.388   6
   6   1   6 17131.7 338.068  17
   6   1   6 17235.5 366.573   9
   6   1   6 17323.8 389.074  26
  -6   2  11 157.805 97.8044  22
  -6   2  11 340.097 64.6789  11
   6   2 -11 229.169 114.588  15
  -6   2  11 259.427 83.3303   9
  -6   2  11 154.090 75.7817   8
  -6   2  10 208.015 64.6889   8
  -6   2  10 193.512 97.5355  22
  -6   2  10 238.069 58.0733  11
   6   2 -10 328.918 104.360  15
  -6   2  10 303.103 83.1214   9
  -6   2   9 1471.83 124.718  22
  -6   2   9 1773.89 102.530  11
  -6   2   9 1707.31 113.387   9
   6   2  -9 1509.67 129.303  15
  -6   2   9 1719.94 108.438   8
  -6   2   8 609.662 94.9312  22
  -6   2   8 608.532 66.4622  11
   6   2  -8 573.260 96.1915  15
  -6   2   8 647.381 80.2335   9
  -6   2   8 570.279 69.2007   8
  -6   2   7 7397.51 210.472  22
  -6   2   7 7182.29 184.238  11
   6   2  -7 7180.69 211.662  15
  -6   2   7 6992.82 189.154   8
  -6   2   7 7701.77 182.488  24
  -6   2   6 3146.56 136.968  22
   6   2  -6 3227.10 138.722  15
  -6   2   6 3409.12 124.658  24
  -6   2   5 9999.34 224.973  22
  -6   2   5 10779.3 550.377   2
  -6   2   5 10027.3 217.283  24
   6   2  -5 10804.9 565.948  13
  -6   2   4 30606.1 390.229  22
  -6   2   4 31080.2 915.364   2
  -6   2   4 30593.4 389.950  24
   6   2  -4 31623.2 929.948  13
   6   2  -3 12609.2 560.744  12
  -6   2   3 13091.9 234.143  22
  -6   2   3 13087.6 571.651   2
  -6   2   3 13235.1 248.120  24
   6   2  -3 13248.4 577.572  13
  -6   2   2 24457.0 327.113  22
   6   2  -2 24036.3 745.865  12
   6   2  -2 23740.1 313.039  14
   6   2  -2 24329.5 747.640  13
  -6   2   2 23340.9 790.846  12
  -6   2   1 4506.30 154.077  22
  -6   2   1 4487.96 352.882  12
   6   2  -1 4221.85 305.640  12
   6   2  -1 4035.51 281.370   3
   6   2  -1 4426.44 251.296  20
   6   2  -1 4189.27 130.562  14
   6   2  -1 4393.78 304.393  13
  -6   2   0 13634.1 594.585  12
   6   2   0 13034.2 501.310  12
   6   2   0 12798.8 505.841   3
   6   2   0 12712.4 410.857  20
   6   2   0 13472.4 494.451  13
  -6   2   0 13469.9 246.682  22
  -6   2  -1 10115.1 514.801  12
   6   2   1 9605.74 215.221   6
   6   2   1 9300.48 411.341  12
   6   2   1 9726.73 217.688  17
  -6   2  -1 9563.64 207.297  22
  -6   2  -2 2295.02 253.377  12
   6   2   2 2136.04 111.896   6
   6   2   2 2039.66 107.887  17
   6   2   2 2142.68 113.702   9
   6   2   2 2221.19 113.567  26
  -6   2  -2 2221.34 117.044  22
   6   2   3 10322.9 249.590  26
   6   2   3 10197.0 244.067   6
   6   2   3 10115.0 239.497  17
   6   2   3 10401.4 243.076   9
   6   2   3 10351.7 221.853   7
  -6   2  -3 10140.8 235.579  22
   6   2   4 972.756 92.9399   6
   6   2   4 1023.10 88.1647  17
   6   2   4 973.388 93.2789   9
   6   2   4 987.842 96.9769  26
   6   2   4 1108.08 90.6882   7
   6   2   5 212.516 73.2039   6
   6   2   5 199.197 59.3602  17
   6   2   5 90.0223 65.6920   9
   6   2   5 131.279 78.4018  26
   6   2   5 244.942 72.9777   7
   6   2   6 1716.60 128.735   7
   6   2   6 1434.58 139.377  26
   6   2   6 1463.19 120.241   6
   6   2   6 1463.30 112.071  17
   6   2   6 1507.35 122.714   9
  -6   3  11 1639.02 105.313  11
  -6   3  11 1558.98 106.556  10
  -6   3  11 1555.53 117.071   9
   6   3 -11 1602.72 147.996  15
  -6   3  11 1636.05 128.884   8
  -6   3  10 6045.21 225.836  22
  -6   3  10 6224.24 188.067  11
  -6   3  10 5953.49 179.437  10
  -6   3  10 5954.28 192.605   9
   6   3 -10 5981.68 229.628  15
  -6   3  10 6485.95 213.817   8
  -6   3   9 5063.43 197.481  22
  -6   3   9 5226.21 167.439  11
  -6   3   9 5007.13 153.626  10
  -6   3   9 4613.82 163.998   9
   6   3  -9 5415.82 201.707  15
  -6   3   9 5308.79 183.891   8
  -6   3   8 7248.02 216.283  22
  -6   3   8 7366.96 192.946  11
  -6   3   8 7717.71 196.942   9
  -6   3   8 7396.60 206.726   8
  -6   3   8 7194.34 192.427  24
  -6   3   7 4514.27 169.380  22
  -6   3   7 4200.79 143.404  11
   6   3  -7 4190.91 169.014  15
  -6   3   7 4428.44 154.358   8
  -6   3   7 4576.54 155.799  24
  -6   3   6 31742.8 426.882  22
  -6   3   6 31135.1 399.929  11
   6   3  -6 30827.4 422.269  15
  -6   3   6 32122.0 406.565  24
  -6   3   5 2729.77 131.141  22
  -6   3   5 2668.14 288.943   2
  -6   3   5 2637.26 123.393  24
   6   3  -5 2708.15 296.082  13
  -6   3   4 33689.8 410.871  22
  -6   3   4 35382.0 999.032   2
  -6   3   4 32251.0 417.394  24
   6   3  -4 34444.9 993.460  13
  -6   3   3 11108.9 218.931  22
   6   3  -3 10127.9 194.587  14
  -6   3   3 11710.3 251.233  24
   6   3  -3 9907.94 510.879  13
  -6   3   3 9776.90 535.753  12
  -6   3   2 3500.75 329.390  12
   6   3  -2 3714.87 294.176  12
  -6   3   2 3832.01 133.206  22
   6   3  -2 3712.16 121.122  14
  -6   3   2 4221.74 158.410  24
   6   3  -2 3512.85 300.474  13
  -6   3   1 7366.40 177.328  22
  -6   3   1 6516.04 429.817  12
   6   3  -1 6342.13 368.090  12
   6   3  -1 6466.39 325.730   3
   6   3  -1 6412.74 333.103  20
   6   3  -1 6569.70 167.951  14
   6   3  -1 6827.99 388.451  13
  -6   3   0 1113.50 83.6549  22
  -6   3   0 1327.78 205.823  12
   6   3   0 967.835 141.401  12
   6   3   0 1073.39 144.214  20
   6   3   0 931.208 139.335   3
   6   3   0 1000.16 76.3622  14
   6   3   0 1006.53 149.485  13
  -6   3  -1 5242.50 392.825  12
   6   3   1 5215.55 161.160   6
   6   3   1 5102.10 160.655  17
   6   3   1 4931.26 159.610  14
  -6   3  -1 4655.04 143.874  22
  -6   3  -2 7485.74 475.537  12
   6   3   2 6934.51 193.270   6
   6   3   2 7097.18 195.894  17
   6   3   2 6740.32 189.899   9
   6   3   2 7045.24 187.152  15
   6   3   2 6906.79 192.201  26
  -6   3  -2 6398.73 173.879  22
   6   3   3 7464.73 211.413   6
   6   3   3 7110.73 178.154  18
   6   3   3 7380.11 210.398  17
   6   3   3 7180.18 203.923   9
   6   3   3 7333.12 211.214  26
   6   3   3 7688.41 194.869   7
  -6   3  -3 7119.04 192.485  22
   6   3   4 2128.68 126.368   6
   6   3   4 2152.17 121.621  17
   6   3   4 2194.03 125.881   9
   6   3   4 2112.99 128.228  26
   6   3   4 2310.19 120.035   7
  -6   3  -4 2052.23 114.455  22
   6   3   5 3311.25 159.817   6
   6   3   5 3381.76 154.911  17
   6   3   5 3405.62 158.208   9
   6   3   5 3308.35 168.766  26
   6   3   5 3396.77 156.061   7
   6   3   6 569.699 92.1370   6
   6   3   6 544.140 87.1678  17
   6   3   6 412.615 83.5408   9
   6   3   6 595.797 115.329  26
   6   3   6 543.941 90.9738   7
  -6   4  11 3037.62 146.746  10
   6   4 -11 3135.71 188.381  15
  -6   4  11 3188.20 166.857   8
  -6   4  10 2364.11 158.643  22
  -6   4  10 2195.65 115.132  11
  -6   4  10 2201.21 118.223  10
   6   4 -10 2088.62 157.834  15
  -6   4  10 2240.86 135.621   8
  -6   4   9 2074.56 140.880  22
  -6   4   9 2154.30 111.410  11
  -6   4   9 2139.60 108.346  10
  -6   4   9 2131.13 116.419   9
   6   4  -9 2184.36 142.943  15
  -6   4   9 2294.51 130.064   8
  -6   4   9 1957.20 124.250  24
  -6   4   8 2451.18 139.958  22
  -6   4   8 2294.70 111.482  11
  -6   4   8 2254.81 104.447  10
   6   4  -8 2111.28 136.998  15
  -6   4   8 2199.00 108.778   9
  -6   4   8 2149.43 120.074   8
  -6   4   8 2261.78 121.553  24
  -6   4   7 1967.72 122.112  22
  -6   4   7 2084.16 104.152  11
   6   4  -7 1926.36 120.000  18
   6   4  -7 1990.61 123.830  15
  -6   4   7 1870.08 109.399   8
  -6   4   6 15711.3 292.638  22
  -6   4   6 15974.6 277.723  11
   6   4  -6 16012.5 283.529  18
   6   4  -6 15798.2 295.529  15
  -6   4   6 15514.4 292.070  24
  -6   4   5 5781.22 168.082  22
   6   4  -5 5400.91 166.300  15
   6   4  -5 5437.34 139.288  14
  -6   4   5 5624.22 176.595  24
  -6   4   4 82300.6 731.217  22
   6   4  -4 82370.6 704.655  14
  -6   4   4 83390.1 1620.27   2
  -6   4   4 86829.0 786.169  24
   6   4  -4 84510.5 1638.77  13
  -6   4   3 22119.1 824.217  12
  -6   4   3 22932.7 316.187  22
   6   4  -3 21252.1 719.004   2
   6   4  -3 22164.6 312.853  14
   6   4  -3 21909.3 786.932  13
   6   4  -2 46231.7 1047.75  12
  -6   4   2 45989.8 1185.62  12
  -6   4   2 44985.9 464.201  22
   6   4  -2 45203.1 485.644  14
  -6   4   2 46427.8 541.254  24
   6   4  -2 47313.0 1119.32  13
  -6   4   1 4101.89 130.479  22
   6   4  -1 4371.45 304.081  12
  -6   4   1 4523.83 372.603  12
   6   4  -1 4639.43 313.027  20
   6   4  -1 4427.84 142.168  14
  -6   4   1 3925.32 160.018  24
   6   4  -1 4377.80 324.518  13
  -6   4   0 17166.9 269.773  22
  -6   4   0 18893.2 764.966  12
   6   4   0 17840.5 298.874   6
   6   4   0 17977.7 575.414  12
   6   4   0 17974.2 605.037  20
   6   4   0 17831.5 303.195  14
   6   4   0 18274.7 305.093  17
   6   4   0 17638.9 292.978  15
   6   4   0 18834.0 640.525  13
   6   4   1 2478.88 119.122   6
   6   4   1 2358.22 117.585  17
   6   4   1 2447.21 115.666  15
   6   4   1 2535.17 119.716  14
  -6   4  -1 2517.18 109.261  22
   6   4   2 2844.59 131.237   6
   6   4   2 2820.99 129.442  17
   6   4   2 2741.48 135.577   9
   6   4   2 2951.19 128.993  15
   6   4   2 2882.69 127.710  26
   6   4   2 2856.48 132.647  14
   6   4   2 2934.40 115.748   7
   6   4   3 2946.82 141.307   6
   6   4   3 2876.33 121.915  18
   6   4   3 2790.27 134.278  17
   6   4   3 2857.27 139.350   9
   6   4   3 2907.85 136.732  26
   6   4   3 2974.84 126.426   7
   6   4   4 63.5509 60.2541   6
   6   4   4 50.8782 48.7706  18
   6   4   4 76.4543 57.8159  17
   6   4   4 183.688 69.6321   9
   6   4   4 61.4443 67.0456  26
   6   4   4 96.8305 60.2682   7
   6   4   5 912.233 102.964   6
   6   4   5 830.722 94.1986  17
   6   4   5 923.997 99.0066   9
   6   4   5 938.665 112.500  26
   6   4   5 943.916 101.185   7
  -6   5  10 4542.60 169.324  10
   6   5 -10 4472.62 201.218  15
  -6   5  10 4713.86 192.456   8
  -6   5  10 4202.30 184.885  24
  -6   5   9 982.769 111.554  22
  -6   5   9 937.136 79.3448  11
  -6   5   9 940.551 85.2154  10
   6   5  -9 971.742 116.492  15
  -6   5   9 928.640 100.592   8
  -6   5   9 949.434 108.603  24
  -6   5   8 8480.53 238.031  22
  -6   5   8 8647.17 212.533  11
   6   5  -8 8965.53 246.211  18
  -6   5   8 8456.12 205.651  10
   6   5  -8 8537.65 241.244  15
  -6   5   8 8516.77 234.446   8
  -6   5   8 8249.12 226.460  24
  -6   5   7 7179.17 206.531  22
  -6   5   7 7200.99 188.905  11
   6   5  -7 7353.82 211.286  18
  -6   5   7 7304.67 181.240  10
   6   5  -7 7427.38 213.481  15
  -6   5   7 6614.32 199.705   8
  -6   5   7 6398.14 198.427  24
  -6   5   6 46242.2 540.966  22
  -6   5   6 46157.8 520.038  11
   6   5  -6 46735.6 537.696  18
   6   5  -6 47088.1 549.675  15
   6   5  -6 46258.7 479.711  14
  -6   5   6 47712.5 568.996  24
  -6   5   5 21310.0 328.173  22
  -6   5   5 20024.8 316.112  11
   6   5  -5 20738.2 322.088  18
   6   5  -5 20668.6 333.923  15
   6   5  -5 20545.2 299.141  14
  -6   5   4 23276.9 330.831  22
  -6   5   4 22692.8 332.817  11
   6   5  -4 22324.7 342.479  15
   6   5  -4 22676.0 320.634  14
  -6   5   4 23105.5 370.893  24
  -6   5   3 31698.4 378.349  22
  -6   5   3 30869.6 393.449  11
   6   5  -3 30218.1 865.185   2
   6   5  -3 30459.6 401.199  15
   6   5  -3 30503.0 390.479  14
  -6   5   3 32173.7 444.034  24
   6   5  -3 30367.7 962.186  13
   6   5  -2 2707.66 270.467  20
  -6   5   2 2765.61 113.765  11
   6   5  -2 2953.36 122.927  15
   6   5  -2 2799.04 117.748  14
  -6   5   2 2810.79 143.866  24
   6   5  -2 2782.89 284.379  13
   6   5  -1 8648.24 430.054  12
   6   5  -1 7870.31 437.549  20
   6   5  -1 8759.19 206.529  17
   6   5  -1 8715.98 206.047  15
   6   5  -1 8713.08 208.439  14
  -6   5   1 8480.08 227.087  24
   6   5  -1 8486.23 472.231  13
   6   5   0 7236.14 193.824   6
   6   5   0 6800.62 402.504  20
   6   5   0 7454.79 197.137  17
   6   5   0 7620.61 196.720  15
  -6   5   0 7394.70 222.267  24
   6   5   0 7403.69 422.475  13
   6   5   0 7289.08 196.135  14
   6   5   1 13195.7 271.339   6
   6   5   1 13166.3 248.026  18
   6   5   1 13458.5 275.357  17
   6   5   1 13380.4 271.205  15
   6   5   1 13380.5 273.780  14
   6   5   2 15627.8 305.910   6
   6   5   2 15607.8 282.537  18
   6   5   2 15546.0 308.624  17
   6   5   2 15791.7 303.568  15
   6   5   2 15611.5 294.170  26
   6   5   2 15736.7 309.881  14
   6   5   2 15613.0 277.611   7
   6   5   3 267.892 68.7137   6
   6   5   3 361.963 63.4421  18
   6   5   3 291.702 77.9513   9
   6   5   3 347.807 70.5929  17
   6   5   3 344.692 68.9833  26
   6   5   3 354.001 64.6263   7
   6   5   4 4203.52 177.356   6
   6   5   4 4210.67 160.293  18
   6   5   4 4340.73 177.696  17
   6   5   4 4064.89 168.573   9
   6   5   4 4256.09 178.761  26
   6   5   4 4404.87 169.293   7
   6   5   5 2781.92 153.466   6
   6   5   5 2833.39 154.995  17
   6   5   5 2742.68 150.574   9
   6   5   5 2992.17 169.356  26
   6   5   5 2946.09 151.680   7
  -6   6  10 1727.16 131.632   8
   6   6 -10 1742.74 162.936  18
  -6   6  10 1702.94 116.278  10
   6   6 -10 1891.71 145.161  15
  -6   6  10 1496.94 139.294  24
  -6   6   9 2321.32 150.941  22
  -6   6   9 2331.60 116.245  11
   6   6  -9 2195.62 162.584  18
  -6   6   9 2124.19 120.703  10
   6   6  -9 2235.10 149.378  15
  -6   6   9 2187.90 138.555   8
  -6   6   9 2083.02 150.721  24
  -6   6   8 6094.99 203.062  22
  -6   6   8 5559.21 171.676  11
   6   6  -8 5440.52 206.187  18
  -6   6   8 5632.32 177.826  10
   6   6  -8 5634.26 198.276  15
  -6   6   8 5583.61 198.538   8
  -6   6   8 5336.97 196.866  24
  -6   6   7 662.291 88.0493  22
  -6   6   7 699.715 71.7858  11
   6   6  -7 714.446 101.105  18
  -6   6   7 618.067 72.6330  10
   6   6  -7 669.436 88.7666  15
  -6   6   7 651.741 97.2194  24
  -6   6   6 22268.2 351.491  22
  -6   6   6 22332.2 344.472  11
   6   6  -6 21976.6 361.623  18
   6   6  -6 21577.6 364.878  15
   6   6  -6 22484.6 324.725  14
  -6   6   6 21119.5 369.785  24
  -6   6   5 5736.73 170.871  22
  -6   6   5 5727.36 168.628  11
   6   6  -5 5762.68 181.699  18
   6   6  -5 5532.53 180.434  15
   6   6  -5 5821.26 161.510  14
  -6   6   5 5932.85 209.928  24
  -6   6   4 62080.0 597.665  22
  -6   6   4 60550.5 619.681  11
   6   6  -4 60924.9 620.230  18
   6   6  -4 61096.9 636.428  15
   6   6  -4 61846.4 615.364  14
  -6   6   4 61263.2 674.536  24
  -6   6   3 3562.47 123.272  22
  -6   6   3 3821.33 137.148  11
   6   6  -3 3769.33 135.618  18
   6   6  -3 3670.73 142.237  15
   6   6  -3 3620.15 135.931  14
  -6   6   3 3768.55 167.021  24
  -6   6   2 2771.60 117.726  11
   6   6  -2 2639.10 113.271  18
   6   6  -2 2781.02 117.098  17
   6   6  -2 2523.87 243.247   2
   6   6  -2 2604.27 121.129  15
   6   6  -2 2579.60 120.662  14
  -6   6   2 2585.35 147.844  24
   6   6  -2 2730.50 291.820  13
   6   6  -1 9685.68 210.746  18
   6   6  -1 9771.41 224.532  17
   6   6  -1 9808.49 226.175  15
   6   6  -1 9473.22 225.618  14
  -6   6   1 9015.99 246.117  24
   6   6  -1 9847.12 529.349  13
   6   6   0 23584.6 347.133  18
   6   6   0 23147.8 371.191  17
   6   6   0 23683.7 368.430  15
   6   6   0 23064.2 371.334  14
  -6   6   0 24370.9 410.531  24
   6   6   0 24246.7 810.138  13
   6   6   1 6579.04 181.099  18
   6   6   1 6246.51 193.913  17
   6   6   1 6326.21 191.496  15
   6   6   1 6295.37 172.278  26
   6   6   1 6289.86 194.444  14
  -6   6  -1 7038.21 228.788  24
   6   6   1 6303.87 171.155   7
   6   6   2 5192.83 168.387  18
   6   6   2 5065.95 180.218  17
   6   6   2 4984.25 177.457  15
   6   6   2 5239.16 169.807  26
   6   6   2 4928.23 179.984  14
  -6   6  -2 4595.03 197.606  24
   6   6   2 5074.78 163.441   7
   6   6   3 1402.70 101.741  18
   6   6   3 1771.01 123.277  17
   6   6   3 1650.82 114.945  26
   6   6   3 1440.39 109.521  14
   6   6   3 1576.25 104.046   7
   6   6   4 8898.45 241.703  18
   6   6   4 8863.95 260.350  17
   6   6   4 9068.70 258.437  26
   6   6   4 8684.82 239.301   7
   6   6   5 3959.51 177.119  18
   6   6   5 4164.47 193.314  17
   6   6   5 3908.94 173.909   9
   6   6   5 4169.29 198.795  26
   6   6   5 4370.34 184.107   7
   6   7 -10 2664.60 187.790  18
  -6   7  10 2405.08 140.106  10
   6   7 -10 2294.10 157.331  15
  -6   7  10 2574.45 157.784   8
   6   7  -9 10506.7 300.560  18
  -6   7   9 10279.8 262.111  10
   6   7  -9 10429.7 279.259  15
  -6   7   9 10994.0 290.107   8
  -6   7   9 10055.5 290.471  24
  -6   7   8 3727.44 164.889  22
  -6   7   8 3464.38 139.663  11
   6   7  -8 3674.62 182.708  18
  -6   7   8 3592.14 150.912  10
   6   7  -8 3606.22 168.652  15
  -6   7   8 3659.94 168.206   8
  -6   7   8 3518.47 175.566  24
  -6   7   7 1862.39 118.891  22
  -6   7   7 1871.67 105.698  11
   6   7  -7 1834.15 133.210  18
  -6   7   7 1891.58 113.214  10
   6   7  -7 1838.86 126.080  15
  -6   7   7 1786.24 135.929  24
  -6   7   6 6561.11 188.453  22
  -6   7   6 6654.35 186.701  11
   6   7  -6 6518.01 207.029  18
   6   7  -6 6306.58 202.131  15
   6   7  -6 6597.12 179.481  14
  -6   7   6 6343.53 214.163  24
  -6   7   5 3437.35 136.686  11
   6   7  -5 3572.30 156.393  18
   6   7  -5 3472.27 150.752  15
   6   7  -5 3707.01 138.317  14
  -6   7   4 19560.7 323.402  11
   6   7  -4 19164.8 330.303  18
   6   7  -4 19438.4 333.829  15
   6   7  -4 19998.4 327.864  14
  -6   7   4 19584.8 369.631  24
  -6   7   3 2144.96 108.602  11
   6   7  -3 2261.93 115.232  18
   6   7  -3 2193.82 103.897  17
   6   7  -3 2169.14 116.821  15
   6   7  -3 2336.94 116.520  14
  -6   7   3 2462.36 161.329  24
  -6   7   2 5095.64 162.989  11
   6   7  -2 5078.39 161.822  18
   6   7  -2 4992.98 159.586  17
   6   7  -2 4991.16 168.308  15
   6   7  -2 5221.98 170.925  14
  -6   7   2 4917.67 213.445  24
   6   7  -1 423.604 63.0532  18
   6   7  -1 432.327 61.0012  17
   6   7  -1 334.932 65.4052  15
   6   7  -1 410.168 72.3901  14
  -6   7   1 212.705 105.167  24
   6   7   0 16847.1 304.148  18
   6   7   0 16695.6 317.012  17
   6   7   0 16240.0 313.429  15
  -6   7   0 16977.8 288.042  27
   6   7   0 16666.2 320.317  14
  -6   7   0 16890.7 349.827  24
   6   7   0 16668.2 283.342   7
   6   7   1 3440.86 143.205  18
   6   7   1 3435.68 151.598  17
   6   7   1 3440.84 149.586  15
  -6   7  -1 3407.44 131.700  27
   6   7   1 3463.78 151.236  14
  -6   7  -1 3248.25 177.228  24
   6   7   1 3341.05 134.279   7
   6   7   2 565.550 73.0690   7
   6   7   2 527.079 71.8220  18
   6   7   2 565.372 82.3546  17
   6   7   2 597.427 87.3261  15
  -6   7  -2 564.929 70.3763  27
   6   7   2 550.090 75.1680  26
   6   7   2 532.605 80.9378  14
  -6   7  -2 408.332 112.774  24
   6   7   3 2412.54 132.509  18
   6   7   3 2656.78 147.488  17
  -6   7  -3 2639.29 124.949  27
   6   7   3 2666.37 142.851  26
   6   7   3 2421.37 141.252  14
  -6   7  -3 3029.37 183.448  24
   6   7   3 2598.49 135.339   7
   6   7   4 4133.97 174.522  18
   6   7   4 4068.63 188.764  17
   6   7   4 3873.56 181.167  26
   6   7   4 3837.26 176.561  14
  -6   7  -4 4058.25 209.236  24
   6   7   4 3850.56 171.000   7
   6   8  -9 4595.50 218.764  18
  -6   8   9 4535.93 182.910  10
   6   8  -9 4427.58 193.358  15
  -6   8   9 4389.85 196.847   8
  -6   8   9 4090.58 204.937  24
  -6   8   8 21656.8 358.827  11
   6   8  -8 21703.3 422.116  18
  -6   8   8 21813.5 387.914  10
   6   8  -8 22314.1 403.018  15
  -6   8   8 21687.1 410.751   8
  -6   8   8 20506.0 417.045  24
  -6   8   7 4451.05 166.770  22
  -6   8   7 4505.89 161.157  11
   6   8  -7 4417.15 195.901  18
  -6   8   7 4557.15 171.953  10
   6   8  -7 4697.49 185.227  15
   6   8  -7 4738.68 162.383  14
  -6   8   7 4702.42 208.987  24
  -6   8   6 5002.74 167.186  22
  -6   8   6 4988.86 168.117  11
   6   8  -6 4871.25 194.029  18
   6   8  -6 4866.75 182.049  15
   6   8  -6 5097.69 167.911  14
  -6   8   6 4610.94 204.351  24
  -6   8   5 3082.59 133.241  11
   6   8  -5 3128.52 153.556  18
   6   8  -5 3042.22 142.912  15
   6   8  -5 3043.48 136.549  14
  -6   8   5 2999.82 169.411  24
  -6   8   4 7028.55 195.749  11
   6   8  -4 6726.26 205.363  18
   6   8  -4 7088.03 179.771  17
   6   8  -4 6901.92 201.892  15
   6   8  -4 7066.17 200.934  14
  -6   8   4 6988.42 233.701  24
  -6   8   3 958.148 82.2445  11
   6   8  -3 867.684 89.1375  18
   6   8  -3 925.383 74.8184  17
   6   8  -3 1049.23 92.7614  15
   6   8  -3 950.613 88.0042  14
  -6   8   3 891.377 126.337  24
   6   8  -2 3011.23 134.081  18
   6   8  -2 3058.47 131.031  17
   6   8  -2 2941.67 137.466  15
   6   8  -2 2888.15 137.114  14
  -6   8   2 3334.77 183.484  24
   6   8  -2 2805.14 116.817   7
   6   8  -1 3018.49 134.849  18
   6   8  -1 2966.84 135.088  17
   6   8  -1 2873.06 137.680  15
   6   8  -1 2922.35 142.020  14
   6   8  -1 3013.21 123.159   7
   6   8   0 1259.20 95.6610  18
   6   8   0 1336.20 105.351  17
   6   8   0 1280.54 103.246  15
  -6   8   0 1281.70 94.8939  27
   6   8   0 1173.90 108.192  14
  -6   8   0 1383.31 144.220  24
   6   8   0 1379.60 96.3097   7
   6   8   1 723.922 84.4955  18
   6   8   1 653.794 85.1380  17
   6   8   1 886.599 96.0307  15
  -6   8  -1 775.988 82.7719  27
   6   8   1 706.521 91.0780  14
  -6   8  -1 921.363 134.269  24
   6   8   1 924.533 86.2334   7
   6   8   2 3245.86 151.132  18
   6   8   2 3141.59 158.017  17
  -6   8  -2 3229.97 140.797  27
   6   8   2 3229.73 160.988  14
  -6   8  -2 2669.01 184.877  24
   6   8   2 3136.23 142.980   7
   6   8   3 7444.93 233.510  18
   6   8   3 7759.53 250.091  17
  -6   8  -3 7440.41 214.800  27
   6   8   3 7317.01 224.103  26
   6   8   3 7407.97 239.106  14
   6   8   3 7635.39 225.561   7
   6   8   4 28553.3 489.933  14
   6   8   4 28984.1 478.259  18
   6   8   4 28698.5 505.079  17
  -6   8  -4 28923.0 451.122  27
   6   8   4 29400.4 481.603  26
   6   8   4 29874.4 476.383   7
   6   9  -8 1415.48 153.312  18
  -6   9   8 1293.30 114.117  10
   6   9  -8 1168.93 114.155  15
  -6   9   8 1309.86 127.910   8
  -6   9   8 1335.14 144.192  24
  -6   9   7 7489.76 208.315  11
   6   9  -7 7388.58 253.490  18
  -6   9   7 7236.95 224.576  10
   6   9  -7 7547.64 229.258  15
   6   9  -7 7578.33 215.725  14
  -6   9   7 7280.92 255.834  24
  -6   9   6 3200.61 140.260  11
   6   9  -6 3504.54 178.752  18
   6   9  -6 3449.94 157.602  15
   6   9  -6 3213.65 142.705  14
  -6   9   6 3375.20 187.494  24
  -6   9   5 1922.81 113.405  11
   6   9  -5 1832.37 137.289  18
   6   9  -5 1934.64 123.472  15
   6   9  -5 1804.32 111.799  14
  -6   9   5 1659.29 155.420  24
  -6   9   4 1344.76 98.8574  11
   6   9  -4 1493.12 116.402  18
   6   9  -4 1315.65 104.108  15
   6   9  -4 1380.87 103.196  14
  -6   9   4 1495.65 148.938  24
  -6   9   3 4048.65 156.752  11
   6   9  -3 4124.96 166.421  18
   6   9  -3 4099.39 149.084  17
   6   9  -3 4254.62 166.178  15
   6   9  -3 4086.32 165.914  14
  -6   9   3 3842.98 192.529  24
   6   9  -2 720.020 73.9002   7
   6   9  -2 661.554 81.8376  18
   6   9  -2 789.723 79.1448  17
   6   9  -2 779.793 87.2563  15
   6   9  -2 726.928 90.1714  14
  -6   9   2 968.875 144.336  24
   6   9  -1 2537.47 133.368  18
   6   9  -1 2482.91 131.078  17
   6   9  -1 2638.50 138.394  15
   6   9  -1 2532.31 138.705  14
  -6   9   1 2305.20 172.407  24
   6   9  -1 2317.72 122.418   7
   6   9   0 4555.85 174.936  18
   6   9   0 4610.29 178.366  17
   6   9   0 4601.28 181.182  15
  -6   9   0 4717.10 177.102  27
   6   9   0 4614.85 186.555  14
  -6   9   0 4614.28 225.406  24
   6   9   0 4805.70 169.517   7
   6   9   1 6506.41 213.302  18
   6   9   1 6445.45 218.536  17
   6   9   1 6536.88 217.379  15
  -6   9  -1 6742.15 206.927  27
   6   9   1 6235.40 216.231  14
   6   9   1 6534.20 202.472   7
   6   9   2 1249.47 110.796  18
   6   9   2 1197.52 118.216  17
  -6   9  -2 1329.25 107.523  27
   6   9   2 1004.39 106.907  14
  -6   9  -2 956.297 140.812  24
   6   9   2 1052.57 99.2870   7
   6   9   3 1637.16 124.765  18
   6   9   3 1776.22 147.903  17
  -6   9  -3 1645.11 122.356  27
   6   9   3 1417.67 123.985  14
  -6   9  -3 1475.41 153.397  24
   6   9   3 1741.48 123.953   7
  -6  10   7 68.8645 56.1860  11
   6  10  -7 169.248 113.575  18
  -6  10   7 23.7482 78.1400  10
   6  10  -7 86.6129 70.1793  15
   6  10  -7-3.54097 58.0273  14
  -6  10   7 144.668 109.977  24
  -6  10   6 665.133 81.1876  11
   6  10  -6 781.576 125.458  18
   6  10  -6 523.807 85.0336  15
   6  10  -6 582.794 80.1920  14
  -6  10   6 623.854 126.641  24
  -6  10   5 2848.87 137.949  11
   6  10  -5 2640.63 158.784  18
   6  10  -5 2815.64 145.093  15
   6  10  -5 2930.88 146.831  14
  -6  10   5 2631.43 174.198  24
  -6  10   4 1657.26 110.217  11
   6  10  -4 1441.72 120.529  18
   6  10  -4 1361.94 110.339  15
   6  10  -4 1411.30 112.178  14
  -6  10   4 1530.98 155.133  24
  -6  10   3 179.879 60.7118  11
   6  10  -3 178.451 74.4537  18
   6  10  -3 173.550 56.2624  17
   6  10  -3 131.910 69.9373  15
  -6  10   3 116.758 72.3984  14
   6  10  -3 104.824 67.7663  14
  -6  10   3 224.193 130.596  24
   6  10  -2 572.290 80.5213   7
   6  10  -2 652.434 90.2794  18
   6  10  -2 676.211 79.4371  17
   6  10  -2 625.971 88.3273  15
   6  10  -2 795.388 103.372  14
  -6  10   2 523.130 133.084  24
   6  10  -1 139.899 64.4114   7
   6  10  -1 233.619 74.5064  18
   6  10  -1 218.084 70.3181  17
   6  10  -1 196.055 70.9216  15
   6  10  -1 438.733 99.3736  14
  -6  10   1-71.3197 131.816  24
   6  10   0 4684.31 188.351  18
   6  10   0 4573.82 186.163  17
   6  10   0 4557.52 185.605  15
   6  10   0 4363.01 190.553  14
  -6  10   0 4411.07 232.653  24
   6  10   0 4597.62 176.389   7
   6  10   1 2435.54 144.632  18
   6  10   1 2549.81 157.287  17
   6  10   1 2407.56 146.185  15
  -6  10  -1 2481.30 141.982  27
   6  10   1 2269.46 146.320  14
  -6  10  -1 2056.92 179.692  24
   6  10   1 2372.00 138.065   7
   6  10   2 1121.69 115.929  18
   6  10   2 1215.44 133.856  17
  -6  10  -2 1219.72 115.980  27
   6  10   2 1222.77 124.205  14
  -6  10  -2 860.023 142.559  24
   6  10   2 1074.12 105.014   7
  -6  11   6 4212.82 168.059  11
   6  11  -6 3809.14 199.410  18
   6  11  -6 3839.87 171.360  15
   6  11  -6 3971.69 175.909  14
  -6  11   6 3829.10 208.981  24
  -6  11   5 406.558 76.0916  11
   6  11  -5 369.386 101.676  18
   6  11  -5 264.025 75.7029  15
   6  11  -5 268.418 71.1569  14
  -6  11   5 295.532 130.715  24
  -6  11   4 1751.01 116.452  11
   6  11  -4 1587.72 129.727  18
   6  11  -4 1634.36 118.157  15
   6  11  -4 1781.74 128.887  14
  -6  11   4 1546.68 160.492  24
  -6  11   3 278.651 70.9399  11
   6  11  -3 239.129 84.4606  18
   6  11  -3 192.344 69.8427  17
   6  11  -3 222.605 76.8087  15
  -6  11   3 287.015 79.1577  14
   6  11  -3 280.653 85.0092  14
  -6  11   3 262.307 136.633  24
   6  11  -2 70.1067 65.9546   7
   6  11  -2 87.6789 74.9243  18
   6  11  -2 167.960 72.8655  17
   6  11  -2 157.256 71.7265  15
  -6  11   2 102.732 84.7052  14
   6  11  -2 121.476 79.6964  14
  -6  11   2 16.1574 130.171  24
   6  11  -1 3592.35 173.653  18
   6  11  -1 3596.70 171.108  17
   6  11  -1 3526.56 169.219  15
   6  11  -1 3359.98 174.212  14
  -6  11   1 3056.44 201.730  24
   6  11  -1 3205.84 159.093   7
   6  11   0 5861.44 219.305  18
   6  11   0 6025.64 221.395  17
   6  11   0 6263.59 225.913  15
   6  11   0 6167.79 231.718  14
  -6  11   0 5319.69 242.880  24
   6  11   0 5918.79 208.763   7
   6  11   1 2073.90 144.320  18
   6  11   1 1992.49 146.183  14
   6  11   1 2027.11 150.453  17
  -6  11  -1 2136.26 144.524  27
  -6  11  -1 2011.63 184.845  24
   6  11   1 2224.15 143.584   7
  -6  12   4 2677.83 143.543  11
   6  12  -4 2527.99 160.881  18
   6  12  -4 2714.99 148.561  15
   6  12  -4 2527.08 154.767  14
  -6  12   4 2709.83 197.713  24
  -6  12   3 5694.02 206.389  11
   6  12  -3 5735.47 225.352  18
   6  12  -3 5708.06 208.128  15
  -6  12   3 6140.62 204.820  14
   6  12  -3 5451.26 222.254  14
   6  12  -2 1981.54 143.403  18
   6  12  -2 1821.37 128.290  17
   6  12  -2 2130.41 139.407  15
  -6  12   2 2099.62 142.041  14
   6  12  -2 1954.81 148.895  14
  -6  12   2 1953.87 183.519  24
   6  12  -2 2152.99 137.604   7
   6  12  -1 6419.05 238.760  18
   6  12  -1 6421.13 227.508  17
   6  12  -1 6925.48 236.327  15
  -6  12   1 6858.92 242.110  14
   6  12  -1 6555.71 246.260  14
  -6  12   1 6371.49 269.505  24
   6  12  -1 6250.71 225.071   7
   7 -11  -4 6207.19 220.745   4
   7 -11  -4 6859.10 238.990  19
   7 -11  -4 6595.52 226.235  16
  -7 -11   4 6712.14 239.474   5
   7 -11  -4 6849.15 242.278  23
  -7 -11   3 912.253 115.945  22
   7 -11  -3 987.382 92.1261   6
   7 -11  -3 1191.00 119.215  19
   7 -11  -3 1041.33 111.139  16
  -7 -11   3 776.199 132.111  16
  -7 -11   3 1008.72 119.219   5
   7 -11  -3 967.227 99.3252   4
   7 -11  -3 902.513 110.594  23
  -7 -11   2 3946.79 192.171  22
   7 -11  -2 3651.73 163.580   6
   7 -11  -2 3859.09 172.921  19
   7 -11  -2 3713.25 188.736  16
  -7 -11   2 3972.25 190.482   5
  -7 -11   2 3700.49 209.806  16
   7 -11  -2 3871.05 173.705   4
   7 -11  -2 4102.40 189.441  23
   7 -10  -6 1324.46 139.674  19
  -7 -10   6 1150.63 116.328   5
  -7 -10   6 1398.57 122.481   9
   7 -10  -6 1154.97 108.115   4
  -7 -10   6 1223.24 169.869  25
   7 -10  -6 1169.27 120.928  23
   7 -10  -5 766.268 93.5861   4
  -7 -10   5 904.528 105.040  22
   7 -10  -5 650.974 110.958  19
   7 -10  -5 752.394 89.0039  16
  -7 -10   5 728.152 104.338   5
  -7 -10   5 782.426 97.2649   9
   7 -10  -5 824.679 106.926  23
   7 -10  -4 56.2294 56.8746   4
  -7 -10   4 82.2151 86.6106  22
   7 -10  -4 92.1793 83.5467  19
   7 -10  -4 42.4831 65.7224  16
  -7 -10   4 65.6023 78.0172   5
   7 -10  -4 74.2250 80.1209  23
  -7 -10   3 1877.05 142.572  22
   7 -10  -3 2048.18 116.802   6
   7 -10  -3 2184.24 138.648  19
   7 -10  -3 2219.09 136.465  16
  -7 -10   3 2265.21 145.780   5
  -7 -10   3 1669.02 146.900  16
   7 -10  -3 2139.28 126.094   4
   7 -10  -3 2244.38 140.113  23
  -7 -10   2 2258.65 148.507  22
   7 -10  -2 2592.16 135.514   6
   7 -10  -2 2553.98 141.911  19
   7 -10  -2 2587.38 153.555  16
  -7 -10   2 2667.11 151.681   5
   7 -10  -2 2574.58 137.110   4
   7 -10  -2 2506.94 146.328  23
   7 -10  -1 6146.04 209.422   6
   7 -10  -1 6048.78 202.070  19
  -7 -10   1 6095.85 217.319   5
  -7 -10   1 5967.46 242.165  16
   7 -10  -1 5774.79 215.611  26
   7 -10  -1 6294.15 208.083   4
   7 -10  -1 6141.72 211.459  23
  -7 -10   1 5745.61 227.418  22
   7 -10   0 8298.49 254.592   6
   7 -10   0 8674.57 238.413  19
   7 -10   0 8739.14 258.662  26
  -7 -10   0 8615.58 260.190   5
  -7 -10   0 8712.71 296.294  16
   7 -10   0 8588.49 243.312   4
   7 -10   0 8845.55 254.259  23
  -7 -10   0 8084.83 271.990  22
  -7  -9   7 7510.91 234.190  22
   7  -9  -7 7259.72 259.083  19
  -7  -9   7 7316.90 229.091   5
  -7  -9   7 7741.89 244.110   9
   7  -9  -7 7151.43 242.002  23
  -7  -9   6 3570.74 166.507  22
   7  -9  -6 3737.63 190.538  19
  -7  -9   6 4090.69 174.238   5
  -7  -9   6 3799.07 178.535   9
   7  -9  -6 3939.86 180.638  23
  -7  -9   5 850.061 108.295  22
   7  -9  -5 871.384 113.513  19
   7  -9  -5 861.207 88.9768  16
  -7  -9   5 849.752 93.7087   5
   7  -9  -5 873.933 87.2016   4
   7  -9  -5 943.841 107.129  23
   7  -9  -4 16.4206 49.2068   4
  -7  -9   4-35.2506 89.9019  22
   7  -9  -4 27.2163 75.9488  19
   7  -9  -4 47.7100 55.8617  16
  -7  -9   4-2.13124 64.4432   5
   7  -9  -4-48.1047 73.5315  23
  -7  -9   3 2535.18 162.093  22
   7  -9  -3 2456.83 120.880   6
   7  -9  -3 2393.16 136.379  19
   7  -9  -3 2299.99 137.456  16
  -7  -9   3 2406.83 137.474   5
  -7  -9   3 2605.41 153.277  16
   7  -9  -3 2524.01 128.796   4
   7  -9  -3 2474.72 141.220  23
  -7  -9   2 3280.59 174.228  22
   7  -9  -2 3586.78 150.927   6
   7  -9  -2 3663.55 160.284  19
   7  -9  -2 3957.18 169.136  16
  -7  -9   2 3859.47 170.629   5
  -7  -9   2 3379.43 191.144  16
   7  -9  -2 3751.19 152.596   4
   7  -9  -2 3968.13 167.688  23
   7  -9  -1 12876.9 291.000   6
   7  -9  -1 12451.5 283.844  19
  -7  -9   1 12721.4 299.925   5
  -7  -9   1 12289.0 317.922  16
   7  -9  -1 12832.7 280.751   4
   7  -9  -1 12935.2 290.296  23
   7  -9   0 215.757 59.3183   4
  -7  -9   0 249.753 100.738  22
   7  -9   0 173.086 61.3768  19
   7  -9   0 240.822 73.2039   6
  -7  -9   0 286.250 116.214  16
  -7  -9   0 277.433 77.4212   5
   7  -9   0 153.732 73.7032  26
   7  -9   0 198.390 66.7448  23
   7  -9   1 325.735 64.6150   4
  -7  -9  -1 260.860 101.444  22
   7  -9   1 349.208 73.0314  19
   7  -9   1 396.669 84.0175   6
  -7  -9  -1 188.875 112.495  16
  -7  -9  -1 376.967 81.3054   5
   7  -9   1 249.498 72.6024  26
   7  -9   1 423.899 74.0483  23
  -7  -8   8 5535.80 206.629  22
   7  -8  -8 5281.26 230.140  19
  -7  -8   8 5913.51 196.253   5
  -7  -8   8 5503.01 212.575   9
  -7  -8   8 5139.34 239.721  25
   7  -8  -8 5654.99 218.406  23
  -7  -8   7 41.9492 87.6506  22
  -7  -8   7 76.7696 61.3626  11
   7  -8  -7 100.022 111.088  19
  -7  -8   7 45.8811 55.7231   5
  -7  -8   7 123.074 90.4338   9
  -7  -8   7 118.842 120.115  25
   7  -8  -7 53.3392 76.0137  23
  -7  -8   6 950.843 110.904  22
  -7  -8   6 876.870 91.2455  11
   7  -8  -6 802.456 110.942  19
  -7  -8   6 935.440 91.5643   5
  -7  -8   6 740.873 110.979   9
  -7  -8   6 768.495 140.971  25
   7  -8  -6 974.020 101.725  23
  -7  -8   5 1248.46 114.008  22
  -7  -8   5 1408.95 104.081  11
   7  -8  -5 1378.33 128.246  19
   7  -8  -5 1115.60 94.4646  16
  -7  -8   5 1529.29 113.773   5
   7  -8  -5 1348.50 98.6064   4
   7  -8  -5 1289.66 105.670  23
  -7  -8   4 2523.46 143.751  22
  -7  -8   4 2223.92 118.427  11
   7  -8  -4 2418.98 139.692  19
   7  -8  -4 2334.19 122.034  16
  -7  -8   4 2329.38 128.863   5
   7  -8  -4 2323.19 116.282   4
   7  -8  -4 2304.58 131.517  23
  -7  -8   3 4841.72 194.580  22
   7  -8  -3 4749.87 156.678   6
   7  -8  -3 4893.33 181.951  19
   7  -8  -3 4805.49 178.169  16
  -7  -8   3 4747.98 179.195   5
   7  -8  -3 4993.94 164.310   4
   7  -8  -3 4919.03 174.927  23
  -7  -8   2 1699.09 140.352  22
   7  -8  -2 1458.22 98.4418   6
   7  -8  -2 1374.87 105.091  19
  -7  -8   2 1437.09 127.523  16
  -7  -8   2 1504.72 108.702   5
   7  -8  -2 1619.67 96.7165   4
   7  -8  -2 1540.61 107.034  23
   7  -8  -1 6128.42 194.761   6
   7  -8  -1 6076.46 193.343  19
  -7  -8   1 6438.25 224.079  16
  -7  -8   1 6084.30 202.963   5
   7  -8  -1 6217.10 184.007   4
   7  -8  -1 6206.26 191.561  23
  -7  -8   1 5507.83 215.221  22
   7  -8   0 1579.60 118.760  26
   7  -8   0 1855.53 120.142   6
   7  -8   0 1737.13 111.384  19
  -7  -8   0 1975.35 154.066  16
  -7  -8   0 1842.18 121.614   5
   7  -8   0 1853.73 105.623   4
   7  -8   0 1652.80 106.808  23
  -7  -8   0 1490.35 135.754  22
   7  -8   1 1798.77 126.693   6
   7  -8   1 1718.21 110.227  19
   7  -8   1 1796.05 114.615   9
  -7  -8  -1 1827.94 156.824  16
  -7  -8  -1 1758.49 122.483   5
   7  -8   1 1779.99 124.799  26
   7  -8   1 1791.12 108.866   4
   7  -8   1 1789.49 112.709  23
  -7  -8  -1 1445.77 140.973  22
  -7  -8  -2 809.624 128.021  22
   7  -8   2 1130.22 114.893   6
  -7  -8  -2 1096.54 103.313   5
  -7  -8  -2 863.481 140.088  16
   7  -8   2 933.613 94.5254   9
   7  -8   2 879.335 100.895  26
   7  -8   2 905.904 83.8092   4
  -7  -7   9 5499.70 213.069  22
   7  -7  -9 5357.13 231.018  19
  -7  -7   9 4847.53 216.060   9
  -7  -7   9 5274.99 233.306  25
   7  -7  -9 5650.87 222.586  23
  -7  -7   8 12692.1 303.872  22
  -7  -7   8 12233.8 305.125  11
   7  -7  -8 12291.7 316.682  19
  -7  -7   8 13051.6 276.771   5
  -7  -7   8 13237.1 317.476   9
  -7  -7   8 12257.1 334.889  25
   7  -7  -8 13150.4 313.234  23
  -7  -7   7 17327.8 351.471  22
  -7  -7   7 17646.7 351.272  11
   7  -7  -7 17425.0 368.322  19
  -7  -7   7 17914.6 329.019   5
   7  -7  -7 17239.4 332.769  15
  -7  -7   7 16829.9 377.208  25
   7  -7  -7 17614.2 349.125  23
  -7  -7   6 5041.36 188.500  22
  -7  -7   6 4972.91 178.055  11
   7  -7  -6 5044.52 196.524  19
  -7  -7   6 5102.08 175.173   5
   7  -7  -6 5188.46 185.943  23
  -7  -7   5 10178.7 256.650  22
  -7  -7   5 9778.80 239.672  11
   7  -7  -5 10276.2 265.761  19
   7  -7  -5 10235.1 225.650  16
  -7  -7   5 10251.9 247.345   5
   7  -7  -5 10141.3 247.180  23
  -7  -7   4 4284.10 173.578  22
  -7  -7   4 3978.82 146.775  11
   7  -7  -4 4082.11 170.030  19
   7  -7  -4 4056.82 148.438  16
  -7  -7   4 4151.03 160.580   5
   7  -7  -4 3869.66 139.859   4
   7  -7  -4 4111.82 157.377  23
  -7  -7   3 14167.9 308.339  22
   7  -7  -3 14209.0 264.275   6
  -7  -7   3 13815.4 260.077  11
   7  -7  -3 14103.3 297.148  19
  -7  -7   3 14380.8 287.318  16
  -7  -7   3 14026.5 292.159   5
   7  -7  -3 14469.5 267.291   4
   7  -7  -3 14345.3 279.616  23
  -7  -7   2 718.655 108.917  22
   7  -7  -2 611.960 69.3940   6
   7  -7  -2 636.217 79.2716  19
  -7  -7   2 747.492 94.9848  16
  -7  -7   2 620.786 81.0279   5
   7  -7  -2 633.611 62.6781   4
   7  -7  -2 598.912 72.9420  23
   7  -7  -1 286.123 48.4467   4
  -7  -7   1 201.756 95.7250  22
   7  -7  -1 273.513 64.6627  19
   7  -7  -1 324.328 62.5733   6
  -7  -7   1 277.675 85.5755  16
  -7  -7   1 316.144 66.9465   5
   7  -7  -1 268.416 60.0757  23
   7  -7   0 6425.66 203.269   6
   7  -7   0 6214.65 190.815  19
   7  -7   0 6412.61 187.382   9
  -7  -7   0 6391.95 203.084   5
   7  -7   0 6447.67 211.047  26
   7  -7   0 6606.09 181.035   4
   7  -7   0 6210.20 181.502  23
  -7  -7   0 6344.79 226.564  22
   7  -7   1 2624.06 142.380   6
   7  -7   1 2647.48 130.004  19
   7  -7   1 2602.16 129.282   9
  -7  -7  -1 2640.68 137.234   5
   7  -7   1 2714.59 145.250  26
   7  -7   1 2727.78 121.328   4
   7  -7   1 2482.27 119.773  23
  -7  -7  -1 2604.63 163.651  22
   7  -7   2 11260.0 292.429   6
   7  -7   2 11904.1 277.818   9
  -7  -7  -2 11879.4 282.547   5
   7  -7   2 11372.3 292.401  26
   7  -7   2 11736.6 259.014   4
   7  -7   3 1850.79 137.488   6
   7  -7   3 1823.31 128.689   9
  -7  -7  -3 2021.13 129.466   5
   7  -7   3 1803.75 131.027  26
  -7  -7  -3 1843.77 162.051  22
  -7  -6  10 5471.11 220.179  22
  -7  -6  10 5440.95 219.165  11
   7  -6 -10 5316.13 229.614  19
  -7  -6  10 5625.18 230.093   9
  -7  -6  10 5150.56 224.284  25
   7  -6 -10 5343.22 222.119  23
  -7  -6   9 4576.85 195.990  22
  -7  -6   9 4862.84 199.875  11
   7  -6  -9 4449.64 203.630  19
  -7  -6   9 4932.54 209.890   9
  -7  -6   9 4388.82 206.400  25
   7  -6  -9 4879.58 202.665  23
  -7  -6   8 764.406 111.341  22
   7  -6  -8 632.158 115.195  19
  -7  -6   8 570.288 86.7340  11
  -7  -6   8 681.312 72.3042   5
  -7  -6   8 693.078 114.886   9
  -7  -6   8 809.560 141.345  25
   7  -6  -8 649.322 95.4253  23
  -7  -6   7 8654.52 247.067  22
  -7  -6   7 8323.74 232.912  11
   7  -6  -7 8295.52 247.917  19
  -7  -6   7 8656.10 216.514   5
   7  -6  -7 8339.28 230.654  15
  -7  -6   7 8486.21 246.752   9
  -7  -6   7 8414.01 255.835  25
   7  -6  -7 8548.81 235.288  23
  -7  -6   6 3035.74 152.471  22
  -7  -6   6 2660.18 130.412  11
   7  -6  -6 2845.94 147.029  19
  -7  -6   6 2659.76 123.157   5
   7  -6  -6 2829.99 129.723  15
   7  -6  -6 2742.17 132.755  23
  -7  -6   5 12792.0 286.524  22
  -7  -6   5 13225.2 270.807  11
   7  -6  -5 13021.3 288.997  19
  -7  -6   5 13031.5 267.426   5
   7  -6  -5 12924.4 266.759  23
  -7  -6   4 23397.5 388.726  22
  -7  -6   4 23064.3 350.534  11
   7  -6  -4 23613.5 383.461  19
  -7  -6   4 24207.9 375.078   5
   7  -6  -4 22855.4 336.367   4
   7  -6  -4 23572.1 356.496  23
  -7  -6   3 990.180 115.487  22
  -7  -6   3 818.726 68.9954  11
   7  -6  -3 964.053 88.4302  19
  -7  -6   3 819.612 80.2934   5
   7  -6  -3 800.998 62.5959   4
   7  -6  -3 931.960 79.9573  23
  -7  -6   2 3597.45 165.732  22
   7  -6  -2 3273.29 129.041   6
   7  -6  -2 3231.66 138.679  19
  -7  -6   2 3274.19 141.134   5
   7  -6  -2 3287.86 117.731   4
   7  -6  -2 3280.49 126.860  23
   7  -6  -1 7930.84 209.241   6
   7  -6  -1 8343.95 214.972  19
  -7  -6   1 8039.35 218.304   5
   7  -6  -1 8234.97 188.858   4
   7  -6  -1 8145.60 195.144  23
  -7  -6   1 8107.09 239.143  22
   7  -6   0 14994.5 302.975   6
   7  -6   0 14863.1 292.170  19
   7  -6   0 15043.4 285.298   9
  -7  -6   0 14606.8 299.731   5
   7  -6   0 14526.2 311.892  26
   7  -6   0 15109.6 264.507   4
   7  -6   0 15249.4 270.981  23
  -7  -6   0 14412.7 325.739  22
   7  -6   1 4158.31 169.015   6
   7  -6   1 4247.41 159.479  19
   7  -6   1 4373.82 164.152   9
  -7  -6  -1 4416.72 167.905   5
   7  -6   1 4240.75 174.826  26
   7  -6   1 4522.97 146.152   4
   7  -6   1 4430.81 147.756  23
  -7  -6  -1 4271.66 191.363  22
   7  -6   2 1500.63 117.654   6
   7  -6   2 1561.61 118.453  26
   7  -6   2 1658.98 113.570   9
  -7  -6  -2 1604.01 110.778   5
  -7  -6  -2 1563.55 143.357  22
   7  -6   3 960.889 112.414   6
   7  -6   3 932.367 101.024   9
  -7  -6  -3 919.849 93.9583   5
   7  -6   3 932.625 103.177  26
  -7  -5  10 1809.74 144.042  22
  -7  -5  10 1919.33 139.664  11
   7  -5 -10 1999.37 153.550  19
  -7  -5  10 1900.50 159.412   9
   7  -5 -10 1931.82 142.484  23
  -7  -5   9 298.094 98.0447  22
   7  -5  -9 414.151 108.896  19
  -7  -5   9 527.102 87.5234  11
  -7  -5   9 386.077 104.897   9
  -7  -5   9 272.423 91.3258  25
   7  -5  -9 388.563 92.1030  23
  -7  -5   8 4409.68 187.010  22
  -7  -5   8 4281.26 175.293  11
   7  -5  -8 4199.95 181.539  19
  -7  -5   8 4776.74 193.698   9
  -7  -5   8 3921.85 182.542  25
   7  -5  -8 4293.00 174.322  23
  -7  -5   7 2564.33 147.200  22
  -7  -5   7 2791.33 137.338  11
   7  -5  -7 2679.17 147.912  19
  -7  -5   7 2608.27 115.475   5
   7  -5  -7 2682.90 138.185  15
  -7  -5   7 2774.64 151.545  25
   7  -5  -7 2695.45 134.906  23
  -7  -5   6 13238.0 291.450  22
  -7  -5   6 13666.2 278.209  11
   7  -5  -6 12979.0 288.952  19
  -7  -5   6 13354.8 260.427   5
   7  -5  -6 13066.7 265.973  15
   7  -5  -6 13389.9 272.894  23
  -7  -5   5 17927.0 331.506  22
  -7  -5   5 18118.9 313.952  11
   7  -5  -5 17709.2 329.816  19
  -7  -5   5 18981.6 314.486   5
   7  -5  -5 17987.7 303.791  23
  -7  -5   4 2102.13 132.283  22
  -7  -5   4 1949.79 101.177  11
   7  -5  -4 1944.03 114.229  19
  -7  -5   4 1877.79 265.685   2
  -7  -5   4 1994.97 106.138   5
   7  -5  -4 1926.49 89.6032   4
   7  -5  -4 2071.32 101.970  23
  -7  -5   3 7619.06 222.594  22
   7  -5  -3 7489.64 202.939  19
  -7  -5   3 7173.04 195.651   5
  -7  -5   3 7029.71 444.939   2
   7  -5  -3 7231.04 164.408   4
   7  -5  -3 7254.68 176.709  23
  -7  -5   2 10001.5 252.334  22
   7  -5  -2 10155.6 217.236   6
   7  -5  -2 10002.2 233.804  19
  -7  -5   2 9927.90 233.296   5
   7  -5  -2 10092.5 194.199   4
   7  -5  -2 10130.3 206.799  23
   7  -5  -1 2198.23 111.682   6
   7  -5  -1 2333.51 116.856  19
  -7  -5   1 2375.48 118.613   5
   7  -5  -1 2192.38 126.437  26
   7  -5  -1 2285.39 93.5960   4
   7  -5  -1 2377.63 101.713  23
  -7  -5   1 2237.04 138.661  22
  -7  -5   0 177.469 91.2019  22
   7  -5   0 221.221 61.1679  19
   7  -5   0 210.717 57.2249   6
   7  -5   0 200.594 71.4997   9
  -7  -5   0 210.703 63.8074   5
   7  -5   0 317.291 73.6518  26
   7  -5   1 10680.8 259.565   6
   7  -5   1 10310.2 242.165  19
   7  -5   1 10537.1 245.519   9
  -7  -5  -1 10463.4 250.508   5
   7  -5   1 11088.9 272.008  26
  -7  -5  -1 11091.7 287.191  22
  -7  -5  -2 179.983 99.2831  22
   7  -5   2 78.0357 63.8312   6
   7  -5   2 106.775 64.1774   9
  -7  -5  -2 132.429 64.1570   5
   7  -5   2 101.309 62.8822  26
   7  -5   3 1870.92 133.427   6
   7  -5   3 1921.21 126.764   9
  -7  -5  -3 2080.45 122.398   5
   7  -5   3 2070.76 134.229  26
   7  -5   4 1293.10 130.123   6
   7  -5   4 1588.18 125.493   9
  -7  -5  -4 1395.14 109.298   5
   7  -5   4 1316.73 119.213  26
  -7  -4  10 3635.56 186.206  22
  -7  -4  10 3946.40 178.997  11
   7  -4 -10 3662.42 178.589  19
  -7  -4  10 3698.67 194.577   9
   7  -4 -10 4014.07 184.908  23
  -7  -4   9 4632.47 199.202  22
  -7  -4   9 4835.53 186.254  11
   7  -4  -9 4597.59 191.040  19
  -7  -4   9 5330.92 221.494   9
   7  -4  -9 5039.81 195.495  23
  -7  -4   8 3381.85 168.420  22
  -7  -4   8 3173.67 147.267  11
   7  -4  -8 3589.05 162.981  19
  -7  -4   8 3574.69 170.635   9
   7  -4  -8 3462.53 163.323  15
  -7  -4   8 3123.54 154.487  25
   7  -4  -8 3391.16 154.700  23
  -7  -4   7 2170.47 134.479  22
  -7  -4   7 1986.65 116.717  11
   7  -4  -7 2149.71 126.038  19
  -7  -4   7 2044.09 98.9715   5
   7  -4  -7 2137.18 127.049  15
  -7  -4   7 1842.73 122.319  25
   7  -4  -7 2135.78 115.500  23
  -7  -4   6 2088.02 131.933  22
   7  -4  -6 2049.96 246.021  20
  -7  -4   6 1833.97 104.946  11
   7  -4  -6 1913.32 119.709  19
  -7  -4   6 1881.87 97.3156   5
   7  -4  -6 2012.81 115.234  15
   7  -4  -6 1849.44 104.663  23
  -7  -4   5 2198.21 128.584  22
  -7  -4   5 2281.15 109.104  11
   7  -4  -5 2431.94 122.951  19
  -7  -4   5 2255.87 106.033   5
   7  -4  -5 2248.15 107.674  23
  -7  -4   4 1206.45 115.686  22
  -7  -4   4 1209.66 79.7979  11
   7  -4  -4 1171.60 89.6496  19
  -7  -4   4 1148.59 213.958   2
  -7  -4   4 1049.76 79.8498   5
   7  -4  -4 1038.93 63.6756   4
   7  -4  -4 1032.09 73.0891  23
  -7  -4   3 5919.73 194.566  22
   7  -4  -3 5695.28 175.458  19
  -7  -4   3 5849.61 171.803   5
   7  -4  -3 5599.91 134.928   4
  -7  -4   3 5683.74 389.583   2
   7  -4  -3 5707.46 149.056  23
  -7  -4   2 7039.85 216.463  22
   7  -4  -2 6592.67 185.010  19
  -7  -4   2 6371.74 181.989   5
  -7  -4   2 6004.79 378.754   2
   7  -4  -2 6465.14 154.247  23
   7  -4  -1 10161.0 225.081   6
   7  -4  -1 10466.3 231.903  19
   7  -4  -1 9862.51 243.540  26
  -7  -4   1 10291.9 234.591   5
   7  -4   0 1903.25 108.406   6
   7  -4   0 1934.97 108.172  19
   7  -4   0 1887.53 113.827  26
   7  -4   0 2098.85 116.271   9
  -7  -4   0 2101.68 112.418   5
  -7  -4   0 1880.87 127.142  22
   7  -4   1 15708.0 306.518   6
   7  -4   1 15020.8 313.637  26
   7  -4   1 15053.5 295.027   9
  -7  -4  -1 14948.0 294.967   5
  -7  -4  -1 14778.9 324.543  22
   7  -4   2 3311.79 152.673   6
   7  -4   2 3357.43 138.507  17
   7  -4   2 3478.58 152.608   9
  -7  -4  -2 3367.17 145.861   5
   7  -4   2 3564.60 161.506  26
  -7  -4  -2 3119.91 168.172  22
   7  -4   3 2509.06 144.319   6
   7  -4   3 2501.88 121.284  17
   7  -4   3 2696.90 143.966   9
  -7  -4  -3 2436.88 129.009   5
   7  -4   3 2645.08 146.880  26
   7  -4   4 573.633 98.9829   6
   7  -4   4 640.795 94.6864   9
  -7  -4  -4 743.010 87.3681   5
   7  -4   4 655.642 95.5633  26
  -7  -3  11 3523.79 191.172  22
  -7  -3  11 3578.37 176.944  11
   7  -3 -11 3752.00 177.941  19
  -7  -3  11 3647.99 194.475   9
  -7  -3  11 3559.04 155.282   8
   7  -3 -11 3874.72 194.673  23
  -7  -3  10 8157.85 266.371  22
  -7  -3  10 8507.82 253.196  11
   7  -3 -10 8527.82 248.241  19
  -7  -3  10 7507.03 252.001   9
   7  -3 -10 8355.63 273.974  15
   7  -3 -10 8681.33 256.537  23
  -7  -3   9 1831.37 142.955  22
  -7  -3   9 1768.99 118.757  11
   7  -3  -9 1948.51 128.750  19
  -7  -3   9 2029.49 143.475   9
   7  -3  -9 2006.53 142.290  15
   7  -3  -9 2001.78 128.971  23
  -7  -3   8 2592.67 151.411  22
  -7  -3   8 2528.32 130.008  11
   7  -3  -8 2629.29 136.782  19
   7  -3  -8 2546.84 145.878  15
  -7  -3   8 2760.18 152.091   9
   7  -3  -8 2541.59 131.095  23
  -7  -3   7 2408.56 121.622  11
   7  -3  -7 2293.78 127.330  19
   7  -3  -7 2369.51 132.566  15
   7  -3  -7 2230.37 114.828  23
  -7  -3   6 4175.94 167.576  22
  -7  -3   6 4079.33 146.936  11
   7  -3  -6 4382.12 156.247  19
   7  -3  -6 4303.44 155.876  15
   7  -3  -6 4064.89 140.585  23
  -7  -3   5 1513.88 110.721  22
   7  -3  -5 1396.42 181.735  20
  -7  -3   5 1592.43 93.0849  11
   7  -3  -5 1577.47 98.4797  19
   7  -3  -5 1572.08 88.1042  23
  -7  -3   4 4080.16 160.784  22
  -7  -3   4 4510.32 141.865  11
   7  -3  -4 4687.82 156.518  19
  -7  -3   4 4263.40 139.277   5
  -7  -3   4 4207.31 360.573   2
   7  -3  -4 4298.91 127.342  23
  -7  -3   3 51249.8 585.475  22
   7  -3  -3 51128.9 560.114  19
  -7  -3   3 50490.3 546.438   5
   7  -3  -3 51607.4 487.284  23
  -7  -3   2 2347.65 135.021  22
   7  -3  -2 1875.71 103.665  19
  -7  -3   2 1868.27 102.256   5
  -7  -3   2 1958.02 234.691   2
   7  -3  -1 16272.6 281.583   6
   7  -3  -1 16414.0 292.956  19
  -7  -3   1 16159.3 290.738   5
   7  -3  -1 16249.6 308.180  26
   7  -3  -1 17264.9 659.459  13
  -7  -3   1 16724.2 320.524  22
   7  -3   0 650.801 71.7520   6
   7  -3   0 657.236 72.0592  19
   7  -3   0 704.037 85.8185   9
   7  -3   0 689.696 77.4820  26
  -7  -3   0 955.855 103.873  22
   7  -3   1 2824.52 132.815   6
   7  -3   1 2729.71 132.761   9
   7  -3   1 2774.05 136.140  26
  -7  -3  -1 2492.32 143.721  22
   7  -3   2 3652.65 157.246   6
   7  -3   2 3933.37 148.346  17
   7  -3   2 4084.09 164.210   9
   7  -3   2 3835.70 163.679  26
  -7  -3  -2 3620.35 173.330  22
   7  -3   3 9416.79 258.272   6
   7  -3   3 9285.71 231.983  17
   7  -3   3 9327.83 252.730   9
   7  -3   3 9601.52 266.399  26
   7  -3   4 2220.84 142.783   6
   7  -3   4 2209.39 141.858   9
   7  -3   4 2072.94 143.101  26
  -7  -2  11 291.196 111.642  22
  -7  -2  11 340.377 76.6567  11
   7  -2 -11 372.714 126.576  15
  -7  -2  11 231.510 100.962   9
  -7  -2  11 291.100 67.2919   8
   7  -2 -11 200.126 95.2640  23
  -7  -2  10 11061.1 304.290  22
  -7  -2  10 11748.1 289.341  11
   7  -2 -10 11363.5 272.458  19
  -7  -2  10 11519.2 258.959   8
  -7  -2  10 11024.2 292.130   9
   7  -2 -10 11782.4 320.112  15
   7  -2 -10 11496.0 290.979  23
  -7  -2   9 4372.54 195.745  22
  -7  -2   9 4390.26 174.185  11
   7  -2  -9 4686.32 173.598  19
  -7  -2   9 4499.25 187.477   9
   7  -2  -9 4365.54 191.684  15
  -7  -2   9 4200.17 149.128   8
   7  -2  -9 4562.08 178.795  23
  -7  -2   8 5322.39 199.574  22
  -7  -2   8 5403.87 180.924  11
   7  -2  -8 5367.96 177.248  19
   7  -2  -8 5269.15 197.095  15
  -7  -2   8 5246.50 191.301   9
  -7  -2   8 5317.64 153.827   8
   7  -2  -8 5468.76 177.585  23
  -7  -2   7 8039.59 229.729  22
  -7  -2   7 7717.32 207.268  11
   7  -2  -7 7947.19 207.595  19
   7  -2  -7 7802.02 219.345  15
   7  -2  -7 8017.14 199.304  23
  -7  -2   6 550.876 87.9004  22
  -7  -2   6 644.775 68.8921  11
   7  -2  -6 557.175 140.876  20
   7  -2  -6 672.568 76.3966  19
   7  -2  -6 698.239 85.9908  15
   7  -2  -6 600.380 65.3535  23
  -7  -2   5 13413.0 278.518  22
   7  -2  -5 13536.2 544.236  20
  -7  -2   5 13014.7 250.822  11
   7  -2  -5 13228.2 259.085  19
  -7  -2   5 12571.4 533.368   1
   7  -2  -5 13479.0 230.191  23
  -7  -2   4 668.527 91.1553  22
   7  -2  -4 456.378 62.9699  19
  -7  -2   4 538.073 172.274   2
  -7  -2   4 312.605 93.5674   1
   7  -2  -4 498.130 51.7704  23
   7  -2  -4 444.642 140.400  13
  -7  -2   3 44955.0 530.452  22
   7  -2  -3 44712.6 506.334  19
   7  -2  -3 48075.2 1184.60  13
  -7  -2   3 47098.7 1112.37   2
  -7  -2   2 33100.3 449.353  22
  -7  -2   2 34162.3 903.185   2
   7  -2  -2 33144.1 427.658  19
   7  -2  -2 34036.3 1030.27   3
   7  -2  -2 34451.8 955.137  13
  -7  -2   1 11123.3 490.947   2
   7  -2  -1 11128.0 228.005   6
   7  -2  -1 11054.3 234.114  19
   7  -2  -1 10426.1 239.901  26
   7  -2  -1 11532.0 522.997  13
  -7  -2   1 10734.4 251.526  22
   7  -2   0 355.906 58.3203   6
   7  -2   0 470.295 82.8771   9
   7  -2   0 306.738 63.8353  26
  -7  -2  -1 474.625 84.8342  22
   7  -2   1 480.607 70.2967   6
   7  -2   1 468.650 60.7371  17
   7  -2   1 548.265 83.1794   9
   7  -2   1 572.817 75.6055  26
   7  -2   2 3842.14 157.333   6
   7  -2   2 4239.46 154.001  17
   7  -2   2 4352.72 168.272   9
   7  -2   2 4186.42 171.555  26
  -7  -2  -2 3995.25 174.569  22
   7  -2   3 9543.55 256.635   6
   7  -2   3 9466.40 235.602  17
   7  -2   3 9388.49 251.627   9
   7  -2   3 9433.86 262.212  26
   7  -2   4 2732.30 157.410   6
   7  -2   4 2547.98 126.843  17
   7  -2   4 2379.43 145.177   9
   7  -2   4 2395.33 147.943  26
   7  -2   5 455.659 101.352   6
   7  -2   5 491.522 97.0657   9
   7  -2   5 318.123 91.4000  26
  -7  -1  11 1519.81 153.466  22
  -7  -1  11 1432.26 115.234  11
  -7  -1  11 1510.33 139.557   9
   7  -1 -11 1635.53 157.541  15
  -7  -1  11 1460.41 109.850   8
   7  -1 -11 1728.80 140.755  23
  -7  -1  10 2275.84 163.850  22
  -7  -1  10 2313.28 132.986  11
  -7  -1  10 2333.12 125.830   8
  -7  -1  10 2415.65 154.067   9
   7  -1 -10 2342.44 165.292  15
   7  -1 -10 2479.19 149.634  23
  -7  -1   9 8367.96 255.581  22
  -7  -1   9 8518.97 234.072  11
   7  -1  -9 8458.89 219.047  19
  -7  -1   9 8854.17 246.319   9
   7  -1  -9 8934.14 262.086  15
  -7  -1   9 8491.06 212.239   8
   7  -1  -9 8591.98 233.485  23
  -7  -1   8 5840.19 210.378  22
  -7  -1   8 6010.14 188.556  11
   7  -1  -8 6063.41 180.353  19
   7  -1  -8 5914.35 204.646  15
  -7  -1   8 6234.55 199.032   9
  -7  -1   8 6192.54 171.848   8
   7  -1  -8 6091.23 183.299  23
  -7  -1   7 4416.33 178.466  22
  -7  -1   7 4780.76 162.352  11
   7  -1  -7 4760.60 156.300  19
   7  -1  -7 4562.21 174.352  15
   7  -1  -7 4656.20 150.360  23
  -7  -1   6 7832.05 222.645  22
   7  -1  -6 7153.76 443.176  20
  -7  -1   6 7001.09 188.988  11
   7  -1  -6 7566.57 189.742  19
   7  -1  -6 7606.89 207.633  15
   7  -1  -6 7552.79 177.142  23
  -7  -1   5 17119.1 312.360  22
  -7  -1   5 17476.4 653.603   1
   7  -1  -5 16867.6 620.247  20
  -7  -1   5 16863.3 287.571  11
   7  -1  -5 16852.3 285.651  19
   7  -1  -5 16920.0 253.091  23
  -7  -1   4 1367.37 109.075  22
  -7  -1   4 1475.48 214.762   2
   7  -1  -4 1209.57 156.522  20
  -7  -1   4 1217.32 172.845   1
  -7  -1   4 1123.11 83.3847  24
   7  -1  -4 1413.07 226.649  13
  -7  -1   3 9085.66 225.704  22
  -7  -1   3 9719.38 496.588   2
   7  -1  -3 9068.37 205.606  19
   7  -1  -3 9172.08 508.918  13
  -7  -1   2 23845.7 370.056  22
  -7  -1   2 23585.5 759.184   2
   7  -1  -2 23459.9 344.882  19
   7  -1  -2 24391.1 839.179   3
   7  -1  -2 24906.1 798.137  13
   7  -1  -1 16673.3 701.937   3
  -7  -1   1 16160.2 607.054   2
   7  -1  -1 15800.5 282.216  19
   7  -1  -1 15615.8 292.313  26
   7  -1  -1 15963.4 604.062  13
  -7  -1   1 15397.1 293.544  22
   7  -1   0 10969.6 237.470   6
   7  -1   0 11075.8 594.417   3
   7  -1   0 10391.2 241.310  26
  -7  -1   0 10471.7 249.428  22
   7  -1   1 1296.09 98.3224   6
   7  -1   1 1170.47 89.5121  17
   7  -1   1 1257.37 102.831   9
   7  -1   1 1302.97 95.5171  26
  -7  -1  -1 1323.32 106.449  22
  -7  -1  -2 411.039 82.6651  22
   7  -1   2 505.909 79.8242   6
   7  -1   2 510.672 66.5871  17
   7  -1   2 518.310 84.5975   9
   7  -1   2 504.222 76.3606  26
   7  -1   3 4792.57 188.025  26
   7  -1   3 4795.24 184.506   6
   7  -1   3 4922.33 172.917  17
   7  -1   3 5041.17 186.652   9
  -7  -1  -3 4901.37 193.473  22
   7  -1   4 2947.56 160.020   6
   7  -1   4 2783.51 135.973  17
   7  -1   4 2970.10 157.212   9
   7  -1   4 3177.71 167.234  26
   7  -1   5 721.803 111.214   6
   7  -1   5 782.978 108.634   9
   7  -1   5 841.648 115.106  26
  -7   0  11 264.473 109.097  22
  -7   0  11 429.642 78.6094  11
   7   0 -11 237.099 120.910  15
  -7   0  11 337.735 99.5471   9
  -7   0  11 318.473 73.5193   8
   7   0 -11 480.390 107.158  23
  -7   0  10 309.852 117.875  22
  -7   0  10 269.009 70.1709  11
   7   0 -10 109.517 106.180  15
  -7   0  10 466.900 117.241   9
  -7   0  10 329.235 74.9916   8
   7   0 -10 361.322 96.8567  23
  -7   0   9 3860.66 188.708  22
  -7   0   9 3861.26 157.832  11
  -7   0   9 4183.37 175.388   9
   7   0  -9 3793.03 184.692  15
  -7   0   9 3958.04 150.252   8
   7   0  -9 4185.67 168.856  23
  -7   0   8 166.355 94.0066  22
   7   0  -8 86.0113 47.5342  19
  -7   0   8 117.561 53.4361  11
   7   0  -8 146.335 87.6886  15
  -7   0   8 69.1164 74.7441   9
  -7   0   8-1.99353 45.8588   8
   7   0  -8 35.4217 64.7194  23
  -7   0   7 1917.01 129.907  22
  -7   0   7 1915.64 107.104  11
   7   0  -7 2048.95 102.912  19
   7   0  -7 1940.82 125.789  15
  -7   0   7 1935.60 98.2160   8
   7   0  -7 1970.01 101.213  23
  -7   0   6 6300.37 201.788  22
   7   0  -6 6499.82 422.896  20
  -7   0   6 5913.87 172.807  11
   7   0  -6 5794.18 184.670  15
   7   0  -6 6200.39 157.447  23
  -7   0   5 30457.8 428.483  22
   7   0  -5 30725.8 866.734  20
  -7   0   5 29597.1 396.708  11
   7   0  -5 29667.6 342.805  23
  -7   0   4 8427.07 216.854  22
  -7   0   4 7461.35 461.593   2
   7   0  -4 8032.27 399.049  20
  -7   0   4 8997.32 201.312  24
   7   0  -4 7776.04 487.890  13
  -7   0   3 2143.25 118.928  22
   7   0  -3 2440.55 200.909  20
  -7   0   3 2411.95 259.600   2
   7   0  -3 2286.98 259.256  13
  -7   0   2 5057.58 171.166  22
   7   0  -2 5133.15 156.255  19
   7   0  -2 4917.96 374.958   3
  -7   0   2 5334.14 369.182   2
   7   0  -2 5484.13 372.419  13
  -7   0   1 18560.0 316.935  22
   7   0  -1 16884.5 285.037   6
   7   0  -1 16751.7 682.952   3
  -7   0   1 17303.9 645.746   2
   7   0  -1 17760.5 308.461  26
   7   0  -1 18029.4 637.072  13
   7   0   0 9493.78 219.838   6
   7   0   0 9813.99 540.272   3
  -7   0   0 10062.0 484.000   2
   7   0   0 9195.34 221.517  17
   7   0   0 8988.10 223.683  26
  -7   0   0 8674.75 222.585  22
   7   0   1 1727.59 107.694   6
   7   0   1 1488.96 98.1739  17
   7   0   1 1456.19 110.166   9
   7   0   1 1454.85 100.235  26
  -7   0  -1 1512.48 107.990  22
  -7   0  -2 549.644 84.2904  22
   7   0   2 673.436 83.4251   6
   7   0   2 616.848 72.7325  17
   7   0   2 694.847 90.3425   9
   7   0   2 664.776 80.7030  26
   7   0   3 3169.00 155.022   6
   7   0   3 3257.65 143.018  17
   7   0   3 3190.49 154.345   9
   7   0   3 3312.64 156.866  26
  -7   0  -3 3148.84 156.860  22
   7   0   4 338.475 84.7602   6
   7   0   4 304.951 61.8203  17
   7   0   4 290.257 84.3311   9
   7   0   4 241.190 80.3112  26
   7   0   5 10477.0 294.988   6
   7   0   5 10674.5 269.592  17
   7   0   5 10949.6 299.063   9
   7   0   5 10458.7 306.902  26
  -7   1  11 1414.61 146.244  22
  -7   1  11 1405.98 109.131  11
  -7   1  11 1580.60 137.322   9
   7   1 -11 1481.30 158.328  15
  -7   1  11 1384.71 116.765   8
   7   1 -11 1777.56 142.833  23
  -7   1  10 2346.58 168.058  22
  -7   1  10 2341.18 131.171  11
  -7   1  10 2335.63 141.565   9
   7   1 -10 2288.81 163.772  15
  -7   1  10 2404.50 131.674   8
   7   1 -10 2709.04 156.468  23
  -7   1   9 8256.69 257.954  22
  -7   1   9 8464.28 227.658  11
   7   1  -9 8184.89 256.467  15
  -7   1   9 8952.87 238.829   9
  -7   1   9 8790.39 227.598   8
   7   1  -9 8783.95 233.058  23
  -7   1   8 6049.98 213.560  22
  -7   1   8 5939.17 185.486  11
   7   1  -8 6365.56 211.526  15
  -7   1   8 6123.57 182.567   8
   7   1  -8 6354.15 184.688  23
  -7   1   7 4336.15 176.095  22
  -7   1   7 4793.94 161.640  11
   7   1  -7 4522.32 176.893  15
  -7   1   7 4343.14 151.839   8
   7   1  -7 4933.44 150.816  23
  -7   1   6 7471.20 215.274  22
   7   1  -6 7436.82 470.734  20
  -7   1   6 7417.69 192.974  11
   7   1  -6 7098.65 203.015  15
   7   1  -6 7641.78 171.962  23
  -7   1   5 17310.6 310.129  22
  -7   1   5 16961.3 289.039  11
   7   1  -5 17240.8 297.405  15
  -7   1   5 17815.4 290.781  24
  -7   1   4 1504.82 224.614   2
  -7   1   4 1346.60 84.8565  11
   7   1  -4 1162.41 204.380  13
  -7   1   3 9384.46 215.608  22
  -7   1   3 9780.95 518.865   2
  -7   1   3 10100.2 228.235  24
   7   1  -3 9426.00 509.584  13
  -7   1   2 23966.3 359.695  22
   7   1  -2 22511.0 745.636   3
  -7   1   2 24580.8 815.468   2
   7   1  -2 23667.5 773.956  13
  -7   1   1 15087.6 286.296  22
   7   1  -1 15883.9 277.746   6
   7   1  -1 15596.2 630.567   3
   7   1  -1 15719.1 290.069  17
  -7   1   1 16143.5 648.262   2
   7   1  -1 16047.4 604.515  13
   7   1   0 10636.9 233.980   6
   7   1   0 10495.6 545.023   3
   7   1   0 10792.6 242.628  17
   7   1   0 10676.0 239.297  26
  -7   1   0 10620.5 245.039  22
   7   1   1 1216.19 93.2664   6
   7   1   1 1240.32 91.2378  17
   7   1   1 1247.31 107.423   9
   7   1   1 1279.03 83.2146  15
   7   1   1 1189.32 91.9865  26
  -7   1  -1 1458.40 109.453  22
  -7   1  -1 1318.09 215.477  12
  -7   1  -2 559.020 85.5630  22
   7   1   2 397.483 76.7236   6
   7   1   2 407.186 64.4479  17
   7   1   2 481.291 61.3697  15
   7   1   2 388.188 82.8696   9
   7   1   2 511.562 73.8819  26
   7   1   3 4920.18 185.999   6
   7   1   3 5019.87 177.609  17
   7   1   3 4635.59 183.316   9
   7   1   3 5123.64 191.562  26
   7   1   3 5031.81 160.843   7
  -7   1  -3 4548.06 185.374  22
   7   1   4 2766.57 152.732   6
   7   1   4 2711.37 138.512  17
   7   1   4 2908.08 158.016   9
   7   1   4 2998.47 163.798  26
  -7   1  -4 2924.89 157.700  22
   7   1   5 671.157 101.126   6
   7   1   5 725.107 85.7376  17
   7   1   5 813.245 107.756   9
   7   1   5 683.642 116.408  26
  -7   2  11 284.294 111.535  22
  -7   2  11 283.527 69.0336  11
   7   2 -11 243.092 118.470  15
  -7   2  11 249.730 85.1861   9
  -7   2  11 297.982 81.3411   8
  -7   2  10 10837.6 305.498  22
  -7   2  10 11589.4 274.320  11
   7   2 -10 11557.1 316.709  15
  -7   2  10 11580.5 281.988   8
  -7   2   9 4229.15 194.953  22
  -7   2   9 4473.78 167.135  11
   7   2  -9 4521.75 197.188  15
  -7   2   9 4277.91 169.310   9
  -7   2   9 4509.85 171.371   8
  -7   2   8 5127.60 197.901  22
  -7   2   8 5129.13 173.651  11
   7   2  -8 5217.09 202.624  15
  -7   2   8 5093.35 174.872   9
  -7   2   8 5394.02 174.962   8
  -7   2   7 7877.05 228.099  22
  -7   2   7 7970.50 206.913  11
   7   2  -7 7975.12 202.549  18
   7   2  -7 7810.39 226.757  15
  -7   2   7 7721.04 204.490   8
  -7   2   7 8065.65 208.808  24
   7   2  -7 8284.95 191.432  23
  -7   2   6 607.390 96.7056  22
  -7   2   6 563.819 65.7823  11
   7   2  -6 678.314 86.3365  15
  -7   2   6 643.971 96.7951  24
   7   2  -6 609.684 64.8290  23
  -7   2   5 13690.9 275.626  22
  -7   2   5 13045.9 256.156  11
   7   2  -5 13080.0 264.751  15
   7   2  -5 13426.5 219.508  14
  -7   2   4 555.723 80.0932  22
  -7   2   4 435.319 62.2055  11
   7   2  -4 295.080 66.2481  15
   7   2  -4 436.068 50.6194  14
  -7   2   4 653.147 84.0360  24
   7   2  -4 360.517 144.661  13
  -7   2   3 44292.0 512.027  22
  -7   2   3 45190.2 501.113  11
  -7   2   3 48713.1 1206.64   2
   7   2  -3 46978.7 492.312  14
  -7   2   3 44738.2 532.915  24
   7   2  -3 47289.3 1175.61  13
  -7   2   2 33964.6 431.701  22
  -7   2   2 33201.3 410.756  11
   7   2  -2 33889.1 437.479  17
  -7   2   2 34769.1 1000.58   2
   7   2  -2 34627.4 958.400  13
  -7   2   1 10728.0 234.708  22
   7   2  -1 11121.6 231.974   6
   7   2  -1 11020.8 507.188   3
  -7   2   1 10870.0 219.584  11
   7   2  -1 10936.3 242.242  17
   7   2  -1 11162.2 512.980  13
  -7   2   1 10793.8 577.973  12
  -7   2   0 304.325 69.9872  22
  -7   2   0 478.606 156.858  12
   7   2   0 513.997 67.5972   6
  -7   2   0 315.313 49.3245  11
   7   2   0 396.854 62.3294  17
   7   2   0 385.026 62.8794  15
   7   2   0 419.765 60.0313  26
  -7   2  -1 419.408 79.0372  22
   7   2   1 535.314 74.7293   6
  -7   2  -1 493.549 59.9403  11
   7   2   1 598.710 69.5092  17
   7   2   1 440.408 61.5893  15
   7   2   1 485.337 69.0690  26
   7   2   2 4037.38 164.857   6
  -7   2  -2 4110.13 137.662  11
   7   2   2 4380.24 164.925  17
   7   2   2 4211.24 172.102   9
   7   2   2 4101.82 149.862  15
   7   2   2 4238.87 166.169  26
  -7   2  -2 3930.76 161.004  22
   7   2   3 9409.86 254.478   6
   7   2   3 9666.59 251.777  17
   7   2   3 9621.37 260.091  26
   7   2   3 9444.74 253.945   9
   7   2   3 9395.99 222.531   7
  -7   2  -3 8972.43 243.054  22
   7   2   4 2410.59 149.396   6
   7   2   4 2446.13 138.076  17
   7   2   4 2453.99 147.391   9
   7   2   4 2453.67 148.021  26
   7   2   4 2539.25 130.141   7
  -7   2  -4 2632.05 148.206  22
  -7   2  -5 432.640 94.1184  22
   7   2   5 361.162 88.7832   6
   7   2   5 421.870 79.2191  17
   7   2   5 353.876 94.3533   9
   7   2   5 448.503 101.932  26
   7   2   5 399.609 74.3743   7
  -7   3  11 3683.37 206.342  22
  -7   3  11 3775.74 164.485  11
  -7   3  11 3655.42 170.744   9
   7   3 -11 3526.49 210.598  15
  -7   3  11 3804.14 181.609   8
  -7   3  10 7992.54 266.831  22
  -7   3  10 8594.40 235.027  11
  -7   3  10 7841.95 225.830   9
   7   3 -10 8232.84 277.167  15
  -7   3  10 8351.95 246.203   8
  -7   3   9 1956.81 142.522  22
  -7   3   9 1932.88 115.299  11
   7   3  -9 1832.28 147.078  15
  -7   3   9 2230.66 135.800   9
  -7   3   9 1955.01 122.881   8
  -7   3   8 2618.83 150.002  22
  -7   3   8 2607.85 126.927  11
   7   3  -8 2544.21 140.139  18
   7   3  -8 2647.19 152.332  15
  -7   3   8 2469.29 129.901   9
  -7   3   8 2587.69 133.560   8
  -7   3   8 2585.99 126.922  24
  -7   3   7 2182.98 135.816  22
  -7   3   7 2366.93 118.913  11
   7   3  -7 2228.18 134.278  15
  -7   3   7 2541.57 132.785  24
  -7   3   6 4066.34 162.630  22
  -7   3   6 4084.77 148.360  11
   7   3  -6 4212.23 145.934  18
   7   3  -6 4382.47 169.436  15
  -7   3   6 3913.17 157.109  24
  -7   3   5 1626.84 96.3704  11
   7   3  -5 1583.85 107.498  15
   7   3  -5 1633.07 82.4695  14
  -7   3   4 4416.16 152.126  22
  -7   3   4 4529.41 148.790  11
   7   3  -4 4489.27 157.349  15
   7   3  -4 4439.56 136.419  14
  -7   3   4 4355.01 166.133  24
  -7   3   3 52114.6 554.215  22
  -7   3   3 51419.9 549.925  11
   7   3  -3 51617.0 559.955  17
   7   3  -3 51504.8 557.946  15
   7   3  -3 51813.6 538.183  14
  -7   3   3 50694.5 590.647  24
  -7   3   2 2182.60 113.985  22
   7   3  -2 1862.39 98.3988   6
  -7   3   2 1758.90 97.2523  11
   7   3  -2 1716.59 100.335  17
   7   3  -2 1998.51 104.075  15
   7   3  -2 1797.20 98.6709  14
   7   3  -2 1792.01 229.429  13
  -7   3   1 16989.0 297.030  22
   7   3  -1 16417.7 293.275   6
  -7   3   1 16082.9 279.537  11
   7   3  -1 16153.6 302.350  17
   7   3  -1 16344.4 289.122  15
   7   3  -1 16173.0 293.688  14
   7   3  -1 17274.5 654.628  13
   7   3   0 662.624 74.9320   6
  -7   3   0 749.539 85.8962  22
  -7   3   0 728.928 66.7389  11
   7   3   0 686.892 75.6809  17
   7   3   0 647.987 72.8912  15
   7   3   0 729.035 72.3933  26
   7   3   1 2725.26 132.329   6
  -7   3  -1 2849.73 117.650  11
   7   3   1 2799.18 132.607  17
   7   3   1 2643.40 125.076  15
   7   3   1 2640.55 125.473  26
  -7   3  -1 2319.89 125.117  22
   7   3   2 3872.85 164.026   6
  -7   3  -2 3961.05 140.633  11
   7   3   2 3804.83 158.443  17
   7   3   2 3766.27 151.438  15
   7   3   2 3792.85 156.648  26
   7   3   2 3632.52 131.838   7
  -7   3  -2 3458.58 149.147  22
   7   3   3 9245.92 255.750   6
  -7   3  -3 9225.39 220.724  11
   7   3   3 9415.49 253.243  17
   7   3   3 9323.95 253.160   9
   7   3   3 9463.96 258.830  26
   7   3   3 9210.16 225.422   7
  -7   3  -3 8879.22 235.678  22
   7   3   4 2226.63 141.289   6
   7   3   4 2099.00 131.930  17
   7   3   4 1922.95 138.035   9
   7   3   4 2150.02 142.566  26
   7   3   4 2083.51 121.882   7
  -7   3  -4 1849.10 122.174  22
  -7   4  10 3948.45 194.432  22
  -7   4  10 4190.66 166.470  11
   7   4 -10 4026.33 199.198  15
  -7   4  10 3928.68 179.153   8
  -7   4   9 4629.72 200.254  22
  -7   4   9 4847.88 172.578  11
   7   4  -9 4976.96 201.179  18
   7   4  -9 4831.69 201.477  15
  -7   4   9 4777.85 170.696   9
  -7   4   9 4597.20 183.129   8
  -7   4   9 5119.88 190.452  24
  -7   4   8 3394.86 167.845  22
  -7   4   8 3245.16 140.711  11
   7   4  -8 3446.85 162.083  18
   7   4  -8 3260.32 167.294  15
  -7   4   8 3280.42 139.727   9
  -7   4   8 3456.70 153.507   8
  -7   4   8 3418.71 153.485  24
  -7   4   7 2166.65 135.607  22
  -7   4   7 2122.33 113.808  11
   7   4  -7 2021.95 124.649  18
   7   4  -7 2094.13 131.174  15
  -7   4   7 2272.77 147.811  24
  -7   4   6 2052.32 126.188  22
  -7   4   6 2025.26 109.721  11
   7   4  -6 1938.63 113.394  18
   7   4  -6 1845.42 119.852  15
  -7   4   6 1986.92 140.665  24
  -7   4   5 2155.58 121.204  22
  -7   4   5 2223.23 111.995  11
   7   4  -5 2320.55 128.191  15
   7   4  -5 2215.50 98.3273  14
  -7   4   5 2539.81 149.606  24
  -7   4   4 790.338 85.4063  22
   7   4  -4 1102.69 78.3786  17
   7   4  -4 1160.99 99.4058  15
   7   4  -4 1112.19 76.2844  14
  -7   4   4 669.821 111.077  24
  -7   4   3 5591.29 169.552  22
  -7   4   3 5930.36 173.177  11
   7   4  -3 5791.66 166.056  14
   7   4  -3 5929.61 173.161  17
   7   4  -3 5620.73 176.386  15
  -7   4   3 5473.08 196.899  24
  -7   4   2 6382.77 178.625  22
   7   4  -2 6202.22 177.045   6
  -7   4   2 6428.51 178.232  11
   7   4  -2 6535.11 185.386  17
   7   4  -2 6414.04 185.040  15
   7   4  -2 6362.07 179.354  14
  -7   4   2 6725.49 216.700  24
   7   4  -2 6470.02 433.114  13
  -7   4   1 9686.51 219.415  22
   7   4  -1 10005.3 231.555   6
  -7   4   1 10379.7 226.834  11
   7   4  -1 10385.8 242.627  17
   7   4  -1 10364.4 234.368  15
   7   4  -1 10059.8 235.165  14
  -7   4   1 10515.1 272.806  24
   7   4  -1 10183.2 521.109  13
   7   4   0 1955.74 113.946   6
  -7   4   0 2002.70 104.638  11
   7   4   0 1902.70 112.747  17
   7   4   0 1943.99 111.278  15
   7   4   0 1956.38 102.026  26
   7   4   0 2008.26 114.433  14
   7   4   1 15162.0 308.458   6
  -7   4  -1 15659.7 290.319  11
   7   4   1 15191.0 265.265  18
   7   4   1 15539.1 315.089  17
   7   4   1 15231.3 299.622  15
   7   4   1 15387.5 299.030  26
   7   4   2 3409.74 157.105   6
   7   4   2 3586.00 159.728  17
   7   4   2 3392.72 148.266  15
   7   4   2 3492.59 151.526  26
   7   4   2 3387.15 131.612   7
   7   4   3 2544.54 144.952   6
   7   4   3 2504.45 139.808  17
   7   4   3 2655.71 152.541   9
   7   4   3 2912.18 150.308  26
   7   4   3 2578.49 126.467   7
   7   4   4 674.923 98.5353   6
   7   4   4 713.084 95.4878  17
   7   4   4 647.949 105.929   9
   7   4   4 612.668 93.9191  26
   7   4   4 673.008 88.4273   7
  -7   5  10 1932.48 151.822  22
  -7   5  10 1973.41 119.397  11
   7   5 -10 2054.07 165.226  18
   7   5 -10 2032.74 158.810  15
  -7   5  10 2062.15 142.764   8
  -7   5  10 1699.39 136.175  24
  -7   5   9 392.752 102.672  22
  -7   5   9 455.805 70.2353  11
   7   5  -9 435.506 110.492  18
   7   5  -9 510.982 114.995  15
  -7   5   9 382.458 81.0983   8
  -7   5   9 414.859 95.3119  24
  -7   5   8 4304.28 183.124  22
  -7   5   8 4192.48 157.788  11
   7   5  -8 4452.94 186.030  18
   7   5  -8 4014.57 182.161  15
  -7   5   8 4275.85 175.571   8
  -7   5   8 4072.93 175.009  24
  -7   5   7 2509.72 140.912  22
  -7   5   7 2684.57 127.862  11
   7   5  -7 2680.36 143.222  18
   7   5  -7 2690.60 147.969  15
  -7   5   7 2736.70 148.413  24
  -7   5   6 12446.8 275.607  22
  -7   5   6 13014.5 271.175  11
   7   5  -6 13115.2 273.109  18
   7   5  -6 12858.6 287.835  15
   7   5  -6 13506.4 246.057  14
  -7   5   6 12731.9 290.313  24
  -7   5   5 17029.9 313.700  22
  -7   5   5 18028.6 318.370  11
   7   5  -5 17954.5 307.699  18
   7   5  -5 17681.6 296.838  17
   7   5  -5 17422.8 324.473  15
   7   5  -5 18624.4 297.899  14
  -7   5   5 16924.6 335.744  24
  -7   5   4 2293.52 124.413  22
  -7   5   4 1929.86 106.041  11
   7   5  -4 1884.78 103.764  18
   7   5  -4 1921.61 102.064  17
   7   5  -4 2006.17 120.070  15
   7   5  -4 2032.15 102.857  14
  -7   5   4 2014.85 145.905  24
  -7   5   3 6961.98 183.509  22
  -7   5   3 7714.56 199.282  11
   7   5  -3 7274.68 181.096  18
   7   5  -3 7120.97 194.293  17
   7   5  -3 7194.33 202.114  15
   7   5  -3 7334.55 194.748  14
  -7   5   3 7588.51 245.311  24
  -7   5   2 10339.4 219.135  22
  -7   5   2 10200.8 231.300  11
   7   5  -2 9793.41 209.070  18
   7   5  -2 9938.16 237.146  17
   7   5  -2 9832.74 234.209  15
   7   5  -2 10361.9 235.376  14
  -7   5   2 10298.7 277.659  24
  -7   5   1 2519.27 120.147  11
   7   5  -1 2306.91 104.976  18
   7   5  -1 2343.62 120.314  17
   7   5  -1 2253.47 121.765  15
   7   5  -1 2144.98 117.792  14
  -7   5   1 2304.19 150.360  24
   7   5  -1 2262.80 265.004  13
   7   5   0 212.446 63.1991   6
  -7   5   0 207.091 58.0793  11
   7   5   0 263.653 52.7938  18
   7   5   0 225.965 60.5678  17
   7   5   0 254.902 69.0619  15
   7   5   0 203.250 49.4040  26
   7   5   0 217.694 61.1544  14
  -7   5   0 196.915 98.6550  24
   7   5   1 10123.9 257.224   6
   7   5   1 10469.2 231.688  18
   7   5   1 10309.9 261.810  17
   7   5   1 10299.7 254.295  15
   7   5   1 10880.8 248.704  26
   7   5   1 10449.9 262.952  14
   7   5   1 10224.7 218.057   7
   7   5   2 134.961 65.3203   6
   7   5   2 108.617 49.9666  18
   7   5   2 152.255 63.6038  17
   7   5   2 128.427 70.9140  15
   7   5   2 59.4645 54.7942  26
   7   5   2 118.529 51.0219   7
   7   5   3 2144.03 136.977   6
   7   5   3 1779.64 111.881  18
   7   5   3 2018.89 135.789  17
   7   5   3 1971.40 130.523  26
   7   5   3 1971.68 117.125   7
   7   5   4 1221.53 118.032   6
   7   5   4 1308.65 103.965  18
   7   5   4 1329.84 120.111  17
   7   5   4 1533.02 130.680  26
   7   5   4 1415.58 109.715   7
  -7   6  10 5383.08 223.347  22
  -7   6  10 5393.25 187.595  11
   7   6 -10 5750.19 239.298  18
  -7   6  10 5524.43 191.462  10
   7   6 -10 5317.93 225.181  15
  -7   6  10 5584.34 221.155   8
  -7   6  10 4915.65 214.206  24
  -7   6   9 5052.74 204.257  22
  -7   6   9 5126.34 179.997  11
   7   6  -9 4932.16 211.964  18
  -7   6   9 4736.49 170.465  10
   7   6  -9 4756.96 207.733  15
  -7   6   9 4651.40 196.143   8
  -7   6   8 648.795 109.485  22
  -7   6   8 697.570 83.2029  11
   7   6  -8 692.016 124.753  18
  -7   6   8 644.596 78.2853  10
   7   6  -8 458.365 97.2890  15
  -7   6   8 546.429 89.1082   8
  -7   6   8 549.518 102.342  24
  -7   6   7 8358.16 236.394  22
  -7   6   7 8538.99 224.492  11
   7   6  -7 8667.37 243.931  18
  -7   6   7 8727.38 211.167  10
   7   6  -7 8148.03 244.911  15
  -7   6   7 8441.79 249.741  24
  -7   6   6 2900.28 138.895  22
  -7   6   6 2668.57 129.265  11
   7   6  -6 2634.68 140.701  18
   7   6  -6 2687.65 147.574  15
   7   6  -6 2697.62 118.642  14
  -7   6   6 2996.33 162.820  24
  -7   6   5 12881.2 269.854  22
  -7   6   5 13172.9 276.401  11
   7   6  -5 12963.0 272.217  18
   7   6  -5 13270.9 256.130  17
   7   6  -5 13101.3 287.641  15
   7   6  -5 13491.6 263.780  14
  -7   6   5 12159.1 302.311  24
  -7   6   4 23357.2 349.846  22
  -7   6   4 22735.6 366.042  11
   7   6  -4 22922.2 355.606  18
   7   6  -4 22673.7 353.898  17
   7   6  -4 22337.3 372.472  15
   7   6  -4 22972.8 358.918  14
  -7   6   4 23549.9 411.375  24
  -7   6   3 913.820 84.1085  11
   7   6  -3 803.111 76.5350  18
   7   6  -3 838.852 77.6800  17
   7   6  -3 928.996 93.1709  15
   7   6  -3 905.575 85.1732  14
  -7   6   2 3326.61 139.045  11
   7   6  -2 3349.64 132.002  18
   7   6  -2 3041.21 135.431  17
   7   6  -2 3194.14 143.840  15
   7   6  -2 3360.29 144.086  14
  -7   6   2 3659.55 177.508  24
  -7   6   1 8265.71 216.776  11
   7   6  -1 8177.74 202.787  18
   7   6  -1 8213.06 224.619  17
   7   6  -1 8303.77 224.801  15
   7   6  -1 8229.19 225.433  14
  -7   6   1 7531.27 249.655  24
   7   6   0 14806.4 282.439  18
   7   6   0 14834.5 312.592  17
   7   6   0 14815.6 307.070  15
   7   6   0 14917.2 275.455  26
   7   6   0 14535.2 308.825  14
   7   6   1 4189.34 155.220  18
   7   6   1 4308.65 177.154  17
   7   6   1 4398.95 176.328  15
   7   6   1 4579.92 160.707  26
   7   6   1 4307.20 176.810  14
  -7   6  -1 3878.31 199.654  24
   7   6   1 4191.52 146.331   7
   7   6   2 1716.06 107.135  18
   7   6   2 1414.09 113.223  17
   7   6   2 1606.90 122.120  15
   7   6   2 1600.79 110.354  26
   7   6   2 1616.14 120.870  14
  -7   6  -2 1561.67 155.309  24
   7   6   2 1591.55 102.064   7
   7   6   3 894.680 93.0851  18
   7   6   3 941.373 107.350  17
   7   6   3 978.363 104.663  26
   7   6   3 980.134 94.7414   7
  -7   7   9 5455.39 212.881  22
  -7   7   9 5671.97 191.790  11
   7   7  -9 5225.67 228.465  18
  -7   7   9 5403.32 191.035  10
   7   7  -9 5410.12 219.570  15
  -7   7   9 5284.07 215.995   8
  -7   7   9 4814.17 213.570  24
  -7   7   8 12953.9 305.007  22
  -7   7   8 12479.7 279.895  11
   7   7  -8 12733.4 319.381  18
  -7   7   8 12659.3 280.804  10
   7   7  -8 12168.4 312.120  15
  -7   7   8 12196.4 308.841   8
  -7   7   8 12294.6 318.562  24
  -7   7   7 17599.3 338.106  22
  -7   7   7 17433.3 330.661  11
   7   7  -7 17675.1 358.651  18
  -7   7   7 17416.3 320.516  10
   7   7  -7 17893.7 359.689  15
  -7   7   7 17306.0 368.855  24
  -7   7   6 5571.81 182.363  22
  -7   7   6 5140.30 177.685  11
   7   7  -6 4882.05 188.831  18
   7   7  -6 5012.19 193.706  15
   7   7  -6 5094.01 167.225  14
  -7   7   6 4739.67 209.943  24
  -7   7   5 10321.1 235.049  22
  -7   7   5 10182.8 247.004  11
   7   7  -5 9948.87 250.462  18
   7   7  -5 10363.6 228.102  17
   7   7  -5 10050.3 256.714  15
   7   7  -5 10475.2 242.648  14
  -7   7   5 9777.51 277.733  24
  -7   7   4 4178.37 159.100  11
   7   7  -4 4170.52 158.996  18
   7   7  -4 4116.51 148.623  17
   7   7  -4 4049.12 165.189  15
   7   7  -4 4039.03 157.445  14
  -7   7   4 3879.47 196.590  24
  -7   7   3 14710.9 296.272  11
   7   7  -3 14379.1 284.976  18
   7   7  -3 14248.8 288.709  17
   7   7  -3 13914.5 295.569  15
   7   7  -3 14236.8 293.086  14
  -7   7   3 13439.2 326.611  24
  -7   7   2 597.241 76.1611  11
   7   7  -2 590.895 71.6702  18
   7   7  -2 624.488 71.8489  17
   7   7  -2 547.795 84.0449  15
   7   7  -2 511.209 75.8403  14
  -7   7   1 287.055 67.2513  11
   7   7  -1 306.328 65.3979  18
   7   7  -1 223.288 59.6361  17
   7   7  -1 307.986 74.3838  15
   7   7  -1 312.095 73.3131  14
  -7   7   1 69.0792 119.339  24
   7   7   0 6122.18 210.232  14
   7   7   0 6465.91 195.454  18
   7   7   0 6516.80 211.240  17
   7   7   0 6348.03 207.615  15
  -7   7   0 6039.68 238.377  24
   7   7   0 6225.42 176.378   7
   7   7   1 2400.61 129.032  18
   7   7   1 2660.11 148.346  17
   7   7   1 2541.92 144.057  15
   7   7   1 2575.34 146.607  14
  -7   7  -1 2599.66 180.483  24
   7   7   1 2408.44 120.654   7
   7   7   2 11212.8 271.114  18
   7   7   2 11605.3 302.236  17
   7   7   2 11404.0 271.827  26
   7   7   2 11112.8 295.788  14
   7   7   2 11679.8 268.499   7
   7   7   3 1770.76 122.371  18
   7   7   3 1898.08 148.143  17
   7   7   3 1936.23 140.039  14
   7   7   3 1916.84 133.292  26
  -7   7  -3 1759.17 170.930  24
   7   7   3 1944.06 125.095   7
  -7   8   8 5563.70 203.127  22
  -7   8   8 5705.12 192.535  11
   7   8  -8 5518.02 226.309  18
  -7   8   8 5732.72 198.514  10
   7   8  -8 5526.68 218.178  15
  -7   8   8 5071.62 211.787   8
  -7   8   8 5281.58 223.619  24
  -7   8   7 75.2123 73.7026  22
  -7   8   7 20.7307 63.1296  11
   7   8  -7 117.177 106.704  18
  -7   8   7 39.5217 63.5283  10
   7   8  -7 39.8400 90.5793  15
   7   8  -7 91.7380 58.4830  14
  -7   8   7 32.4729 109.642  24
  -7   8   6 931.446 92.2610  11
   7   8  -6 865.018 114.254  18
   7   8  -6 966.751 107.734  15
   7   8  -6 874.904 85.7034  14
  -7   8   6 1101.88 153.613  24
  -7   8   5 1515.85 109.870  11
   7   8  -5 1402.31 120.737  18
   7   8  -5 1374.98 118.837  15
   7   8  -5 1494.88 107.315  14
  -7   8   5 1323.29 149.105  24
  -7   8   4 2337.35 126.457  11
   7   8  -4 2192.31 129.152  18
   7   8  -4 2413.09 117.615  17
   7   8  -4 2377.80 139.440  15
   7   8  -4 2279.31 128.727  14
  -7   8   4 2659.83 188.611  24
  -7   8   3 4991.95 180.403  11
   7   8  -3 4783.12 175.029  18
   7   8  -3 5050.40 171.512  17
   7   8  -3 4691.66 182.655  15
   7   8  -3 4714.77 180.386  14
  -7   8   3 4472.56 224.916  24
  -7   8   2 1507.86 108.904  11
   7   8  -2 1571.45 109.341  18
   7   8  -2 1566.43 107.382  17
   7   8  -2 1608.62 118.933  15
   7   8  -2 1521.03 111.291  14
  -7   8   2 1561.87 160.197  24
   7   8  -1 6159.91 197.312  18
   7   8  -1 6256.84 208.120  17
   7   8  -1 5917.98 206.973  15
   7   8  -1 5708.53 205.660  14
  -7   8   1 5483.69 240.644  24
   7   8   0 1768.01 114.658  18
   7   8   0 1814.35 124.665  17
   7   8   0 1839.97 129.199  15
   7   8   0 1725.14 129.587  14
  -7   8   0 1417.93 161.486  24
   7   8   0 1676.30 106.142   7
   7   8   1 1798.94 118.235  18
   7   8   1 1936.81 134.806  17
   7   8   1 1868.60 134.427  15
  -7   8  -1 1803.17 112.507  27
   7   8   1 1778.16 129.691  14
  -7   8  -1 1534.38 165.432  24
   7   8   1 1751.07 109.489   7
   7   8   2 1025.76 101.760  18
   7   8   2 952.421 114.079  17
   7   8   2 895.255 110.572  14
  -7   8  -2 922.779 146.650  24
   7   8   2 996.566 96.6013   7
  -7   9   7 7713.41 228.156  11
   7   9  -7 7311.57 253.411  18
  -7   9   7 7120.75 226.710  10
   7   9  -7 7330.42 240.254  15
   7   9  -7 7243.59 218.761  14
  -7   9   7 7093.65 262.274  24
  -7   9   6 4030.19 167.173  11
   7   9  -6 3820.90 186.359  18
   7   9  -6 3860.18 176.782  15
   7   9  -6 3905.07 163.629  14
  -7   9   6 3689.50 204.081  24
  -7   9   5 808.523 87.6552  11
   7   9  -5 865.019 108.029  18
   7   9  -5 949.583 106.313  15
   7   9  -5 961.643 97.4262  14
  -7   9   5 639.197 152.407  24
  -7   9   4 22.5176 61.3636  11
   7   9  -4 115.710 74.0707  18
   7   9  -4 32.3582 46.5059  17
   7   9  -4 7.82372 72.1335  15
   7   9  -4-68.6558 70.4054  14
  -7   9   4 117.965 155.744  24
  -7   9   3 2432.38 136.641  11
   7   9  -3 2397.83 137.384  18
   7   9  -3 2582.36 132.036  17
   7   9  -3 2450.16 145.516  15
   7   9  -3 2516.53 143.748  14
  -7   9   2 3759.75 164.036  11
   7   9  -2 3900.49 167.163  18
   7   9  -2 3764.96 163.669  17
   7   9  -2 3716.43 171.380  15
   7   9  -2 3653.82 173.445  14
  -7   9   2 3525.22 225.211  24
   7   9  -1 12973.6 298.930  18
   7   9  -1 12763.1 301.545  17
   7   9  -1 12687.7 305.720  15
   7   9  -1 12222.8 306.879  14
   7   9  -1 12475.8 269.516   7
   7   9   0 136.912 61.5661   7
   7   9   0 175.439 74.8227  18
   7   9   0 245.629 77.7719  17
   7   9   0 200.089 82.6596  15
   7   9   0 218.331 84.2880  14
  -7   9   0 263.212 168.034  24
   7   9   1 414.902 76.0634   7
   7   9   1 360.324 79.0412  18
   7   9   1 281.233 84.4252  17
   7   9   1 269.400 87.8807  15
  -7   9  -1 347.016 81.2064  27
   7   9   1 246.769 88.0333  14
  -7   9  -1 280.744 136.377  24
  -7  10   6 1510.46 116.315  11
   7  10  -6 1254.28 134.479  18
   7  10  -6 1132.56 114.621  15
   7  10  -6 1297.30 111.556  14
  -7  10   6 1244.82 156.612  24
  -7  10   5 699.054 89.4327  11
   7  10  -5 622.003 104.634  18
   7  10  -5 771.501 106.051  15
   7  10  -5 691.313 94.6753  14
  -7  10   5 796.887 151.327  24
  -7  10   4 105.223 72.1876  11
   7  10  -4 41.1707 85.4989  18
   7  10  -4 64.8709 78.6917  15
   7  10  -4 125.250 77.7599  14
  -7  10   4 56.7137 133.460  24
  -7  10   3 2329.67 136.381  11
   7  10  -3 2346.84 145.104  18
   7  10  -3 2222.53 127.196  17
   7  10  -3 2243.55 138.352  15
   7  10  -3 2134.27 141.236  14
  -7  10   3 2097.64 188.990  24
  -7  10   2 2510.75 146.284  11
   7  10  -2 2491.50 145.512  18
   7  10  -2 2481.60 141.998  17
   7  10  -2 2571.93 149.914  15
   7  10  -2 2529.38 154.469  14
  -7  10   2 1990.17 185.125  24
   7  10  -2 2392.24 128.559   7
   7  10  -1 6134.74 218.211  18
   7  10  -1 5653.90 214.458  17
   7  10  -1 5843.57 220.371  15
   7  10  -1 6071.13 230.429  14
  -7  10   1 5411.02 253.706  24
   7  10  -1 6029.43 198.484   7
   7  10   0 8563.67 259.876  18
   7  10   0 8886.41 270.009  17
   7  10   0 8716.83 271.848  15
   7  10   0 8718.71 274.377  14
  -7  10   0 8241.70 306.012  24
   7  10   0 8566.93 240.636   7
  -7  11   4 6705.76 225.453  11
   7  11  -4 6658.66 238.715  18
   7  11  -4 6526.11 231.665  15
   7  11  -4 6508.83 234.168  14
  -7  11   4 6152.41 270.371  24
  -7  11   3 980.742 103.700  11
   7  11  -3 989.658 116.026  18
   7  11  -3 998.685 101.388  17
   7  11  -3 1096.51 116.423  15
  -7  11   3 1019.82 106.505  14
   7  11  -3 914.944 115.218  14
  -7  11   3 1299.43 174.123  24
  -7  11   2 3936.49 181.438  11
   7  11  -2 3653.24 183.211  18
   7  11  -2 3773.00 176.745  17
   7  11  -2 3789.39 183.683  15
   7  11  -2 3785.78 192.553  14
  -7  11   2 3698.88 235.463  24
   7  11  -2 3727.66 166.614   7
  -8  -9   6 4577.03 197.972  22
   8  -9  -6 4722.07 214.006  19
  -8  -9   6 4668.26 198.697   5
  -8  -9   6 4728.97 200.807   9
   8  -9  -6 5099.11 191.175   4
   8  -9  -6 4857.29 202.600  23
  -8  -9   5 5577.55 215.739  22
   8  -9  -5 5655.48 222.725  19
  -8  -9   5 5855.60 216.381   5
   8  -9  -5 5651.67 195.981   4
   8  -9  -5 5937.71 216.193  23
  -8  -9   4 8195.46 262.547  22
   8  -9  -4 8819.52 267.500  19
  -8  -9   4 8970.26 264.065   5
   8  -9  -4 8801.75 237.561   4
   8  -9  -4 8631.53 252.265  23
  -8  -9   3 13880.4 343.287  22
   8  -9  -3 13550.6 291.503   6
   8  -9  -3 13965.8 329.809  19
  -8  -9   3 14170.2 329.945   5
  -8  -9   3 12866.3 329.150  16
   8  -9  -3 13584.8 295.287   4
   8  -9  -3 14034.8 313.795  23
  -8  -9   2 857.926 131.464  22
   8  -9  -2 909.694 95.4545   6
   8  -9  -2 997.973 105.170  19
  -8  -9   2 1021.94 135.531  16
  -8  -9   2 1038.18 112.370   5
   8  -9  -2 927.739 88.4825   4
   8  -9  -2 973.050 97.0673  23
   8  -9  -1 589.487 76.8390   4
  -8  -9   1 638.798 131.055  22
   8  -9  -1 736.094 98.3199   6
   8  -9  -1 565.592 91.7095  19
  -8  -9   1 586.916 127.013  16
  -8  -9   1 738.028 106.904   5
   8  -9  -1 481.692 95.0690  26
   8  -9  -1 684.212 87.7187  23
  -8  -8   7 53.4687 93.9686  22
   8  -8  -7 178.614 105.641  19
  -8  -8   7 76.3452 62.8420  11
  -8  -8   7 44.6439 66.8768   5
  -8  -8   7 113.204 98.6713   9
  -8  -8   7 353.792 133.167  25
   8  -8  -7 94.3776 74.7341  23
  -8  -8   6 902.063 113.510  22
  -8  -8   6 771.910 90.8750  11
   8  -8  -6 808.956 116.184  19
  -8  -8   6 771.117 95.7053   5
   8  -8  -6 818.672 85.9840   4
   8  -8  -6 736.703 99.9313  23
  -8  -8   5 1749.54 137.839  22
  -8  -8   5 1584.48 112.082  11
   8  -8  -5 1877.86 139.962  19
  -8  -8   5 1766.35 125.943   5
   8  -8  -5 1816.54 110.638   4
   8  -8  -5 1756.87 124.388  23
  -8  -8   4 26933.3 464.782  22
  -8  -8   4 26574.9 415.311  11
   8  -8  -4 27792.5 468.705  19
  -8  -8   4 27551.0 457.791   5
   8  -8  -4 27630.8 416.113   4
   8  -8  -4 27828.2 438.050  23
  -8  -8   3 7134.42 252.888  22
   8  -8  -3 6793.54 202.501   6
   8  -8  -3 7199.17 232.636  19
  -8  -8   3 7083.58 233.370  16
  -8  -8   3 6853.73 227.412   5
   8  -8  -3 6917.13 197.985   4
   8  -8  -3 6926.62 213.562  23
  -8  -8   2 9880.81 293.988  22
   8  -8  -2 9937.81 253.190   6
   8  -8  -2 10126.0 270.164  19
  -8  -8   2 10602.6 287.590  16
  -8  -8   2 9709.30 268.684   5
   8  -8  -2 10002.3 239.250   4
   8  -8  -2 9880.06 249.651  23
   8  -8  -1 2648.11 142.933   6
   8  -8  -1 2574.84 145.217  19
  -8  -8   1 2749.48 168.599  16
  -8  -8   1 3030.24 158.959   5
   8  -8  -1 2690.55 159.659  26
   8  -8  -1 2889.18 130.750   4
   8  -8  -1 2580.77 132.984  23
  -8  -8   1 2590.22 177.272  22
  -8  -8   0 465.826 126.217  22
   8  -8   0 669.552 88.7685  19
   8  -8   0 643.011 93.0102   6
  -8  -8   0 693.870 121.666  16
  -8  -8   0 740.650 100.938   5
   8  -8   0 576.468 96.0679  26
   8  -8   0 699.100 74.8751   4
   8  -8   0 827.070 85.7467  23
  -8  -7   8 2379.98 161.035  22
  -8  -7   8 2131.94 142.244  11
   8  -7  -8 2215.06 161.169  19
  -8  -7   8 2132.83 126.908   5
  -8  -7   8 2252.62 159.271   9
   8  -7  -8 2077.39 143.807  15
  -8  -7   8 2420.93 188.317  25
   8  -7  -8 2166.07 141.422  23
  -8  -7   7 1147.36 132.006  22
  -8  -7   7 1061.94 104.020  11
   8  -7  -7 1017.99 123.550  19
  -8  -7   7 956.217 92.0336   5
  -8  -7   7 956.983 129.345   9
  -8  -7   7 1035.41 143.974  25
   8  -7  -7 1029.29 104.191  23
  -8  -7   6 8122.71 254.285  22
  -8  -7   6 8113.80 234.783  11
   8  -7  -6 8092.10 252.889  19
  -8  -7   6 8433.27 236.902   5
   8  -7  -6 8349.07 237.326  23
  -8  -7   5 8107.16 251.714  22
  -8  -7   5 7166.08 216.039  11
   8  -7  -5 7904.19 246.579  19
  -8  -7   5 7582.16 225.499   5
   8  -7  -5 7836.47 206.823   4
   8  -7  -5 7972.02 224.987  23
  -8  -7   4 9233.86 271.124  22
  -8  -7   4 8556.16 222.179  11
   8  -7  -4 8861.96 254.751  19
  -8  -7   4 8836.59 244.942   5
   8  -7  -4 8929.87 214.492   4
   8  -7  -4 8524.31 227.122  23
  -8  -7   3 14627.7 340.039  22
   8  -7  -3 14863.4 290.785   6
   8  -7  -3 14921.7 325.511  19
  -8  -7   3 16120.6 324.983  16
  -8  -7   3 14863.6 321.368   5
   8  -7  -3 15277.9 282.265   4
   8  -7  -3 15139.8 298.144  23
  -8  -7   2 4034.78 199.412  22
   8  -7  -2 4179.62 163.547   6
   8  -7  -2 4233.71 176.645  19
  -8  -7   2 4487.90 187.646  16
  -8  -7   2 4357.84 177.140   5
   8  -7  -2 4418.27 149.312   4
   8  -7  -2 4274.14 157.498  23
   8  -7  -1 1221.80 101.509   6
   8  -7  -1 1127.65 102.195  19
  -8  -7   1 1101.26 105.317   5
  -8  -7   1 998.974 118.690  16
   8  -7  -1 1031.19 109.663  26
   8  -7  -1 1188.10 81.3908   4
   8  -7  -1 1094.07 87.0497  23
  -8  -7   1 1473.45 152.846  22
   8  -7   0 6822.87 225.609   6
   8  -7   0 6866.65 218.861  19
  -8  -7   0 6886.96 228.215   5
   8  -7   0 6592.60 232.321  26
  -8  -7   0 6111.73 248.761  22
  -8  -7  -1 524.252 123.006  22
   8  -7   1 515.625 93.8617   6
   8  -7   1 406.183 96.8708   9
  -8  -7  -1 572.703 90.4333   5
   8  -7   1 596.511 98.9950  26
  -8  -6   9 4583.31 211.140  22
  -8  -6   9 4472.83 200.441  11
   8  -6  -9 4378.27 205.922  19
  -8  -6   9 4648.75 219.968   9
   8  -6  -9 4144.24 198.729  15
  -8  -6   9 4006.19 199.178  25
   8  -6  -9 4466.79 197.301  23
  -8  -6   8 714.949 119.495  22
  -8  -6   8 926.491 103.535  11
   8  -6  -8 892.453 113.111  19
  -8  -6   8 903.272 84.2920   5
   8  -6  -8 729.419 102.883  15
  -8  -6   8 920.684 121.751   9
  -8  -6   8 900.083 134.055  25
   8  -6  -8 842.928 104.035  23
  -8  -6   7 12769.2 320.094  22
  -8  -6   7 12844.8 302.218  11
   8  -6  -7 12596.5 313.712  19
  -8  -6   7 13358.9 285.558   5
   8  -6  -7 12716.7 289.549  15
  -8  -6   7 12087.4 319.649  25
   8  -6  -7 13237.6 298.952  23
  -8  -6   6 3412.50 172.969  22
  -8  -6   6 3819.71 160.114  11
   8  -6  -6 3661.19 173.039  19
  -8  -6   6 3987.93 159.915   5
   8  -6  -6 3863.20 159.816  23
   8  -6  -5 162.412 47.3699   4
  -8  -6   5 153.564 98.5640  22
   8  -6  -5 189.224 77.0006  19
  -8  -6   5 125.745 54.0885  11
  -8  -6   5 119.741 63.6326   5
   8  -6  -5 101.620 61.7449  23
  -8  -6   4 4614.13 197.660  22
  -8  -6   4 4441.22 158.935  11
   8  -6  -4 4808.94 182.685  19
  -8  -6   4 4640.04 172.198   5
   8  -6  -4 4780.44 147.867   4
   8  -6  -4 4484.99 158.829  23
  -8  -6   3 1156.05 129.311  22
   8  -6  -3 1063.63 83.6749   6
  -8  -6   3 958.191 77.5574  11
   8  -6  -3 998.638 100.497  19
  -8  -6   3 1142.78 101.166  16
  -8  -6   3 1022.39 93.5481   5
   8  -6  -3 1036.04 87.5680  23
  -8  -6   2 4282.42 200.492  22
   8  -6  -2 4263.11 161.292   6
   8  -6  -2 4203.83 168.803  19
  -8  -6   2 4029.60 168.267   5
   8  -6  -2 4275.89 150.062  23
   8  -6  -1 9106.02 240.851   6
   8  -6  -1 8984.73 244.215  19
  -8  -6   1 8873.67 245.111   5
   8  -6  -1 8937.69 260.092  26
  -8  -6   1 8879.37 278.220  22
   8  -6   0 3351.00 158.352   6
   8  -6   0 3475.52 156.629  19
  -8  -6   0 3730.33 168.462   5
   8  -6   0 3560.34 173.065  26
  -8  -6   0 3664.47 196.821  22
   8  -6   1 1870.60 132.180   6
   8  -6   1 1893.58 132.545   9
  -8  -6  -1 1984.63 129.333   5
   8  -6   1 2039.95 139.786  26
  -8  -6  -1 1894.15 161.826  22
   8  -6   2 3299.46 178.047   6
   8  -6   2 3272.72 149.859  17
   8  -6   2 3144.46 166.999   9
  -8  -6  -2 3327.30 162.477   5
   8  -6   2 3199.85 175.328  26
  -8  -6  -2 3065.41 194.907  22
  -8  -5   9 1193.62 137.197  22
  -8  -5   9 1370.34 119.343  11
   8  -5  -9 1450.26 140.173  19
  -8  -5   9 1533.37 144.151   9
   8  -5  -9 1271.16 131.322  15
   8  -5  -9 1494.78 125.137  23
  -8  -5   8 762.492 126.763  22
   8  -5  -8 856.005 109.463  19
  -8  -5   8 797.153 94.3812  11
  -8  -5   8 805.102 79.7517   5
   8  -5  -8 805.095 109.596  15
  -8  -5   8 830.448 121.055   9
  -8  -5   8 748.470 112.109  25
   8  -5  -8 733.524 95.9160  23
  -8  -5   7 1382.15 137.919  22
  -8  -5   7 1432.30 108.365  11
   8  -5  -7 1447.69 126.109  19
  -8  -5   7 1426.84 96.2914   5
   8  -5  -7 1427.56 116.209  15
  -8  -5   7 1451.49 136.190  25
   8  -5  -7 1320.57 106.086  23
  -8  -5   6 14909.5 332.255  22
  -8  -5   6 15835.3 314.299  11
   8  -5  -6 15602.6 332.909  19
  -8  -5   6 15367.1 300.314   5
   8  -5  -6 15835.8 300.680  15
   8  -5  -6 15475.0 300.713  23
  -8  -5   5 2894.32 158.895  22
  -8  -5   5 2635.04 126.206  11
   8  -5  -5 2782.03 146.395  19
  -8  -5   5 2755.60 132.253   5
   8  -5  -5 2712.25 111.824   4
   8  -5  -5 2718.62 123.691  23
  -8  -5   4 66.9096 90.1305  22
   8  -5  -4 161.455 73.2389  19
  -8  -5   4 45.8679 41.2438  11
  -8  -5   4 95.3750 55.0376   5
   8  -5  -4 61.1834 53.1492  23
  -8  -5   3 4390.67 192.467  22
   8  -5  -3 4631.34 153.710   6
  -8  -5   3 4765.43 153.472  11
   8  -5  -3 4691.49 177.694  19
  -8  -5   3 4552.23 168.300   5
   8  -5  -3 4673.86 149.457  23
  -8  -5   2 8891.38 262.789  22
   8  -5  -2 9741.23 232.039   6
   8  -5  -2 9740.53 246.186  19
  -8  -5   2 9227.07 242.810   5
   8  -5  -1 2371.30 125.470   6
   8  -5  -1 2336.11 133.427  19
  -8  -5   1 2415.30 131.348   5
   8  -5  -1 2275.66 140.180  26
  -8  -5   1 2307.97 161.880  22
   8  -5   0 7089.89 219.309   6
   8  -5   0 6972.42 213.663  19
  -8  -5   0 6871.48 214.522   5
   8  -5   0 6756.29 225.234  26
  -8  -5   0 6259.54 239.970  22
  -8  -5  -1 1118.36 133.700  22
   8  -5   1 1341.15 114.105   6
   8  -5   1 1222.03 120.714   9
  -8  -5  -1 1123.07 101.175   5
   8  -5   1 1168.78 114.669  26
  -8  -5  -2 1152.58 139.203  22
   8  -5   2 1365.24 123.406   6
   8  -5   2 1186.43 95.9141  17
   8  -5   2 1421.10 129.425   9
  -8  -5  -2 1329.15 114.163   5
   8  -5   2 1161.01 115.162  26
  -8  -4  10 4595.80 219.258  22
  -8  -4  10 4682.82 202.597  11
   8  -4 -10 4851.28 205.355  19
  -8  -4  10 4564.16 213.304   9
   8  -4 -10 4729.71 219.792  15
   8  -4 -10 4514.52 199.748  23
  -8  -4   9 16849.7 381.425  22
  -8  -4   9 17548.7 369.696  11
   8  -4  -9 17436.8 368.365  19
  -8  -4   9 18144.4 387.632   9
   8  -4  -9 17509.7 376.259  15
   8  -4  -9 18329.6 366.009  23
  -8  -4   8 4231.50 197.116  22
  -8  -4   8 3778.73 167.576  11
   8  -4  -8 4072.71 179.642  19
   8  -4  -8 4456.41 189.183  15
   8  -4  -8 3893.12 165.334  23
  -8  -4   7 2805.89 167.212  22
  -8  -4   7 3059.02 145.216  11
   8  -4  -7 3047.64 152.808  19
  -8  -4   7 3009.52 127.342   5
   8  -4  -7 2965.64 153.405  15
   8  -4  -7 2940.21 138.689  23
  -8  -4   6 5004.02 195.709  22
  -8  -4   6 4989.35 174.228  11
   8  -4  -6 5111.65 187.329  19
  -8  -4   6 4945.34 165.612   5
   8  -4  -6 5031.27 175.763  15
   8  -4  -6 4904.59 163.234  23
  -8  -4   5 7396.29 231.586  22
  -8  -4   5 7403.28 204.094  11
   8  -4  -5 7535.07 220.649  19
  -8  -4   5 7357.31 201.973   5
   8  -4  -5 7423.11 194.186  15
   8  -4  -5 7665.62 192.442  23
  -8  -4   4 3545.53 168.942  22
  -8  -4   4 3676.13 138.435  11
   8  -4  -4 3814.74 157.003  19
  -8  -4   4 3559.71 146.906   5
   8  -4  -4 3501.98 126.656  23
   8  -4  -3 2599.20 113.194   6
  -8  -4   3 2419.33 111.130  11
   8  -4  -3 2617.68 135.417  19
  -8  -4   3 2557.33 127.242   5
  -8  -4   2 3972.18 183.551  22
   8  -4  -2 4312.11 152.036   6
  -8  -4   2 4180.09 136.545  11
   8  -4  -2 4141.47 161.115  19
  -8  -4   2 4086.10 160.482   5
   8  -4  -1 1997.56 113.793   6
   8  -4  -1 1707.61 113.598  19
  -8  -4   1 1792.49 115.855   5
   8  -4  -1 1803.27 120.976  26
  -8  -4   1 1696.43 141.173  22
  -8  -4   0 700.421 119.318  22
   8  -4   0 530.089 77.9232  19
   8  -4   0 673.064 83.9929   6
  -8  -4   0 691.384 84.8760   5
   8  -4   0 721.744 92.5316  26
   8  -4   1 2963.45 152.429   6
   8  -4   1 2991.01 156.605   9
  -8  -4  -1 2788.76 142.674   5
   8  -4   1 3020.72 157.552  26
  -8  -4  -1 2841.40 174.955  22
   8  -4   2 2469.44 148.879   6
   8  -4   2 2365.17 129.612  17
   8  -4   2 2498.79 153.910   9
  -8  -4  -2 2443.32 140.872   5
   8  -4   2 2255.69 145.606  26
  -8  -4  -2 2239.79 163.905  22
   8  -4   3 2285.99 155.299   6
   8  -4   3 2133.70 123.523  17
   8  -4   3 2267.69 152.466   9
  -8  -4  -3 2209.81 136.534   5
   8  -4   3 2047.08 147.416  26
  -8  -4  -3 1924.62 169.742  22
  -8  -3  10 14779.3 368.995  22
  -8  -3  10 15697.1 357.414  11
   8  -3 -10 15437.6 342.604  19
  -8  -3  10 16241.3 370.499   9
   8  -3 -10 15610.1 375.069  15
   8  -3 -10 16111.3 355.487  23
  -8  -3   9 8228.11 271.508  22
  -8  -3   9 8254.78 250.251  11
   8  -3  -9 8005.35 241.802  19
   8  -3  -9 8196.25 263.822  15
  -8  -3   9 8898.25 272.234   9
   8  -3  -9 8559.49 243.440  23
  -8  -3   8 9436.49 281.954  22
  -8  -3   8 9468.63 255.975  11
   8  -3  -8 9501.36 256.728  19
   8  -3  -8 9793.83 269.737  15
   8  -3  -8 9602.98 243.798  23
  -8  -3   7 1946.87 149.249  22
  -8  -3   7 1781.46 112.338  11
   8  -3  -7 1965.92 123.429  19
  -8  -3   7 1861.56 98.9251   5
   8  -3  -7 1784.50 126.028  15
   8  -3  -7 1812.42 107.682  23
  -8  -3   6 1123.44 114.841  22
  -8  -3   6 924.923 83.5341  11
   8  -3  -6 924.242 93.6912  19
  -8  -3   6 993.779 80.0358   5
   8  -3  -6 954.910 95.7123  15
   8  -3  -6 926.297 78.5538  23
  -8  -3   5 1569.29 123.385  22
  -8  -3   5 1629.92 100.540  11
   8  -3  -5 1758.94 112.567  19
  -8  -3   5 1715.67 101.256   5
   8  -3  -5 1700.97 104.523  15
   8  -3  -5 1719.57 92.4171  23
  -8  -3   4 1591.68 130.009  22
  -8  -3   4 1337.37 88.0460  11
   8  -3  -4 1554.46 106.909  19
  -8  -3   4 1482.49 98.0572   5
  -8  -3   3 1421.96 129.396  22
   8  -3  -3 1717.67 96.1427   6
  -8  -3   3 1625.72 90.9308  11
   8  -3  -3 1492.71 103.642  19
  -8  -3   3 1804.47 257.889   2
  -8  -3   3 1494.07 100.811   5
  -8  -3   2 13287.1 304.823  22
   8  -3  -2 14101.0 273.644   6
  -8  -3   2 14309.4 256.397  11
   8  -3  -2 13909.1 289.952  19
  -8  -3   2 13573.3 283.310   5
   8  -3  -2 13468.5 298.495  26
  -8  -3   1 915.107 114.816  22
   8  -3  -1 1232.47 97.8379   6
   8  -3  -1 1070.14 93.4323  19
  -8  -3   1 945.932 89.7444   5
   8  -3  -1 1028.01 96.4190  26
  -8  -3   0 1100.03 121.044  22
   8  -3   0 1253.22 102.172   6
   8  -3   0 1261.23 106.798  26
   8  -3   1 7342.57 224.876   6
   8  -3   1 6921.78 210.615  17
   8  -3   1 7267.98 225.906   9
   8  -3   1 7208.54 232.433  26
  -8  -3  -1 6835.97 239.807  22
   8  -3   2 2472.85 152.592   6
   8  -3   2 2355.73 129.183  17
   8  -3   2 2475.36 153.916   9
   8  -3   2 2382.98 146.485  26
  -8  -3  -2 2136.90 162.971  22
   8  -3   3 1247.11 120.606   6
   8  -3   3 1244.99 100.413  17
   8  -3   3 1356.22 130.897   9
  -8  -3  -3 1188.82 113.471   5
   8  -3   3 1212.78 118.993  26
  -8  -3  -3 1198.15 142.863  22
  -8  -2  10 1146.21 153.904  22
  -8  -2  10 1146.87 111.869  11
   8  -2 -10 1216.18 109.778  19
   8  -2 -10 1188.45 141.156  15
  -8  -2  10 1210.25 134.888   9
   8  -2 -10 1016.18 109.392  23
  -8  -2   9 5342.34 226.132  22
  -8  -2   9 5814.87 207.903  11
   8  -2  -9 5633.17 197.890  19
   8  -2  -9 5695.29 224.752  15
  -8  -2   9 5994.62 228.714   9
   8  -2  -9 5645.18 198.568  23
  -8  -2   8 1883.28 154.146  22
  -8  -2   8 1885.17 120.287  11
   8  -2  -8 1761.99 118.474  19
   8  -2  -8 1855.78 136.552  15
   8  -2  -8 1859.23 113.869  23
  -8  -2   7 74.8517 91.9942  22
   8  -2  -7 95.3994 61.7396  19
  -8  -2   7 123.434 52.8818  11
   8  -2  -7 42.8734 79.0565  15
  -8  -2   7 67.8777 39.1049   5
   8  -2  -7 139.252 56.0616  23
  -8  -2   6 5497.86 201.994  22
  -8  -2   6 5305.65 176.784  11
   8  -2  -6 5307.40 180.432  19
  -8  -2   6 5305.18 161.438   5
   8  -2  -6 5571.41 182.829  15
   8  -2  -6 5805.51 162.917  23
  -8  -2   5 6233.45 182.968  11
   8  -2  -5 6442.71 192.756  19
  -8  -2   5 6120.66 175.358   5
   8  -2  -5 6195.94 181.679  15
   8  -2  -5 6145.65 157.307  23
  -8  -2   4 6990.67 220.085  22
  -8  -2   4 7301.31 191.734  11
   8  -2  -4 7280.77 204.243  19
   8  -2  -4 7313.74 186.665  15
  -8  -2   4 7060.94 192.899   5
  -8  -2   3 8223.13 236.124  22
   8  -2  -3 8084.70 192.145   6
  -8  -2   3 7910.51 194.892  11
   8  -2  -3 8078.39 214.266  19
  -8  -2   3 8001.87 206.866   5
  -8  -2   2 9665.02 257.842  22
   8  -2  -2 10652.2 232.900   6
   8  -2  -2 10222.7 243.187  19
  -8  -2   2 10294.6 216.763  11
   8  -2  -2 9685.16 246.306  26
   8  -2  -2 9933.46 545.348  13
   8  -2  -1 3475.51 143.242   6
   8  -2  -1 3495.60 148.799  19
  -8  -2   1 3543.63 124.715  11
   8  -2  -1 3438.30 153.944  26
  -8  -2   1 3720.65 179.134  22
  -8  -2   0 173.037 92.6374  22
   8  -2   0 248.637 66.1032   6
   8  -2   0 259.858 58.6480  17
   8  -2   0 225.573 68.8893  26
  -8  -2  -1 887.467 122.981  22
   8  -2   1 632.135 86.4772   6
   8  -2   1 727.664 81.6007  17
   8  -2   1 768.877 109.800   9
   8  -2   1 694.719 90.0646  26
   8  -2   2 11503.1 291.984   6
   8  -2   2 11454.0 276.052  17
   8  -2   2 11399.1 290.052   9
   8  -2   2 11591.2 301.148  26
  -8  -2  -2 11253.5 304.024  22
   8  -2   3 2838.74 166.497   6
   8  -2   3 2932.64 146.639  17
   8  -2   3 2833.93 163.121   9
   8  -2   3 3078.30 167.119  26
  -8  -2  -3 2795.09 177.709  22
  -8  -1  10 10213.8 313.141  22
  -8  -1  10 10490.4 281.808  11
   8  -1 -10 10225.5 261.995  19
  -8  -1  10 11042.1 297.061   9
   8  -1 -10 10236.2 310.747  15
  -8  -1  10 10477.5 256.122   8
   8  -1 -10 10706.0 281.114  23
  -8  -1   9 3947.97 201.536  22
  -8  -1   9 3986.84 171.680  11
   8  -1  -9 4144.56 163.421  19
   8  -1  -9 3984.93 201.209  15
  -8  -1   9 4135.04 196.607   9
  -8  -1   9 4134.54 152.849   8
   8  -1  -9 4396.43 174.104  23
  -8  -1   8 2227.00 161.149  22
  -8  -1   8 2079.89 123.499  11
   8  -1  -8 2242.36 123.235  19
   8  -1  -8 2226.74 148.794  15
  -8  -1   8 2218.83 107.985   8
   8  -1  -8 2191.50 120.284  23
  -8  -1   7 13134.2 311.833  22
  -8  -1   7 13710.6 290.809  11
   8  -1  -7 13405.9 281.794  19
   8  -1  -7 13688.0 303.414  15
  -8  -1   7 13716.5 253.124   8
   8  -1  -7 14149.9 267.311  23
  -8  -1   6 768.434 112.643  22
  -8  -1   6 805.791 79.5982  11
   8  -1  -6 867.421 86.0888  19
  -8  -1   6 902.937 72.3186   5
   8  -1  -6 660.836 86.6969  15
   8  -1  -6 888.451 72.8515  23
  -8  -1   5 8096.34 233.394  22
  -8  -1   5 8850.91 216.292  11
   8  -1  -5 8436.79 217.066  19
   8  -1  -5 8796.93 217.934  15
  -8  -1   5 8298.53 200.248   5
  -8  -1   5 8562.52 210.049  24
  -8  -1   4 14222.7 304.924  22
  -8  -1   4 14299.2 272.737  11
   8  -1  -4 14638.9 283.667  19
   8  -1  -4 14292.0 268.040  15
  -8  -1   4 14779.3 280.829  24
  -8  -1   3 157.493 85.1274  22
   8  -1  -3 302.077 68.4725  19
   8  -1  -3 218.308 50.3991   6
  -8  -1   3 237.754 51.5994  11
   8  -1  -3 249.375 61.2428  15
  -8  -1   2 6164.60 206.436  22
   8  -1  -2 6573.96 181.193   6
  -8  -1   2 6316.47 424.446   2
   8  -1  -2 6502.53 191.616  19
  -8  -1   2 6587.98 173.306  11
   8  -1  -2 6027.02 192.024  26
   8  -1  -2 6166.90 424.439  13
  -8  -1   1 23275.2 403.526  22
   8  -1  -1 23196.1 368.483   6
  -8  -1   1 23040.4 335.146  11
   8  -1  -1 23082.8 387.269  26
  -8  -1   0 625.512 103.553  22
   8  -1   0 590.700 83.0232   6
   8  -1   0 557.055 75.4768  17
   8  -1   0 528.898 74.7805  26
   8  -1   1 6351.34 207.826   6
   8  -1   1 6491.90 204.141  17
   8  -1   1 6169.75 216.050   9
   8  -1   1 6058.52 209.725  26
  -8  -1  -1 5802.63 215.313  22
  -8  -1  -2 87.0661 88.2266  22
   8  -1   2 152.618 80.6969   6
   8  -1   2 206.756 64.9471  17
   8  -1   2 274.635 102.326   9
   8  -1   2 190.238 80.4891  26
   8  -1   3 1415.46 124.658   6
   8  -1   3 1452.31 109.670  17
   8  -1   3 1569.44 136.023   9
   8  -1   3 1509.04 128.610  26
  -8  -1  -3 1496.72 142.734  22
  -8   0  10 364.706 117.161  22
  -8   0  10 397.280 81.3470  11
   8   0 -10 454.059 119.911  15
  -8   0  10 520.572 106.444   9
  -8   0  10 498.379 77.9143   8
   8   0 -10 535.526 91.4352  23
  -8   0   9-6.91040 104.393  22
   8   0  -9 16.0675 53.8235  19
  -8   0   9 61.4279 55.7587  11
   8   0  -9 65.0540 104.250  15
  -8   0   9 53.6640 90.5817   9
  -8   0   9 58.7037 54.1147   8
   8   0  -9 139.428 74.7357  23
  -8   0   8 74.9101 105.488  22
   8   0  -8 76.6284 58.5568  19
  -8   0   8 80.2495 56.8234  11
   8   0  -8-35.3931 93.1439  15
  -8   0   8 35.9047 46.9837   8
   8   0  -8 41.7469 58.3511  23
  -8   0   7-60.7915 96.5982  22
   8   0  -7 122.755 58.9672  19
  -8   0   7 33.6981 49.5295  11
   8   0  -7-30.6345 81.8193  15
  -8   0   7-14.3210 50.4850   8
   8   0  -7 115.745 51.4772  23
  -8   0   6 1843.92 132.799  22
  -8   0   6 1806.80 105.646  11
   8   0  -6 1880.58 106.448  19
   8   0  -6 1979.99 125.561  15
  -8   0   6 1910.32 94.8971   5
  -8   0   5 8850.74 239.030  22
  -8   0   5 8598.83 216.666  11
   8   0  -5 9022.83 217.798  19
   8   0  -5 9015.89 222.612  15
  -8   0   5 8978.30 220.514  24
  -8   0   4 281.170 89.9252  22
   8   0  -4 228.346 55.7214  19
  -8   0   4 152.108 54.0146  11
   8   0  -4 205.240 65.4668  15
  -8   0   4 237.999 71.7759  24
  -8   0   3 128.976 79.7251  22
   8   0  -3 283.610 63.4348  19
   8   0  -3 232.238 52.6978   6
  -8   0   3 209.214 49.7300  11
   8   0  -3 160.004 57.6717  15
   8   0  -3 112.540 56.3976  26
  -8   0   2 15176.4 310.553  22
   8   0  -2 15090.3 281.065   6
  -8   0   2 15046.3 272.942  11
   8   0  -2 14895.1 267.002  15
   8   0  -2 14792.4 297.917  26
   8   0  -2 15284.1 666.781  13
  -8   0   1 3227.18 159.977  22
   8   0  -1 3421.76 140.759   6
  -8   0   1 3482.26 130.564  11
   8   0  -1 3491.44 148.104  17
   8   0  -1 3328.95 126.823  15
   8   0  -1 3489.05 150.919  26
   8   0   0 16831.4 327.218   6
  -8   0   0 17073.5 287.460  11
   8   0   0 17337.3 334.953  17
   8   0   0 17331.2 291.261  15
   8   0   0 16934.8 332.865  26
  -8   0   0 16192.4 335.340  22
   8   0   1 2336.48 134.468   6
   8   0   1 2495.01 133.328  17
   8   0   1 2607.58 141.204  26
  -8   0  -1 2619.94 153.991  22
   8   0   2 12280.1 300.149   6
   8   0   2 12275.8 288.445  17
   8   0   2 12443.0 305.730   9
   8   0   2 12078.9 302.891  26
  -8   0  -2 11821.9 304.130  22
   8   0   3 1275.01 122.943   6
   8   0   3 1221.13 105.462  17
   8   0   3 1074.53 128.886   9
   8   0   3 1115.34 112.416  26
  -8   0  -3 1162.71 128.914  22
  -8   1  10 10085.9 309.304  22
  -8   1  10 10294.9 274.986  11
  -8   1  10 10866.5 286.654   9
   8   1 -10 10119.2 309.694  15
  -8   1  10 10590.1 269.569   8
   8   1 -10 10164.6 269.707  23
  -8   1   9 4177.21 222.767  22
  -8   1   9 4069.27 172.381  11
   8   1  -9 4300.54 203.250  15
  -8   1   9 4176.40 191.839   9
  -8   1   9 4151.50 163.588   8
   8   1  -9 4302.88 169.525  23
  -8   1   8 2050.56 156.281  22
  -8   1   8 2179.12 125.781  11
   8   1  -8 2301.05 115.929  19
   8   1  -8 1958.19 119.754  18
   8   1  -8 2097.92 147.353  15
  -8   1   8 2113.03 117.911   8
   8   1  -8 2098.12 114.635  23
  -8   1   7 13001.7 308.513  22
  -8   1   7 13383.4 287.735  11
   8   1  -7 13541.3 267.600  19
   8   1  -7 13892.9 306.190  15
   8   1  -7 13894.9 253.590  23
  -8   1   6 773.348 107.545  22
  -8   1   6 891.326 82.3385  11
   8   1  -6 733.223 73.6369  19
   8   1  -6 907.909 99.1377  15
  -8   1   5 8321.53 230.455  22
   8   1  -5 8382.00 208.756  19
  -8   1   5 8720.56 218.018  11
   8   1  -5 8652.18 224.193  15
  -8   1   5 7834.64 214.379  24
  -8   1   4 14141.2 297.278  22
   8   1  -4 14174.7 275.317  19
  -8   1   4 14504.1 277.459  11
   8   1  -4 14437.1 281.377  15
  -8   1   4 14872.9 298.820  24
  -8   1   3 335.438 85.9187  22
   8   1  -3 212.287 59.0878  19
   8   1  -3 298.074 54.6362   6
  -8   1   3 310.882 60.4959  11
   8   1  -3 261.465 154.799   3
   8   1  -3 212.566 60.0745  15
   8   1  -3 280.768 58.7564  26
  -8   1   3 233.891 85.7479  24
  -8   1   2 6120.29 202.198  22
   8   1  -2 6319.44 182.097   6
   8   1  -2 6186.88 434.553   3
  -8   1   2 6339.74 178.957  11
   8   1  -2 6348.25 196.910  17
   8   1  -2 6401.13 179.956  15
   8   1  -2 6264.23 190.385  26
   8   1  -2 6441.15 432.112  13
  -8   1   1 23072.1 388.450  22
   8   1  -1 23425.6 371.080   6
  -8   1   1 22695.6 347.044  11
   8   1  -1 23216.8 386.150  17
   8   1  -1 22626.1 350.139  15
   8   1  -1 23003.0 378.954  26
  -8   1   0 528.061 94.6348  22
   8   1   0 580.240 80.1640   6
  -8   1   0 521.795 64.0774  11
   8   1   0 601.615 77.7919  17
   8   1   0 555.242 71.4095  15
   8   1   0 647.148 79.2025  26
   8   1   1 6169.61 206.778   6
  -8   1  -1 6212.82 175.300  11
   8   1   1 6234.14 202.034  17
   8   1   1 6219.09 183.789  15
   8   1   1 6330.59 207.905  26
  -8   1  -1 5647.71 208.067  22
  -8   1  -2 80.0807 87.6741  22
   8   1   2 142.923 76.8532   6
   8   1   2 151.305 101.813   9
   8   1   2 156.523 62.3321  17
   8   1   2 103.470 67.6505  26
   8   1   3 1506.05 127.728   6
   8   1   3 1507.25 116.981  17
   8   1   3 1475.12 138.904   9
   8   1   3 1522.35 129.134  26
  -8   1  -3 1303.86 127.989  22
  -8   2  10 1227.04 150.921  22
  -8   2  10 1255.48 109.308  11
  -8   2  10 1281.94 123.065   9
   8   2 -10 1047.32 142.792  15
  -8   2  10 1157.95 112.122   8
   8   2 -10 1230.93 116.162  23
  -8   2   9 5641.57 228.824  22
  -8   2   9 5463.83 195.579  11
   8   2  -9 5803.15 201.428  18
   8   2  -9 5540.84 230.557  15
  -8   2   9 5686.33 204.530   9
  -8   2   9 5405.35 190.791   8
   8   2  -9 5535.40 186.877  23
  -8   2   8 1741.56 143.468  22
  -8   2   8 1888.92 117.682  11
   8   2  -8 1703.16 121.250  18
   8   2  -8 2001.71 145.897  15
  -8   2   8 1885.98 117.401   8
   8   2  -8 1857.29 111.298  23
  -8   2   7 114.820 95.2647  22
   8   2  -7 105.502 50.0952  19
  -8   2   7 99.1735 56.0121  11
   8   2  -7 90.2791 64.3751  18
   8   2  -7 180.923 89.5213  15
  -8   2   7 137.131 82.1621  24
  -8   2   6 5136.86 193.979  22
   8   2  -6 5377.80 163.189  19
  -8   2   6 5426.93 178.549  11
   8   2  -6 5553.56 190.222  15
  -8   2   6 4858.47 186.682  24
  -8   2   5 6100.10 203.000  22
   8   2  -5 6013.44 174.173  19
  -8   2   5 6040.86 184.415  11
   8   2  -5 6121.63 196.883  15
  -8   2   5 6201.94 196.248  24
  -8   2   4 6826.17 207.401  22
   8   2  -4 7208.24 181.754   6
   8   2  -4 7268.17 193.625  19
  -8   2   4 7608.44 201.919  11
   8   2  -4 7200.69 203.752  15
   8   2  -4 6273.29 182.188  26
  -8   2   4 6587.30 204.930  24
  -8   2   3 8217.58 224.605  22
   8   2  -3 7858.61 197.899   6
  -8   2   3 8079.35 205.896  11
   8   2  -3 7909.26 214.054  17
   8   2  -3 7949.45 206.363  15
   8   2  -3 7897.26 202.585  26
  -8   2   3 8785.84 243.557  24
  -8   2   2 9377.21 240.689  22
   8   2  -2 10319.5 234.900   6
  -8   2   2 10610.3 233.799  11
   8   2  -2 9874.99 245.735  17
   8   2  -2 10201.6 233.101  15
   8   2  -2 9727.96 231.490  26
   8   2  -2 10240.8 553.705  13
  -8   2   1 3377.04 158.634  22
   8   2  -1 3455.05 143.366   6
  -8   2   1 3763.63 142.206  11
   8   2  -1 3584.14 154.516  17
   8   2  -1 3560.29 143.470  15
   8   2  -1 3496.64 145.269  26
  -8   2   0 278.124 90.7175  22
   8   2   0 264.173 73.1917   6
  -8   2   0 219.674 56.0278  11
   8   2   0 262.143 63.4063  17
   8   2   0 329.744 64.0804  15
   8   2   0 240.046 60.5993  26
  -8   2  -1 760.609 106.213  22
  -8   2  -1 873.785 78.0046  11
   8   2   1 741.344 91.9464   6
   8   2   1 633.444 81.9590  17
   8   2   1 660.557 76.4389  15
   8   2   1 781.724 87.7438  26
   8   2   2 11402.7 292.311   6
   8   2   2 11413.5 288.780  17
   8   2   2 11786.8 270.995  15
   8   2   2 11789.3 295.070  26
  -8   2  -2 10819.4 281.011  22
   8   2   3 2781.74 160.013   6
   8   2   3 2941.82 157.196  17
   8   2   3 2901.29 174.341   9
   8   2   3 2921.70 163.252  26
  -8   2  -3 2792.85 159.241  22
  -8   3  10 14667.3 368.778  22
  -8   3  10 15565.4 339.113  11
   8   3 -10 15789.3 360.277  18
   8   3 -10 15347.6 382.455  15
  -8   3  10 15581.6 338.043   9
  -8   3  10 15481.9 345.763   8
   8   3 -10 16381.2 338.079  23
  -8   3   9 8299.43 272.626  22
  -8   3   9 8287.86 239.478  11
   8   3  -9 8688.69 250.346  18
   8   3  -9 7956.40 269.199  15
  -8   3   9 8538.53 242.584   9
  -8   3   9 8249.49 243.885   8
   8   3  -9 8170.66 224.680  23
  -8   3   8 9477.11 274.442  22
  -8   3   8 9650.61 251.144  11
   8   3  -8 9674.68 250.523  18
   8   3  -8 9373.89 273.471  15
  -8   3   8 9840.67 253.553   8
  -8   3   8 9843.53 250.812  24
   8   3  -8 9682.45 224.769  23
  -8   3   7 2044.60 141.444  22
  -8   3   7 1950.46 116.934  11
   8   3  -7 1808.06 117.533  18
   8   3  -7 1817.46 134.635  15
  -8   3   7 2002.85 134.768  24
  -8   3   6 828.741 106.971  22
   8   3  -6 967.146 79.1703  19
  -8   3   6 845.851 85.6639  11
   8   3  -6 987.020 89.1345  18
   8   3  -6 863.551 78.6688  17
   8   3  -6 1107.35 108.521  15
  -8   3   6 844.870 111.820  24
  -8   3   5 1617.40 124.870  22
  -8   3   5 1671.30 105.960  11
   8   3  -5 1824.63 106.308  17
   8   3  -5 1664.89 124.977  15
   8   3  -5 1670.84 90.5329  14
  -8   3   5 1746.43 139.096  24
  -8   3   4 1454.61 111.422  22
  -8   3   4 1477.66 101.335  11
   8   3  -4 1433.70 95.9488  17
   8   3  -4 1553.53 114.536  15
   8   3  -4 1473.02 91.0396  14
  -8   3   4 1345.40 120.082  24
  -8   3   3 1311.32 107.674  22
   8   3  -3 1539.13 94.7469   6
  -8   3   3 1619.62 100.584  11
   8   3  -3 1538.71 102.050  17
   8   3  -3 1592.04 106.996  15
   8   3  -3 1331.87 88.8478  26
   8   3  -3 1503.67 94.1580  14
  -8   3   3 1160.26 120.103  24
  -8   3   2 13596.6 285.912  22
   8   3  -2 14235.0 283.855   6
  -8   3   2 14043.6 281.438  11
   8   3  -2 14169.1 298.589  17
   8   3  -2 14372.4 287.505  15
   8   3  -2 13837.0 273.429  26
  -8   3   2 14301.6 323.021  24
   8   3  -1 1073.64 91.1116   6
  -8   3   1 987.355 100.343  22
  -8   3   1 1090.94 87.9368  11
   8   3  -1 998.732 87.6316  17
   8   3  -1 1127.67 92.5738  15
   8   3  -1 1093.73 86.2981  26
  -8   3   0 981.015 104.076  22
   8   3   0 1267.81 105.416   6
  -8   3   0 1260.39 94.2982  11
   8   3   0 1201.78 99.6878  17
   8   3   0 1239.82 96.7249  15
   8   3   0 1191.50 93.3328  26
  -8   3  -1 7059.98 217.606  22
   8   3   1 7195.54 225.269   6
  -8   3  -1 7325.20 204.514  11
   8   3   1 7302.40 228.054  17
   8   3   1 7280.27 212.930  15
   8   3   1 7289.27 221.781  26
   8   3   2 2275.76 144.396   6
  -8   3  -2 2480.71 125.448  11
   8   3   2 2521.69 142.406  17
   8   3   2 2368.39 135.924  15
   8   3   2 2432.23 142.004  26
  -8   3  -2 2113.00 137.250  22
   8   3   3 1185.30 122.630   6
   8   3   3 1353.43 119.867  17
   8   3   3 1197.19 115.213  26
  -8   3  -3 1334.55 121.013  22
  -8   4  10 4493.27 216.662  22
  -8   4  10 4815.64 188.835  11
   8   4 -10 4855.40 217.542  18
   8   4 -10 4602.72 224.138  15
  -8   4  10 4747.26 185.633   9
  -8   4  10 4614.73 199.892   8
  -8   4   9 17439.7 380.793  22
  -8   4   9 18351.0 357.413  11
   8   4  -9 18087.3 368.101  18
   8   4  -9 17719.4 387.939  15
  -8   4   9 18171.5 343.695   9
  -8   4   9 17715.5 365.355   8
  -8   4   9 16722.3 341.333  24
  -8   4   8 4168.30 190.945  22
  -8   4   8 3999.82 166.885  11
   8   4  -8 4133.41 180.000  18
   8   4  -8 3912.85 191.678  15
  -8   4   8 3863.89 174.207   8
  -8   4   8 4104.40 178.061  24
  -8   4   7 2839.78 160.140  22
  -8   4   7 3241.26 147.565  11
   8   4  -7 3086.21 149.666  18
   8   4  -7 3066.55 161.686  15
  -8   4   7 2629.72 157.746  24
  -8   4   6 4958.79 191.832  22
  -8   4   6 4741.07 173.406  11
   8   4  -6 4971.36 169.847  18
   8   4  -6 4722.65 163.130  17
   8   4  -6 4706.67 189.542  15
  -8   4   6 4893.79 193.666  24
  -8   4   5 7027.42 215.300  22
  -8   4   5 7437.48 210.466  11
   8   4  -5 7287.76 192.293  18
   8   4  -5 7333.98 206.005  17
   8   4  -5 7379.88 221.556  15
   8   4  -5 7568.00 192.287  14
  -8   4   5 7274.56 231.890  24
  -8   4   4 3502.48 153.797  22
  -8   4   4 3798.83 150.908  11
   8   4  -4 3608.07 130.927  18
   8   4  -4 3582.62 147.525  17
   8   4  -4 3789.78 159.264  15
   8   4  -4 3783.67 141.814  14
  -8   4   3 2695.82 139.393  22
  -8   4   3 2551.64 128.805  11
   8   4  -3 2520.16 127.482  17
   8   4  -3 2583.24 133.332  15
   8   4  -3 2584.86 123.625  14
  -8   4   2 3843.57 155.314  22
   8   4  -2 4085.77 159.057   6
  -8   4   2 4204.98 157.816  11
   8   4  -2 4088.24 162.899  17
   8   4  -2 4114.36 161.889  15
   8   4  -2 4173.40 146.955  26
   8   4  -2 4158.69 158.349  14
  -8   4   2 4196.09 193.638  24
  -8   4   1 1795.73 117.105  22
   8   4  -1 1726.68 113.240   6
  -8   4   1 1882.56 110.195  11
   8   4  -1 1853.11 119.087  17
   8   4  -1 1760.76 114.228  15
   8   4  -1 1738.33 102.687  26
   8   4  -1 1731.26 113.859  14
  -8   4   1 1853.52 151.973  24
  -8   4   0 880.512 100.503  22
   8   4   0 647.416 83.8258   6
  -8   4   0 666.185 79.9628  11
   8   4   0 643.917 84.3117  17
   8   4   0 658.698 82.4251  15
   8   4   0 693.802 76.7638  26
   8   4   1 2855.83 153.115   6
  -8   4  -1 2924.73 137.894  11
   8   4   1 2927.63 153.580  17
   8   4   1 3027.66 147.906  15
   8   4   1 2976.67 144.785  26
   8   4   2 2334.90 146.954   6
  -8   4  -2 2451.63 130.004  11
   8   4   2 2417.95 144.604  17
   8   4   2 2699.28 146.406  15
   8   4   2 2417.18 139.113  26
   8   4   3 2232.11 150.226   6
  -8   4  -3 2282.42 127.892  11
   8   4   3 2166.38 143.596  17
   8   4   3 1933.81 139.935  26
  -8   5   9 1214.10 128.394  22
  -8   5   9 1426.41 109.704  11
   8   5  -9 1513.65 140.814  18
   8   5  -9 1340.22 138.507  15
  -8   5   9 1424.98 126.888   8
  -8   5   9 1267.94 122.190  24
  -8   5   8 1029.37 120.234  22
  -8   5   8 859.770 90.9568  11
   8   5  -8 981.750 118.159  18
   8   5  -8 919.865 122.489  15
  -8   5   8 841.372 102.694   8
  -8   5   8 810.235 120.297  24
  -8   5   7 1372.08 129.296  22
  -8   5   7 1492.15 111.946  11
   8   5  -7 1542.98 125.407  18
   8   5  -7 1218.39 124.944  15
  -8   5   7 1650.99 139.499  24
  -8   5   6 15102.0 320.509  22
  -8   5   6 15260.4 314.341  11
   8   5  -6 15481.2 304.168  18
   8   5  -6 15075.3 292.473  17
   8   5  -6 15189.1 329.671  15
   8   5  -6 15290.1 280.197  14
  -8   5   6 15084.8 340.617  24
  -8   5   5 2774.99 143.004  22
  -8   5   5 2688.39 137.310  11
   8   5  -5 2625.84 129.371  18
   8   5  -5 2446.32 122.235  17
   8   5  -5 2900.76 152.240  15
   8   5  -5 2765.37 124.645  14
  -8   5   5 2850.24 185.739  24
  -8   5   4 99.0298 74.2508  22
  -8   5   4 43.7009 61.4450  11
   8   5  -4 84.1584 52.2977  18
   8   5  -4 79.2953 46.8593  17
   8   5  -4 96.5396 71.0984  15
   8   5  -4 149.080 62.0124  14
  -8   5   4 255.137 122.211  24
  -8   5   3 4465.49 163.791  22
  -8   5   3 4982.12 176.542  11
   8   5  -3 4653.54 152.284  18
   8   5  -3 4627.46 172.272  17
   8   5  -3 4730.79 177.217  15
   8   5  -3 4719.07 167.947  14
  -8   5   3 4206.87 195.167  24
  -8   5   2 8988.57 222.371  22
  -8   5   2 9995.46 245.989  11
   8   5  -2 9758.32 218.326  18
   8   5  -2 10019.2 253.940  17
   8   5  -2 9763.01 251.742  15
   8   5  -2 9746.62 247.138  14
  -8   5   1 2520.04 131.005  11
   8   5  -1 2417.78 111.765  18
   8   5  -1 2481.49 135.590  17
   8   5  -1 2347.13 134.765  15
   8   5  -1 2388.85 116.806  26
   8   5  -1 2412.71 134.525  14
  -8   5   1 2333.07 168.354  24
   8   5   0 6981.74 223.533   6
  -8   5   0 7561.32 215.551  11
   8   5   0 7088.88 227.911  17
   8   5   0 7058.05 220.363  15
   8   5   0 7025.39 205.811  26
   8   5   0 6970.63 223.529  14
   8   5   1 1214.82 112.920   6
  -8   5  -1 1108.45 96.8774  11
   8   5   1 1174.67 109.802  17
   8   5   1 1178.71 111.428  15
   8   5   1 1113.54 97.5875  26
  -8   5  -1 1033.32 142.669  24
   8   5   2 1175.96 119.450   6
  -8   5  -2 1376.94 104.605  11
   8   5   2 1167.21 113.655  17
   8   5   2 1259.49 110.157  26
  -8   6   9 4421.12 203.683  22
  -8   6   9 4605.86 182.314  11
   8   6  -9 4505.92 210.551  18
   8   6  -9 4046.07 205.910  15
  -8   6   9 4463.57 202.478   8
  -8   6   9 4167.71 195.477  24
  -8   6   8 991.837 115.559  22
  -8   6   8 852.706 94.6852  11
   8   6  -8 1006.21 123.130  18
   8   6  -8 720.974 122.652  15
  -8   6   8 862.698 108.610   8
  -8   6   8 969.656 126.520  24
  -8   6   7 12645.3 301.931  22
  -8   6   7 13145.3 296.962  11
   8   6  -7 13285.5 306.767  18
   8   6  -7 12716.5 319.261  15
  -8   6   6 3749.92 170.926  22
  -8   6   6 3996.03 167.151  11
   8   6  -6 4163.61 173.633  18
   8   6  -6 3841.22 147.263  17
   8   6  -6 3737.16 179.863  15
   8   6  -6 3817.02 147.259  14
  -8   6   6 3499.62 203.920  24
  -8   6   5 237.430 82.5134  22
  -8   6   5 168.224 70.5918  11
   8   6  -5 130.000 70.6319  18
   8   6  -5 166.541 51.8467  17
   8   6  -5 269.268 89.2050  15
   8   6  -5 157.671 58.5163  14
  -8   6   5 393.332 127.413  24
  -8   6   4 4333.15 167.585  22
  -8   6   4 4875.48 180.654  11
   8   6  -4 4645.48 163.584  18
   8   6  -4 4724.36 171.370  17
   8   6  -4 4463.55 180.214  15
   8   6  -4 4803.07 172.134  14
  -8   6   4 4075.16 207.834  24
  -8   6   3 1022.98 95.9778  11
   8   6  -3 943.604 83.0068  18
   8   6  -3 1001.88 92.2968  17
   8   6  -3 1164.83 110.397  15
   8   6  -3 1025.99 94.2613  14
  -8   6   3 1130.80 154.359  24
  -8   6   2 4284.61 170.965  11
   8   6  -2 4150.42 150.936  18
   8   6  -2 4397.06 174.345  17
   8   6  -2 4072.72 171.523  15
   8   6  -2 4326.88 173.721  14
  -8   6   2 4348.51 215.138  24
  -8   6   1 9106.82 246.309  11
   8   6  -1 8974.77 223.454  18
   8   6  -1 9218.47 258.977  17
   8   6  -1 8956.99 250.925  15
   8   6  -1 8641.09 248.336  14
  -8   6   1 9214.81 296.695  24
  -8   6   0 3824.13 162.859  11
   8   6   0 3470.79 145.348  18
   8   6   0 3540.80 171.621  17
   8   6   0 3517.12 169.400  15
   8   6   0 3476.09 146.194  26
   8   6   0 3557.49 169.828  14
  -8   6   0 3725.68 215.471  24
  -8   6  -1 2030.95 128.301  11
   8   6   1 1941.61 115.564  18
   8   6   1 1921.76 135.615  17
   8   6   1 2089.33 139.133  15
   8   6   1 2120.36 126.085  26
   8   6   1 2024.28 145.252  14
  -8   6  -1 2000.17 172.042  24
  -8   6  -2 3272.03 159.415  11
   8   6   2 3242.35 152.017  18
   8   6   2 3236.81 178.917  17
   8   6   2 3347.85 163.142  26
  -8   7   8 2227.87 148.732  22
  -8   7   8 2151.16 133.220  11
   8   7  -8 2206.68 160.260  18
   8   7  -8 2148.83 161.854  15
  -8   7   8 2071.31 149.854   8
  -8   7   8 2108.41 159.687  24
  -8   7   7 1096.35 112.306  22
  -8   7   7 1041.19 104.114  11
   8   7  -7 1123.74 127.985  18
   8   7  -7 1172.57 127.361  15
  -8   7   7 1274.82 143.054  24
  -8   7   6 8089.91 233.392  22
  -8   7   6 8225.30 239.937  11
   8   7  -6 8256.88 243.537  18
   8   7  -6 8213.01 253.563  15
   8   7  -6 8410.59 224.806  14
  -8   7   6 8070.45 267.948  24
  -8   7   5 7587.19 228.396  11
   8   7  -5 7831.90 228.422  18
   8   7  -5 7769.22 214.657  17
   8   7  -5 7478.24 237.079  15
   8   7  -5 7852.84 221.421  14
  -8   7   5 7302.00 267.860  24
  -8   7   4 8338.26 240.837  11
   8   7  -4 8596.18 232.303  18
   8   7  -4 8726.22 234.816  17
   8   7  -4 8714.85 251.680  15
   8   7  -4 8741.76 239.109  14
  -8   7   4 8794.77 291.318  24
  -8   7   3 14815.3 320.544  11
   8   7  -3 15154.4 305.451  18
   8   7  -3 14936.4 317.616  17
   8   7  -3 14822.3 326.280  15
   8   7  -3 14944.1 321.935  14
  -8   7   3 14383.0 372.252  24
  -8   7   2 4300.99 176.256  11
   8   7  -2 4433.54 165.238  18
   8   7  -2 4382.68 179.092  17
   8   7  -2 4201.77 182.243  15
   8   7  -2 4159.87 177.155  14
  -8   7   2 4044.09 227.352  24
  -8   7   1 1126.53 105.165  11
   8   7  -1 1118.22 96.4260  18
   8   7  -1 1221.78 109.430  17
   8   7  -1 1165.56 114.039  15
   8   7  -1 1199.65 110.351  14
  -8   7   1 1553.31 179.921  24
  -8   7   0 6866.68 223.325  11
   8   7   0 6683.79 207.232  18
   8   7   0 7020.82 237.770  17
   8   7   0 7054.89 233.324  15
   8   7   0 6757.59 233.665  14
  -8   7  -1 539.011 85.2101  11
   8   7   1 537.894 79.5685  18
   8   7   1 599.109 101.350  17
   8   7   1 619.281 102.129  15
   8   7   1 608.334 101.164  14
  -8   7  -1 397.865 135.137  24
  -8   8   7 93.6650 80.6945  22
  -8   8   7 97.9191 73.7360  11
   8   8  -7 46.7499 100.276  18
  -8   8   7 189.567 82.3683  10
   8   8  -7-2.75034 89.1448  15
  -8   8   7 275.233 131.324  24
  -8   8   6 895.801 103.831  11
   8   8  -6 804.024 112.087  18
   8   8  -6 813.102 111.997  15
   8   8  -6 858.297 92.7642  14
  -8   8   6 609.759 147.342  24
  -8   8   5 1809.43 128.812  11
   8   8  -5 1830.24 133.739  18
   8   8  -5 1846.48 112.317  17
   8   8  -5 1729.01 135.902  15
   8   8  -5 1739.40 118.363  14
  -8   8   5 1757.40 170.859  24
  -8   8   4 28495.1 461.952  11
   8   8  -4 27426.4 443.455  18
   8   8  -4 27839.3 440.706  17
   8   8  -4 27911.5 466.859  15
   8   8  -4 27759.4 452.789  14
  -8   8   4 28152.8 519.122  24
  -8   8   3 6867.98 224.212  11
   8   8  -3 6842.88 216.024  18
   8   8  -3 7064.51 221.228  17
   8   8  -3 6914.44 232.639  15
   8   8  -3 6920.36 227.613  14
  -8   8   3 6310.35 275.466  24
  -8   8   2 9891.42 270.824  11
   8   8  -2 9821.02 256.185  18
   8   8  -2 9552.16 269.157  17
   8   8  -2 9530.21 272.974  15
   8   8  -2 10186.6 278.973  14
  -8   8   2 10006.6 344.924  24
  -8   8   1 2674.25 150.428  11
   8   8  -1 2713.07 142.372  18
   8   8  -1 2621.28 152.288  17
   8   8  -1 2632.10 158.185  15
   8   8  -1 2686.52 156.112  14
  -8   8   1 3028.19 207.404  24
  -8   8   0 753.608 98.7194  11
   8   8   0 636.295 87.1864  18
   8   8   0 643.689 96.2426  17
   8   8   0 777.411 105.484  15
   8   8   0 644.447 99.3574  14
  -8   8   0 683.836 157.046  24
  -8   9   6 4816.43 194.932  11
   8   9  -6 4800.29 207.928  18
   8   9  -6 5029.69 208.859  15
   8   9  -6 4813.62 189.404  14
  -8   9   6 4517.84 227.323  24
  -8   9   5 5745.86 212.382  11
   8   9  -5 5821.01 217.722  18
   8   9  -5 5538.90 216.320  15
   8   9  -5 5555.91 205.870  14
  -8   9   5 5871.66 258.327  24
  -8   9   4 8944.65 261.529  11
   8   9  -4 8734.18 255.541  18
   8   9  -4 8714.03 245.710  17
   8   9  -4 8446.90 264.881  15
   8   9  -4 8723.73 260.692  14
  -8   9   4 7907.42 301.483  24
  -8   9   3 14064.7 328.727  11
   8   9  -3 13779.1 317.736  18
   8   9  -3 13593.5 317.798  17
   8   9  -3 13622.9 332.689  15
   8   9  -3 13176.3 325.040  14
  -8   9   3 13837.5 379.826  24
  -8   9   2 1029.66 110.496  11
   8   9  -2 945.323 100.482  18
   8   9  -2 929.058 102.755  17
   8   9  -2 894.675 113.741  15
   8   9  -2 924.504 109.686  14
  -8   9   2 862.174 175.189  24
  -8   9   1 567.593 96.7535  11
   8   9  -1 575.291 88.7146  18
   8   9  -1 592.223 94.3825  17
   8   9  -1 588.092 104.565  15
   8   9  -1 697.416 108.493  14
  -8   9   1 394.940 153.925  24
  -9  -8   4 2377.25 174.123  22
   9  -8  -4 2104.93 148.845  19
  -9  -8   4 2219.03 146.074   5
   9  -8  -4 2106.83 131.241  23
  -9  -7   6 1644.08 151.418  22
  -9  -7   6 1521.41 116.651  11
   9  -7  -6 1862.23 149.259  19
  -9  -7   6 1681.88 125.178   5
   9  -7  -6 1717.57 107.655   4
   9  -7  -6 1739.28 126.756  23
  -9  -7   5 630.881 129.915  22
  -9  -7   5 773.237 91.1307  11
   9  -7  -5 793.752 109.629  19
  -9  -7   5 749.908 99.2086   5
   9  -7  -5 879.444 95.5767  23
  -9  -7   4 323.211 121.240  22
   9  -7  -4 435.861 94.8658  19
  -9  -7   4 261.451 60.7502  11
  -9  -7   4 339.014 80.8743   5
   9  -7  -4 236.546 65.8143  23
  -9  -7   3 532.762 129.312  22
   9  -7  -3 511.615 105.897  19
   9  -7  -3 432.689 73.3770   6
  -9  -7   3 647.499 104.855  16
  -9  -7   3 400.778 96.8777   5
   9  -7  -3 391.126 69.7051  23
  -9  -7   2 4523.50 227.828  22
   9  -7  -2 5451.47 197.223   6
   9  -7  -2 5162.27 208.298  19
  -9  -7   2 5314.76 213.229  16
  -9  -7   2 5321.01 213.480   5
   9  -7  -2 4931.67 218.634  26
  -9  -7   1 1462.51 165.653  22
   9  -7  -1 1132.18 109.742   6
   9  -7  -1 1304.06 117.537  19
  -9  -7   1 1333.39 125.197   5
   9  -7  -1 1196.79 127.853  26
  -9  -6   7 6128.53 243.460  22
  -9  -6   7 5819.10 214.616  11
   9  -6  -7 6395.41 234.158  19
  -9  -6   7 5944.59 204.896   5
  -9  -6   7 6023.39 242.883  25
   9  -6  -7 6282.70 211.544  23
  -9  -6   6 4520.25 211.834  22
  -9  -6   6 4412.49 178.891  11
   9  -6  -6 4565.34 199.981  19
  -9  -6   6 4740.42 184.377   5
   9  -6  -6 4657.77 177.741  23
  -9  -6   5 1778.83 153.132  22
  -9  -6   5 1754.72 114.707  11
   9  -6  -5 1601.46 133.112  19
  -9  -6   5 1900.86 127.035   5
   9  -6  -5 1604.10 108.090  23
  -9  -6   4 1677.23 155.602  22
  -9  -6   4 1495.10 101.604  11
   9  -6  -4 1517.63 127.514  19
  -9  -6   4 1488.56 116.202   5
   9  -6  -4 1419.50 100.339  23
  -9  -6   3 1336.37 146.212  22
   9  -6  -3 1465.37 104.329   6
   9  -6  -3 1577.84 123.683  19
  -9  -6   3 1675.06 124.018   5
  -9  -6   2 1398.09 150.120  22
   9  -6  -2 1340.72 107.449   6
   9  -6  -2 1297.32 116.549  19
  -9  -6   2 1267.50 114.522   5
   9  -6  -2 1392.24 127.682  26
  -9  -6   1 807.127 147.661  22
   9  -6  -1 902.966 98.9082   6
   9  -6  -1 842.646 100.531  19
  -9  -6   1 970.946 108.623   5
   9  -6  -1 827.714 109.902  26
  -9  -6   0 979.159 158.761  22
   9  -6   0 1009.95 109.427   6
  -9  -6   0 1175.52 117.339   5
   9  -6   0 1009.89 121.216  26
  -9  -5   8 9075.61 292.577  22
  -9  -5   8 9088.81 267.851  11
   9  -5  -8 9086.55 276.404  19
  -9  -5   8 9216.53 239.870   5
   9  -5  -8 9125.91 269.946  15
   9  -5  -8 9037.74 254.234  23
  -9  -5   7 13002.4 337.587  22
  -9  -5   7 12287.9 302.609  11
   9  -5  -7 13137.3 327.302  19
  -9  -5   7 13097.3 291.455   5
   9  -5  -7 13468.4 303.079  15
  -9  -5   7 12573.5 323.817  25
   9  -5  -7 13364.4 297.990  23
  -9  -5   6 9195.94 282.524  22
  -9  -5   6 9139.13 249.215  11
   9  -5  -6 8938.96 268.021  19
  -9  -5   6 9320.44 248.216   5
   9  -5  -6 9086.28 234.042  23
  -9  -5   5 5338.31 220.048  22
  -9  -5   5 5324.17 186.277  11
   9  -5  -5 5412.58 205.252  19
  -9  -5   5 4964.75 186.648   5
   9  -5  -5 5263.14 173.946  23
  -9  -5   4 7478.60 264.077  22
  -9  -5   4 7928.06 219.095  11
   9  -5  -4 7870.95 243.961  19
  -9  -5   4 7791.31 231.918   5
   9  -5  -3 2417.25 125.041   6
  -9  -5   3 2362.49 117.644  11
   9  -5  -3 2442.40 146.824  19
  -9  -5   3 2318.07 136.748   5
  -9  -5   2 688.244 137.399  22
   9  -5  -2 641.726 99.7876  19
   9  -5  -2 616.050 82.6835   6
  -9  -5   2 607.274 90.9538   5
   9  -5  -2 532.757 100.105  26
  -9  -5   1 2171.63 179.592  22
   9  -5  -1 2401.14 136.275   6
   9  -5  -1 2389.28 142.314  19
  -9  -5   1 2393.60 144.542   5
   9  -5  -1 2290.42 151.265  26
   9  -5   0 6754.66 229.324   6
  -9  -5   0 6388.50 228.671   5
   9  -5   0 6193.08 234.321  26
  -9  -5   0 5980.43 264.858  22
  -9  -4   9 1955.54 165.901  22
  -9  -4   9 1934.72 143.955  11
   9  -4  -9 2162.61 145.779  19
   9  -4  -9 1925.40 156.428  15
  -9  -4   9 2084.49 173.840   9
   9  -4  -9 2084.06 137.210  23
  -9  -4   8 307.683 129.024  22
   9  -4  -8 376.269 90.9278  19
  -9  -4   8 174.122 72.0673  11
   9  -4  -8 370.684 104.080  15
   9  -4  -8 346.084 80.4320  23
  -9  -4   7 7088.18 254.234  22
  -9  -4   7 6603.90 218.650  11
   9  -4  -7 6902.41 234.693  19
  -9  -4   7 6716.75 203.771   5
   9  -4  -7 6557.71 218.508  15
   9  -4  -7 6877.55 207.415  23
  -9  -4   6 12539.3 325.195  22
  -9  -4   6 12854.0 291.560  11
   9  -4  -6 12275.8 305.010  19
  -9  -4   6 12359.1 281.983   5
   9  -4  -6 12917.7 281.716  15
   9  -4  -6 12817.5 268.152  23
  -9  -4   5 8574.41 269.445  22
  -9  -4   5 8359.43 229.219  11
   9  -4  -5 8643.32 250.625  19
  -9  -4   5 8430.27 234.010   5
  -9  -4   4 2520.96 165.667  22
  -9  -4   4 2719.03 131.297  11
   9  -4  -4 2641.27 146.639  19
  -9  -4   4 2792.99 139.587   5
  -9  -4   3 2608.93 181.087  22
   9  -4  -3 2238.68 117.971   6
  -9  -4   3 2203.02 112.768  11
   9  -4  -3 2240.01 139.190  19
  -9  -4   3 2164.76 128.320   5
  -9  -4   2 3547.65 196.093  22
   9  -4  -2 3997.45 162.136   6
   9  -4  -2 3739.74 171.174  19
  -9  -4   2 3738.73 166.695   5
   9  -4  -2 3565.35 175.854  26
  -9  -4   1 476.925 134.466  22
   9  -4  -1 524.802 93.3953  19
   9  -4  -1 591.554 85.5693   6
  -9  -4   1 569.618 90.4216   5
   9  -4  -1 538.926 96.8909  26
  -9  -4   0 1051.30 149.916  22
   9  -4   0 1287.67 117.203   6
  -9  -4   0 1185.15 112.588   5
   9  -4   0 1221.78 120.156  26
  -9  -4  -1 461.913 135.865  22
   9  -4   1 503.971 98.9900   6
   9  -4   1 485.959 83.2142  17
  -9  -4  -1 423.549 92.7887   5
   9  -4   1 468.763 95.8023  26
  -9  -3   9 242.699 128.777  22
   9  -3  -9 276.159 86.3948  19
  -9  -3   9 166.974 79.9591  11
   9  -3  -9 245.678 107.287  15
  -9  -3   9 72.0893 112.538   9
   9  -3  -9 215.814 78.7248  23
  -9  -3   8 6030.26 246.615  22
  -9  -3   8 5987.39 214.167  11
   9  -3  -8 6136.68 216.830  19
   9  -3  -8 6161.25 224.551  15
   9  -3  -8 6128.60 199.438  23
  -9  -3   7 5306.63 227.645  22
  -9  -3   7 5073.93 189.625  11
   9  -3  -7 5157.93 196.596  19
  -9  -3   7 4831.65 168.730   5
   9  -3  -7 5035.79 194.399  15
   9  -3  -7 5132.45 175.373  23
  -9  -3   6 12968.8 324.757  22
  -9  -3   6 13177.6 296.004  11
   9  -3  -6 13663.4 310.210  19
  -9  -3   6 13440.3 284.681   5
   9  -3  -6 13679.5 292.362  15
  -9  -3   5 411.032 118.900  22
   9  -3  -5 433.405 84.3860  19
  -9  -3   5 470.332 71.1335  11
   9  -3  -5 483.738 77.1046  15
  -9  -3   5 457.632 70.7112   5
  -9  -3   4 1963.69 156.055  22
  -9  -3   4 1899.25 109.584  11
   9  -3  -4 1954.71 130.811  19
  -9  -3   4 1991.66 120.698   5
  -9  -3   3 3426.83 189.547  22
   9  -3  -3 3900.91 150.351   6
  -9  -3   3 3954.56 148.338  11
   9  -3  -3 4067.73 170.774  19
  -9  -3   3 3605.68 158.902   5
   9  -3  -3 3075.11 163.866  26
  -9  -3   2 368.147 114.052  22
   9  -3  -2 234.940 75.7063  19
   9  -3  -2 179.136 61.0861   6
  -9  -3   2 209.774 49.5394  11
  -9  -3   2 257.458 74.2752   5
   9  -3  -2 354.841 85.3928  26
  -9  -3   1 1023.54 142.361  22
   9  -3  -1 1186.27 106.183   6
  -9  -3   1 1164.27 109.488   5
   9  -3  -1 1135.82 115.070  26
   9  -3   0 4816.99 194.787   6
   9  -3   0 4718.69 188.019  17
  -9  -3   0 4691.82 192.899   5
   9  -3   0 4582.06 199.303  26
  -9  -3   0 4265.17 212.159  22
  -9  -3  -1 123.148 113.088  22
   9  -3   1 322.946 95.8019   6
   9  -3   1 222.165 67.3765  17
  -9  -3  -1 222.729 82.9443   5
   9  -3   1 148.234 79.9878  26
  -9  -2   9 5957.66 255.528  22
  -9  -2   9 5822.97 215.994  11
   9  -2  -9 6332.02 217.523  19
   9  -2  -9 6092.64 236.926  15
  -9  -2   9 6158.89 238.798   9
   9  -2  -9 6250.02 209.622  23
  -9  -2   8 2022.84 161.840  22
  -9  -2   8 2150.89 135.540  11
   9  -2  -8 2272.69 136.943  19
   9  -2  -8 2084.79 149.978  15
   9  -2  -8 2146.64 125.013  23
  -9  -2   7 1100.73 144.270  22
  -9  -2   7 814.118 92.9429  11
   9  -2  -7 825.060 94.2053  19
  -9  -2   7 847.245 78.4633   5
   9  -2  -7 899.869 107.839  15
   9  -2  -7 824.186 82.2956  23
  -9  -2   6 9404.35 275.724  22
  -9  -2   6 9614.57 247.649  11
   9  -2  -6 9898.16 259.627  19
  -9  -2   6 9592.59 234.279   5
   9  -2  -6 9902.88 253.522  15
  -9  -2   5 7824.99 251.952  22
  -9  -2   5 8014.61 219.690  11
   9  -2  -5 7863.50 230.599  19
   9  -2  -5 8024.62 217.635  15
  -9  -2   5 7686.40 214.251   5
  -9  -2   4 6822.10 239.123  22
   9  -2  -4 6909.31 184.533   6
  -9  -2   4 6973.41 200.787  11
   9  -2  -4 6443.65 209.485  19
   9  -2  -4 6897.23 193.860  15
  -9  -2   4 6816.79 205.512   5
  -9  -2   3 573.057 120.460  22
   9  -2  -3 366.189 82.5494  19
   9  -2  -3 513.900 71.3983   6
  -9  -2   3 446.550 63.9632  11
  -9  -2   3 427.361 75.2474   5
   9  -2  -3 486.551 87.6136  26
  -9  -2   2 498.365 119.887  22
   9  -2  -2 612.732 87.0749  19
   9  -2  -2 666.432 82.7179   6
  -9  -2   2 554.088 68.0295  11
   9  -2  -2 535.237 88.3422  26
  -9  -2   1 8646.85 276.009  22
   9  -2  -1 8405.96 238.812   6
   9  -2  -1 8300.25 252.070  26
   9  -2   0 7036.69 228.692   6
   9  -2   0 7017.53 228.114  17
   9  -2   0 6994.38 238.406  26
  -9  -2   0 6908.37 256.557  22
   9  -2   1 5242.11 209.363   6
   9  -2   1 5354.39 204.750  17
   9  -2   1 5076.93 212.052  26
  -9  -2  -1 5048.40 229.807  22
  -9  -1   9 9152.05 304.073  22
  -9  -1   9 9013.24 266.002  11
   9  -1  -9 9747.10 259.741  19
   9  -1  -9 9633.87 291.611  15
   9  -1  -9 9727.78 253.054  23
  -9  -1   8 9183.47 293.522  22
  -9  -1   8 8965.55 258.209  11
   9  -1  -8 9421.04 253.110  19
   9  -1  -8 9447.06 275.355  15
   9  -1  -8 9639.50 235.829  23
  -9  -1   7 4613.83 211.884  22
  -9  -1   7 4538.70 179.547  11
   9  -1  -7 4635.35 177.115  19
  -9  -1   7 4810.09 159.047   5
   9  -1  -7 4844.30 194.811  15
  -9  -1   6 1918.25 151.638  22
  -9  -1   6 1664.85 112.959  11
   9  -1  -6 1917.27 123.130  19
  -9  -1   6 1763.45 107.487   5
   9  -1  -6 1867.11 127.494  15
  -9  -1   5 432.622 103.215  22
   9  -1  -5 364.965 76.0901  19
  -9  -1   5 331.975 68.0305  11
   9  -1  -5 392.254 77.7897  15
  -9  -1   5 456.542 68.3357   5
  -9  -1   5 437.513 87.0681  24
   9  -1  -4 1184.90 84.4368   6
  -9  -1   4 1060.30 120.626  22
   9  -1  -4 1131.84 102.450  19
  -9  -1   4 1232.29 92.1111  11
   9  -1  -4 1225.25 97.7797  15
  -9  -1   4 1002.71 105.191  24
   9  -1  -3 21783.2 353.614   6
   9  -1  -3 21494.6 381.150  19
  -9  -1   3 21238.0 354.744  11
   9  -1  -3 21781.8 345.657  15
   9  -1  -3 20874.6 384.022  26
  -9  -1   2 6861.52 238.944  22
   9  -1  -2 6965.33 207.762   6
  -9  -1   2 6922.30 192.958  11
   9  -1  -2 6975.53 188.205  15
   9  -1  -2 6882.42 222.661  26
  -9  -1   1 28099.8 488.111  22
   9  -1  -1 29372.9 455.168   6
  -9  -1   1 29949.6 413.691  11
   9  -1  -1 29912.9 474.416  17
   9  -1  -1 28684.5 473.260  26
  -9  -1   0 9672.70 296.056  22
   9  -1   0 10175.8 272.119   6
   9  -1   0 10105.7 272.615  17
   9  -1   0 9822.35 275.852  26
  -9  -1  -1 424.642 117.234  22
   9  -1   1 568.534 98.4346   6
   9  -1   1 519.671 83.9064  17
   9  -1   1 694.537 99.6255  26
  -9  -1  -2 834.566 132.998  22
   9  -1   2 1098.03 126.719   6
   9  -1   2 1039.97 107.639  17
   9  -1   2 1016.16 121.631  26
  -9   0   9-136.827 122.445  22
   9   0  -9 135.428 64.0663  19
  -9   0   9 30.0210 70.5315  11
   9   0  -9 61.6624 105.583  15
  -9   0   9-12.7423 100.154   9
  -9   0   9 23.1489 54.6851   8
   9   0  -9 107.900 67.4024  23
  -9   0   8 1763.30 167.413  22
  -9   0   8 1522.92 117.492  11
   9   0  -8 1650.48 112.477  19
   9   0  -8 1626.48 138.115  15
  -9   0   8 1773.57 109.567   8
  -9   0   7 12855.5 328.576  22
  -9   0   7 13445.7 303.481  11
   9   0  -7 13480.0 293.372  19
   9   0  -7 13464.3 315.399  15
  -9   0   7 13354.1 271.779   8
  -9   0   6 29621.8 486.056  22
  -9   0   6 29684.0 454.005  11
   9   0  -6 29737.8 447.514  19
   9   0  -6 30142.7 459.851  15
  -9   0   6 29924.3 420.258   5
  -9   0   5 267.335 100.530  22
   9   0  -5 151.339 66.3000  19
  -9   0   5 118.470 57.6727  11
   9   0  -5 193.665 83.4965  15
  -9   0   5 283.662 90.1207  24
  -9   0   4 130.956 94.8128  22
   9   0  -4 63.5940 48.4219   6
   9   0  -4 40.1454 61.2600  19
  -9   0   4 33.4184 49.6359  11
   9   0  -4 15.0915 64.5567  15
   9   0  -4 33.1361 63.1295  26
  -9   0   4 115.727 81.6886  24
  -9   0   3 1769.18 143.815  22
   9   0  -3 1591.45 103.961   6
   9   0  -3 1541.48 114.777  19
  -9   0   3 1650.84 107.091  11
   9   0  -3 1448.48 103.596  15
   9   0  -3 1559.34 114.336  26
  -9   0   2 34463.6 517.158  22
   9   0  -2 34066.2 476.618   6
  -9   0   2 34210.8 463.422  11
   9   0  -2 34378.0 508.360  17
   9   0  -2 34665.4 456.288  15
   9   0  -2 34403.5 501.409  26
  -9   0   1 4459.98 206.520  22
   9   0  -1 3969.69 168.823   6
  -9   0   1 4227.02 155.067  11
   9   0  -1 4230.16 175.304  17
   9   0  -1 4149.27 153.764  15
   9   0  -1 4115.90 176.730  26
  -9   0   0 9582.42 285.241  22
   9   0   0 9973.70 269.087   6
  -9   0   0 9957.73 232.749  11
   9   0   0 9965.17 272.749  17
   9   0   0 9632.48 270.417  26
  -9   0  -1 316.388 110.804  22
   9   0   1 240.581 89.0110   6
   9   0   1 247.102 75.9532  17
   9   0   1 314.718 79.9752  26
   9   0   2 2198.64 153.144   6
   9   0   2 2099.47 140.373  17
   9   0   2 2135.76 149.797  26
  -9   0  -2 1847.03 162.026  22
  -9   1   9 9149.24 296.898  22
  -9   1   9 9248.48 268.042  11
   9   1  -9 9361.47 296.707  15
  -9   1   9 8566.36 264.159   9
  -9   1   9 9650.71 253.853   8
   9   1  -9 9720.41 245.059  23
  -9   1   8 8969.99 287.725  22
  -9   1   8 9176.93 258.258  11
   9   1  -8 9009.70 234.932  19
   9   1  -8 9053.70 275.975  15
  -9   1   8 8833.20 241.377   8
  -9   1   7 4477.66 177.763  11
   9   1  -7 4819.71 171.739  19
   9   1  -7 4797.05 194.443  15
  -9   1   6 1734.55 143.690  22
   9   1  -6 1897.20 118.109  19
  -9   1   6 1787.54 117.160  11
   9   1  -6 1737.54 131.068  15
  -9   1   6 1839.18 133.526  24
  -9   1   5 407.937 100.060  22
   9   1  -5 327.083 67.4011  19
  -9   1   5 388.887 70.9723  11
   9   1  -5 402.490 92.1615  15
  -9   1   5 379.438 94.6451  24
   9   1  -4 1237.86 87.1421   6
  -9   1   4 998.556 117.487  22
   9   1  -4 1221.97 100.121  19
  -9   1   4 1108.66 95.7349  11
   9   1  -4 1262.42 105.791  15
   9   1  -4 979.163 94.6295  26
  -9   1   4 1017.20 122.346  24
  -9   1   3 20339.3 383.903  22
   9   1  -3 21516.0 358.352   6
  -9   1   3 21213.5 361.155  11
   9   1  -3 21285.0 386.577  17
   9   1  -3 21124.9 358.053  15
   9   1  -3 20715.5 369.178  26
  -9   1   3 20380.6 395.280  24
  -9   1   2 6684.79 225.505  22
   9   1  -2 6912.97 207.897   6
  -9   1   2 7039.62 204.044  11
   9   1  -2 6715.93 219.657  17
   9   1  -2 7091.76 202.565  15
   9   1  -2 6942.73 214.948  26
  -9   1   1 28596.1 472.777  22
   9   1  -1 29581.8 458.714   6
  -9   1   1 29578.9 431.942  11
   9   1  -1 29448.1 475.820  17
   9   1  -1 29723.9 432.537  15
   9   1  -1 29571.4 466.978  26
  -9   1   0 9886.73 280.456  22
   9   1   0 10251.7 274.620   6
  -9   1   0 9752.35 237.935  11
   9   1   0 10084.6 273.986  17
   9   1   0 10132.8 244.767  15
   9   1   0 9713.52 270.488  26
  -9   1  -1 595.029 119.084  22
   9   1   1 509.059 101.609   6
   9   1   1 549.068 90.7685  17
   9   1   1 616.383 76.9923  15
   9   1   1 598.418 90.5878  26
  -9   1  -2 790.663 125.258  22
   9   1   2 1015.91 122.944   6
   9   1   2 993.422 109.768  17
   9   1   2 1007.66 114.562  26
  -9   2   9 5697.31 241.848  22
  -9   2   9 5582.27 211.157  11
   9   2  -9 6029.39 210.141  18
   9   2  -9 6340.05 241.780  15
  -9   2   9 5253.91 215.847   9
  -9   2   9 6121.01 211.832   8
  -9   2   8 2324.81 177.129  22
  -9   2   8 2200.12 136.244  11
   9   2  -8 2235.40 158.433  15
  -9   2   8 2095.05 126.234   8
  -9   2   7 845.064 129.079  22
   9   2  -7 918.589 87.5050  19
  -9   2   7 745.215 92.4707  11
   9   2  -7 810.630 118.434  15
  -9   2   7 807.723 107.714  24
  -9   2   6 9489.83 270.057  22
   9   2  -6 9484.28 236.338  19
  -9   2   6 9280.81 249.531  11
   9   2  -6 9449.75 262.247  15
  -9   2   6 9742.99 265.629  24
  -9   2   5 7898.70 243.747  22
  -9   2   5 7656.84 223.040  11
   9   2  -5 7491.30 225.310  17
   9   2  -5 7648.77 228.299  15
   9   2  -5 7406.12 213.448  26
  -9   2   5 8182.72 248.930  24
  -9   2   4 6718.13 221.706  22
   9   2  -4 6619.32 189.943   6
  -9   2   4 6717.54 203.647  11
   9   2  -4 6493.91 211.341  17
   9   2  -4 6614.27 207.493  15
   9   2  -4 6176.36 194.371  26
  -9   2   4 6246.45 224.055  24
  -9   2   3 466.711 101.548  22
   9   2  -3 387.406 66.1185   6
  -9   2   3 432.440 74.8130  11
   9   2  -3 356.936 72.5131  17
   9   2  -3 513.688 81.6649  15
   9   2  -3 364.810 67.4923  26
  -9   2   2 526.752 104.229  22
   9   2  -2 670.577 81.5991   6
  -9   2   2 688.637 84.9149  11
   9   2  -2 587.443 86.3271  17
   9   2  -2 618.407 84.0190  15
   9   2  -2 663.815 81.0648  26
  -9   2   2 631.844 115.131  24
  -9   2   1 8115.36 247.460  22
   9   2  -1 8665.03 243.862   6
  -9   2   1 8466.63 227.543  11
   9   2  -1 8643.55 252.571  17
   9   2  -1 8634.73 232.482  15
   9   2  -1 8675.35 243.747  26
   9   2   0 6695.48 225.669   6
  -9   2   0 7245.12 211.841  11
   9   2   0 6895.51 232.994  17
   9   2   0 6974.63 213.582  15
   9   2   0 7051.85 226.665  26
  -9   2  -1 4805.13 208.816  22
   9   2   1 5388.36 215.013   6
  -9   2  -1 5471.98 183.220  11
   9   2   1 5407.53 211.945  17
   9   2   1 5378.66 191.105  15
   9   2   1 5411.97 207.634  26
  -9   3   9 178.294 112.716  22
  -9   3   9 184.575 74.6227  11
   9   3  -9 246.793 95.2324  18
   9   3  -9 232.822 119.984  15
  -9   3   9 222.880 98.6586   9
  -9   3   9 147.415 79.5747   8
  -9   3   8 6072.32 237.656  22
  -9   3   8 6226.17 214.779  11
   9   3  -8 6372.63 211.410  18
   9   3  -8 5650.88 190.777  17
   9   3  -8 6205.75 244.109  15
  -9   3   8 6168.59 213.056   8
  -9   3   8 6214.52 215.764  24
  -9   3   7 4967.43 213.434  22
  -9   3   7 4910.37 189.692  11
   9   3  -7 4788.33 177.324  17
   9   3  -7 5050.66 210.552  15
  -9   3   7 5302.00 205.931  24
  -9   3   6 13473.9 323.186  22
  -9   3   6 13420.7 304.723  11
   9   3  -6 13261.3 296.546  17
   9   3  -6 13664.0 316.469  15
  -9   3   5 466.275 102.090  22
  -9   3   5 504.938 86.4602  11
   9   3  -5 404.963 71.2519  17
   9   3  -5 449.496 93.5391  15
  -9   3   5 331.322 120.601  24
  -9   3   4 1987.03 138.606  22
  -9   3   4 1789.24 118.792  11
   9   3  -4 1866.21 122.167  17
   9   3  -4 2017.02 131.346  15
   9   3  -4 1868.56 108.805  26
  -9   3   4 2268.58 160.146  24
  -9   3   3 3429.42 164.725  22
   9   3  -3 3900.57 156.383   6
  -9   3   3 4130.47 162.084  11
   9   3  -3 3787.72 167.733  17
   9   3  -3 4046.39 165.668  15
   9   3  -3 3682.08 150.409  26
  -9   3   3 3209.06 183.872  24
  -9   3   2 425.740 104.738  22
   9   3  -2 176.274 67.0605   6
  -9   3   2 261.404 73.0207  11
   9   3  -2 274.962 76.1365  17
   9   3  -2 302.618 76.5319  15
   9   3  -2 241.880 57.9633  26
  -9   3   2 447.560 116.187  24
   9   3  -1 1450.44 113.235   6
  -9   3   1 948.792 115.965  22
  -9   3   1 1407.69 109.313  11
   9   3  -1 1358.35 113.393  17
   9   3  -1 1348.56 108.712  15
   9   3  -1 1207.50 100.926  26
  -9   3   1 1079.28 147.167  24
  -9   3   0 4419.29 192.779  22
   9   3   0 4856.88 196.188   6
  -9   3   0 4785.11 176.997  11
   9   3   0 4839.77 197.796  17
   9   3   0 4879.37 184.502  15
   9   3   0 4891.89 190.870  26
  -9   3  -1 238.268 92.9561  22
   9   3   1 287.138 86.2153   6
  -9   3  -1 215.975 67.0381  11
   9   3   1 250.426 79.0148  17
   9   3   1 234.052 70.3772  15
   9   3   1 204.767 72.5701  26
  -9   4   9 2114.98 165.836  22
  -9   4   9 1976.63 134.706  11
   9   4  -9 2175.78 151.721  18
   9   4  -9 2022.54 168.259  15
  -9   4   9 2151.02 140.182   9
  -9   4   9 2277.62 145.548   8
  -9   4   8 341.331 108.909  22
  -9   4   8 307.856 78.7841  11
   9   4  -8 342.851 89.6743  18
   9   4  -8 299.520 114.103  15
  -9   4   8 329.834 87.0131   8
  -9   4   8 484.452 115.446  24
  -9   4   7 7021.01 244.259  22
  -9   4   7 6656.19 221.882  11
   9   4  -7 6720.43 210.010  18
   9   4  -7 6573.60 205.405  17
   9   4  -7 6938.15 248.114  15
  -9   4   7 6778.74 242.000  24
  -9   4   6 12140.6 304.807  22
  -9   4   6 12722.9 299.442  11
   9   4  -6 12265.3 265.702  18
   9   4  -6 12297.8 282.937  17
   9   4  -6 12541.8 310.566  15
  -9   4   6 12740.7 326.932  24
  -9   4   5 8386.06 249.563  22
  -9   4   5 8555.37 243.515  11
   9   4  -5 8370.85 237.922  17
   9   4  -5 8370.15 249.826  15
   9   4  -5 8538.82 219.404  14
  -9   4   5 8488.75 270.801  24
  -9   4   4 2477.16 146.436  22
  -9   4   4 2779.88 143.832  11
   9   4  -4 2648.70 142.292  17
   9   4  -4 2811.96 151.766  15
   9   4  -4 2891.57 135.651  14
  -9   4   3 2116.54 135.744  22
  -9   4   3 2257.28 132.193  11
   9   4  -3 2211.30 131.122  17
   9   4  -3 2033.63 129.585  15
  -9   4   3 2000.44 164.628  24
  -9   4   2 3822.76 166.934  22
   9   4  -2 3907.07 167.376   6
  -9   4   2 4113.91 168.652  11
   9   4  -2 3982.86 174.431  17
   9   4  -2 3625.66 166.113  15
   9   4  -2 3786.28 153.703  26
  -9   4   2 3523.38 205.374  24
  -9   4   1 510.359 90.6009  22
   9   4  -1 532.750 91.9636   6
  -9   4   1 618.681 84.9714  11
   9   4  -1 459.285 83.4510  17
   9   4  -1 560.706 88.5956  15
   9   4  -1 460.037 75.7509  26
  -9   4   1 647.626 135.434  24
   9   4   0 1318.92 119.881   6
  -9   4   0 1351.05 109.678  11
   9   4   0 1202.71 118.526  17
   9   4   0 1262.56 110.264  15
   9   4   0 1200.59 104.150  26
  -9   4   0 1189.25 151.995  24
   9   4   1 466.612 101.065   6
  -9   4  -1 457.980 81.8694  11
   9   4   1 333.510 87.6635  17
   9   4   1 437.841 88.1426  15
   9   4   1 569.884 89.2900  26
  -9   5   8 8866.41 277.077  22
  -9   5   8 9097.87 264.134  11
   9   5  -8 8949.94 261.740  18
   9   5  -8 9174.45 292.257  15
  -9   5   8 8933.54 273.759  24
  -9   5   7 13317.4 325.170  22
  -9   5   7 13494.0 318.346  11
   9   5  -7 13210.4 301.755  18
   9   5  -7 12841.5 329.931  15
  -9   5   7 12401.0 328.803  24
  -9   5   6 8967.23 263.429  22
  -9   5   6 9157.06 260.524  11
   9   5  -6 9311.23 239.696  18
   9   5  -6 8950.75 242.864  17
   9   5  -6 9143.31 270.839  15
  -9   5   6 8887.19 284.297  24
  -9   5   5 5428.82 206.558  22
  -9   5   5 5331.07 198.152  11
   9   5  -5 5319.43 177.101  18
   9   5  -5 4934.25 186.504  17
   9   5  -5 5195.95 204.595  15
   9   5  -5 5446.94 182.301  14
  -9   5   5 5387.71 232.286  24
  -9   5   4 7522.13 231.212  22
  -9   5   4 7882.81 237.311  11
   9   5  -4 7954.78 238.431  17
   9   5  -4 8120.50 246.380  15
   9   5  -4 8088.86 227.010  14
  -9   5   3 2072.99 131.009  22
  -9   5   3 2445.03 139.645  11
   9   5  -3 2205.56 134.923  17
   9   5  -3 2375.54 142.672  15
   9   5  -3 2368.92 133.831  14
  -9   5   3 1983.74 177.523  24
  -9   5   2 637.431 88.9764  11
   9   5  -2 534.502 83.5066  17
   9   5  -2 568.063 93.4022  15
   9   5  -2 546.889 84.1782  14
  -9   5   2 825.050 142.585  24
  -9   5   1 2513.48 139.836  11
   9   5  -1 2432.44 149.294  17
   9   5  -1 2422.77 143.356  15
   9   5  -1 2427.09 128.579  26
  -9   5   1 1963.76 183.640  24
  -9   5   0 6688.73 221.714  11
   9   5   0 6468.74 237.845  17
   9   5   0 6713.20 229.946  15
   9   5   0 6318.82 212.883  26
  -9   6   7 6297.82 226.903  22
  -9   6   7 6105.66 220.374  11
   9   6  -7 5954.74 216.169  18
   9   6  -7 6059.88 235.608  15
  -9   6   7 5857.49 244.383  24
  -9   6   6 4608.33 191.902  22
  -9   6   6 4695.26 194.069  11
   9   6  -6 4547.07 182.215  18
   9   6  -6 4518.96 173.409  17
   9   6  -6 4597.95 203.940  15
   9   6  -6 4665.78 172.098  14
  -9   6   6 4430.10 226.463  24
  -9   6   5 1664.13 128.559  22
  -9   6   5 1970.36 136.593  11
   9   6  -5 1823.70 118.481  18
   9   6  -5 1622.91 113.072  17
   9   6  -5 1879.78 141.131  15
   9   6  -5 1719.99 114.869  14
  -9   6   5 1739.51 179.799  24
  -9   6   4 1618.19 125.034  11
   9   6  -4 1300.33 98.8769  18
   9   6  -4 1472.22 113.929  17
   9   6  -4 1473.54 128.365  15
   9   6  -4 1510.71 111.595  14
  -9   6   4 1225.52 169.609  24
  -9   6   3 1559.91 125.173  11
   9   6  -3 1468.07 103.738  18
   9   6  -3 1458.97 114.689  17
   9   6  -3 1522.76 129.686  15
   9   6  -3 1420.54 113.820  14
  -9   6   3 1101.51 166.246  24
  -9   6   2 1572.89 125.278  11
   9   6  -2 1306.74 94.4225  18
   9   6  -2 1333.61 115.302  17
   9   6  -2 1360.02 122.583  15
   9   6  -2 1407.69 116.902  14
  -9   6   1 903.508 102.230  11
   9   6  -1 841.879 106.058  17
   9   6  -1 834.554 106.176  15
   9   6  -1 862.364 107.962  14
  -9   6   1 1075.58 166.474  24
  -9   6   0 1151.89 110.542  11
   9   6   0 1045.97 117.405  17
   9   6   0 1111.71 116.043  15
  -9   6   0 844.472 163.247  24
  -9   7   6 1508.87 127.509  22
  -9   7   6 1508.42 132.507  11
   9   7  -6 1736.29 130.650  18
   9   7  -6 1665.12 112.754  17
   9   7  -6 1790.92 145.387  15
   9   7  -6 1749.73 115.926  14
  -9   7   6 1597.29 167.647  24
  -9   7   5 819.120 107.571  11
   9   7  -5 792.852 94.7954  18
   9   7  -5 840.056 89.2135  17
   9   7  -5 726.635 112.614  15
   9   7  -5 779.554 91.9504  14
  -9   7   5 481.637 150.108  24
  -9   7   4 342.449 91.0215  11
   9   7  -4 347.731 76.3380  18
   9   7  -4 303.298 72.1581  17
   9   7  -4 279.146 96.6332  15
   9   7  -4 345.461 80.8490  14
  -9   7   4 408.964 162.166  24
  -9   7   3 402.450 88.8165  11
   9   7  -3 442.095 75.1017  18
   9   7  -3 468.296 85.4610  17
   9   7  -3 463.389 101.724  15
   9   7  -3 502.037 90.5122  14
  -9   7   3 333.433 160.476  24
  -9   7   2 5440.61 209.267  11
   9   7  -2 5387.32 187.762  18
   9   7  -2 5662.44 217.322  17
   9   7  -2 5356.28 215.931  15
   9   7  -2 5234.19 208.664  14
  -9   7   1 1222.58 116.041  11
   9   7  -1 1205.74 100.878  18
   9   7  -1 1168.00 121.846  17
   9   7  -1 1224.85 123.855  15
   9   7  -1 1281.19 123.663  14
  -9   7   1 1371.14 183.746  24
  -9   8   4 2135.62 147.043  11
   9   8  -4 2052.73 132.212  18
   9   8  -4 2119.68 136.384  17
   9   8  -4 2197.68 159.507  15
   9   8  -4 2195.46 141.524  14
  -9   8   4 2251.35 212.887  24
 -10  -5   5 2056.43 172.644  22
 -10  -5   5 2009.62 128.337  11
  10  -5  -5 2075.07 153.987  19
 -10  -5   5 1983.21 133.651   5
 -10  -5   4 579.461 142.611  22
 -10  -5   4 628.395 83.9997  11
  10  -5  -4 582.586 100.596  19
 -10  -5   4 650.849 98.8119   5
 -10  -5   3 3756.07 217.997  22
  10  -5  -3 3916.44 168.234   6
  10  -5  -3 3832.68 188.929  19
 -10  -5   3 3820.51 183.381   5
  10  -5  -3 3757.82 199.292  26
 -10  -4   7 984.421 151.381  22
 -10  -4   7 996.055 107.956  11
  10  -4  -7 1106.12 128.339  19
 -10  -4   7 1094.50 100.063   5
  10  -4  -7 1000.23 113.192  15
 -10  -4   6 4299.86 219.966  22
 -10  -4   6 4618.17 186.814  11
  10  -4  -6 4661.09 206.422  19
 -10  -4   6 4432.71 185.509   5
 -10  -4   5 198.370 114.906  22
  10  -4  -5 452.426 95.7677  19
 -10  -4   5 321.284 68.0073  11
 -10  -4   5 353.731 83.2285   5
 -10  -4   4 944.703 146.283  22
 -10  -4   4 811.747 88.5823  11
  10  -4  -4 927.818 112.334  19
 -10  -4   4 849.795 101.213   5
 -10  -4   3 819.219 152.057  22
  10  -4  -3 674.220 106.721  19
  10  -4  -3 839.135 96.6887   6
 -10  -4   3 655.708 74.3317  11
 -10  -4   3 662.484 96.5040   5
  10  -4  -3 766.503 115.462  26
 -10  -4   2 2432.42 197.264  22
  10  -4  -2 2670.28 146.603   6
  10  -4  -2 2521.83 158.376  19
 -10  -4   2 2519.93 152.547   5
  10  -4  -2 2386.43 161.540  26
 -10  -3   7 1647.87 164.010  22
 -10  -3   7 2017.98 134.927  11
  10  -3  -7 2073.21 143.090  19
 -10  -3   7 2035.57 123.626   5
  10  -3  -7 1909.91 140.573  15
 -10  -3   6 3925.16 209.885  22
 -10  -3   6 3933.78 172.808  11
  10  -3  -6 4069.80 185.738  19
 -10  -3   6 3989.22 171.048   5
  10  -3  -6 4086.61 174.619  15
 -10  -3   5 3714.44 204.987  22
 -10  -3   5 3672.41 162.606  11
  10  -3  -5 3697.56 181.428  19
 -10  -3   5 3556.82 163.799   5
 -10  -3   4 8688.30 292.117  22
 -10  -3   4 9266.31 246.608  11
  10  -3  -4 8986.36 268.824  19
 -10  -3   4 9307.10 262.223   5
  10  -3  -4 8703.11 275.987  26
 -10  -3   3 1712.92 162.553  22
  10  -3  -3 1924.09 119.815   6
 -10  -3   3 1974.64 115.951  11
  10  -3  -3 1932.73 139.641  19
 -10  -3   3 1891.27 134.313   5
  10  -3  -3 1709.80 136.713  26
 -10  -3   2 858.339 152.246  22
  10  -3  -2 872.624 97.9981   6
 -10  -3   2 837.239 103.773   5
  10  -3  -2 841.970 115.389  26
 -10  -2   8 598.934 143.488  22
  10  -2  -8 682.643 100.530  19
 -10  -2   8 483.207 86.3111  11
  10  -2  -8 554.946 108.787  15
 -10  -2   7 273.785 130.355  22
  10  -2  -7 124.719 80.3331  19
 -10  -2   7 212.687 74.9952  11
  10  -2  -7 97.1917 86.5011  15
 -10  -2   7 154.997 63.4854   5
 -10  -2   6 1965.33 164.916  22
 -10  -2   6 1907.85 128.018  11
  10  -2  -6 1957.29 139.456  19
 -10  -2   6 1885.73 123.303   5
  10  -2  -6 1796.44 129.671  15
 -10  -2   5 3330.62 194.896  22
 -10  -2   5 3587.27 158.504  11
  10  -2  -5 3632.74 172.517  19
  10  -2  -5 3492.78 159.848  15
 -10  -2   5 3452.31 159.248   5
 -10  -2   4 6700.85 255.456  22
  10  -2  -4 7008.50 203.500   6
 -10  -2   4 6689.76 212.500  11
  10  -2  -4 6836.11 233.430  19
 -10  -2   4 6839.14 222.794   5
  10  -2  -4 6562.91 235.589  26
 -10  -2   4 6591.55 227.558  24
 -10  -2   3 206.798 117.020  22
  10  -2  -3 113.338 82.9197  19
  10  -2  -3 214.456 69.4351   6
 -10  -2   3 111.099 55.5666  11
 -10  -2   3 273.008 84.8691   5
  10  -2  -3 150.447 81.7743  26
 -10  -2   2 1550.01 161.962  22
  10  -2  -2 1800.88 123.701   6
 -10  -2   2 1794.86 108.567  11
 -10  -2   2 1913.65 135.541   5
  10  -2  -2 1797.82 136.263  26
 -10  -2   1 6759.03 270.426  22
  10  -2  -1 7310.62 242.391   6
  10  -2  -1 6908.81 242.462  17
 -10  -2   1 7250.29 244.739   5
  10  -2  -1 7234.14 253.254  26
 -10  -1   8 13015.8 363.177  22
 -10  -1   8 13718.6 332.875  11
  10  -1  -8 14047.7 327.763  19
  10  -1  -8 13797.1 346.173  15
 -10  -1   7 1671.91 160.781  22
 -10  -1   7 1681.54 124.848  11
  10  -1  -7 1849.35 131.871  19
 -10  -1   7 1731.18 112.771   5
  10  -1  -7 1773.62 136.368  15
 -10  -1   6 2633.05 177.336  22
 -10  -1   6 2646.72 145.712  11
  10  -1  -6 2706.11 151.890  19
  10  -1  -6 2563.48 149.967  15
 -10  -1   6 2761.26 137.798   5
 -10  -1   5 404.866 118.834  22
  10  -1  -5 491.880 88.7393  19
 -10  -1   5 432.086 74.7212  11
  10  -1  -5 452.935 88.6819  15
 -10  -1   5 558.140 79.4480   5
 -10  -1   4 2010.26 162.139  22
  10  -1  -4 2615.20 129.152   6
  10  -1  -4 2159.49 140.692  19
 -10  -1   4 2452.56 131.678  11
  10  -1  -4 2279.27 129.159  15
 -10  -1   4 2317.58 135.932   5
  10  -1  -4 2089.02 142.845  26
 -10  -1   4 1901.99 138.438  24
 -10  -1   3 413.360 119.595  22
  10  -1  -3 555.717 77.5907   6
 -10  -1   3 453.322 73.6407  11
  10  -1  -3 558.977 77.5712  15
  10  -1  -3 320.135 81.8033  26
 -10  -1   2 625.870 135.020  22
  10  -1  -2 664.375 93.1719   6
 -10  -1   2 668.437 75.6719  11
  10  -1  -2 673.575 97.6308  17
  10  -1  -2 710.875 100.496  26
 -10  -1   1 3884.90 217.194  22
  10  -1  -1 3971.75 183.733   6
  10  -1  -1 3855.37 186.708  17
  10  -1  -1 3903.89 191.731  26
 -10   0   8 11456.3 343.396  22
 -10   0   8 12306.4 316.951  11
  10   0  -8 12018.2 296.587  19
  10   0  -8 12608.7 330.234  15
 -10   0   7 406.746 127.583  22
  10   0  -7 480.363 82.8874  19
 -10   0   7 320.570 80.0790  11
  10   0  -7 299.640 99.0044  15
 -10   0   7 315.168 66.9292   5
 -10   0   6 130.743 111.964  22
  10   0  -6 160.279 70.2100  19
 -10   0   6 224.657 68.6243  11
  10   0  -6 265.404 96.3978  15
 -10   0   6 159.828 60.5915   5
 -10   0   5 2338.76 167.495  22
  10   0  -5 2647.56 145.886  19
 -10   0   5 2720.30 143.415  11
  10   0  -5 2853.99 151.715  15
  10   0  -5 2290.05 144.453  26
 -10   0   5 1923.24 143.317  24
 -10   0   4 1925.38 154.558  22
  10   0  -4 2094.50 120.561   6
 -10   0   4 2075.71 126.647  11
  10   0  -4 2029.53 125.118  15
  10   0  -4 2063.96 134.647  26
 -10   0   4 2303.49 157.022  24
 -10   0   3 501.519 116.542  22
 -10   0   3 800.886 88.6878  11
  10   0  -3 599.975 80.7669   6
  10   0  -3 616.141 91.6560  17
  10   0  -3 672.197 87.3004  15
  10   0  -3 628.741 91.0115  26
 -10   0   3 515.878 106.498  24
 -10   0   2 6022.35 243.264  22
  10   0  -2 7178.25 227.305   6
 -10   0   2 7094.85 213.799  11
  10   0  -2 6560.44 236.201  17
  10   0  -2 6929.30 208.418  15
  10   0  -2 6441.05 229.816  26
 -10   0   1 4059.73 208.904  22
  10   0  -1 4564.55 193.902   6
 -10   0   1 4473.22 170.248  11
  10   0  -1 4397.70 198.223  17
  10   0  -1 4162.20 192.115  26
 -10   1   8 13338.2 366.237  22
 -10   1   8 13985.5 338.143  11
  10   1  -8 14116.4 312.099  19
  10   1  -8 14079.4 352.939  15
 -10   1   8 13779.2 311.949   8
 -10   1   7 1704.75 162.296  22
 -10   1   7 1683.72 125.856  11
  10   1  -7 1680.33 117.442  19
  10   1  -7 1650.84 142.421  15
 -10   1   6 2552.13 174.622  22
  10   1  -6 2827.25 149.142  19
 -10   1   6 2884.06 152.246  11
  10   1  -6 2554.09 159.543  15
 -10   1   6 2598.34 161.151  24
 -10   1   5 625.772 120.714  22
 -10   1   5 589.046 86.5168  11
  10   1  -5 518.667 100.845  15
  10   1  -5 434.664 82.7981  26
 -10   1   5 379.284 118.860  24
 -10   1   4 1863.16 152.333  22
  10   1  -4 2480.50 129.011   6
 -10   1   4 2554.85 139.528  11
  10   1  -4 2303.18 146.708  17
  10   1  -4 2347.83 137.106  15
  10   1  -4 2138.71 135.945  26
 -10   1   4 1957.71 157.677  24
 -10   1   3 574.041 117.674  22
  10   1  -3 539.012 80.1203   6
 -10   1   3 448.029 78.1148  11
  10   1  -3 494.955 92.1837  17
  10   1  -3 571.733 89.6570  15
  10   1  -3 488.110 82.2207  26
 -10   1   3 272.133 111.380  24
 -10   1   2 495.964 115.782  22
  10   1  -2 627.673 92.1239   6
 -10   1   2 574.011 80.0163  11
  10   1  -2 613.677 91.7840  17
  10   1  -2 664.143 88.6173  15
  10   1  -2 645.894 93.6950  26
 -10   1   1 3960.97 203.770  22
  10   1  -1 3958.16 182.604   6
 -10   1   1 3994.34 167.292  11
  10   1  -1 3996.84 191.949  17
  10   1  -1 3879.19 163.564  15
  10   1  -1 3798.44 180.505  26
 -10   2   8 672.902 148.854  22
  10   2  -8 604.370 83.2395  19
 -10   2   8 663.114 98.2971  11
  10   2  -8 611.857 126.865  15
 -10   2   8 521.477 83.6966   8
 -10   2   7 24.7639 115.772  22
  10   2  -7 156.750 67.1169  19
 -10   2   7 150.263 78.9867  11
  10   2  -7 138.159 63.7502  17
  10   2  -7 143.766 108.357  15
 -10   2   7 303.904 120.403  24
 -10   2   6 1747.65 151.298  22
 -10   2   6 1937.56 131.082  11
  10   2  -6 1920.22 134.290  17
  10   2  -6 1998.06 147.300  15
  10   2  -6 1926.24 127.583  26
 -10   2   6 1871.73 155.397  24
 -10   2   5 3332.73 184.244  22
 -10   2   5 3526.96 168.812  11
  10   2  -5 3493.35 170.196  17
  10   2  -5 3631.00 175.202  15
  10   2  -5 3235.23 153.586  26
 -10   2   5 3149.35 181.697  24
 -10   2   4 6528.17 238.821  22
  10   2  -4 6975.63 210.192   6
 -10   2   4 6814.41 222.307  11
  10   2  -4 6670.92 232.374  17
  10   2  -4 6687.98 220.190  15
  10   2  -4 6483.45 213.901  26
 -10   2   4 6831.36 252.537  24
 -10   2   3 194.764 100.393  22
  10   2  -3 267.851 71.5981   6
 -10   2   3 243.547 73.8279  11
  10   2  -3 169.069 73.3746  17
  10   2  -3 172.820 73.7332  15
  10   2  -3 141.729 63.2052  26
 -10   2   3 43.1405 112.656  24
 -10   2   2 1456.41 139.555  22
  10   2  -2 1775.03 123.557   6
 -10   2   2 1765.94 124.523  11
  10   2  -2 1541.88 128.853  17
  10   2  -2 2015.48 133.666  15
  10   2  -2 1626.15 121.291  26
 -10   2   2 1594.01 160.995  24
 -10   2   1 6790.36 250.467  22
  10   2  -1 7307.29 243.094   6
 -10   2   1 7008.07 225.517  11
  10   2  -1 7230.11 253.429  17
  10   2  -1 7278.19 228.082  15
  10   2  -1 7277.82 242.136  26
 -10   3   7 1780.22 158.773  22
 -10   3   7 2186.70 140.217  11
  10   3  -7 1979.21 131.384  17
  10   3  -7 2216.76 163.070  15
 -10   3   7 1854.81 155.028  24
 -10   3   6 3822.79 198.151  22
 -10   3   6 3939.39 179.120  11
  10   3  -6 3767.93 174.152  17
  10   3  -6 3883.08 189.022  15
 -10   3   6 3916.49 203.606  24
 -10   3   5 3471.66 188.137  22
 -10   3   5 3583.47 173.832  11
  10   3  -5 3468.17 172.144  17
  10   3  -5 3475.18 175.350  15
 -10   3   5 3454.74 199.281  24
 -10   3   4 8732.69 269.288  22
 -10   3   4 9503.15 264.481  11
  10   3  -4 9185.20 273.014  17
  10   3  -4 9293.26 262.916  15
  10   3  -4 8959.92 244.935  26
 -10   3   3 1655.21 138.255  22
  10   3  -3 1854.11 123.012   6
 -10   3   3 2030.12 133.689  11
  10   3  -3 2046.69 141.561  17
  10   3  -3 1921.12 136.551  15
  10   3  -3 1862.32 122.620  26
 -10   3   3 1611.29 162.207  24
 -10   3   2 563.682 105.146  22
  10   3  -2 815.603 99.8068   6
 -10   3   2 824.835 96.1138  11
  10   3  -2 894.883 106.234  17
  10   3  -2 898.798 104.111  15
  10   3  -2 786.855 90.1335  26
 -10   3   2 456.041 137.239  24
 -10   4   7 1037.48 136.878  22
 -10   4   7 964.769 112.375  11
  10   4  -7 977.583 97.2018  17
  10   4  -7 1108.98 138.795  15
 -10   4   7 1002.65 146.689  24
 -10   4   6 4464.33 205.094  22
 -10   4   6 4458.49 197.528  11
  10   4  -6 4312.74 186.115  17
  10   4  -6 4423.87 200.745  15
 -10   4   6 4437.59 220.399  24
 -10   4   5 352.365 107.596  22
 -10   4   5 432.209 93.5861  11
  10   4  -5 309.303 74.2336  17
  10   4  -5 401.609 104.371  15
 -10   4   5 464.202 138.970  24
 -10   4   4 979.253 120.979  22
 -10   4   4 1024.17 110.971  11
  10   4  -4 939.339 103.775  17
  10   4  -4 769.805 107.996  15
 -10   4   4 973.866 152.625  24
 -10   4   3 766.515 109.651  22
 -10   4   3 738.707 100.795  11
  10   4  -3 785.306 99.9694  17
  10   4  -3 770.353 107.663  15
 -10   4   3 650.922 146.374  24
 -10   4   2 2231.49 148.987  22
 -10   4   2 2684.76 151.976  11
  10   4  -2 2619.68 162.300  17
  10   4  -2 2644.02 156.326  15
  10   4  -2 2468.77 138.200  26
 -10   4   2 2259.09 189.694  24
 -10   5   5 1895.85 148.281  22
 -10   5   5 1950.09 142.782  11
  10   5  -5 1976.66 136.343  17
  10   5  -5 2160.60 153.388  15
  10   5  -5 1974.82 123.358  14
 -10   5   5 1862.50 179.450  24
 -10   5   4 604.451 105.924  22
 -10   5   4 511.543 95.4453  11
  10   5  -4 625.617 90.7309  17
  10   5  -4 608.780 112.104  15
 -10   5   4 655.550 155.344  24
 -10   5   3 3323.61 167.957  22
 -10   5   3 3885.85 186.457  11
  10   5  -3 4024.00 192.276  17
  10   5  -3 3872.04 187.148  15
 -10   5   3 3396.28 215.764  24
   0   0   0    0.00    0.00   0
TITL cys_no3_60 in P2(1)
REM P2(1) (#4 in standard setting)
CELL 0.71073   7.621649  10.458217   8.432485  90.0000 113.0713  90.0000
ZERR    3.00   0.000221   0.000215   0.000301   0.0000   0.0039   0.0000
LATT -1
SYMM -x, y+1/2,-z
SFAC C H N O
UNIT 33.00 30.00 3.00 3.00
TREF
HKLF 4
END
;
_shelx_hkl_checksum              46368
_shelx_res_file
;
    shelx.res created by SHELXL-2014/7
TITL ap92_no3 in P2(1)
CELL  0.71073   7.6216  10.4582   8.4325   90.000  113.071   90.000
ZERR     2.00   0.0002   0.0002   0.0003    0.000    0.004    0.000
LATT  -1
SYMM  - X, 1/2 + Y, - Z
SFAC  C    H    N    O
UNIT  22 34 6 10
MERG   2
FMAP   2
PLAN   20
ACTA    50.00
BOND   $H
CONF
htab
EQIV $1 -x+2, y+1/2, -z
HTAB C3 O1A_$1
EQIV $2 x, y+1, z
HTAB C7 O3A_$2
EQIV $3 -x+2, y+1/2, -z+1
HTAB C10 N1A_$3
HTAB C10 O1W
HTAB C11 O2A
EQIV $4 -x+1, y+1/2, -z+1
HTAB C11 O3A_$4
HTAB N12 O1W
EQIV $5 x-1, y, z
HTAB N12 O2_$5
HTAB C13 O2A_$4
EQIV $6 -x+1, y+1/2, -z
HTAB C13 O1A_$6
HTAB O1W O1A
HTAB O1W N1A
HTAB O1W O2A
HTAB O1W N1A_$6
HTAB O1W O3A_$6
L.S.   4
WGHT    0.049600    0.064400
FVAR      12.29179
N1    3    0.959314    0.403995    0.329803    11.00000    0.01245    0.01302 =
         0.01615    0.00049    0.00674   -0.00050
C2    1    1.064762    0.375415    0.231427    11.00000    0.01259    0.01700 =
         0.02017   -0.00299    0.00852   -0.00304
O2    4    1.177023    0.282011    0.275156    11.00000    0.01464    0.01734 =
         0.02988   -0.00111    0.01209    0.00032
C3    1    1.036883    0.456970    0.087858    11.00000    0.01875    0.02317 =
         0.01919   -0.00149    0.01072   -0.00314
rem afix  43
H3    2    1.092665    0.434553    0.007930    11.00000    0.03360
rem afix   0
C4    1    0.918515    0.560305    0.054140    11.00000    0.02024    0.02190 =
         0.01624    0.00161    0.00809   -0.00228
rem afix  43
H4    2    0.900024    0.617277   -0.039622    11.00000    0.03084
rem afix   0
C5    1    0.819029    0.587185    0.160714    11.00000    0.01656    0.01627 =
         0.01696    0.00197    0.00594    0.00071
rem afix  43
H5    2    0.738566    0.659790    0.138053    11.00000    0.03053
rem afix   0
C6    1    0.840185    0.508436    0.296973    11.00000    0.01213    0.01297 =
         0.01521   -0.00106    0.00544   -0.00102
C7    1    0.731223    0.531566    0.410360    11.00000    0.01390    0.01328 =
         0.01579   -0.00196    0.00651   -0.00033
rem afix  13
H7    2    0.707525    0.624287    0.414654    11.00000    0.02032
rem afix   0
C8    1    0.835227    0.477255    0.591320    11.00000    0.02025    0.01692 =
         0.01475   -0.00140    0.00683   -0.00039
rem afix  23
H8A   2    0.958764    0.517421    0.649322    11.00000    0.02586
H8B   2    0.751917    0.493304    0.653661    11.00000    0.02694
rem afix   0
C9    1    0.858255    0.334637    0.569373    11.00000    0.02063    0.01582 =
         0.01687    0.00216    0.00934    0.00124
rem afix  13
H9    2    0.917231    0.291875    0.683354    11.00000    0.02888
rem afix   0
C10   1    0.990417    0.314280    0.474419    11.00000    0.01634    0.01581 =
         0.01967    0.00468    0.00839    0.00333
rem afix  23
H10A  2    1.118207    0.326052    0.554419    11.00000    0.01728
H10B  2    0.975075    0.230089    0.422505    11.00000    0.02300
rem afix   0
C11   1    0.663993    0.269505    0.484191    11.00000    0.02383    0.01550 =
         0.02578   -0.00058    0.01680   -0.00317
rem afix  23
H11A  2    0.674899    0.179843    0.461741    11.00000    0.03151
H11B  2    0.591271    0.279455    0.552180    11.00000    0.01829
rem afix   0
N12   3    0.542567    0.330585    0.316198    11.00000    0.01607    0.01827 =
         0.02257   -0.00659    0.01197   -0.00492
rem afix  23
H12A  2    0.594384    0.302541    0.245458    11.00000    0.03897
H12B  2    0.423361    0.299759    0.283738    11.00000    0.03295
rem afix   0
C13   1    0.531949    0.472591    0.328916    11.00000    0.01363    0.01714 =
         0.01979   -0.00295    0.00779   -0.00064
rem afix  23
H13A  2    0.460589    0.492661    0.395815    11.00000    0.01219
H13B  2    0.461769    0.501677    0.217013    11.00000    0.02433
rem afix   0
O1W   4    0.702525    0.194511    0.121504    11.00000    0.02660    0.02304 =
         0.02333   -0.00383    0.01184   -0.00243
O1A   4    0.609764   -0.082453    0.075876    11.00000    0.04018    0.03811 =
         0.02702    0.00377    0.02219    0.00012
N1A   3    0.554057   -0.100087    0.194726    11.00000    0.02544    0.02201 =
         0.02184    0.00310    0.01148    0.00521
O2A   4    0.581388   -0.018499    0.307457    11.00000    0.05924    0.03196 =
         0.03690   -0.01079    0.02965   -0.00964
O3A   4    0.475233   -0.203665    0.204006    11.00000    0.05749    0.02559 =
         0.02723    0.00054    0.02474   -0.00627
H1W1  2    0.671527    0.110835    0.126980    11.00000    0.01701
H1W2  2    0.657480    0.219597    0.015348    11.00000    0.04828
HKLF 4
REM  ap92_no3 in P2(1)
REM R1 =  0.0267 for    3590 Fo > 4sig(Fo)  and  0.0269 for all    3617 data
REM    240 parameters refined using      1 restraints
END
WGHT      0.0494      0.0648
REM Instructions for potential hydrogen bonds
HTAB C3 O1A_$1
HTAB C7 O3A_$2
HTAB C10 N1A_$3
HTAB C10 O1W
HTAB C11 O2A
HTAB C11 O3A_$4
HTAB N12 O1W
HTAB N12 O2_$5
HTAB C13 O2A_$4
HTAB C13 O1A_$6
HTAB O1W O1A
HTAB O1W N1A
HTAB O1W O2A
HTAB O1W N1A_$6
HTAB O1W O3A_$6
REM Highest difference peak  0.301,  deepest hole -0.193,  1-sigma level  0.041
Q1    1   0.8299  0.5451  0.2241  11.00000  0.05    0.30
Q2    1   1.0484  0.4163  0.1635  11.00000  0.05    0.29
Q3    1   0.7801  0.5009  0.4975  11.00000  0.05    0.29
Q4    1   0.8597  0.5682  0.1012  11.00000  0.05    0.28
Q5    1   0.7896  0.5155  0.3521  11.00000  0.05    0.27
Q6    1   0.8462  0.4040  0.5778  11.00000  0.05    0.26
Q7    1   0.9595  0.5024  0.0624  11.00000  0.05    0.25
Q8    1   1.0147  0.3962  0.2878  11.00000  0.05    0.25
Q9    1   0.6392  0.4966  0.3683  11.00000  0.05    0.24
Q10   1   0.9115  0.4570  0.3124  11.00000  0.05    0.23
Q11   1   0.7682  0.2980  0.5069  11.00000  0.05    0.23
Q12   1   1.1267  0.3290  0.2505  11.00000  0.05    0.22
Q13   1   0.6883 -0.0392  0.1073  11.00000  0.05    0.20
Q14   1   0.9264  0.3279  0.5225  11.00000  0.05    0.20
Q15   1   0.6020  0.2960  0.3981  11.00000  0.05    0.19
Q16   1   0.4235 -0.1857  0.0820  11.00000  0.05    0.19
Q17   1   0.9566  0.3564  0.3858  11.00000  0.05    0.18
Q18   1   0.6220 -0.1215  0.0347  11.00000  0.05    0.16
Q19   1   0.5460  0.4005  0.3226  11.00000  0.05    0.15
Q20   1   0.4300 -0.2190  0.2817  11.00000  0.05    0.15
;
_shelx_res_checksum              68719
loop_
_space_group_symop_operation_xyz
'x, y, z'
'-x, y+1/2, -z'
loop_
_atom_site_type_symbol
_atom_site_label
_atom_site_fract_x
_atom_site_fract_y
_atom_site_fract_z
_atom_site_U_iso_or_equiv
_atom_site_adp_type
_atom_site_calc_flag
_atom_site_occupancy
N N1 0.95931(14) 0.40399(10) 0.32980(13) 0.01352(18) Uani d 1
C C2 1.06476(17) 0.37541(12) 0.23143(17) 0.0159(2) Uani d 1
O O2 1.17702(13) 0.28201(9) 0.27516(14) 0.01958(19) Uani d 1
C C3 1.03688(18) 0.45697(13) 0.08786(17) 0.0194(2) Uani d 1
H H3 1.093(4) 0.435(3) 0.008(3) 0.034(6) Uiso d 1
C C4 0.91851(19) 0.56031(13) 0.05414(17) 0.0192(2) Uani d 1
H H4 0.900(3) 0.617(2) -0.040(3) 0.031(6) Uiso d 1
C C5 0.81903(17) 0.58719(12) 0.16071(16) 0.0168(2) Uani d 1
H H5 0.739(3) 0.660(3) 0.138(3) 0.031(6) Uiso d 1
C C6 0.84018(16) 0.50844(11) 0.29697(15) 0.0134(2) Uani d 1
C C7 0.73122(17) 0.53157(11) 0.41036(16) 0.0141(2) Uani d 1
H H7 0.708(3) 0.624(2) 0.415(3) 0.020(5) Uiso d 1
C C8 0.83523(18) 0.47726(12) 0.59132(16) 0.0173(2) Uani d 1
H H8A 0.959(3) 0.517(2) 0.649(3) 0.026(5) Uiso d 1
H H8B 0.752(3) 0.493(2) 0.654(3) 0.027(5) Uiso d 1
C C9 0.85826(19) 0.33464(12) 0.56937(17) 0.0172(2) Uani d 1
H H9 0.917(3) 0.292(2) 0.683(3) 0.029(5) Uiso d 1
C C10 0.99042(18) 0.31428(12) 0.47442(16) 0.0169(2) Uani d 1
H H10A 1.118(3) 0.326(2) 0.554(3) 0.017(4) Uiso d 1
H H10B 0.975(3) 0.230(2) 0.423(3) 0.023(5) Uiso d 1
C C11 0.6640(2) 0.26950(12) 0.48419(18) 0.0195(2) Uani d 1
H H11A 0.675(3) 0.180(3) 0.462(3) 0.032(6) Uiso d 1
H H11B 0.591(3) 0.279(2) 0.552(3) 0.018(4) Uiso d 1
N N12 0.54257(16) 0.33058(11) 0.31620(16) 0.0176(2) Uani d 1
H H12A 0.594(4) 0.303(3) 0.245(4) 0.039(6) Uiso d 1
H H12B 0.423(4) 0.300(3) 0.284(3) 0.033(6) Uiso d 1
C C13 0.53195(17) 0.47259(12) 0.32892(17) 0.0165(2) Uani d 1
H H13A 0.461(3) 0.4927(19) 0.396(2) 0.012(4) Uiso d 1
H H13B 0.462(3) 0.502(2) 0.217(3) 0.024(5) Uiso d 1
O O1W 0.70253(16) 0.19451(11) 0.12150(15) 0.0237(2) Uani d 1
O O1A 0.60976(19) -0.08245(13) 0.07588(16) 0.0323(3) Uani d 1
N N1A 0.55406(18) -0.10009(13) 0.19473(16) 0.0224(2) Uani d 1
O O2A 0.5814(2) -0.01850(14) 0.30746(19) 0.0394(3) Uani d 1
O O3A 0.4752(2) -0.20366(12) 0.20401(16) 0.0343(3) Uani d 1
H H1W1 0.672(3) 0.111(2) 0.127(3) 0.017(4) Uiso d 1
H H1W2 0.657(4) 0.220(3) 0.015(4) 0.048(8) Uiso d 1
loop_
_atom_site_aniso_label
_atom_site_aniso_U_11
_atom_site_aniso_U_22
_atom_site_aniso_U_33
_atom_site_aniso_U_12
_atom_site_aniso_U_13
_atom_site_aniso_U_23
N1 0.0124(4) 0.0130(4) 0.0162(4) -0.0005(3) 0.0067(3) 0.0005(3)
C2 0.0126(4) 0.0170(5) 0.0202(5) -0.0030(4) 0.0085(4) -0.0030(4)
O2 0.0146(4) 0.0173(4) 0.0299(5) 0.0003(3) 0.0121(3) -0.0011(4)
C3 0.0188(5) 0.0232(6) 0.0192(5) -0.0031(5) 0.0107(4) -0.0015(5)
C4 0.0202(5) 0.0219(6) 0.0162(5) -0.0023(4) 0.0081(4) 0.0016(4)
C5 0.0166(5) 0.0163(5) 0.0170(5) 0.0007(4) 0.0059(4) 0.0020(4)
C6 0.0121(4) 0.0130(5) 0.0152(5) -0.0010(4) 0.0054(4) -0.0011(4)
C7 0.0139(5) 0.0133(5) 0.0158(5) -0.0003(4) 0.0065(4) -0.0020(4)
C8 0.0202(5) 0.0169(5) 0.0147(5) -0.0004(4) 0.0068(4) -0.0014(4)
C9 0.0206(5) 0.0158(5) 0.0169(5) 0.0012(4) 0.0093(4) 0.0022(4)
C10 0.0163(5) 0.0158(5) 0.0197(6) 0.0033(4) 0.0084(4) 0.0047(4)
C11 0.0238(6) 0.0155(5) 0.0258(6) -0.0032(4) 0.0168(5) -0.0006(4)
N12 0.0161(4) 0.0183(5) 0.0226(5) -0.0049(4) 0.0120(4) -0.0066(4)
C13 0.0136(4) 0.0171(5) 0.0198(5) -0.0006(4) 0.0078(4) -0.0029(4)
O1W 0.0266(5) 0.0230(5) 0.0233(5) -0.0024(4) 0.0118(4) -0.0038(4)
O1A 0.0402(6) 0.0381(6) 0.0270(5) 0.0001(5) 0.0222(5) 0.0038(5)
N1A 0.0254(5) 0.0220(5) 0.0218(5) 0.0052(4) 0.0115(4) 0.0031(4)
O2A 0.0592(9) 0.0320(6) 0.0369(6) -0.0096(6) 0.0296(6) -0.0108(5)
O3A 0.0575(8) 0.0256(6) 0.0272(5) -0.0063(5) 0.0247(6) 0.0005(4)
loop_
_atom_type_symbol
_atom_type_description
_atom_type_scat_dispersion_real
_atom_type_scat_dispersion_imag
_atom_type_scat_source
C C 0.0033 0.0016 'International Tables Vol C Tables 4.2.6.8 and 6.1.1.4'
H H 0.0000 0.0000 'International Tables Vol C Tables 4.2.6.8 and 6.1.1.4'
N N 0.0061 0.0033 'International Tables Vol C Tables 4.2.6.8 and 6.1.1.4'
O O 0.0106 0.0060 'International Tables Vol C Tables 4.2.6.8 and 6.1.1.4'
loop_
_geom_angle_atom_site_label_1
_geom_angle_atom_site_label_2
_geom_angle_atom_site_label_3
_geom_angle
C6 N1 C2 122.58(10)
C6 N1 C10 123.21(10)
C2 N1 C10 114.20(10)
O2 C2 N1 118.51(11)
O2 C2 C3 124.90(11)
N1 C2 C3 116.58(11)
C4 C3 C2 121.11(12)
C4 C3 H3 119.2(15)
C2 C3 H3 119.5(16)
C3 C4 C5 120.06(12)
C3 C4 H4 122.5(15)
C5 C4 H4 117.4(15)
C6 C5 C4 119.83(11)
C6 C5 H5 120.3(15)
C4 C5 H5 119.8(15)
C5 C6 N1 119.78(11)
C5 C6 C7 121.38(11)
N1 C6 C7 118.82(10)
C6 C7 C8 111.96(10)
C6 C7 C13 110.26(10)
C8 C7 C13 109.50(10)
C6 C7 H7 109.5(13)
C8 C7 H7 111.0(13)
C13 C7 H7 104.4(13)
C9 C8 C7 106.41(10)
C9 C8 H8A 110.5(14)
C7 C8 H8A 111.3(14)
C9 C8 H8B 111.2(15)
C7 C8 H8B 106.2(14)
H8A C8 H8B 111(2)
C8 C9 C10 109.36(11)
C8 C9 C11 110.93(11)
C10 C9 C11 114.06(11)
C8 C9 H9 110.7(15)
C10 C9 H9 107.6(14)
C11 C9 H9 104.0(14)
N1 C10 C9 114.67(10)
N1 C10 H10A 106.9(13)
C9 C10 H10A 108.2(13)
N1 C10 H10B 104.5(13)
C9 C10 H10B 112.1(13)
H10A C10 H10B 110.3(18)
N12 C11 C9 112.33(10)
N12 C11 H11A 107.3(14)
C9 C11 H11A 112.5(15)
N12 C11 H11B 103.6(12)
C9 C11 H11B 110.8(13)
H11A C11 H11B 109.9(19)
C13 N12 C11 112.76(10)
C13 N12 H12A 115.4(19)
C11 N12 H12A 102.9(18)
C13 N12 H12B 107.5(18)
C11 N12 H12B 108.1(17)
H12A N12 H12B 110(3)
N12 C13 C7 111.15(10)
N12 C13 H13A 108.8(12)
C7 C13 H13A 110.1(12)
N12 C13 H13B 106.1(15)
C7 C13 H13B 113.4(14)
H13A C13 H13B 107.1(18)
H1W1 O1W H1W2 110(2)
O2A N1A O1A 120.66(14)
O2A N1A O3A 119.30(13)
O1A N1A O3A 120.00(14)
loop_
_geom_bond_atom_site_label_1
_geom_bond_atom_site_label_2
_geom_bond_distance
N1 C6 1.3773(14)
N1 C2 1.3950(15)
N1 C10 1.4823(16)
C2 O2 1.2550(16)
C2 C3 1.4271(18)
C3 C4 1.3644(19)
C3 H3 0.96(3)
C4 C5 1.4127(17)
C4 H4 0.96(3)
C5 C6 1.3709(16)
C5 H5 0.95(3)
C6 C7 1.5115(16)
C7 C8 1.5269(17)
C7 C13 1.5301(16)
C7 H7 0.99(2)
C8 C9 1.5216(18)
C8 H8A 0.97(2)
C8 H8B 0.98(2)
C9 C10 1.5275(17)
C9 C11 1.5292(18)
C9 H9 0.99(2)
C10 H10A 0.95(2)
C10 H10B 0.97(2)
C11 N12 1.4979(19)
C11 H11A 0.97(3)
C11 H11B 0.95(2)
N12 C13 1.4935(16)
N12 H12A 0.88(3)
N12 H12B 0.90(3)
C13 H13A 0.948(19)
C13 H13B 0.93(2)
O1W H1W1 0.91(2)
O1W H1W2 0.86(3)
O1A N1A 1.2459(16)
N1A O2A 1.2328(18)
N1A O3A 1.2559(18)
loop_
_geom_hbond_atom_site_label_D
_geom_hbond_atom_site_label_H
_geom_hbond_atom_site_label_A
_geom_hbond_site_symmetry_A
_geom_hbond_distance_DH
_geom_hbond_distance_HA
_geom_hbond_distance_DA
_geom_hbond_angle_DHA
C11 H11A O2A . 0.97(3) 2.40(3) 3.3097(19) 156(2)
C11 H11B O3A 2_656 0.95(2) 2.31(2) 3.2101(18) 158.9(17)
N12 H12A O1W . 0.88(3) 1.93(3) 2.7885(16) 163(3)
N12 H12B O2 1_455 0.90(3) 1.86(3) 2.7174(15) 159(3)
C13 H13B O1A 2_655 0.93(2) 2.47(2) 3.2031(18) 135.0(19)
O1W H1W1 O1A . 0.91(2) 2.08(2) 2.9706(18) 164.3(19)
O1W H1W1 O2A . 0.91(2) 2.33(2) 3.0673(19) 137.5(18)
O1W H1W2 O3A 2_655 0.86(3) 1.90(3) 2.7549(18) 168(3)
loop_
_geom_torsion_atom_site_label_1
_geom_torsion_atom_site_label_2
_geom_torsion_atom_site_label_3
_geom_torsion_atom_site_label_4
_geom_torsion
C6 N1 C2 O2 176.56(11)
C10 N1 C2 O2 -2.04(15)
C6 N1 C2 C3 -2.86(16)
C10 N1 C2 C3 178.55(11)
O2 C2 C3 C4 -176.83(13)
N1 C2 C3 C4 2.54(18)
C2 C3 C4 C5 -0.85(19)
C3 C4 C5 C6 -0.68(19)
C4 C5 C6 N1 0.41(17)
C4 C5 C6 C7 -177.97(11)
C2 N1 C6 C5 1.44(16)
C10 N1 C6 C5 179.91(11)
C2 N1 C6 C7 179.87(10)
C10 N1 C6 C7 -1.67(16)
C5 C6 C7 C8 -153.87(11)
N1 C6 C7 C8 27.73(14)
C5 C6 C7 C13 83.95(14)
N1 C6 C7 C13 -94.45(12)
C6 C7 C8 C9 -59.05(13)
C13 C7 C8 C9 63.57(13)
C7 C8 C9 C10 65.52(13)
C7 C8 C9 C11 -61.13(13)
C6 N1 C10 C9 8.56(16)
C2 N1 C10 C9 -172.86(10)
C8 C9 C10 N1 -40.93(15)
C11 C9 C10 N1 83.92(14)
C8 C9 C11 N12 54.91(14)
C10 C9 C11 N12 -69.11(14)
C9 C11 N12 C13 -49.50(14)
C11 N12 C13 C7 52.04(13)
C6 C7 C13 N12 63.66(13)
C8 C7 C13 N12 -59.96(13)

_cod_database_fobs_code 2021286
