#------------------------------------------------------------------------------
#$Date: 2019-06-03 22:32:27 +0300 (Mon, 03 Jun 2019) $
#$Revision: 215658 $
#$URL: file:///home/coder/svn-repositories/cod/cif/2/02/15/2021561.cif $
#------------------------------------------------------------------------------
#
# This file is available in the Crystallography Open Database (COD),
# http://www.crystallography.net/. The original data for this entry
# were provided by IUCr Journals, http://journals.iucr.org/.
#
# The file may be used within the scientific community so long as
# proper attribution is given to the journal article from which the
# data were obtained.
#
data_2021561
loop_
_publ_author_name
'Yakubovich, Olga'
'Kiriukhina, Galina'
'Volkov, Anatoliy'
'Dimitrova, Olga'
_publ_section_title
;
 The rich crystal chemistry of the <i>AMM</i>'(PO~4~)~2~ morphotropic
 series: NaZnAl(PO~4~)~2~, the first Na representative with a new
 structure type
;
_journal_coeditor_code           FN3303
_journal_issue                   5
_journal_name_full               'Acta Crystallographica Section C'
_journal_page_first              514
_journal_page_last               522
_journal_paper_doi               10.1107/S2053229619004327
_journal_volume                  75
_journal_year                    2019
_chemical_formula_iupac          'Na Zn Al (P O4)2'
_chemical_formula_moiety         'Al Na O8 P2 Zn'
_chemical_formula_sum            'Al Na O8 P2 Zn'
_chemical_formula_weight         305.28
_chemical_name_common            'Sodium zinc aluminium phosphate'
_chemical_name_systematic        'Sodium zinc aluminium bis(phosphate)'
_space_group_crystal_system      monoclinic
_space_group_IT_number           14
_space_group_name_Hall           '-P 2ybc'
_space_group_name_H-M_alt        'P 1 21/c 1'
_symmetry_space_group_name_Hall  '-P 2ybc'
_symmetry_space_group_name_H-M   'P 1 21/c 1'
_atom_sites_solution_primary     direct
_atom_sites_solution_secondary   difmap
_audit_creation_method           SHELXL-2016/6
_cell_angle_alpha                90
_cell_angle_beta                 119.158(5)
_cell_angle_gamma                90
_cell_formula_units_Z            4
_cell_length_a                   9.5199(3)
_cell_length_b                   8.6700(2)
_cell_length_c                   9.5471(3)
_cell_measurement_reflns_used    4763
_cell_measurement_temperature    293(2)
_cell_measurement_theta_max      32.0370
_cell_measurement_theta_min      3.3780
_cell_volume                     688.14(5)
_computing_cell_refinement
;
CrysAlis PRO (Agilent, 2012)
;
_computing_data_collection
;
CrysAlis PRO (Agilent, 2012)
;
_computing_data_reduction
;
CrysAlis PRO (Agilent, 2012)
;
_computing_molecular_graphics
;
DIMOND (Brandenburg, 2006)
;
_computing_structure_refinement
;
SHELXL2016 (Sheldrick, 2015b) and <i>WinGX</i> (Farrugia, 2012)
;
_computing_structure_solution
;
SHELXT (Sheldrick, 2015a) and <i>WinGX</i> (Farrugia, 2012)
;
_diffrn_ambient_temperature      293(2)
_diffrn_detector_area_resol_mean 16.0630
_diffrn_measured_fraction_theta_full 0.999
_diffrn_measured_fraction_theta_max 1.000
_diffrn_measurement_device_type  'Agilent Xcalibur Sapphire3'
_diffrn_measurement_method       \w
_diffrn_radiation_type           MoK\a
_diffrn_radiation_wavelength     0.71073
_diffrn_reflns_av_R_equivalents  0.0481
_diffrn_reflns_av_unetI/netI     0.0305
_diffrn_reflns_limit_h_max       13
_diffrn_reflns_limit_h_min       -13
_diffrn_reflns_limit_k_max       12
_diffrn_reflns_limit_k_min       -12
_diffrn_reflns_limit_l_max       13
_diffrn_reflns_limit_l_min       -13
_diffrn_reflns_number            12993
_diffrn_reflns_theta_full        25.242
_diffrn_reflns_theta_max         30.000
_diffrn_reflns_theta_min         3.390
_diffrn_source                   'Enhance (Mo) X-ray Source'
_exptl_absorpt_coefficient_mu    4.235
_exptl_absorpt_correction_T_max  0.806
_exptl_absorpt_correction_T_min  0.705
_exptl_absorpt_correction_type   gaussian
_exptl_absorpt_process_details
;
(CrysAlis PRO; Agilent, 2012)
;
_exptl_crystal_colour            colorless
_exptl_crystal_density_diffrn    2.947
_exptl_crystal_description       plate
_exptl_crystal_F_000             592
_exptl_crystal_size_max          0.106
_exptl_crystal_size_mid          0.083
_exptl_crystal_size_min          0.066
_refine_diff_density_max         0.532
_refine_diff_density_min         -0.571
_refine_ls_extinction_method     none
_refine_ls_goodness_of_fit_ref   1.211
_refine_ls_hydrogen_treatment    undef
_refine_ls_matrix_type           full
_refine_ls_number_parameters     121
_refine_ls_number_reflns         2010
_refine_ls_number_restraints     0
_refine_ls_restrained_S_all      1.211
_refine_ls_R_factor_all          0.0436
_refine_ls_R_factor_gt           0.0366
_refine_ls_shift/su_max          0.000
_refine_ls_shift/su_mean         0.000
_refine_ls_structure_factor_coef Fsqd
_refine_ls_weighting_details
'w=1/[\s^2^(Fo^2^)+(0.0190P)^2^+1.0000P] where P=(Fo^2^+2Fc^2^)/3'
_refine_ls_weighting_scheme      calc
_refine_ls_wR_factor_gt          0.0679
_refine_ls_wR_factor_ref         0.0702
_reflns_number_gt                1805
_reflns_number_total             2010
_reflns_threshold_expression     'I > 2\s(I)'
_cod_data_source_file            fn3303sup1.cif
_cod_data_source_block           I
_cod_depositor_comments          'Adding full bibliography for 2021561.cif.'
_cod_database_code               2021561
_cod_database_fobs_code          2021561
_shelx_space_group_comment
;
The symmetry employed for this shelxl refinement is uniquely defined
by the following loop, which should always be used as a source of
symmetry information in preference to the above space-group names.
They are only intended as comments.
;
_shelx_estimated_absorpt_t_min   0.662
_shelx_estimated_absorpt_t_max   0.767
_shelx_hkl_file
;
   0   0  -2 112633. 2221.84  10
   0   0   2 113188. 2225.50   9
   0   0  -2 116571. 2246.27   4
   0   0   2 102363. 2191.35   8
   0   0  -2 106348. 2289.08   7
   0   0   3 130.240 115.403   8
   0   0  -3-47.4479 127.287   7
   0   0  -3 57.7435 93.8363   4
   0   0   3 36.5039 100.990   9
   0   0  -3 114.037 102.559  10
   0   0   4 3810.21 340.901   9
   0   0  -4 2859.88 350.667   7
   0   0  -4 3319.81 326.317   4
   0   0  -4 3486.12 323.611  10
   0   0   4 3121.93 314.217   8
   0   0   4 3125.37 171.064   2
   0   0  -5-0.29572 154.110   7
   0   0  -5-60.3481 104.300  10
   0   0   5 28.2174 42.5691   2
   0   0   5 99.9202 135.442   9
   0   0   5 178.761 160.410   8
   0   0  -5 23.1354 126.541   4
   0   0  -6 140274. 3137.36   4
   0   0  -6 136112. 3366.33   7
   0   0  -6 138838. 3104.97  10
   0   0   6 135421. 3056.91   8
   0   0   6 140776. 3127.11   9
   0   0   7 380.492 203.007   8
   0   0   7 121.446 176.116   5
   0   0  -7 139.468 185.648   4
   0   0   7-61.5341 127.264   9
   0   0  -7 329.826 320.619   7
   0   0  -7 433.192 229.741  10
   0   0   8 4102.24 502.838   8
   0   0   8 4041.74 529.216   5
   0   0  -8 3167.77 572.643   7
   0   0  -8 3582.68 499.296  10
   0   0   8 3995.89 516.103   9
   0   0  -8 3611.61 499.668   4
   0   0  -9 255.731 224.969  10
   0   0  -9 554.657 274.552   4
   0   0   9 231.822 182.559   9
   0   0  -9-56.8633 310.510   7
   0   0   9 208.792 265.771   8
   0   0   9-161.459 169.499   5
   0   0 -10 626.596 287.266   4
   0   0  10 667.996 341.663   9
   0   0 -10 674.381 280.201  10
   0   0  10 540.062 278.867   5
   0   0 -11-152.668 215.719  10
   0   0  11 119.646 209.781   9
   0   0 -11-276.508 268.079   4
   0   0  11 263.322 270.153   5
   0   0  12 8256.91 983.714   5
   0   0 -12 8709.77 1003.88  10
   0   0  12 10431.3 1079.97   9
   0   1  -1 766.323 104.288  10
   0   1   1 824.457 99.3960   8
   0  -1  -1 1077.00 104.141   8
   0  -1  -1 848.163 115.528   5
   0   1  -1 822.883 106.514   4
   0   1   1 889.439 118.685   5
   0   1  -1 1004.39 115.144   9
   0  -1  -1 986.074 126.713   6
   0  -1   1 933.423 132.426   1
   0  -1   1 1190.67 125.634  10
   0   1   1 767.231 110.774   6
   0   1  -1 1031.98 138.644   1
   0  -1   1 853.231 110.943   9
   0  -1   1 1008.62 120.649   4
   0  -1  -2 58364.2 1269.01  10
   0   1   2 57755.5 1271.18   9
   0   1  -2 58504.9 1420.30   4
   0  -1   2 58844.5 1433.67   9
   0  -1   2 58974.9 1497.33   1
   0   1   2 59177.2 1349.37   8
   0  -1  -2 59014.7 1375.48   4
   0   1  -2 58949.5 1430.10  10
   0   1   2 60590.5 1459.46   5
   0   1   2 58498.6 1377.05   4
   0  -1  -2 58344.7 1442.64   7
   0  -1  -2 66458.3 1390.43   8
   0  -1  -2 65854.6 1296.79   9
   0   1   2 65612.7 1297.68  10
   0  -1  -3 9477.34 439.717  10
   0  -1  -3 10737.1 564.601   7
   0  -1   3 11587.0 612.454   1
   0   1   3 11730.7 576.509   5
   0   1  -3 10988.2 549.984  10
   0   1  -3 11102.7 550.500   4
   0  -1   3 11005.8 551.537   9
   0  -1  -3 10934.7 513.657   4
   0   1   3 10412.0 499.768   8
   0   1   3 11451.2 479.184   9
   0   1   4 19966.5 758.435   9
   0   1  -4 18952.3 835.516   4
   0  -1  -4 18243.4 865.505   7
   0   1  -4 17825.2 890.731   7
   0   1  -4 18894.9 833.209  10
   0  -1  -4 19163.3 741.684  10
   0   1   4 18362.1 756.911   8
   0   1   4 19715.7 853.959   5
   0  -1   4 18260.4 824.312   9
   0  -1  -4 19018.5 795.888   4
   0   1  -5 2939.81 426.181   7
   0  -1  -5 2977.01 345.838   4
   0   1   5 3386.41 339.603   9
   0   1  -5 3200.49 390.202  10
   0  -1  -5 2819.96 381.754   7
   0   1  -5 3166.79 369.372   4
   0   1   5 3156.32 343.704   8
   0  -1  -5 2623.32 315.600  10
   0   1   5 2891.94 365.473   5
   0  -1   5 3339.76 380.942   9
   0   1   6 2256.13 337.423   8
   0  -1  -6 2834.29 361.464   4
   0   1  -6 2604.62 370.277  10
   0  -1   6 2987.54 377.077   8
   0  -1   6 2981.64 255.128   2
   0   1  -6 3675.89 526.400   7
   0   1  -6 2185.05 359.498   4
   0  -1  -6 2357.13 429.464   7
   0   1   6 3113.98 365.142   9
   0  -1  -6 2616.92 338.792  10
   0   1   6 2626.40 391.377   5
   0  -1   6 2365.80 359.402   9
   0   1   7 1175.94 291.601   9
   0   1   7 1488.79 318.307   5
   0   1  -7 1347.78 312.476  10
   0   1  -7 1279.45 346.617   4
   0  -1   7 514.315 201.760   9
   0  -1   7 944.454 150.179   2
   0   1   7 927.894 241.670   8
   0  -1  -7 893.429 266.435  10
   0  -1   7 780.568 283.009   8
   0  -1  -7 878.678 335.639   7
   0  -1  -7 1130.73 276.154   4
   0   1  -8 6837.22 689.023   4
   0   1  -8 6542.19 688.522  10
   0  -1  -8 5846.59 629.280   4
   0   1   8 5537.65 582.804   9
   0   1   8 6302.08 594.850   8
   0  -1  -8 5815.09 595.988  10
   0  -1   8 5696.62 600.473   5
   0  -1  -8 7552.80 810.896   7
   0  -1   8 5984.35 649.543   9
   0   1   8 6780.44 692.231   5
   0  -1   8 6898.35 658.215   8
   0  -1   9 3081.59 492.109   5
   0   1   9 2234.23 421.506   9
   0  -1  -9 2500.03 460.212   4
   0   1  -9 2498.08 474.826  10
   0  -1  -9 3409.38 634.945   7
   0  -1  -9 2527.28 454.144  10
   0   1   9 1741.08 364.024   8
   0  -1   9 2192.62 438.853   9
   0   1   9 2391.09 465.658   5
   0  -1   9 2629.54 468.117   8
   0   1  -9 2037.95 414.237   4
   0   1  10 32358.3 1673.54   9
   0   1  10 32323.0 1781.11   5
   0  -1  10 34116.2 1830.16   9
   0  -1 -10 29827.8 1608.32  10
   0  -1  10 36781.4 1796.11   5
   0  -1 -10 36918.7 2104.81   7
   0   1 -10 34071.1 1817.27   4
   0   1 -10 34898.6 1835.69  10
   0  -1 -10 35415.0 1771.10   4
   0  -1  11 281.072 311.925   9
   0  -1 -11 913.194 537.972   7
   0   1 -11 256.642 281.134   4
   0  -1 -11 127.642 272.411  10
   0   1  11 0.64764 231.294   5
   0  -1  11 493.493 300.918   5
   0   1 -11 141.191 225.831  10
   0  -1 -11-52.3313 199.665   4
   0   1 -12 937.939 397.824  10
   0   1 -12 637.499 334.664   4
   0   1  12 532.745 314.770   5
   0  -1  12 773.912 403.257   9
   0  -2   0 59574.4 1397.17   1
   0  -2   0 59383.8 1260.89   9
   0   2   0 60178.5 1265.87  10
   0   2   0 63407.1 1259.50   9
   0  -2   0 62235.1 1341.65   5
   0   2   0 60576.2 1404.04   3
   0   2   0 54510.1 1384.37   6
   0  -2   0 64374.8 1258.67  10
   0   2   1 12831.9 517.427   5
   0   2   1 12634.6 532.374   6
   0  -2   1 13683.7 579.934   1
   0   2  -1 13193.9 500.806  10
   0   2   1 13235.4 499.233   8
   0  -2   1 12568.1 494.421   9
   0  -2  -2 1023.48 160.204   4
   0   2   2 867.395 175.098   5
   0  -2   2 865.415 204.469   1
   0   2   2 924.313 91.5649   9
   0  -2  -2 848.521 87.0895   9
   0  -2  -2 935.870 89.9443  10
   0   2  -2 971.301 169.751  10
   0   2   2 917.893 148.556   8
   0   2   2 846.688 86.9806  10
   0  -2   2 821.427 167.261   9
   0   2  -2 851.992 173.150   4
   0   2   2 1086.74 185.797   6
   0   2   3 19501.9 742.609   8
   0  -2  -3 20934.8 849.771   7
   0  -2   3 21489.1 933.306   1
   0   2  -3 19864.1 836.620  10
   0  -2  -3 19720.1 762.577   4
   0   2   3 22972.8 658.188  10
   0   2   3 19471.1 844.554   5
   0   2   3 21377.8 638.867   9
   0  -2  -3 20394.0 625.463  10
   0  -2   3 21923.7 870.847   9
   0   2  -3 21051.8 846.176   4
   0  -2  -3 22017.0 646.922   9
   0  -2  -4-28.0650 131.687   7
   0  -2   4 72.3845 139.596   9
   0   2   4 92.9921 120.039   5
   0  -2  -4-55.4666 91.4382   4
   0   2  -4 101.036 114.045   4
   0  -2  -4 65.1917 68.0095  10
   0   2  -4 98.4134 160.954  10
   0   2   4 88.3266 133.008   8
   0   2   4 149.656 89.8404   9
   0  -2   4 44.2903 161.503   1
   0   2   5 37256.8 1272.98   8
   0   2  -5 36589.4 1390.07   4
   0   2   5 38874.0 1198.01   9
   0  -2  -5 36363.0 1161.87  10
   0   2  -5 35574.8 1388.48  10
   0  -2   5 35505.1 1396.68   9
   0  -2  -5 36079.7 1429.52   7
   0   2   5 36560.2 1415.22   5
   0  -2  -5 35566.3 1273.56   4
   0  -2  -6 17290.5 1034.13   7
   0   2  -6 16367.8 965.864  10
   0   2  -6 16474.3 966.771   4
   0  -2  -6 17482.5 829.747  10
   0   2   6 18935.1 864.437   9
   0   2   6 17777.5 1013.10   5
   0  -2  -6 18787.7 944.028   4
   0   2   6 17579.7 895.211   8
   0  -2   6 17348.6 1001.20   9
   0  -2  -7 724.088 223.813  10
   0  -2  -7 1178.16 335.336   7
   0   2  -7 1341.25 351.072  10
   0   2   7 1263.86 316.168   5
   0   2   7 1025.01 253.916   9
   0   2   7 1343.06 287.825   8
   0  -2  -7 1355.97 304.420   4
   0   2  -7 966.274 302.959   4
   0  -2   7 591.254 267.257   9
   0   2   8 1028.76 316.316   5
   0  -2   8 1099.43 303.214   8
   0   2  -8 1258.62 349.807  10
   0  -2  -8 1562.76 409.347   7
   0   2   8 950.104 295.256   8
   0  -2  -8 808.673 262.474   4
   0   2  -8 1060.52 313.786   4
   0   2   8 912.361 269.792   9
   0  -2  -8 697.071 275.304  10
   0  -2   8 861.837 273.358   9
   0   2   9 1628.58 425.194   5
   0  -2   9 2161.44 455.825   8
   0  -2   9 1603.60 363.432   5
   0  -2   9 1592.91 400.699   9
   0  -2  -9 1240.30 311.369  10
   0   2  -9 1511.84 390.408  10
   0  -2  -9 1640.02 399.704   4
   0   2  -9 1734.10 441.982   4
   0   2   9 1302.33 316.878   9
   0  -2  -9 1952.51 511.859   7
   0   2   9 1692.49 356.841   8
   0  -2 -10 1126.54 466.104   7
   0  -2  10 473.857 268.919   5
   0   2 -10 136.652 214.901  10
   0  -2  10 368.024 247.039   8
   0   2 -10 34.4680 219.631   4
   0  -2 -10 385.245 264.108   4
   0   2  10-55.4065 216.818   5
   0  -2  10 384.790 295.325   9
   0   2 -11 5269.31 785.194   4
   0  -2  11 3261.90 631.444   9
   0  -2 -11 5170.07 879.624   7
   0   2 -11 5111.20 804.718  10
   0   2  11 5585.53 802.894   5
   0   2 -12 4012.92 743.886  10
   0   2 -12 4236.50 761.663   4
   0  -2  12 4266.03 746.105   9
   0   2  12 3046.71 661.293   5
   0   3   0 101.741 79.7888  10
   0   3   0-22.6689 128.961   6
   0  -3   0-46.9164 115.696   1
   0   3   0 16.0704 114.716   3
   0  -3   0 215.379 90.3773  10
   0  -3   0 108.813 75.8077   9
   0   3   0 98.4343 76.6155   9
   0   3   1 2199.39 261.280   6
   0   3  -1 1860.56 208.927  10
   0   3  -1 2332.10 268.768   3
   0   3   1 2371.02 140.710   9
   0  -3   1 2067.99 213.720   9
   0  -3   1 2403.70 308.474   1
   0   3   1 1759.35 218.943   5
   0   3  -1 2223.65 265.362   6
   0   3   1 1684.05 206.480   8
   0  -3  -1 2132.82 138.330  10
   0  -3  -1 1950.05 248.800   1
   0   3   2 17258.9 768.316   6
   0  -3   2 17773.2 744.783   9
   0   3  -2 17523.1 751.096   4
   0   3  -2 17247.1 733.219  10
   0  -3  -2 17171.3 428.171  10
   0  -3   2 17831.4 848.905   1
   0   3   2 17167.6 427.451   9
   0   3   2 18156.1 719.662   8
   0   3   2 18256.0 783.150   5
   0   3  -3 254.391 109.905  10
   0   3   3 668.438 167.737   8
   0  -3   3 402.755 209.118   1
   0   3   3 505.759 168.373   6
   0  -3  -3 347.972 143.047   4
   0   3   3 477.522 186.562   5
   0  -3  -3 493.920 82.5465  10
   0   3  -3 391.240 163.766   4
   0   3   3 580.291 90.0331   9
   0   3   3 485.786 86.1214  10
   0  -3  -3 571.202 84.5175   9
   0  -3   3 526.472 177.448   9
   0  -3   4 10918.2 696.241   9
   0   3   4 11542.6 467.447   9
   0  -3  -4 11107.7 464.223  10
   0   3   4 11155.2 613.165   8
   0   3   4 10831.9 709.635   5
   0  -3   4 10817.3 759.131   1
   0   3  -4 10646.4 680.321   4
   0   3  -4 10156.2 678.213  10
   0  -3  -4 10822.2 701.968   7
   0  -3  -4 10055.0 588.222   4
   0  -3  -5 944.055 224.306   4
   0  -3  -5 1228.38 185.826  10
   0   3   5 1513.81 199.281   9
   0   3  -5 1355.76 302.415  10
   0  -3  -5 1187.45 332.230   7
   0   3  -5 1930.41 337.817   4
   0   3   5 1241.68 278.773   5
   0   3   5 1370.56 236.449   8
   0  -3   5 862.641 233.067   9
   0  -3   5 1301.02 317.157   1
   0  -3   6 12503.7 882.357   9
   0  -3  -6 13541.6 803.654   4
   0   3  -6 12694.6 880.216   4
   0   3  -6 12486.5 878.397  10
   0   3   6 13280.6 780.173   8
   0  -3  -6 12673.2 660.224  10
   0   3   6 14496.7 697.704   9
   0  -3  -6 14892.2 970.245   7
   0   3   6 12310.3 871.192   5
   0   3  -7 1943.21 383.682   4
   0  -3  -7 2329.16 379.935   4
   0   3   7 2046.12 290.561   9
   0  -3  -7 2028.58 315.897  10
   0   3   7 1827.12 393.596   5
   0   3  -7 2733.00 456.130  10
   0   3   7 2425.71 363.379   8
   0  -3   7 2594.39 450.591   9
   0  -3  -7 1762.40 388.092   7
   0  -3   8 78.6816 221.053   9
   0   3  -8 155.304 192.833   4
   0  -3  -8 465.769 252.327   4
   0  -3  -8 578.669 215.255  10
   0  -3  -8 707.740 375.175   7
   0   3  -8 549.820 263.715  10
   0   3   8 1044.93 289.450   8
   0   3   8 283.352 185.613   9
   0   3   8 387.560 270.161   5
   0  -3  -9 3608.36 637.996   7
   0  -3   9 3001.96 525.734   8
   0  -3  -9 3428.24 504.363   4
   0   3   9 3811.50 611.888   5
   0   3  -9 4060.20 638.269  10
   0   3  -9 3152.19 562.901   4
   0  -3   9 3617.15 617.344   9
   0  -3 -10 729.677 336.925   7
   0  -3  10 657.442 382.842   9
   0   3  10 456.417 305.260   5
   0   3 -10 625.173 342.925  10
   0  -3  10 320.141 270.560   8
   0   3 -10-37.4409 218.343   4
   0   3  11 976.263 434.177   5
   0   3 -11 466.418 309.368  10
   0  -3 -11 603.094 483.233   7
   0  -3  11 244.591 295.695   9
   0   3 -11-157.368 282.172   4
   0   3 -12 2053.08 545.984   4
   0  -4   0 95178.5 2333.29   1
   0   4   0 98246.5 2348.10   3
   0   4   0 93096.9 2064.25  10
   0  -4   0 90609.5 2050.92   9
   0   4   0 94585.6 2344.69   6
   0  -4  -1 4967.65 248.226  10
   0  -4   1 4413.74 448.319   1
   0   4  -1 5082.61 374.422  10
   0  -4   1 4803.43 370.362   9
   0   4   1 4945.42 246.837   9
   0   4  -1 4963.76 404.143   3
   0   4   1 4668.47 410.512   6
   0  -4  -1 4439.82 414.760   1
   0   4  -1 4652.16 425.081   6
   0   4  -2 28899.2 1041.73  10
   0   4   2 28259.3 1029.34   8
   0  -4   2 26373.3 999.315   9
   0   4   2 27132.1 607.005   9
   0   4   2 24235.2 583.624   9
   0   4   2 27656.4 1071.80   5
   0   4  -2 29237.7 1051.10   3
   0  -4   2 28738.8 1208.76   1
   0  -4  -2 26728.8 607.513  10
   0   4   2 28460.5 1099.90   6
   0  -4  -3 1808.47 118.184  10
   0   4  -3 2286.39 322.138  10
   0   4   3 2102.43 127.671   9
   0   4   3 2263.03 289.418   8
   0   4   3 2222.50 342.170   5
   0  -4   3 2175.23 311.881   9
   0  -4  -3 2352.43 272.652   4
   0  -4   3 2293.07 406.813   1
   0   4   3 2585.20 355.120   6
   0   4   4 40172.2 1380.12   8
   0   4  -4 41241.4 1534.57  10
   0   4   4 41655.6 1563.34   5
   0  -4  -4 38351.2 989.159   9
   0  -4  -4 42019.9 982.047  10
   0  -4  -4 42704.1 1550.12   7
   0  -4   4 41188.9 1671.38   1
   0   4   4 43575.7 992.477   9
   0   4   4 40607.0 1583.66   6
   0   4  -4 40055.2 1522.70   4
   0  -4   4 40451.1 1529.87   9
   0  -4  -4 40419.2 1369.25   4
   0   4  -5 6068.93 591.586   4
   0  -4  -5 7975.34 584.476   4
   0   4  -5 7478.43 663.484  10
   0  -4   5 6992.82 693.592   1
   0   4   5 6929.80 566.112   8
   0  -4   5 7535.54 664.959   9
   0  -4  -5 8122.61 688.504   7
   0   4   5 6946.38 646.696   5
   0   4   5 6739.98 366.543   9
   0  -4  -5 7368.85 383.318  10
   0   4  -6 58464.2 2134.23   4
   0   4   6 60873.2 1566.32   9
   0   4  -6 58156.5 2146.05  10
   0  -4   6 59267.8 2176.66   9
   0   4   6 57047.2 2131.88   5
   0   4   6 62221.4 1933.32   8
   0  -4  -6 57332.7 2143.32   7
   0  -4  -6 58711.0 1554.00  10
   0  -4   6 54648.5 2215.95   1
   0  -4  -6 60144.1 1927.23   4
   0  -4   7 182.141 190.308   9
   0   4  -7 173.153 220.792   4
   0   4   7 357.379 264.028   5
   0   4   7 481.129 213.582   8
   0  -4  -7 309.185 188.547   4
   0   4  -7 434.141 256.018  10
   0  -4  -7 815.042 361.557   7
   0   4  -8 5431.18 699.209   4
   0  -4  -8 5664.78 713.474   7
   0   4   8 6691.97 777.690   5
   0   4  -8 6707.76 781.783  10
   0  -4   8 7577.24 824.417   9
   0   4   8 5820.28 598.387   8
   0  -4  -8 6563.36 641.407   4
   0   4  -9 493.052 320.857  10
   0  -4   9 232.298 247.746   9
   0   4   9-10.8958 209.805   5
   0   4  -9-192.219 256.563   4
   0  -4  -9 749.694 430.822   7
   0  -4  10 7899.69 971.508   9
   0  -4 -10 8425.65 1039.56   7
   0   4 -10 7032.20 888.650   4
   0  -4  10 8256.58 905.470   8
   0   4  10 7536.08 905.017   5
   0   4 -10 8419.78 998.703  10
   0   4  11 432.651 286.705   5
   0   4 -11 195.269 365.435   4
   0  -4  11 764.508 369.938   9
   0   4 -11-92.6305 288.553  10
   0  -5   0-19.1929 167.901   1
   0   5   0 187.894 146.012   3
   0   5   0-35.1981 149.687   6
   0  -5   0 160.759 97.4943   9
   0   5   1 337.693 189.311   6
   0   5  -1 505.258 165.741  10
   0   5  -1 424.701 187.427   6
   0  -5   1 482.669 158.268   9
   0  -5   1 449.036 219.945   1
   0  -5  -1 622.755 225.408   1
   0   5  -1 809.368 231.556   3
   0   5   2 4032.33 444.873   5
   0   5  -2 3822.48 401.748   3
   0   5   2 3123.69 401.990   6
   0   5   2 3519.29 180.150   9
   0  -5  -2 3505.63 178.803  10
   0  -5   2 3711.47 390.737   9
   0  -5  -2 3512.69 415.734   1
   0   5   2 3966.12 403.010   8
   0   5  -2 4109.51 471.307   6
   0   5   2 3248.36 174.980   9
   0   5  -2 3827.09 394.003  10
   0  -5   2 3413.87 463.540   1
   0  -5  -2 3111.04 170.117  10
   0  -5   3 343.222 187.273   9
   0   5  -3 585.849 217.473  10
   0   5   3 227.319 215.116   6
   0  -5   3 579.115 287.626   1
   0   5   3 698.500 255.934   5
   0   5   3 672.390 198.400   8
   0   5  -3 394.015 195.383   3
   0   5   4 48450.4 1821.35   5
   0   5   4 52324.0 1699.69   8
   0  -5   4 45573.2 1922.58   1
   0   5   4 52051.4 1906.96   6
   0   5  -4 49888.4 1652.70   3
   0  -5   4 48238.1 1790.29   9
   0  -5  -4 48867.5 1604.75   4
   0   5  -4 48873.5 1791.94  10
   0   5   5 311.885 292.895   6
   0   5  -5 2.33489 192.323  10
   0   5  -5 22.2344 155.561   4
   0   5   5 113.945 185.510   8
   0  -5  -5 4.00331 118.902   4
   0  -5  -5 29.1805 161.309   7
   0  -5   5 420.852 246.366   9
   0  -5   5 264.209 264.070   1
   0   5   5-173.439 187.814   5
   0   5  -6 3591.02 535.157  10
   0  -5   6 2157.12 443.534   1
   0  -5  -6 3808.73 447.469   4
   0   5   6 3111.67 504.903   5
   0  -5   6 3774.70 543.400   9
   0  -5  -6 3322.25 493.788   7
   0   5   6 3460.77 447.647   8
   0   5  -6 2672.91 461.964   4
   0  -5  -7 1428.69 428.279   7
   0  -5  -7 1298.36 308.041   4
   0   5  -7 1188.91 346.271   4
   0   5  -7 1488.22 409.888  10
   0   5   7 1694.57 345.014   8
   0  -5   7 1643.99 402.207   9
   0   5   7 1066.95 330.392   5
   0  -5   7 1164.19 388.829   1
   0   5  -8 3375.63 616.410  10
   0   5   8 4460.40 543.643   8
   0  -5  -8 2860.34 531.714   7
   0   5   8 2748.15 520.253   5
   0   5  -8 2168.49 489.178   4
   0  -5   8 3805.35 635.290   9
   0   5  -9-365.888 308.781   4
   0   5  -9 559.774 355.861  10
   0   5   9 235.842 258.058   5
   0  -5  -9 102.291 245.460   7
   0  -5   9 77.9212 204.133   9
   0   5 -10 28692.2 1884.98   4
   0   5 -10 32503.0 2024.70  10
   0  -5  10 30012.7 1953.63   9
   0   5  10 29057.3 1881.53   5
   0  -5 -10 33737.8 2061.70   7
   0  -5 -11 2749.32 705.378   7
   0   5  11 3056.55 692.590   5
   0   6   0 257177. 5616.65   6
   0  -6   0 254132. 5600.50   1
   0   6   0 260571. 5595.38   3
   0   6  -1 11231.3 678.157  10
   0   6  -1 11622.7 819.365   6
   0   6   1 11158.1 784.747   6
   0   6  -1 10492.8 725.799   3
   0  -6  -1 10554.5 771.849   1
   0  -6   1 11044.5 674.561   9
   0  -6   1 10666.7 823.753   1
   0  -6  -2 11554.5 407.942  10
   0   6  -2 14059.9 832.105   3
   0  -6  -2 12957.6 862.300   1
   0  -6   2 13985.8 967.395   1
   0   6  -2 13682.4 805.207  10
   0  -6   2 13991.0 814.826   9
   0  -6  -2 13066.0 424.358  10
   0   6   2 12222.7 417.634   9
   0   6  -2 14259.8 924.055   6
   0   6   2 13766.4 882.506   6
   0  -6  -3 2589.08 429.154   1
   0   6  -3 3920.93 447.792   3
   0   6   3 3349.85 468.010   5
   0   6   3 2847.79 400.480   8
   0   6   3 3273.12 481.498   6
   0  -6   3 2457.16 391.755   9
   0   6  -3 3447.12 454.203  10
   0  -6   3 2523.57 483.374   1
   0   6  -3 2775.53 450.445   6
   0  -6   4 1318.53 377.199   1
   0  -6  -4 2861.90 371.227   4
   0   6   4 1683.77 383.399   5
   0   6   4 2472.87 434.070   6
   0   6   4 2336.36 354.527   8
   0   6  -4 2362.60 380.812   3
   0   6  -4 1977.97 362.171  10
   0  -6   4 2065.47 384.066   9
   0   6   5 6814.42 624.407   8
   0  -6   5 5962.92 749.042   1
   0   6  -5 7826.45 754.869  10
   0  -6  -5 7705.51 723.466   7
   0   6  -5 7935.68 659.204   3
   0  -6   5 7027.07 715.838   9
   0   6   5 5896.28 666.554   5
   0  -6  -5 7492.86 624.086   4
   0   6   5 8256.43 796.510   6
   0  -6  -6 39966.8 1605.51   4
   0  -6   6 41229.0 1914.55   9
   0   6   6 43468.9 1699.97   8
   0   6   6 35716.2 1801.46   5
   0  -6  -6 41497.2 1881.85   7
   0   6  -6 41680.4 1612.51   3
   0  -6   6 35351.9 1892.48   1
   0   6  -6 41134.3 1903.37  10
   0  -6   7 2596.06 525.562   9
   0   6   7 3528.68 491.278   8
   0   6   7 2600.05 513.696   5
   0  -6   7 2495.38 561.889   1
   0   6  -7 2886.47 527.245  10
   0  -6  -7 3614.57 592.952   7
   0   6   8-220.687 241.078   5
   0   6   8 1169.53 311.020   8
   0  -6  -8 700.234 334.688   7
   0  -6   8 1022.94 356.002   9
   0   6  -8 371.812 303.042  10
   0  -6   8 818.028 309.131   1
   0   6   9 208.761 289.319   5
   0   6  -9 194.415 224.289  10
   0  -6   9 253.607 303.546   9
   0  -6  -9 56.9576 363.719   7
   0  -6  10 259.942 387.915   9
   0  -6 -10 830.694 401.380   7
   0   6  10 394.751 377.276   5
   0   6 -10 511.529 425.582  10
   0   7   0 92.0363 238.195   6
   0  -7   0 368.145 289.922   1
   0  -7   1 918.756 244.710   9
   0  -7   1 1003.23 281.119   1
   0   7  -1 942.422 305.127   6
   0   7   1 1165.37 296.734   6
   0   7  -1 1311.05 321.489   3
   0  -7  -1 718.389 253.769   1
   0  -7   2 22510.0 1340.18   1
   0   7  -2 22597.2 1137.10  10
   0  -7   2 23437.7 1156.57   9
   0   7   2 23564.4 1273.28   6
   0  -7  -2 22694.0 1247.16   1
   0   7  -2 21794.6 1263.86   6
   0   7  -2 24950.4 1229.53   3
   0   7  -3 3005.45 489.919   6
   0   7  -3 2319.18 422.723  10
   0   7   3 2488.55 421.968   6
   0  -7   3 3039.98 578.114   1
   0  -7   3 2572.45 426.548   9
   0  -7  -3 2150.40 417.383   1
   0   7  -3 2202.66 356.266   3
   0  -7  -4 4287.94 476.788   4
   0   7  -4 3975.26 601.179   6
   0   7   4 3887.44 506.000   8
   0   7  -4 4102.19 502.912   3
   0  -7   4 2915.66 552.877   1
   0   7  -4 3758.86 546.994  10
   0   7   4 3438.99 515.987   6
   0  -7   4 4156.27 548.737   9
   0  -7  -4 2807.44 487.248   1
   0  -7   5 4491.33 607.313   9
   0   7  -5 5242.24 658.196  10
   0   7   5 5459.17 597.718   8
   0   7   5 4189.46 637.081   6
   0   7  -5 5593.30 581.981   3
   0  -7  -5 5557.33 568.151   4
   0  -7   5 4362.02 700.160   1
   0   7   5 4921.62 649.614   5
   0  -7  -5 4420.05 596.023   7
   0  -7   6 1874.40 428.678   9
   0   7  -6 1045.23 377.142  10
   0   7  -6 1248.58 302.632   3
   0  -7  -6 1267.53 366.591   7
   0   7   6 798.574 289.595   8
   0  -7   6 843.135 355.333   1
   0   7   6 1286.37 379.324   5
   0   7   7-84.1536 228.275   5
   0  -7   7 414.073 288.900   9
   0   7  -7 3.09097 307.025  10
   0  -7   7-369.208 383.484   1
   0  -7  -7 140.314 262.775   7
   0   7   7 102.993 156.608   8
   0  -7   8 84.7049 288.054   1
   0   7   8 1005.17 384.748   5
   0   7  -8 1747.16 484.271  10
   0  -7   8 1001.92 434.255   9
   0  -7  -8 767.088 345.095   7
   0  -7  -9 2011.43 533.114   7
   0   7   9 1349.79 521.932   5
   0  -7   9 2153.27 562.646   9
   0   7  -9 1562.33 540.224  10
   0  -7 -10 6113.85 921.860   7
   0  -8   0 1068.09 332.763   1
   0   8   0 1326.09 358.964   6
   0   8  -1 2241.58 425.225   3
   0  -8  -1 2664.52 482.288   1
   0   8   1 2516.78 498.481   6
   0   8  -1 1684.67 408.223   6
   0  -8   1 2422.61 510.004   1
   0   8  -2 28880.8 1553.38   6
   0  -8   2 25130.3 1289.24   9
   0  -8   2 25865.3 1541.49   1
   0  -8  -2 28244.2 1500.56   1
   0   8   2 27256.8 1486.39   6
   0   8  -2 28164.9 1405.64   3
   0   8  -3 2089.83 416.424  10
   0  -8   3 2028.38 389.715   9
   0   8   3 2095.30 453.597   6
   0  -8  -3 1965.63 432.519   1
   0   8  -3 2274.44 472.567   6
   0   8  -3 2990.70 461.734   3
   0  -8   3 2322.82 522.346   1
   0   8  -4 20854.9 1287.00  10
   0  -8   4 19519.9 1436.60   1
   0  -8   4 22498.2 1330.61   9
   0   8  -4 23311.2 1489.87   6
   0   8   4 21329.8 1379.79   6
   0   8  -4 22458.4 1239.67   3
   0  -8  -4 20220.6 1347.50   1
   0   8  -5 3659.42 633.484   6
   0  -8  -5 2607.06 519.146   1
   0   8  -5 3636.31 503.635   3
   0  -8   5 2906.92 546.293   9
   0   8   5 4870.15 690.139   6
   0   8  -5 3269.41 564.505  10
   0  -8   5 5136.99 763.923   1
   0  -8   6 1748.06 476.484   9
   0   8   6 1495.11 462.468   6
   0  -8   6 633.072 321.092   1
   0  -8  -6 660.611 284.768   7
   0   8  -6 179.462 289.080  10
   0  -8   7 389.516 363.837   9
   0  -8  -7 196.926 241.389   7
   0   8   7 453.522 285.727   5
   0  -8   7-122.072 340.794   1
   0   8  -7 289.028 302.826  10
   0   8   7 207.203 238.204   8
   0   8  -8 7479.45 972.726  10
   0  -8   8 7806.88 1013.65   1
   0  -8  -8 7646.98 954.800   7
   0  -8   8 8906.96 1032.50   9
   0   8   8 8282.49 1015.90   5
   0  -8  -9 3480.63 689.239   7
   0  -8   9 2465.81 621.791   9
   0   8   9 2392.96 716.598   5
   0   8  -9 2569.68 662.326  10
   0   9   0 149.625 307.824   6
   0  -9   0 216.032 254.179   1
   0   9   1 452.979 305.252   6
   0  -9   1 1109.80 384.347   1
   0  -9  -1 388.903 275.065   1
   0   9  -1 1410.59 388.685   6
   0   9   2 571.048 325.021   6
   0   9  -2 327.444 202.862   3
   0  -9   2 291.494 297.388   1
   0  -9  -2-48.9658 302.115   1
   0  -9   3 257.735 374.373   1
   0   9  -3-222.002 222.929   3
   0  -9   3 208.137 226.012   9
   0   9  -3 332.614 297.629   6
   0   9   3 205.408 239.938   6
   0  -9  -3 789.256 338.257   1
   0   9  -4 7444.60 748.664   3
   0  -9  -4 6897.98 821.839   1
   0  -9   4 8079.01 988.824   1
   0   9  -4 8597.46 945.068   6
   0  -9   4 8012.41 845.911   9
   0   9  -4 8986.25 869.273  10
   0   9   4 9136.78 956.898   6
   0   9  -5 868.992 400.108   6
   0  -9  -5 417.099 341.688   1
   0  -9   5 559.254 345.086   9
   0   9   5 1468.28 451.872   6
   0   9  -5 343.182 285.660  10
   0  -9   5 1288.50 490.095   1
   0  -9   6 10752.2 1185.66   1
   0   9   6 8864.08 1049.82   6
   0  -9  -6 10822.7 1061.08   7
   0  -9   6 11455.7 1106.73   9
   0   9  -6 12074.1 1138.29  10
   0   9  -6 12328.0 1254.05   6
   0  -9  -6 9894.99 1062.88   1
   0  -9   7 583.629 396.529   9
   0  -9  -7 181.672 290.260   7
   0   9  -7 258.764 274.125  10
   0   9  -7 18.2905 325.896   6
   0  -9  -7-29.3945 306.717   1
   0  -9   7 742.268 490.434   1
   0  -9   8 738.728 393.329   9
   0  -9   8 1101.22 480.004   1
   0   9  -8 761.643 464.083  10
   0   9  -8 2043.41 634.291   6
   0  -9  -8 2074.26 592.605   7
   0 -10   0 15181.6 1286.93   1
   0  10   0 18229.8 1358.74   6
   0 -10  -1 729.786 346.034   1
   0  10  -1 838.509 354.691   6
   0 -10   1 690.988 381.645   1
   0  10   1 694.952 314.345   6
   0  10  -2 7821.09 913.581   6
   0  10   2 6161.78 827.463   6
   0 -10   2 5269.65 845.340   1
   0 -10  -2 5439.22 772.732   1
   0  10  -3 210.269 296.041   6
   0  10   3 276.484 232.909   6
   0 -10   3 689.976 406.813   1
   0 -10  -3 171.454 262.603   1
   0 -10   4 10837.1 1213.21   1
   0  10  -4 12618.4 1237.07   6
   0 -10  -4 12787.6 1191.47   1
   0 -10   4 12080.7 1072.42   9
   0  10   4 12616.1 1192.87   6
   0  10   5 258.640 283.782   6
   0 -10   5 714.589 471.118   1
   0 -10  -5 610.593 368.106   1
   0 -10   5 780.883 395.760   9
   0  10  -5 159.032 276.724   6
   0 -10   6 17308.6 1427.69   9
   0  10   6 19053.6 1577.11   6
   0 -10   6 19367.0 1670.09   1
   0 -10  -6 18816.3 1558.69   1
   0  10  -6 22777.3 1762.94   6
   0 -10  -6 18081.1 1456.45   7
   0 -10   7 3683.67 783.074   1
   0  10  -7 4772.27 798.618  10
   0 -10  -7 4024.28 795.221   1
   0 -10   7 4616.26 813.981   9
   0  10  -7 5701.27 944.717   6
   0 -10  -7 4756.66 809.385   7
   0  11   0 483.303 284.326   6
   0 -11   0 20.0567 288.904   1
   0  11   1 293.021 326.307   6
   0 -11  -1 509.050 347.843   1
   0 -11   1 417.224 365.820   1
   0  11  -1 249.135 283.166   6
   0  11   2 1220.34 460.091   6
   0 -11  -2 883.282 412.116   1
   0  11  -2 463.732 391.035   6
   0 -11   2 140.680 339.899   1
   0  11   3 379.930 347.264   6
   0  11  -3 404.014 323.567   6
   0 -11  -3-13.7731 354.387   1
   0 -11   3 196.918 412.272   1
   0 -11   4 13801.3 1407.92   1
   0 -11  -4 13061.2 1285.33   1
   0  11  -4 13655.6 1340.02   6
   0  11   4 14837.5 1373.98   6
   0  11   5-114.246 311.303   6
   0 -11  -5 494.935 382.262   1
   0 -11   5 403.654 406.440   1
   0  11  -5 578.950 483.688   6
   0 -11   6-5.41484 274.434   9
   0 -11  -6 366.203 244.972   7
   0 -11   6 197.259 358.336   1
   0 -11  -6 493.671 372.272   1
   0  12   0 1100.16 475.799   6
   0 -12   0 278.702 315.081   1
   0 -12   1 3612.03 801.446   1
   0  12   1 2977.42 651.674   6
   0 -12  -1 3654.42 777.648   1
   0  12  -1 3837.83 742.449   6
   0 -12  -2 3578.41 749.756   1
   0 -12   2 1981.06 633.750   1
   0  12   2 3199.09 698.287   6
   0  12  -2 2169.98 594.545   6
   0 -12  -3-294.138 386.124   1
   0 -12   3 435.449 564.533   1
   0  12  -3 761.953 467.868   6
   0  12   3 72.0759 304.244   6
   0 -12   4 1263.62 597.027   1
   0 -12  -4 634.681 451.969   1
  -1   0  13 151.859 232.470   5
   1   0 -12 445.043 341.277  10
  -1   0  12 1127.26 445.241   5
  -1   0  12 117.788 271.516   9
   1   0 -11 4.05823 193.863  10
  -1   0  11 239.325 312.052   9
  -1   0  11-111.604 257.036   5
   1   0 -11 374.185 263.138   4
  -1   0  10 2487.73 493.747   5
   1   0 -10 3417.05 519.170   4
  -1   0  10 2011.94 444.981   9
   1   0 -10 3759.07 712.474   7
   1   0 -10 2154.88 467.943  10
   1   0  -9 373.837 162.960   4
   1   0  -9 286.169 207.666  10
  -1   0   9-57.6727 156.037   8
   1   0  -9 280.607 363.413   7
  -1   0   9-195.650 172.794   5
  -1   0   9 646.138 231.863   9
   1   0  -8 7978.28 825.973   7
  -1   0   8 7087.98 674.927   9
   1   0  -8 6506.63 647.750  10
   1   0  -8 8234.90 683.460   4
  -1   0   8 7533.47 608.448   8
   1   0  -7 90.9249 153.521   4
  -1   0   7 146.542 158.915   9
   1   0  -7 40.2840 163.867  10
   1   0  -7 418.709 275.126   7
  -1   0   7 37.5569 153.090   8
   1   0  -6 1186.31 235.272   4
  -1   0   6 1428.25 261.824   9
  -1   0   6 1322.38 237.232   8
   1   0  -6 1375.47 263.971  10
  -1   0   6 1064.41 128.804   2
   1   0  -6 1004.30 305.081   7
   1   0  -5 39.3214 91.7818   4
   1   0  -5-95.3385 152.409   7
   1   0  -5 24.4576 113.597  10
  -1   0   5-48.0335 92.3756   8
  -1   0   5-6.51735 105.955   9
  -1   0   5 91.3889 64.2577   2
   1   0  -4 22412.3 857.000  10
   1   0  -4 23964.5 817.005   4
  -1   0   4 24825.5 893.980   9
  -1   0   4 21141.8 731.356   8
  -1   0   4 22982.1 637.084   2
   1   0  -4 22985.6 945.996   7
   1   0  -3-78.0556 118.288   7
  -1   0   3 99.9701 69.1795   2
   1   0  -3 19.2707 89.3754  10
  -1   0   3 139.825 101.054   9
   1   0  -3 84.9854 92.2514   4
  -1   0   2 14852.6 435.985   2
  -1   0   2 15637.4 443.746   4
  -1   0   2 15791.8 527.841   7
   1   0  -2 15600.1 438.356   2
   1   0  -2 14143.4 509.784   7
   1   0  -2 13820.1 497.524  10
  -1   0   2 16060.1 534.473  10
   1   0  -2 15913.2 528.269   9
   1   0  -2 16057.4 448.955   4
  -1   0   2 14255.7 500.260   9
   1   0   1 89.0475 77.9674   4
   1   0   1 16.2979 65.4894   5
   1   0   1 162.870 80.4422   7
   1   0   1 1.46136 76.9342   8
  -1   0  -1-28.9727 67.3770   4
  -1   0  -1 81.5277 75.9918   1
  -1   0  -1-12.9777 57.4563  10
   1   0   1 33.5655 81.3018  10
  -1   0  -1 4.44667 52.5850   5
  -1   0  -1 31.1916 77.9180   7
   1   0   1-21.5371 67.5863   9
  -1   0  -1 89.4704 53.6258   9
  -1   0  -2 17796.9 637.476  10
   1   0   2 18008.2 632.773   5
  -1   0  -2 17262.9 700.453   4
   1   0   2 17100.1 686.240   8
  -1   0  -2 18702.9 702.998   7
   1   0   2 17952.0 636.020   9
  -1   0  -3 94.4840 103.850   4
   1   0   3 108.099 129.535   9
   1   0   3 114.127 127.592   5
   1   0   3 276.777 157.014   8
  -1   0  -3 23.8230 95.5834  10
  -1   0  -3 251.097 145.297   7
  -1   0  -4 13887.5 799.073   7
  -1   0  -4 14848.1 719.346  10
   1   0   4 14147.6 703.912   5
   1   0   4 13758.4 753.187   8
  -1   0  -4 12869.9 723.920   4
   1   0   4 14157.6 709.551   9
  -1   0  -5 163.696 149.422  10
  -1   0  -5 160.286 125.470   4
   1   0   5 177.234 187.035   8
   1   0   5 82.2473 135.421   9
  -1   0  -5 249.588 264.445   7
   1   0   5 287.451 143.426   5
   1   0   6 29089.7 1268.56   5
  -1   0  -6 27684.5 1236.16  10
   1   0   6 29323.0 1318.51   8
   1   0   6 29998.1 1280.19   9
  -1   0  -6 27438.3 1303.52   4
  -1   0  -6 29435.2 1442.14   7
  -1   0  -7-156.849 187.669   4
   1   0   7 55.5802 196.602   8
   1   0   7-43.6248 170.989   5
   1   0   7 248.778 216.671   9
  -1   0  -7 35.5888 156.787  10
  -1   0  -7 575.604 422.197   7
  -1   0  -8 798.950 292.115  10
  -1   0  -8 867.956 404.537   7
   1   0   8 536.963 274.517   5
  -1   0  -8 575.689 246.105   4
   1   0   8 386.176 200.173   9
   1   0   8 906.144 287.385   8
   1   0   9-324.631 226.451   5
  -1   0  -9-63.1565 189.726  10
   1   0   9 144.932 261.514   8
   1   0   9-15.5742 182.374   9
  -1   0  -9 99.8753 201.722   4
   1   0  10 1386.71 412.289   9
  -1   0 -10 977.155 360.777  10
  -1   0 -10 1999.58 477.643   4
  -1   0 -11 245.517 226.502   4
  -1   0 -11-153.924 196.898  10
   1   0  11-298.923 188.418   9
   1   1 -12 1174.53 383.255  10
   1   1 -12 2225.75 505.293   4
  -1   1  12 1009.87 420.798   5
  -1  -1  12 1523.12 480.503   9
  -1  -1  12 2014.57 503.659   5
   1  -1 -11 832.586 509.260   7
  -1   1  11 8.82536 203.551   5
  -1  -1  11 108.738 215.911   5
   1   1 -11 173.696 271.141   4
   1  -1 -11-218.522 303.996  10
  -1  -1  11 339.428 295.204   9
  -1   1  11 155.318 227.935   9
   1   1 -11 314.373 266.146  10
  -1  -1  10 1357.90 425.887   9
  -1   1  10 1306.47 369.308   5
   1  -1 -10 1661.87 416.044  10
  -1   1  10 1786.26 420.281   9
   1  -1 -10 2414.23 578.148   7
   1  -1 -10 1839.44 406.870   4
   1   1 -10 1667.73 436.865  10
  -1  -1  10 1835.94 420.904   5
   1   1 -10 1539.67 373.352   4
   1  -1  -9 2413.59 535.036   7
  -1  -1   9 3195.01 511.711   9
  -1  -1   9 2971.60 458.185   8
   1   1  -9 2749.67 478.947  10
  -1   1   9 2038.11 435.389   5
  -1   1   9 2596.83 446.719   9
   1  -1  -9 2945.80 467.443  10
   1   1  -9 2271.82 412.234   4
   1  -1  -9 2659.81 425.562   4
  -1   1   9 2583.91 398.140   8
  -1   1   8 499.822 198.406   8
  -1  -1   8 924.418 281.257   9
   1   1  -8 365.958 247.327  10
  -1   1   8 422.188 192.602   9
  -1  -1   8 230.433 183.482   8
   1  -1  -8 768.389 269.287   4
   1  -1  -8 1659.29 433.711   7
   1  -1  -8 827.025 259.165  10
   1   1  -8 1026.37 403.268   7
   1   1  -8 767.819 261.762   4
  -1   1   8 793.996 299.025   5
   1  -1  -7 3282.44 396.052   4
  -1   1   7 3915.23 391.496   8
   1   1  -7 2269.06 374.902  10
   1  -1  -7 3740.78 521.318   7
   1   1  -7 4822.44 610.668   7
  -1  -1   7 3606.44 415.696   8
  -1  -1   7 4365.96 519.062   9
   1  -1  -7 3964.80 452.939  10
   1   1  -7 4822.82 498.779   4
  -1  -1   7 4036.99 311.206   2
  -1   1   7 3715.02 427.404   9
   1   1  -6 1287.26 358.987   7
   1  -1  -6 635.617 240.185   7
  -1   1   6 1010.82 198.165   8
  -1  -1   6 965.903 160.560   2
  -1   1   6 1118.12 231.660   9
   1   1  -6 1001.54 232.725   4
   1  -1  -6 930.171 211.643   4
  -1  -1   6 1087.92 257.224   9
   1  -1  -6 1173.64 236.207  10
   1   1  -6 688.407 225.283  10
   1  -1  -5 10848.7 563.512   4
   1   1  -5 9371.01 682.649   7
   1  -1  -5 9444.63 657.172   7
   1   1  -5 10112.2 644.553  10
  -1  -1   5 10907.0 659.641   9
   1  -1  -5 9532.94 563.922  10
   1   1  -5 10153.0 606.489   4
  -1  -1   5 10158.2 474.972   2
  -1   1   5 9895.09 510.676   8
  -1   1   5 10319.6 591.075   9
   1   1  -4 1616.73 279.044   7
   1   1  -4 1788.64 242.520  10
  -1   1   4 1731.34 219.920   9
   1  -1  -4 1814.65 200.378   4
   1  -1  -4 2017.31 228.995  10
   1  -1  -4 2033.54 282.747   7
   1  -1  -4 1873.68 123.420   2
  -1  -1   4 1762.47 192.101   2
  -1   1   4 1708.71 182.812   8
  -1  -1   4 1884.75 258.956   9
   1   1  -4 1902.35 247.502   4
   1  -1  -3 39139.5 856.317   2
   1   1  -3 36111.7 1144.74   7
  -1   1   3 36564.3 893.438   8
   1   1  -3 37757.3 1069.23   4
   1  -1  -3 40011.6 931.498   8
  -1  -1   3 37636.4 1117.26   9
   1  -1  -3 38584.5 933.711   4
  -1   1   3 38089.7 1020.78   9
  -1   1   3 39954.5 969.220   4
   1  -1  -3 36778.0 1010.12  10
   1   1  -3 38997.2 1129.45  10
  -1  -1   3 37145.3 986.846   2
   1  -1  -3 38261.3 1146.37   7
  -1   1   2 2315.92 130.186   4
  -1   1   2 2305.54 130.705   8
   1  -1  -2 2540.62 190.295   9
   1   1  -2 2661.02 217.929  10
  -1  -1   2 2236.35 199.850   9
  -1   1   2 2334.97 210.146   6
   1   1  -2 2470.02 229.774   1
   1  -1  -2 2402.41 121.330   4
  -1   1   2 2261.63 171.663   9
  -1  -1   2 2671.57 224.041   1
   1  -1  -2 2074.90 166.159  10
   1  -1  -2 2861.55 144.072   8
  -1   1   2 2674.57 196.077  10
  -1   1   1 8857.31 335.259   6
  -1  -1   1 10527.0 345.302   8
  -1   1   1 9270.58 340.542   9
  -1  -1   1 9362.53 337.244   9
   1   1  -1 10514.8 335.340   1
  -1  -1   1 10217.2 372.959   2
  -1  -1   1 9347.31 323.706   1
   1   1  -1 9257.33 327.255   8
   1   1  -1 11161.4 361.235   9
   1   1  -1 9783.66 343.485  10
  -1  -1   1 10761.3 360.952  10
   1  -1  -1 10842.5 360.141   6
   1  -1   0 5967.59 298.877   1
   1   1   0 6754.49 270.180   2
  -1   1   0 5666.00 286.044   1
  -1  -1   0 6588.40 262.299   6
   1  -1   0 7109.56 269.918   4
   1   1   0 6309.53 292.535   3
  -1  -1   0 6457.65 302.563   3
   1   1   0 5693.63 197.476  10
   1   1   0 6281.10 282.941   8
  -1   1   0 5807.08 287.457   9
  -1  -1   0 6227.64 288.449   8
   1   1   0 6026.04 250.272   6
  -1  -1   0 6736.14 267.439   2
  -1   1   0 6495.79 260.982   4
  -1  -1   0 5378.70 193.853   9
   1   1   0 6154.14 204.279   9
  -1  -1  -1 51347.1 1223.22   7
   1   1   1 53359.4 1315.93   5
  -1  -1  -1 58035.4 1272.35   3
   1   1   1 53500.3 1120.24   9
  -1  -1  -1 57680.3 1130.26   9
  -1  -1  -1 52573.0 1318.73   4
   1   1   1 57825.7 1129.50  10
  -1  -1  -1 55637.6 1128.03   2
   1  -1   1 50731.8 1301.29   9
   1   1   1 53845.2 1279.73   6
  -1  -1  -1 57721.4 1306.02   6
  -1   1  -1 52872.8 1312.90  10
   1   1   1 57147.9 1131.02   2
  -1   1  -1 56964.9 1325.70   4
   1   1   1 53134.7 1302.82   8
   1  -1   1 56982.1 1077.88   5
   1  -1   1 51010.8 1357.62   1
   1   1   2 1328.67 146.981   9
  -1   1  -2 942.246 167.310   4
   1   1   2 1209.32 91.0145   2
  -1  -1  -2 1319.58 205.548   4
  -1  -1  -2 1491.49 157.104   9
  -1  -1  -2 1386.03 192.388   7
  -1  -1  -2 1283.72 147.075  10
   1  -1   2 1187.13 220.833   1
  -1   1  -2 1596.88 205.261  10
   1   1   2 1420.08 199.586   5
   1  -1   2 1156.21 178.634   9
   1   1   2 1434.18 152.648  10
   1   1   2 1349.06 211.164   8
  -1  -1  -3 1192.56 214.806   4
   1   1   3 936.803 190.979   5
   1  -1   3 803.689 171.210   1
  -1  -1  -3 951.446 153.728  10
  -1   1  -3 880.931 183.330  10
  -1  -1  -3 818.006 164.148   7
   1   1   3 934.613 149.101   9
  -1   1  -3 812.364 196.746   4
   1   1   3 900.272 203.809   8
   1  -1   3 893.680 189.023   9
   1   1   4 15590.2 792.317   8
   1   1   4 16005.2 703.796   9
   1   1   4 15290.6 782.808   5
  -1  -1  -4 15836.6 805.791   4
  -1   1  -4 16400.9 805.691  10
  -1  -1  -4 14703.9 677.149  10
  -1   1  -4 15827.1 827.635   4
   1  -1   4 15478.3 797.493   9
  -1  -1  -4 14721.9 808.765   7
   1  -1   5 27638.2 1078.14   5
  -1  -1  -5 28219.3 1194.67   4
  -1   1  -5 27468.5 1185.36  10
  -1  -1  -5 27966.1 1252.89   7
   1  -1   5 27107.7 1205.38   8
  -1  -1  -5 27992.9 1074.58  10
   1   1   5 27033.7 1175.34   8
   1   1   5 26598.5 1159.64   5
   1  -1   5 28615.1 1208.48   9
  -1   1  -5 26169.3 1193.23   4
   1   1   5 26324.1 1054.25   9
  -1   1  -6 2517.71 389.894  10
  -1  -1  -6 2681.85 385.841   4
   1   1   6 2378.72 338.098   9
   1  -1   6 2883.90 372.419   5
  -1   1  -6 2108.75 360.589   4
   1  -1   6 2106.80 369.677   9
   1   1   6 2114.89 348.198   5
  -1  -1  -6 2710.32 454.158   7
   1   1   6 2332.74 374.759   8
  -1  -1  -6 2327.19 343.275  10
   1  -1   6 2835.47 426.492   8
  -1  -1  -7 37039.6 1743.17   7
   1   1   7 38084.4 1618.46   5
   1   1   7 36039.2 1477.91   9
   1  -1   7 37107.9 1629.76   8
  -1  -1  -7 32708.0 1528.26   4
   1  -1   7 35229.4 1590.72   9
  -1   1  -7 36436.6 1610.90  10
  -1   1  -7 36189.4 1638.31   4
   1  -1   7 38033.3 1518.62   5
   1   1   7 35871.4 1556.09   8
  -1  -1  -7 34110.1 1452.44  10
   1  -1   8 526.778 266.507   9
   1   1   8 303.665 205.315   8
  -1  -1  -8 603.335 354.657   7
   1  -1   8-11.5667 133.374   5
   1   1   8 261.415 234.293   5
  -1  -1  -8 450.227 262.843   4
   1  -1   8 101.241 168.495   8
  -1   1  -8 85.9276 197.823  10
  -1  -1  -8 225.017 236.849  10
  -1   1  -8 273.992 247.315   4
   1   1   8 394.916 218.717   9
   1   1   9 7770.96 817.580   5
   1  -1   9 8291.38 789.751   5
   1  -1   9 8114.84 826.935   8
  -1  -1  -9 8609.33 800.867  10
   1  -1   9 8250.11 862.425   9
  -1  -1  -9 8011.36 835.606   4
  -1   1  -9 7287.57 828.938   4
   1   1   9 7811.79 766.586   9
  -1  -1  -9 9692.23 1032.32   7
   1   1   9 8696.96 828.255   8
  -1   1  -9 8765.88 881.870  10
   1  -1  10 8432.37 850.689   5
  -1   1 -10 6878.57 855.900   4
   1  -1  10 6175.32 803.236   9
  -1   1 -10 8134.71 919.286  10
  -1  -1 -10 7634.81 807.274  10
   1  -1  10 7125.30 838.867   8
  -1  -1 -10 8543.47 909.804   4
   1   1  10 8258.47 842.961   9
  -1  -1 -10 9237.24 1075.21   7
   1   1  10 7134.88 835.576   5
  -1   1 -11 8886.92 1023.20   4
  -1   1 -11 9830.85 1054.65  10
  -1  -1 -11 9530.28 1018.81   4
   1  -1  11 9575.51 1041.91   9
   1   1  11 8515.87 966.861   5
  -1   1 -12 431.189 314.434   4
   1  -1  12 500.583 341.018   9
  -1   1 -12 856.917 423.262  10
   1   2 -12 529.891 311.099   4
   1   2 -12 313.371 374.445  10
   1  -2 -12 1341.56 635.455   7
  -1  -2  12 151.546 269.239   9
  -1   2  12 474.812 381.689   5
  -1  -2  11 18284.2 1410.05   9
   1   2 -11 19791.6 1416.36   4
  -1   2  11 19101.2 1443.91   5
   1  -2 -11 20490.7 1623.89   7
   1   2 -11 20969.0 1501.47  10
  -1  -2  11 19700.9 1343.88   5
   1  -2 -10 826.434 296.711  10
   1  -2 -10 996.535 472.291   7
   1  -2 -10 625.862 256.344   4
  -1   2  10 1138.31 370.750   5
   1   2 -10 629.890 292.297  10
  -1   2  10 914.346 298.759   9
  -1  -2  10 805.967 311.232   9
   1   2 -10 433.390 274.385   4
  -1  -2   9 24914.8 1317.38   8
  -1  -2   9 24745.0 1451.90   9
  -1   2   9 22898.7 1407.44   5
  -1   2   9 26071.1 1308.83   9
   1   2  -9 25968.3 1478.43  10
   1  -2  -9 24689.3 1557.50   7
   1   2  -9 25389.6 1424.57   4
   1  -2  -9 25971.6 1290.68   4
   1  -2  -9 25342.9 1289.12  10
   1  -2  -8 2061.65 359.919  10
   1   2  -8 2802.41 474.427  10
   1  -2  -8 2612.50 394.310   4
  -1  -2   8 2808.56 320.586   2
  -1   2   8 2395.74 345.142   8
   1   2  -8 2838.67 451.941   4
   1  -2  -8 3108.28 525.919   7
  -1   2   8 2573.64 375.394   9
  -1  -2   8 2299.45 418.335   9
  -1   2   8 2462.05 438.735   5
   1  -2  -7 6364.88 673.222   7
  -1  -2   7 5991.43 455.754   2
   1  -2  -7 6741.26 552.625  10
   1   2  -7 7139.02 634.558   4
   1  -2  -7 6918.60 547.647   4
  -1  -2   7 6712.13 657.099   9
  -1   2   7 7010.15 520.783   8
  -1   2   7 7372.31 574.282   9
   1   2  -7 6006.41 610.572  10
  -1   2   7 6657.11 649.791   5
   1  -2  -6 1170.97 230.035  10
  -1   2   6 695.171 192.854   9
  -1   2   6 1521.54 310.940   5
  -1  -2   6 1072.40 269.107   9
  -1   2   6 973.710 196.846   8
   1  -2  -6 1569.59 303.094   7
  -1  -2   6 1226.99 214.285   2
   1   2  -6 1005.59 271.165  10
   1  -2  -6 1142.88 223.199   4
   1   2  -6 1317.60 279.594   4
   1  -2  -5 245760. 4270.88   4
   1  -2  -5 242835. 4307.36  10
  -1   2   5 230175. 4632.30   5
  -1  -2   5 234887. 4644.65   9
   1   2  -5 231418. 4628.81  10
   1   2  -5 229909. 4541.16   4
  -1   2   5 240718. 4203.73   8
  -1   2   5 245642. 4325.26   9
   1  -2  -5 237423. 4731.86   7
  -1   2   4 16195.7 615.927   8
   1   2  -4 15839.6 752.130   4
  -1   2   4 16211.4 634.533   9
  -1  -2   4 15795.9 810.976   1
   1  -2  -4 16100.8 619.328   4
   1  -2  -4 16139.9 636.587  10
   1  -2  -4 15786.2 796.281   7
  -1  -2   4 15178.4 762.875   9
   1   2  -4 16650.1 791.860  10
  -1   2   3 134988. 2675.90   8
  -1   2   3 135471. 2683.22   9
   1   2  -3 136699. 2948.29  10
   1   2  -3 137560. 2929.71   4
  -1  -2   3 134455. 3006.91   1
   1  -2  -3 133489. 2681.01  10
  -1  -2   3 134833. 2938.82   9
   1  -2  -3 136245. 2646.85   4
  -1   2   3 132337. 2973.46   6
  -1  -2   2 5741.58 391.320   1
  -1   2   2 6207.02 370.329   5
  -1   2   2 5503.92 277.711   9
   1  -2  -2 6705.30 312.152   8
   1   2  -2 6220.50 369.498  10
  -1   2   2 5937.96 301.609   8
  -1   2   2 5580.03 365.400   6
  -1  -2   2 5794.94 356.989   9
   1  -2  -2 6819.34 313.745   9
   1  -2  -2 5401.71 271.571  10
   1   2  -1 3675.38 224.782  10
  -1  -2   1 4150.80 237.657  10
   1   2  -1 4021.42 234.780   9
   1   2  -1 3429.46 257.089   6
  -1   2   1 3272.59 250.930   6
  -1   2   1 3823.45 232.533   5
  -1  -2   1 3647.63 258.473   1
   1   2  -1 3337.86 235.169   1
  -1  -2   1 3107.40 208.013   9
   1  -2  -1 3543.49 267.334   1
   1   2   0 100.779 43.9872   9
   1  -2   0 73.1351 75.4720   4
   1  -2   0 239.977 121.884   1
   1   2   0 117.570 42.5898  10
  -1  -2   0 122.396 77.0522   1
   1   2   0 201.263 98.9897   6
  -1  -2   0 36.9953 35.4921   9
   1   2   0 163.021 111.681   3
  -1  -2   0 24.0463 37.4941  10
  -1   2   0 177.509 105.412   6
   1  -2   0 150.620 73.6001   3
   1   2   0 134.121 93.0068   8
   1  -2   0 74.1878 47.3743   5
  -1   2   0 43.0304 85.5202   4
   1   2   1 434784. 8108.82   8
   1   2   1 444646. 8183.52   5
   1  -2   1 447267. 8159.58   9
   1  -2   1 444136. 8299.20   1
  -1   2  -1 447519. 8154.53  10
   1   2   1 433041. 8144.38   3
   1   2   1 433523. 8092.49   6
  -1   2  -1 449644. 8104.97   4
  -1   2  -2 620.167 172.391  10
  -1   2  -2 560.602 160.971   4
  -1  -2  -2 408.959 142.497   4
   1   2   2 511.333 163.574   6
  -1  -2  -2 468.497 89.2112   2
   1   2   2 480.149 141.350   5
   1   2   2 651.602 156.221   8
  -1  -2  -2 416.180 69.4748  10
   1   2   2 447.435 73.5641   9
   1  -2   2 478.046 148.616   9
   1   2   2 625.936 83.8802  10
  -1  -2  -2 643.472 78.0590   9
   1  -2   2 444.612 201.330   1
  -1  -2  -2 487.510 143.388   7
  -1   2  -3 49481.9 1537.73   4
  -1  -2  -3 50951.9 1503.10   7
  -1  -2  -3 51166.8 1513.36   4
   1   2   3 52925.9 1565.57   5
  -1  -2  -3 46684.1 1028.45   2
  -1   2  -3 52101.9 1551.92  10
   1   2   3 50922.6 1213.67   9
  -1  -2  -3 50685.3 1205.49  10
   1  -2   3 51796.9 1665.58   1
   1   2   3 52839.9 1504.60   8
   1  -2   3 53051.2 1568.95   9
   1  -2   4 4470.67 487.967   1
  -1   2  -4 4236.84 428.186  10
   1   2   4 4678.77 433.657   8
   1   2   4 3932.61 415.699   5
  -1   2  -4 4032.02 430.633   4
   1   2   4 4832.86 338.578   9
   1  -2   4 5253.55 480.625   9
  -1  -2  -4 4784.98 453.085   7
  -1  -2  -4 4449.72 328.358  10
  -1  -2  -4 4301.36 419.531   4
   1  -2   5 16083.6 927.557   9
  -1  -2  -5 14349.1 889.440   7
   1   2   5 16135.5 919.433   5
  -1  -2  -5 15788.1 734.895  10
  -1   2  -5 15567.9 911.372  10
   1   2   5 15896.0 728.967   9
   1   2   5 16483.9 878.437   8
  -1   2  -5 14813.5 900.614   4
  -1  -2  -5 15535.1 870.359   4
   1  -2   6 146.362 264.198   9
  -1   2  -6 113.294 205.231   4
  -1   2  -6 165.920 234.785  10
   1  -2   6 350.259 157.995   5
  -1  -2  -6 386.260 183.920  10
  -1  -2  -6 21.9894 162.847   4
   1   2   6 80.3331 133.189   9
  -1  -2  -6 377.184 256.460   7
   1   2   6 560.243 237.313   8
   1   2   6-159.158 189.089   5
  -1  -2  -7 21199.8 1185.05   4
  -1  -2  -7 20953.6 1051.60  10
  -1   2  -7 20522.7 1234.48  10
   1   2   7 20944.9 1048.08   9
   1  -2   7 23337.1 1281.02   8
  -1  -2  -7 23549.0 1357.35   7
   1   2   7 21198.7 1159.86   8
   1  -2   7 24976.4 1157.29   5
  -1   2  -7 19834.3 1225.46   4
   1  -2   7 22165.0 1281.21   9
   1   2   7 21883.9 1245.70   5
  -1  -2  -8 71.4712 283.159   7
  -1  -2  -8 168.765 143.965  10
   1  -2   8 203.597 216.184   5
  -1  -2  -8 29.9605 193.107   4
   1   2   8-49.9667 194.920   8
   1   2   8 286.279 190.557   9
   1   2   8 21.8194 172.252   5
   1  -2   8 151.741 293.262   8
   1  -2   8 295.805 209.238   9
  -1   2  -8-12.3452 205.824   4
  -1   2  -8-161.950 187.127  10
  -1  -2  -9 2545.99 456.288  10
  -1   2  -9 2009.29 463.256   4
  -1  -2  -9 2310.35 475.608   4
   1  -2   9 1683.18 431.689   9
   1  -2   9 1554.17 366.064   5
   1   2   9 2299.89 479.492   5
   1   2   9 1267.25 368.243   8
  -1   2  -9 2289.69 511.193  10
  -1  -2  -9 2757.21 617.784   7
   1  -2   9 2833.97 549.154   8
  -1  -2 -10 411.513 418.667   7
  -1   2 -10-37.5784 256.197   4
   1  -2  10 395.705 330.442   9
   1  -2  10 108.381 267.674   8
  -1  -2 -10-45.9037 262.610   4
  -1   2 -10 142.901 219.537  10
   1   2  10-154.533 304.750   5
   1   2  11 914.942 395.305   5
  -1   2 -11 1012.55 464.712  10
   1  -2  11 495.401 293.688   9
  -1  -2 -11 1656.95 623.634   7
  -1   2 -11 667.469 337.987   4
   1   3 -12-363.617 331.495   4
   1  -3 -12 947.151 550.005   7
   1   3 -12 65.0546 242.908  10
  -1  -3  12 109.454 355.337   9
  -1   3  12 577.490 383.063   5
   1  -3 -11 944.824 439.807   7
   1   3 -11 622.706 384.972  10
  -1  -3  11 693.410 411.150   9
  -1   3  11 473.916 287.904   5
   1   3 -11 431.928 303.552   4
   1  -3 -10 792.668 448.907   7
   1   3 -10 413.536 256.917   4
  -1  -3  10 563.428 293.613   8
  -1   3  10-95.6714 207.325   5
   1   3 -10 255.081 252.401  10
  -1  -3  10 711.135 328.964   9
   1   3  -9 16520.0 1213.77  10
   1   3  -9 13270.3 1055.84   4
   1  -3  -9 15011.2 1212.21   7
  -1   3   9 16752.7 984.591   9
   1  -3  -9 15992.3 963.936  10
  -1   3   9 15415.5 1158.74   5
  -1  -3   9 14824.0 1147.82   9
   1  -3  -9 14690.0 941.941   4
  -1   3   8 123.112 208.475   5
   1   3  -8-171.065 202.484  10
   1  -3  -8-202.675 265.034   7
  -1  -3   8 587.249 285.563   9
  -1  -3   8 228.402 172.550   2
  -1   3   8 190.012 147.781   9
   1  -3  -8 342.425 194.858  10
   1  -3  -8 167.251 114.531   4
   1   3  -8 677.693 271.849   4
  -1   3   8 440.647 189.346   8
  -1  -3   7 4195.65 537.992   9
   1  -3  -7 4246.70 427.500   4
  -1   3   7 4284.07 414.129   9
   1  -3  -7 4500.93 585.826   7
   1   3  -7 3899.48 509.710   4
  -1   3   7 4078.43 542.857   5
   1   3  -7 3498.36 501.838  10
  -1   3   7 4779.06 439.706   8
   1  -3  -7 3794.24 402.525  10
  -1  -3   7 3899.28 425.155   2
  -1   3   6 1883.27 263.175   8
  -1  -3   6 2589.48 401.830   9
   1   3  -6 1787.32 316.710   4
  -1   3   6 2039.19 376.994   5
   1   3  -6 2161.08 365.948  10
   1  -3  -6 2100.88 284.964   4
   1  -3  -6 2585.58 305.267  10
   1  -3  -6 2175.85 383.653   7
  -1   3   6 2503.51 290.452   9
  -1  -3   5 34589.0 1390.05   9
   1   3  -5 36829.9 1419.03  10
  -1   3   5 36956.1 1170.24   8
   1  -3  -5 34755.9 1096.44  10
   1  -3  -5 37190.5 1165.11   4
   1   3  -5 34601.4 1357.71   4
  -1   3   5 34755.9 1405.55   5
   1  -3  -5 32030.5 1374.10   7
  -1   3   5 41136.9 1162.53   9
  -1  -3   5 32552.8 1422.40   1
   1  -3  -4 1099.05 174.464   4
  -1   3   4 1205.80 163.727   9
  -1  -3   4 863.238 258.230   1
   1  -3  -4 782.486 203.622   7
  -1   3   4 1124.48 186.081   8
   1   3  -4 1061.40 226.220  10
   1   3  -4 690.898 190.524   4
   1  -3  -4 895.184 141.001  10
  -1  -3   4 745.487 194.008   9
  -1   3   4 1195.71 272.173   6
  -1   3   4 970.493 225.507   5
  -1  -3   3 27422.4 1105.36   1
   1  -3  -3 26350.9 765.745  10
  -1  -3   3 26642.7 1007.66   9
  -1   3   3 28216.1 781.321   9
  -1   3   3 27736.9 1068.50   6
  -1   3   3 28102.9 897.575   8
  -1   3   3 26204.9 1017.93   5
   1   3  -3 28987.1 1035.66  10
   1  -3  -3 28845.5 836.904   4
   1   3  -2 370.499 121.972  10
  -1  -3   2 202.062 164.501   1
  -1   3   2 79.5827 100.003   6
  -1  -3   2 152.033 95.6471   9
  -1   3   2 179.940 114.369   5
  -1   3   2 344.006 80.3034   9
   1  -3  -2 381.133 92.5153  10
   1  -3  -1 120676. 2654.94   1
  -1  -3   1 120386. 2595.90   1
  -1   3   1 118128. 2473.63   5
   1   3  -1 117161. 2680.83   3
  -1  -3   1 115534. 2403.92   9
   1   3  -1 122204. 2423.85  10
  -1   3   1 118825. 2627.52   6
   1   3  -1 118503. 2608.54   6
  -1  -3   0 3341.27 287.030   1
   1   3   0 3132.81 289.342   6
   1   3   0 3411.46 182.889  10
   1  -3   0 2985.72 323.618   1
   1   3   0 3716.35 191.160   9
   1  -3   0 3891.76 227.799   5
   1   3   0 2487.39 294.142   3
   1   3   0 3384.60 307.233   8
  -1  -3   0 3311.16 184.319   9
  -1  -3   0 3792.64 191.973  10
  -1   3   0 3137.08 316.815   6
   1  -3   1 15354.8 680.004   9
  -1   3  -1 15660.0 581.542   3
   1  -3   1 14090.6 742.521   1
   1   3   1 14144.7 652.944   6
  -1   3  -1 15465.7 685.260  10
   1   3   1 15551.4 676.699   8
  -1   3  -1 13546.9 624.929   4
   1   3   1 14340.1 698.812   3
   1   3   2 1287.68 240.498   5
  -1   3  -2 1462.47 233.871   4
   1   3   2 1741.49 245.447   6
   1  -3   2 1784.69 272.537   9
   1   3   2 1586.83 235.917   8
  -1   3  -2 1817.10 202.582   3
  -1   3  -2 2040.58 275.174  10
   1  -3   2 1670.60 307.997   1
   1  -3   3 921.359 281.326   1
  -1   3  -3 398.243 177.656  10
  -1  -3  -3 581.794 111.877   2
   1   3   3 554.971 192.519   5
   1   3   3 559.287 82.8042  10
   1   3   3 671.122 202.576   8
   1   3   3 323.620 195.511   6
   1  -3   3 503.416 196.715   9
  -1   3  -3 531.361 198.803   4
  -1  -3  -3 414.103 147.338   4
   1   3   3 611.378 83.1195   9
  -1  -3  -3 510.271 160.520   7
  -1  -3  -3 528.274 77.1581   9
  -1  -3  -3 546.351 81.0047  10
  -1   3  -4 3370.75 412.855   4
  -1   3  -4 3146.43 408.289  10
  -1  -3  -4 3082.04 182.750   2
   1   3   4 2625.11 372.794   5
   1   3   4 3981.75 425.921   8
   1   3   4 3304.43 249.324   9
   1  -3   4 3128.23 453.019   1
   1  -3   4 3625.09 429.127   9
  -1  -3  -4 3287.58 252.367  10
  -1  -3  -4 3644.33 410.441   4
  -1  -3  -4 3944.09 435.680   7
   1   3   5 120844. 2612.58   9
  -1  -3  -5 117426. 2597.11  10
  -1   3  -5 114375. 3163.25  10
   1   3   5 121401. 3032.59   8
  -1   3  -5 111318. 3138.08   4
   1  -3   5 113704. 3169.46   9
  -1  -3  -5 124880. 3208.68   7
   1  -3   5 116247. 3316.14   1
  -1  -3  -5 115286. 3042.52   4
   1   3   5 115426. 3164.61   5
  -1   3  -6 2467.48 436.252  10
  -1  -3  -6 2109.17 403.855   7
   1  -3   6 2346.55 432.734   9
  -1   3  -6 1904.49 399.600   4
  -1  -3  -6 2049.98 382.830   4
   1   3   6 1426.18 335.933   5
   1   3   6 1907.29 271.857   9
  -1  -3  -6 2068.69 276.051  10
   1   3   6 2776.45 417.420   8
   1  -3   7 38969.8 1443.35   5
   1   3   7 38128.2 1596.13   8
  -1   3  -7 32082.2 1636.14   4
   1   3   7 34327.1 1660.55   5
  -1  -3  -7 34789.1 1571.44   4
   1   3   7 36739.5 1350.18   9
  -1   3  -7 35865.0 1729.30  10
   1  -3   7 34556.1 1702.42   9
  -1  -3  -7 35713.8 1334.08  10
  -1  -3  -7 34449.3 1708.33   7
   1  -3   8 226.732 208.858   8
  -1  -3  -8 172.078 264.786   7
  -1  -3  -8 447.057 220.508   4
   1  -3   8 228.641 259.027   9
  -1   3  -8-143.527 190.661  10
   1  -3   8 131.077 160.604   5
  -1   3  -8 520.593 313.845   4
   1   3   8-126.770 184.493   8
   1   3   8-186.455 191.757   5
   1  -3   9 143.765 244.538   8
  -1   3  -9 978.629 389.945   4
   1  -3   9 354.240 277.815   9
   1   3   9 482.607 291.149   5
  -1  -3  -9 499.440 366.186   7
   1   3   9 1316.80 392.822   8
  -1  -3  -9 713.587 310.572   4
  -1   3  -9 415.410 361.237  10
  -1  -3 -10 412.320 514.895   7
   1   3  10 339.486 329.118   5
   1  -3  10 463.223 376.305   9
  -1   3 -10 351.496 339.722   4
   1  -3  10 410.360 299.986   8
  -1   3 -10 362.325 307.218  10
  -1   3 -11 25186.1 1816.48  10
   1  -3  11 25517.0 1815.24   9
  -1  -3 -11 29744.1 2065.42   7
  -1   3 -11 25706.4 1827.69   4
   1   3  11 24671.9 1741.42   5
  -1  -4  11 4244.37 741.020   9
   1   4 -11 6037.10 871.197  10
  -1   4  11 5579.49 828.860   5
   1   4 -10 4239.33 705.285  10
  -1  -4  10 3451.32 647.134   9
  -1   4  10 5013.30 734.315   5
   1   4 -10 2528.62 521.696   4
   1  -4 -10 5050.01 787.666   7
   1   4  -9 5035.88 703.015  10
   1   4  -9 5301.08 703.536   4
   1  -4  -9 7623.50 876.407   7
  -1  -4   9 5167.96 713.903   9
  -1   4   9 4637.02 658.193   5
   1  -4  -8 6341.27 762.868   7
  -1   4   8 6737.27 578.751   8
  -1   4   8 5343.73 676.233   5
   1   4  -8 6233.49 707.341   4
   1  -4  -8 6197.17 561.914   4
  -1  -4   8 6469.95 603.064   2
   1   4  -8 6516.45 746.778  10
  -1  -4   8 4732.48 637.507   9
  -1   4   7 5007.85 475.744   8
   1   4  -7 4394.67 556.989   4
   1  -4  -7 4659.96 419.292  10
   1  -4  -7 4660.27 594.556   7
  -1   4   7 5457.51 437.933   9
  -1  -4   7 4952.76 612.357   9
   1  -4  -7 4993.31 462.125   4
   1   4  -7 3723.22 556.507  10
  -1   4   7 4788.41 600.784   5
   1  -4  -6 6385.45 489.885   4
  -1  -4   6 7312.65 684.156   9
  -1   4   6 6670.08 445.049   9
   1  -4  -6 7079.80 678.581   7
   1   4  -6 6879.28 665.884   4
  -1  -4   6 7446.80 738.749   1
   1   4  -6 5924.41 617.121  10
  -1   4   6 6486.01 656.811   5
   1  -4  -6 6409.43 440.701  10
  -1   4   6 6624.23 516.689   8
   1  -4  -5 44932.4 1363.85   4
   1  -4  -5 44860.7 1215.31  10
  -1  -4   5 42959.1 1640.52   9
  -1   4   5 45784.5 1221.98   9
  -1   4   5 41050.1 1628.09   5
  -1   4   5 41747.2 1683.79   6
  -1  -4   5 39851.9 1690.91   1
  -1   4   5 43676.8 1398.02   8
   1  -4  -5 41347.2 1645.18   7
   1   4  -5 42737.2 1629.76  10
  -1   4   4 32705.8 914.869   9
   1  -4  -4 31583.5 1052.30   4
  -1  -4   4 29865.7 1361.62   1
  -1   4   4 30779.5 1283.25   5
   1  -4  -4 33387.2 924.480  10
  -1   4   4 32140.0 1122.09   8
  -1  -4   4 30966.2 1264.22   9
   1   4  -4 31328.3 1263.81  10
  -1   4   4 31350.8 1323.45   6
  -1   4   3 42844.0 1440.87   5
  -1   4   3 43025.1 1491.46   6
   1   4  -3 44266.4 1418.85  10
  -1  -4   3 41963.0 1389.01   9
  -1  -4   3 38523.6 1500.60   1
  -1   4   3 42970.5 1313.50   8
   1  -4  -3 41256.7 1043.26  10
  -1   4   3 43533.0 1055.40   9
   1   4  -2 25974.4 1069.22   3
  -1   4   2 25816.9 771.653   9
   1   4  -2 23673.4 1029.13   6
   1  -4  -2 24634.4 1044.77   1
  -1  -4   2 25238.4 926.083   9
  -1  -4   2 24652.9 1056.77   1
  -1   4   2 24783.5 1031.83   6
  -1   4   2 24569.3 962.404   5
   1   4  -2 23742.3 905.790  10
  -1   4   1 1766.50 223.562   5
  -1  -4   1 1957.77 263.921   1
   1   4  -1 1578.43 195.682  10
  -1  -4   1 1699.45 195.259   9
  -1   4   1 1492.02 246.524   6
   1   4  -1 1649.68 247.191   6
   1   4  -1 1640.05 268.778   3
   1  -4  -1 1632.55 283.996   1
  -1   4   0 9148.26 581.147   6
   1   4   0 9232.45 598.862   3
  -1  -4   0 8809.89 548.184   1
   1   4   0 8624.71 549.692   8
  -1  -4   0 8744.80 374.755   9
   1   4   0 8960.51 379.302  10
   1   4   0 10017.7 380.543   9
   1   4   0 8893.65 555.858   6
  -1  -4   0 9292.21 370.114  10
   1  -4   0 9050.71 597.066   1
   1   4   1 143787. 3286.67   6
   1  -4   1 142056. 3426.30   1
  -1   4  -1 147122. 3260.75  10
   1   4   1 139345. 3341.84   3
  -1   4  -1 151393. 3133.12   3
   1  -4   1 145632. 3258.26   9
   1   4   1 145152. 3265.30   8
  -1  -4  -1 150085. 3253.10   1
  -1   4  -1 142071. 3352.69   6
   1   4   2 70.9099 125.973   6
  -1   4  -2 51.1871 111.313   3
  -1   4  -2 430.541 195.607  10
   1   4   2 221.808 147.026   8
   1  -4   2 59.6095 109.572   9
  -1   4  -2 19.4720 118.252   4
   1   4   2 259.119 187.589   5
   1  -4   2 142.682 215.062   1
   1   4   3 1277.11 256.098   8
  -1   4  -3 1087.69 254.807   4
   1   4   3 1294.08 293.326   5
   1  -4   3 1554.37 390.657   1
  -1   4  -3 1281.16 254.259  10
  -1   4  -3 1406.03 214.192   3
   1   4   3 1287.42 260.877   6
   1  -4   3 1280.77 277.029   9
  -1  -4  -3 1463.17 264.343   4
   1   4   4 696.580 93.9874   9
  -1  -4  -4 1270.19 270.179   4
   1   4   4 615.275 89.5138  10
   1  -4   4 818.469 346.822   1
   1  -4   4 779.455 248.182   9
  -1  -4  -4 682.202 89.1637   9
  -1  -4  -4 1398.34 290.001   7
  -1   4  -4 973.243 274.518  10
   1   4   4 1020.49 266.239   8
  -1   4  -4 1143.51 291.059   4
  -1  -4  -4 935.744 144.896   2
   1   4   4 795.657 241.535   5
   1  -4   5 22155.0 1220.96   9
  -1  -4  -5 23231.3 1204.31   7
  -1  -4  -5 22714.3 725.101  10
   1   4   5 22225.0 720.447   9
  -1   4  -5 22913.4 1235.90  10
   1   4   5 22511.9 1211.45   5
  -1   4  -5 22927.8 1213.34   4
   1   4   5 23950.6 1124.75   8
  -1  -4  -5 24078.8 1150.45   4
   1  -4   5 21107.4 1259.79   1
   1  -4   6 4184.69 573.050   9
   1   4   6 4080.50 512.841   8
  -1   4  -6 4288.70 570.972  10
   1  -4   6 3433.25 568.918   1
   1   4   6 3502.39 520.093   5
  -1  -4  -6 4557.63 527.413   4
  -1  -4  -6 5728.53 643.958   7
  -1   4  -6 2966.94 474.045   4
   1   4   7 15281.7 1121.70   5
  -1  -4  -7 16292.4 1173.05   7
  -1   4  -7 14972.8 1125.29   4
   1  -4   7 17609.7 1224.17   9
  -1   4  -7 16725.9 1197.71  10
   1   4   7 18069.7 1083.69   8
  -1  -4  -7 17406.1 1083.08   4
  -1   4  -8 846.581 323.710  10
   1   4   8 786.230 287.595   8
  -1  -4  -8 1120.60 424.449   7
   1  -4   8 815.718 354.665   9
   1   4   8 818.562 344.553   5
  -1   4  -8 391.238 236.660   4
  -1  -4  -8 1151.43 339.245   4
  -1  -4  -9 1269.81 452.201   7
  -1  -4  -9 490.186 270.143   4
   1   4   9 661.111 376.276   5
   1  -4   9 728.956 346.805   9
  -1   4  -9 400.921 306.028   4
   1   4   9 693.492 286.095   8
   1  -4   9 850.423 373.199   8
  -1   4  -9 797.847 397.565  10
  -1  -4 -10 229.628 379.346   7
  -1   4 -10-81.3984 274.382  10
   1  -4  10 303.671 322.677   8
  -1   4 -10 282.404 325.579   4
   1   4  10-66.5586 231.869   5
   1  -4  10-101.791 264.518   9
  -1  -4 -11 3163.50 768.421   7
   1   4  11 2014.56 559.335   5
  -1   4 -11 2023.52 612.954   4
   1  -5 -11 1386.91 536.688   7
   1   5 -11 1706.21 512.609  10
  -1  -5  11 1675.27 531.961   9
  -1   5  11 1231.05 485.356   5
   1   5 -10 1164.74 443.325  10
   1  -5 -10 495.970 362.149   7
  -1  -5  10 933.007 387.638   9
  -1   5  10 530.557 325.376   5
   1  -5  -9 1119.12 404.082   7
  -1  -5   9 558.714 341.448   9
  -1   5   9 1388.59 408.197   5
   1   5  -9 640.068 345.049  10
  -1  -5   8 76.4725 305.911   9
  -1   5   8 369.265 217.712   8
   1   5  -8 119.767 181.611  10
   1  -5  -8 226.274 311.082   7
  -1   5   8 256.296 254.431   5
  -1   5   7 458.997 213.932   8
  -1  -5   7 215.534 217.340   9
   1  -5  -7 504.057 298.455   7
   1   5  -7 473.313 280.466  10
   1  -5  -7 451.220 187.422   4
  -1  -5   7-63.2836 235.451   1
  -1   5   7 398.184 242.920   5
  -1  -5   6 3349.79 521.858   1
   1  -5  -6 4484.98 423.120   4
   1   5  -6 3278.06 474.424  10
  -1  -5   6 3679.02 499.528   9
  -1   5   6 3046.82 474.775   5
   1  -5  -6 4372.76 568.775   7
  -1   5   6 4084.31 445.197   8
   1  -5  -5 12664.5 697.016   4
   1  -5  -5 14704.4 560.846  10
  -1  -5   5 11748.5 841.993   9
  -1  -5   5 12387.8 942.695   1
   1   5  -5 13270.9 887.159  10
  -1   5   5 12238.5 877.292   5
  -1   5   5 14037.5 974.060   6
  -1   5   5 13930.9 550.457   9
  -1   5   5 14627.7 800.682   8
   1  -5  -5 13185.4 901.728   7
   1  -5  -4 2969.99 318.945   4
  -1   5   4 2522.41 359.255   8
   1  -5  -4 2792.23 219.601  10
  -1  -5   4 3286.21 408.467   9
  -1   5   4 2468.42 383.401   6
  -1  -5   4 3018.71 472.259   1
  -1   5   4 3201.37 424.234   5
  -1   5   4 2805.85 217.755   9
   1   5  -4 2633.54 370.078  10
  -1  -5   3 4757.84 450.941   9
   1   5  -3 5091.81 511.252   3
  -1  -5   3 4595.99 546.347   1
   1  -5  -3 4856.63 283.060  10
  -1   5   3 5730.82 546.203   6
   1   5  -3 4250.11 423.398  10
  -1   5   3 5086.43 487.314   5
  -1   5   3 4787.01 284.319   9
  -1  -5   2-46.7570 179.819   1
   1   5  -2-0.28022 141.206   3
   1   5  -2 202.733 142.535  10
  -1   5   2 152.195 97.3805   9
  -1   5   2 151.464 131.864   5
   1  -5  -2 169.807 160.171   1
   1   5  -2-45.5801 193.018   6
  -1   5   2 352.623 175.029   6
  -1  -5   2 107.377 131.912   9
  -1   5   1 31138.2 1246.44   6
   1  -5  -1 29307.5 1231.01   1
  -1  -5   1 29011.2 1197.19   1
   1   5  -1 29792.7 1210.64   6
   1   5  -1 30122.9 1002.54  10
   1   5  -1 30719.0 1254.02   3
  -1  -5   1 29704.7 996.413   9
  -1   5   0 7796.82 613.560   6
   1   5   0 7522.00 604.053   3
  -1  -5   0 7713.95 569.328   1
   1   5   0 8577.85 616.261   6
  -1  -5   0 8725.85 420.000   9
   1  -5   0 8987.34 659.357   1
   1   5   0 9461.61 435.382  10
  -1  -5  -1 13566.5 374.120  10
   1   5   1 13220.1 369.624   9
  -1   5  -1 16058.4 771.469   3
  -1   5  -1 15289.4 873.985   6
   1   5   1 16373.4 844.442   8
   1   5   1 16043.3 856.083   6
   1  -5   1 14870.8 792.261   9
   1  -5   1 16640.1 939.933   1
  -1  -5  -1 15638.3 817.132   1
  -1   5  -2 966.005 211.969   3
  -1   5  -2 1064.71 265.973  10
   1   5   2 911.703 262.320   6
   1   5   2 1361.55 285.466   8
   1  -5   2 543.888 266.138   1
   1  -5   2 996.664 249.596   9
  -1   5  -3 11306.3 646.154   3
  -1  -5  -3 11543.8 712.528   4
   1   5   3 10769.9 779.149   6
   1  -5   3 9954.38 751.714   9
  -1   5  -3 10857.1 767.925  10
  -1   5  -3 10701.3 764.049   4
   1  -5   3 9706.06 827.562   1
   1   5   3 10894.2 722.093   8
   1   5   3 10277.0 770.028   5
  -1   5  -4 6453.84 499.147   3
   1  -5   4 7057.56 668.775   9
   1   5   4 6327.10 644.360   5
   1   5   4 6159.93 575.719   8
  -1  -5  -4 6258.94 598.054   7
  -1  -5  -4 5953.48 416.238   2
  -1   5  -4 6796.94 650.115   4
   1  -5   4 6154.63 722.711   1
   1   5   4 6772.73 664.536   6
  -1  -5  -4 6446.65 584.019   4
  -1   5  -4 5858.15 618.434  10
   1   5   5 130.783 184.726   8
   1   5   5 74.5864 214.694   5
  -1   5  -5 496.279 229.195   4
   1  -5   5 149.552 166.777   9
  -1  -5  -5 23.0687 174.672   7
  -1   5  -5 141.643 154.461   3
   1  -5   5 838.664 343.487   1
  -1   5  -5-8.23730 158.586  10
  -1  -5  -5 201.607 166.579   4
  -1  -5  -6 9630.21 776.769   4
   1   5   6 8400.98 723.945   8
   1  -5   6 7044.03 762.451   9
  -1  -5  -6 10012.2 879.984   7
   1  -5   6 8273.71 866.490   1
  -1   5  -6 8385.78 822.338  10
   1   5   6 8029.14 819.542   5
  -1   5  -6 7183.86 763.436   4
  -1   5  -7-23.3577 231.200   4
   1   5   7 178.433 176.345   8
   1   5   7-390.953 266.200   5
   1  -5   7-132.623 246.328   1
  -1  -5  -7-17.4386 271.529   7
   1  -5   7 177.889 280.643   9
  -1  -5  -7 439.979 236.236   4
  -1   5  -7 54.9016 219.484  10
   1   5   8 146.798 267.978   5
  -1  -5  -8 1012.09 344.785   4
   1   5   8 1587.99 389.147   8
   1  -5   8 1277.40 449.248   9
  -1   5  -8 1058.15 403.948   4
  -1   5  -8 974.864 377.966  10
  -1  -5  -8 669.090 345.383   7
  -1   5  -9 518.791 343.332   4
   1  -5   9 759.223 398.936   9
  -1  -5  -9 793.838 420.160   7
   1   5   9 1007.40 399.702   5
  -1   5  -9 842.922 423.783  10
   1   5  10 4607.83 781.980   5
  -1   5 -10 4306.71 806.364  10
   1  -5  10 4217.15 764.487   9
   1  -5  10 2994.72 614.130   8
  -1   5 -10 3348.10 723.962   4
  -1  -5 -10 5480.62 875.987   7
   1  -6 -11 1354.36 481.506   7
   1   6 -10 761.221 443.573  10
   1  -6 -10 414.939 373.321   7
  -1  -6  10 985.395 401.711   9
  -1   6  10 509.601 418.761   5
   1  -6  -9 23495.7 1614.01   7
  -1  -6   9 21052.0 1531.15   9
  -1   6   9 18735.3 1439.41   5
   1   6  -9 22458.7 1568.87  10
   1  -6  -8 3011.27 574.443   7
   1   6  -8 4329.05 657.983  10
  -1  -6   8 1976.94 526.328   1
  -1   6   8 2939.25 565.545   5
  -1  -6   8 3561.75 622.410   9
   1  -6  -7 39036.5 1883.97   7
  -1   6   7 37651.4 1538.44   8
  -1   6   7 33156.8 1747.66   5
  -1  -6   7 31427.9 1788.92   1
  -1  -6   7 36425.9 1819.82   9
   1   6  -7 36811.0 1818.97  10
   1  -6  -6 336.660 274.790   7
   1  -6  -6 140.624 124.604   4
   1   6  -6 363.442 236.872  10
  -1   6   6 149.934 176.636   5
  -1   6   6 450.967 280.599   6
  -1  -6   6 434.504 281.327   9
  -1   6   6 550.687 213.543   8
  -1  -6   6 291.659 279.275   1
   1   6  -5 6856.41 638.935   3
  -1  -6   5 6560.68 653.576   9
  -1   6   5 7808.09 636.446   8
  -1  -6   5 6400.76 744.381   1
  -1   6   5 7687.10 758.396   6
   1   6  -5 7156.08 687.450  10
   1  -6  -5 6564.01 520.133   4
  -1   6   5 6388.29 666.035   5
  -1   6   4 683.372 285.286   6
  -1  -6   4 667.542 272.659   1
  -1  -6   4 920.535 280.463   9
  -1   6   4 597.701 106.395   9
   1   6  -4 1001.28 302.486   3
  -1   6   4 585.957 253.281   5
   1   6  -4 766.673 253.137  10
   1  -6  -4 749.899 113.882  10
  -1  -6   3 6700.96 569.225   9
  -1  -6   3 6250.09 674.066   1
   1  -6  -3 6270.84 342.734  10
  -1   6   3 7068.79 360.946   9
   1   6  -3 7570.62 648.928   3
  -1   6   3 5607.64 558.722   5
  -1   6   3 7602.37 685.950   6
   1   6  -3 7325.60 594.949  10
   1   6  -3 5904.29 609.275   6
   1  -6  -3 6847.04 652.289   1
   1   6  -2 1559.29 349.711   6
  -1  -6   2 2279.51 318.116   9
  -1  -6   2 1747.76 353.961   1
  -1   6   2 2177.01 247.240   9
   1   6  -2 2504.61 330.258  10
   1   6  -2 2365.39 384.179   3
   1  -6  -2 1977.87 367.825   1
  -1   6   2 2005.10 362.089   6
   1  -6  -1 55867.1 1963.02   1
  -1  -6   1 59002.8 1652.92   9
  -1  -6   1 53457.4 1926.05   1
   1   6  -1 58622.8 1993.24   3
   1   6  -1 60225.0 1658.53  10
  -1   6   1 60085.8 2021.92   6
   1   6  -1 56604.4 1940.76   6
  -1   6   0 4642.67 513.666   6
   1   6   0 4203.24 486.894   3
   1   6   0 3685.45 467.149   6
  -1  -6   0 3472.19 417.666   1
  -1  -6   0 3543.71 298.577   9
   1  -6   0 3968.35 489.792   1
   1   6   1 25551.7 655.376   9
  -1   6  -1 29204.5 1341.60   6
   1  -6   1 30504.1 1232.38   9
   1   6   1 27016.7 1267.06   6
   1  -6   1 28364.6 1370.18   1
  -1  -6  -1 25068.3 656.359  10
  -1   6  -1 29678.7 1194.70   3
  -1  -6  -1 26938.6 1215.14   1
   1  -6   2 4014.82 580.117   1
  -1   6  -2 3835.69 530.737   6
  -1  -6  -2 3801.87 472.237   1
   1   6   2 4560.66 509.434   8
   1  -6   2 3687.87 460.443   9
  -1   6  -2 4546.90 498.253  10
  -1   6  -2 3826.53 421.915   3
   1   6   2 3651.65 477.660   6
   1   6   3 6739.61 617.727   8
  -1   6  -3 7508.12 697.067  10
   1   6   3 5819.15 632.732   6
  -1   6  -3 6474.20 537.582   3
   1  -6   3 6253.52 733.376   1
   1  -6   3 6652.52 642.738   9
   1  -6   4 1780.57 447.071   1
   1   6   4 2705.28 471.045   5
   1   6   4 2686.75 408.984   8
   1  -6   4 2642.16 451.957   9
  -1  -6  -4 3110.58 442.803   7
  -1   6  -4 2612.44 424.432  10
  -1   6  -4 2771.65 367.897   3
  -1  -6  -4 2319.39 376.914   4
   1   6   4 2997.81 509.649   6
   1  -6   5 18885.9 1235.95   9
   1   6   5 17704.1 1208.14   6
  -1   6  -5 21678.5 1001.06   3
   1   6   5 16840.7 1165.89   5
   1   6   5 19175.7 1113.26   8
  -1   6  -5 19828.7 1252.14  10
  -1   6  -5 16763.5 1152.44   4
  -1  -6  -5 19861.5 1123.08   4
   1  -6   5 18913.6 1334.38   1
  -1  -6  -5 18494.9 1153.67   7
  -1   6  -6 5308.96 697.766  10
  -1  -6  -6 6114.04 701.200   7
   1  -6   6 5873.39 731.756   9
   1  -6   6 5465.92 773.920   1
   1   6   6 6333.70 681.037   8
   1   6   6 5652.85 722.031   5
  -1   6  -6 4993.54 667.198   4
  -1  -6  -6 6139.00 637.571   4
  -1   6  -7 5716.30 764.960   4
  -1  -6  -7 6314.85 696.822   4
   1   6   7 5410.52 737.670   5
  -1   6  -7 6129.44 794.876  10
   1   6   7 6810.68 723.826   8
   1  -6   7 4942.44 745.793   1
  -1  -6  -7 5933.58 739.639   7
   1  -6   7 7428.76 866.009   9
  -1   6  -8 864.228 424.108  10
   1  -6   8 1664.09 490.835   9
  -1   6  -8 827.599 338.973   4
   1   6   8 1224.04 432.967   5
   1  -6   8 347.242 299.770   1
   1   6   8 1006.01 318.598   8
  -1  -6  -8 607.400 377.241   7
  -1   6  -9 851.415 394.818   4
  -1   6  -9 61.3423 255.149  10
  -1  -6  -9 434.205 385.884   7
   1   6   9 579.220 350.069   5
   1  -6   9 511.401 329.140   9
  -1  -6 -10 253.623 365.465   7
   1  -7 -10 1120.98 415.974   7
  -1   7  10 1908.79 545.989   5
  -1  -7  10 1396.06 480.689   9
   1   7 -10 1551.83 488.009  10
   1   7  -9 3477.20 670.626  10
   1  -7  -9 2581.89 545.211   7
  -1  -7   9 2377.54 523.530   9
  -1   7   9 2944.03 622.622   5
  -1  -7   9 1813.31 431.081   2
   1  -7  -8 654.835 377.261   7
  -1  -7   8 744.461 350.827   9
  -1  -7   8-550.969 413.244   1
   1   7  -8 777.168 358.554  10
  -1   7   8 408.230 279.098   5
   1   7  -7 337.546 282.439  10
  -1  -7   7 532.914 241.150   9
  -1  -7   7 767.064 379.853   1
   1   7  -7 731.125 296.467   3
  -1   7   7 321.523 185.956   8
  -1   7   7 440.553 286.157   5
   1  -7  -7 303.968 268.880   7
  -1   7   6 418.507 272.787   6
   1   7  -6 1287.04 333.296   3
   1  -7  -6 1671.80 413.767   7
  -1  -7   6 899.813 368.576   1
   1   7  -6 1173.50 356.817  10
  -1  -7   6 1309.47 377.195   9
  -1   7   6 1235.15 389.667   5
  -1   7   5 1716.18 421.565   6
   1   7  -5 2162.48 411.759  10
   1   7  -5 1264.18 331.388   3
  -1  -7   5 1520.81 371.530   9
  -1  -7   5 1895.99 468.459   1
  -1   7   5 1332.81 395.585   5
   1  -7  -5 1725.78 304.729   4
   1   7  -4-55.2602 212.959   3
  -1   7   4 169.355 207.979   6
  -1  -7   4 59.9295 155.158   9
   1   7  -4 361.179 254.233   6
  -1   7   4 76.0260 171.399   5
   1   7  -4 43.6959 163.531  10
  -1  -7   4 406.367 302.307   1
   1  -7  -4 194.386 263.002   1
   1   7  -3 9783.55 835.124   6
   1   7  -3 9476.96 713.199  10
  -1  -7   3 9128.34 708.384   9
   1   7  -3 9117.36 761.576   3
  -1   7   3 8241.63 773.435   6
   1  -7  -3 8623.83 782.763   1
  -1  -7   3 8920.60 852.349   1
   1   7  -2 779.027 296.128   3
   1  -7  -2 609.827 294.074   1
  -1  -7   2 635.666 226.487   9
   1   7  -2 655.454 305.018   6
  -1   7   2 660.616 168.802   9
   1   7  -2 535.828 227.180  10
  -1  -7   2 200.512 319.173   1
  -1   7   2 335.412 214.290   6
  -1   7   1 18490.8 1121.67   6
   1  -7  -1 16989.4 1085.57   1
  -1  -7   1 20125.5 910.822   9
   1   7  -1 20982.3 929.722  10
   1   7  -1 18248.1 1114.85   6
   1   7  -1 18407.5 1108.21   3
  -1  -7   1 21353.4 1198.95   1
   1   7   0 1233.40 318.254   3
  -1   7   0 813.152 285.649   6
   1   7   0 1448.32 332.570   6
  -1  -7   0 450.082 182.437   1
   1  -7   0 965.185 327.694   1
   1  -7   1 42512.4 1881.14   1
  -1  -7  -1 42480.8 1740.29   1
   1   7   1 42588.9 1762.49   6
  -1   7  -1 46273.8 1880.12   6
  -1   7  -2 228.951 154.646   3
   1   7   2 286.137 241.050   6
  -1   7  -2 358.005 276.574   6
   1  -7   2-34.4194 164.453   9
   1  -7   2 741.835 380.164   1
  -1  -7  -2 314.102 216.719   1
  -1   7  -3 2587.58 363.330   3
  -1   7  -3 1867.77 420.050   6
   1  -7   3 2407.89 437.616   9
  -1   7  -3 2507.85 431.171  10
   1  -7   3 1653.79 440.424   1
  -1  -7  -3 2655.62 457.827   1
   1   7   3 2692.86 429.731   8
   1   7   3 1576.87 357.362   6
  -1  -7  -4-56.2846 122.495   4
   1   7   4 141.474 232.218   8
   1  -7   4 121.878 262.054   1
  -1   7  -4 602.629 320.116   6
  -1   7  -4 60.4232 146.189   3
   1   7   4 225.355 291.597   6
   1  -7   4 338.865 200.885   9
  -1   7  -4 138.874 190.025  10
  -1   7  -5 35514.7 1796.65  10
   1  -7   5 34681.4 1931.38   1
   1   7   5 33290.5 1793.56   6
  -1  -7  -5 35602.4 1713.23   7
   1  -7   5 33622.9 1753.94   9
   1   7   5 35920.5 1660.41   8
  -1  -7  -5 33866.5 1587.70   4
   1  -7   6 1226.43 387.055   1
  -1  -7  -6 1293.48 379.699   7
   1   7   6 1172.17 349.048   8
   1  -7   6 711.261 319.812   9
   1   7   6 1104.17 388.469   5
  -1  -7  -6 1435.56 312.454   4
  -1   7  -6 892.707 354.331  10
   1  -7   7 30018.1 1913.12   1
   1   7   7 28704.2 1789.03   5
   1   7   7 35049.9 1721.70   8
   1  -7   7 28660.7 1802.50   9
  -1   7  -7 30626.8 1844.86  10
  -1  -7  -7 30007.1 1753.19   7
   1  -7   8 740.181 396.778   1
   1   7   8 1073.43 338.099   8
  -1   7  -8 1174.51 445.629  10
   1  -7   8 1081.18 466.392   9
   1   7   8 968.789 373.036   5
  -1  -7  -8 1377.99 462.356   7
  -1  -7  -9 3840.75 706.712   7
   1  -7   9 3844.96 726.129   9
  -1   7  -9 4885.12 876.377  10
   1   7   9 4708.28 807.700   5
   1  -8  -9 10922.0 1162.74   7
  -1   8   9 11397.3 1203.07   5
  -1  -8   9 11811.5 1284.20   1
  -1  -8   9 13626.1 1314.33   9
  -1  -8   9 12031.5 1117.15   2
   1   8  -9 9441.74 1110.76  10
   1  -8  -8 766.597 314.614   7
  -1  -8   8 274.630 349.254   1
  -1   8   8 727.996 381.148   5
  -1  -8   8 899.951 327.432   9
   1   8  -8 790.256 360.038  10
  -1  -8   7 919.274 402.044   1
   1   8  -7 1194.80 370.069  10
  -1  -8   7 1506.69 457.613   9
  -1   8   7 1608.70 481.862   5
   1  -8  -7 2077.18 492.402   7
   1   8  -6 1346.00 484.598   6
   1  -8  -6 1051.45 353.992   1
  -1  -8   6 1078.26 412.054   1
  -1   8   6 1513.33 476.811   6
   1   8  -6 950.168 360.922  10
  -1  -8   6 1493.42 438.920   9
   1  -8  -6 932.498 300.430   7
   1   8  -6 1229.02 356.916   3
  -1   8   6 796.930 349.050   5
  -1  -8   5 46844.5 2063.78   9
   1   8  -5 49661.8 2102.85  10
   1   8  -5 48413.6 2245.15   6
  -1  -8   5 46298.5 2263.36   1
   1   8  -5 50776.2 2048.40   3
   1  -8  -5 45959.8 2169.03   1
  -1   8   5 45104.2 2074.09   5
  -1   8   5 49156.2 2240.04   6
  -1   8   4 2977.60 564.198   6
   1   8  -4 2509.05 523.750   6
  -1  -8   4 1887.38 478.921   1
  -1  -8   4 2041.71 413.157   9
   1   8  -4 3334.84 527.050  10
   1  -8  -4 2744.54 510.991   1
   1   8  -4 3107.63 490.241   3
   1   8  -3 41286.4 1806.71   3
  -1  -8   3 35717.4 1883.92   1
   1   8  -3 40169.8 1672.94  10
  -1   8   3 40662.0 1891.04   6
  -1  -8   3 40696.7 1696.85   9
   1  -8  -3 39866.2 1861.19   1
   1   8  -3 38892.7 1851.28   6
  -1   8   2 247.609 229.811   6
   1   8  -2 425.397 280.050   6
   1   8  -2 136.460 141.159  10
  -1  -8   2 205.433 171.577   9
   1   8  -2 155.507 298.608   3
  -1  -8   2 60.8882 303.086   1
   1  -8  -2 224.010 225.650   1
  -1  -8   1 789.704 330.541   1
   1   8  -1 242.788 228.199   6
  -1   8   1 412.651 262.984   6
   1   8  -1 673.556 285.298   3
   1  -8  -1 469.619 274.116   1
  -1  -8   1 285.612 166.299   9
  -1   8   0 1631.19 414.040   6
   1   8   0 1140.47 323.517   6
   1  -8   0 1406.88 370.038   1
  -1  -8   0 1261.94 340.039   1
  -1   8  -1 37796.3 1793.16   6
   1   8   1 35629.6 1704.66   6
  -1  -8  -1 35326.1 1658.40   1
   1  -8   1 33167.3 1750.80   1
  -1  -8  -2 6278.85 685.557   1
   1  -8   2 6199.21 788.214   1
   1   8   2 5802.77 682.764   6
  -1   8  -2 5559.80 735.894   6
  -1   8  -2 6599.27 637.347   3
   1  -8   3 10053.9 881.325   9
  -1  -8  -3 11049.3 959.250   1
  -1   8  -3 10949.2 997.654   6
  -1   8  -3 11794.9 833.913   3
   1  -8   3 10967.4 1070.96   1
   1   8   3 10860.8 949.735   6
   1   8   4 2134.79 478.065   6
   1   8   4 2244.40 437.353   8
  -1  -8  -4 2004.95 386.991   4
  -1   8  -4 1900.58 513.271   6
   1  -8   4 2545.34 515.521   9
  -1   8  -4 2210.11 379.211   3
  -1   8  -4 976.995 324.967  10
   1  -8   4 636.164 328.272   1
  -1  -8  -4 2244.83 451.470   1
  -1  -8  -5 218.515 201.125   7
   1  -8   5 378.565 271.074   9
   1  -8   5 618.715 446.846   1
   1   8   5 644.404 357.863   6
  -1  -8  -5 326.242 236.427   1
  -1   8  -5 328.600 267.560  10
  -1   8  -5 234.157 314.410   6
   1   8   5 416.397 280.680   8
  -1  -8  -5 125.734 141.231   4
   1  -8   6 649.484 380.428   1
   1  -8   6 442.046 359.074   9
  -1   8  -6 334.791 316.385  10
  -1  -8  -6 809.847 342.044   7
   1   8   6 673.670 330.964   8
  -1   8  -7 6098.95 862.338  10
  -1  -8  -7 7302.82 885.118   7
   1  -8   7 5648.77 878.309   1
   1  -8   7 6581.85 900.368   9
   1   8   7 8534.77 865.018   8
  -1  -8  -8 1941.40 507.488   7
   1  -8   8 2971.52 659.673   9
  -1   8  -8 1822.74 523.751  10
   1  -8   8 1819.84 551.127   1
  -1  -8  -9 121.209 329.935   7
  -1  -9   9 11106.1 1287.56   1
  -1  -9   9 8346.04 994.326   2
  -1  -9   8 219.915 395.119   9
   1  -9  -8 372.611 463.723   1
  -1  -9   8-148.488 334.098   1
   1   9  -8 1204.94 533.566   6
   1   9  -8 213.405 258.527  10
   1  -9  -8 867.252 364.946   7
   1   9  -7 260.599 439.992   6
  -1  -9   7 499.662 348.973   9
   1  -9  -7 840.268 421.718   7
  -1  -9   7 656.514 404.430   1
   1   9  -7 155.696 275.661  10
   1  -9  -7-281.655 276.096   1
  -1   9   6 1560.91 469.651   6
   1   9  -6 1720.10 440.871  10
   1  -9  -6 1382.56 379.809   7
   1  -9  -6 1478.25 484.399   1
  -1  -9   6 2046.18 553.724   1
  -1  -9   6 812.937 335.880   9
   1   9  -6 1065.85 417.165   6
   1   9  -5 14477.8 1102.25   3
   1   9  -5 14429.8 1247.68   6
  -1  -9   5 13499.3 1090.14   9
  -1  -9   5 13054.2 1233.41   1
   1  -9  -5 11774.5 1125.39   1
   1   9  -5 13975.5 1113.04  10
  -1   9   5 14436.4 1235.83   6
   1  -9  -4 1036.48 384.184   1
  -1  -9   4 540.262 330.328   1
   1   9  -4 990.253 326.405  10
   1   9  -4 889.064 327.531   3
  -1  -9   4 1236.04 336.149   9
  -1   9   4 776.167 397.736   6
   1   9  -4 885.432 331.762   6
  -1  -9   3 5539.75 789.045   1
   1  -9  -3 5967.48 750.795   1
  -1   9   3 5894.92 743.948   6
   1   9  -3 6569.66 673.172  10
   1   9  -3 6438.66 732.788   3
  -1  -9   3 7473.11 713.657   9
   1   9  -3 7219.44 820.848   6
   1  -9  -2 333.181 272.359   1
  -1  -9   2 1101.59 285.323   9
   1   9  -2 1062.00 353.995   3
  -1  -9   2 1469.64 471.339   1
  -1   9   2 886.007 273.550   6
   1   9  -2 1772.60 433.538   6
   1   9  -1 3569.75 590.419   6
  -1   9   1 4238.72 626.967   6
  -1  -9   1 4080.99 638.437   1
   1   9  -1 3698.80 572.756   3
   1  -9  -1 4123.83 656.551   1
  -1   9   0 5973.01 768.699   6
   1  -9   0 5517.14 750.068   1
  -1  -9   0 6274.37 745.444   1
   1   9   0 5928.36 726.756   6
  -1  -9  -1 14914.0 1129.60   1
   1   9   1 12792.0 1067.71   6
   1  -9   1 13067.1 1156.53   1
  -1   9  -1 13842.0 1153.56   6
  -1   9  -2 1665.01 435.788   6
   1   9   2 2650.84 514.452   6
  -1  -9  -2 1269.24 369.774   1
   1  -9   2 1526.97 436.331   1
   1  -9   3 4491.70 752.831   1
  -1   9  -3 4159.86 675.989   6
  -1  -9  -3 5322.09 699.976   1
   1   9   3 4834.80 700.741   6
  -1   9  -4 2214.30 540.849   6
   1   9   4 3295.15 631.499   6
  -1  -9  -4 1725.30 395.810   4
   1  -9   4 1379.97 507.218   1
   1  -9   4 2358.36 507.552   9
  -1  -9  -4 2489.91 530.230   1
  -1  -9  -5 8401.94 902.759   7
   1  -9   5 6824.62 948.937   1
  -1  -9  -5 5627.67 771.807   1
  -1   9  -5 6741.85 902.593   6
   1  -9   5 7203.46 865.674   9
   1   9   5 7783.95 957.160   6
  -1   9  -6 2978.35 712.824   6
   1  -9   6 1569.34 448.729   9
  -1  -9  -6 2776.10 569.807   7
   1  -9   6 3282.81 736.809   1
  -1  -9  -6 1454.91 423.505   1
   1  -9   7 2499.04 616.189   9
  -1  -9  -7 2835.55 616.620   1
  -1  -9  -7 3034.65 598.511   7
   1   9   7 2769.15 556.928   8
   1  -9   7 3806.32 811.316   1
  -1   9  -7 2794.78 739.861   6
  -1  -9  -8 624.029 355.978   7
  -1 -10   8 1881.88 595.724   1
  -1 -10   8 2763.22 658.350   9
   1  10  -8 2547.01 636.634  10
   1 -10  -7 17669.8 1528.92   1
   1  10  -7 13423.8 1279.40  10
   1 -10  -7 19051.8 1540.72   7
  -1 -10   7 17032.3 1548.06   1
  -1 -10   7 16536.4 1407.16   9
   1  10  -7 14630.2 1442.16   6
  -1  10   7 16392.8 1514.91   6
  -1 -10   6 1306.35 404.237   9
   1  10  -6 900.813 368.088  10
  -1 -10   6 2166.77 659.712   1
   1  10  -6 1517.57 537.159   6
  -1  10   6 1261.72 463.376   6
   1 -10  -6 3077.15 669.027   1
   1  10  -5 1678.25 544.749   6
   1  10  -5 1624.14 436.507   3
  -1  10   5 2746.45 613.760   6
   1 -10  -5 1810.62 552.438   1
  -1 -10   5 1032.21 473.642   1
  -1 -10   5 2021.40 496.375   9
   1  10  -5 1577.37 407.516  10
   1  10  -4 4006.15 698.158   6
   1 -10  -4 2216.07 519.928   1
   1  10  -4 2695.04 512.144   3
  -1 -10   4 3539.08 573.556   9
  -1 -10   4 3741.22 749.090   1
  -1  10   4 3169.59 580.098   6
  -1  10   3 383.451 376.009   6
  -1 -10   3 1180.25 522.217   1
   1  10  -3 238.729 309.857   6
   1  10  -3-49.1383 197.193   3
   1 -10  -3 258.914 289.263   1
   1 -10  -2 903.682 368.162   1
   1  10  -2 1457.33 486.051   6
  -1  10   2 1056.26 403.613   6
  -1 -10   2 933.679 406.109   1
   1  10  -2 1278.79 394.818   3
  -1 -10   1 10013.0 1076.15   1
  -1  10   1 8977.01 988.497   6
   1  10  -1 8266.46 921.224   6
   1 -10  -1 8473.05 964.411   1
  -1 -10   0 3160.05 606.133   1
  -1  10   0 2245.12 518.021   6
   1 -10   0 3402.94 680.782   1
   1  10   0 2212.23 524.939   6
  -1 -10  -1 877.960 353.123   1
   1 -10   1 1112.44 457.104   1
   1  10   1 973.428 435.110   6
  -1  10  -1 798.061 351.593   6
  -1 -10  -2 323.886 237.369   1
  -1  10  -2 1343.75 459.463   6
   1  10   2 1059.30 425.157   6
   1 -10   2 647.767 346.768   1
  -1 -10  -3 3513.29 612.621   1
   1 -10   3 1915.42 555.008   1
   1  10   3 2668.74 567.415   6
  -1  10  -3 3721.36 675.999   6
  -1 -10  -4 145.989 271.697   1
  -1  10  -4 637.952 417.003   6
   1 -10   4 463.571 349.582   1
   1  10   4 1187.14 522.503   6
  -1 -10  -5 8285.21 928.399   7
   1  10   5 6877.69 936.028   6
  -1 -10  -5 8263.51 1020.85   1
   1 -10   5 8195.79 1083.93   1
  -1  10  -5 8301.79 1063.57   6
   1 -10   6 959.712 503.347   1
  -1 -10  -6 1444.28 450.844   7
  -1 -10  -6 2037.69 526.474   1
   1  10   6 1525.41 530.833   6
  -1  10  -6 683.737 508.307   6
   1 -10   6 1046.82 468.600   9
   1 -10   7 1798.90 540.837   9
  -1 -10  -7 2479.55 609.536   1
  -1 -10  -7 2092.58 565.440   7
  -1 -11   7 0.79772 235.677   9
   1  11  -6 156.249 301.122   6
  -1 -11   6 577.558 395.970   9
   1 -11  -6 1158.09 452.790   1
  -1 -11   6 687.351 501.359   1
  -1  11   5 1975.39 676.745   6
   1 -11  -5 1823.90 536.294   1
   1  11  -5 1869.14 524.060   6
  -1 -11   5 1443.99 541.741   1
  -1 -11   4 211.038 328.726   1
   1  11  -4 801.518 362.120   3
   1 -11  -4 311.697 326.807   1
   1  11  -4 758.481 418.618   6
  -1  11   4 729.232 409.782   6
  -1 -11   3 3471.64 813.603   1
  -1  11   3 3312.03 667.515   6
   1 -11  -3 3239.58 696.975   1
   1  11  -3 2922.99 612.684   6
  -1 -11   2 18.3954 303.011   1
   1 -11  -2-82.2590 275.525   1
   1  11  -2 479.122 333.318   6
  -1  11   2 333.406 335.734   6
  -1  11   1 7496.11 960.913   6
  -1 -11   1 6028.86 891.920   1
   1 -11  -1 6139.33 911.442   1
   1  11  -1 6252.50 867.609   6
  -1  11   0 264.974 371.896   6
   1 -11   0 531.084 416.349   1
  -1 -11   0 1108.02 489.713   1
   1  11   0 231.154 274.345   6
  -1 -11  -1 9559.69 1100.40   1
  -1  11  -1 10249.6 1125.42   6
   1  11   1 9859.64 1077.45   6
   1 -11   1 10078.2 1178.99   1
  -1  11  -2 1073.52 490.226   6
  -1 -11  -2 595.473 360.219   1
   1  11   2 384.881 299.582   6
   1 -11   2 1005.43 532.672   1
  -1  11  -3 17511.8 1498.41   6
   1  11   3 17574.6 1460.58   6
   1 -11   3 17086.2 1602.02   1
  -1 -11  -3 16364.6 1425.08   1
   1  11   4 149.803 270.349   6
  -1 -11  -4 40.6158 261.680   1
   1 -11   4 625.572 428.926   1
  -1  11  -4 366.510 400.768   6
  -1 -11  -5 1263.31 406.731   7
   1  11   5 1609.43 566.833   6
  -1 -11  -5 1656.30 502.778   1
   1 -11   5 2578.83 738.727   1
  -1 -11  -6 1460.52 488.783   1
  -1 -12   5 3485.30 791.725   1
   1 -12  -4 268.029 424.846   1
  -1 -12   4 336.889 424.706   1
  -1  12   3 6433.61 945.198   6
   1 -12  -3 4720.52 814.765   1
   1  12  -3 5970.51 916.558   6
  -1 -12   3 4448.89 837.445   1
  -1  12   2 199.113 322.065   6
   1 -12  -2 510.136 462.137   1
   1  12  -2 161.303 326.317   6
  -1 -12   2 766.043 560.201   1
   1 -12  -1 12506.5 1339.77   1
   1  12  -1 12187.9 1260.56   6
  -1 -12   1 10123.9 1201.72   1
  -1  12   1 12988.4 1321.20   6
   1 -12   0-73.5863 317.249   1
   1  12   0 428.404 331.218   6
  -1  12   0 67.6281 281.606   6
  -1 -12   0 445.980 406.048   1
   1  12   1 7172.85 968.882   6
  -1  12  -1 6428.91 950.140   6
   1 -12   1 7310.39 1091.53   1
  -1 -12  -1 5720.61 895.964   1
  -1  12  -2-58.9996 297.954   6
   1 -12   2 1083.82 533.623   1
  -1 -12  -2-6.79313 292.003   1
   1  12   2 147.148 360.920   6
  -1 -12  -3 3134.12 679.680   1
   1 -12   3 2276.95 766.223   1
  -1 -12  -4 171.823 302.971   1
  -1 -13   1 476.468 438.740   1
  -1 -13   0-111.903 478.082   1
  -2   0  13-108.352 256.872   5
   2   0 -13 262.828 305.461  10
  -2   0  13 62.5820 236.944   9
   2   0 -12 3532.01 622.447  10
  -2   0  12 4373.00 697.599   9
  -2   0  12 3145.73 600.872   5
   2   0 -11 470.968 459.574   7
  -2   0  11 413.564 283.866   9
   2   0 -11-72.7706 158.432   4
  -2   0  11 32.8498 203.078   5
   2   0 -11 89.3269 219.887  10
   2   0 -10 26343.0 1369.07   4
  -2   0  10 23465.9 1402.43   9
   2   0 -10 24149.9 1418.62  10
   2   0 -10 22525.3 1559.34   7
   2   0  -9 291.096 235.351   4
  -2   0   9 64.0706 198.301   9
   2   0  -9 108.480 216.825  10
   2   0  -9 295.360 347.781   7
   2   0  -8 92489.5 2772.94  10
   2   0  -8 97174.7 3066.74   7
  -2   0   8 91711.8 2770.91   9
   2   0  -8 97913.4 2636.91   4
  -2   0   8 91192.7 2379.62   8
  -2   0   7 94.2308 128.477   8
   2   0  -7 43.9079 161.496   4
   2   0  -7 383.808 248.719   7
   2   0  -7 91.3898 151.395  10
  -2   0   7 57.1450 155.030   9
  -2   0   6 304.771 110.766   8
  -2   0   6 364.477 120.191   2
  -2   0   6 93.1514 135.285   9
   2   0  -6 355.740 143.084   4
   2   0  -6 490.018 178.422  10
   2   0  -6 274.156 185.574   7
   2   0  -5-3.67294 145.340   7
   2   0  -5-37.0898 80.0627   4
  -2   0   5 18.0533 72.4228   8
  -2   0   5-31.6171 102.099   9
   2   0  -5 77.9700 96.8548  10
  -2   0   5-72.4345 74.4101   2
  -2   0   4 118785. 2490.75   2
  -2   0   4 123152. 2709.86   9
   2   0  -4 121200. 2697.73  10
   2   0  -4 118242. 2734.65   7
   2   0  -4 124317. 2509.43   4
   2   0  -3 38.7957 94.6857  10
  -2   0   3 93.0353 76.5728   4
  -2   0   3-83.9272 79.7410   2
  -2   0   3 76.8025 104.393   9
   2   0  -3-3.75104 107.272   7
  -2   0   2 341603. 6142.53   2
  -2   0   2 335929. 6145.64   9
   2   0  -2 337086. 6147.09  10
   2   0  -2 337835. 6021.83   7
   2   0  -1 89.0547 63.7051   8
  -2   0   1 57.4964 72.4115   9
   2   0  -1 174.054 76.1613   9
   2   0  -1 238.702 93.0233  10
   2   0  -1 92.7044 44.9469   1
  -2   0   1 143.460 77.0711   8
   2   0   0 95790.6 1860.84   1
  -2   0   0 88375.7 1998.58   4
  -2   0   0 97731.1 1886.35   1
   2   0   0 87676.6 1986.20   8
  -2   0  -1 256.321 138.367   4
   2   0   1-27.7777 113.791   8
   2   0   1 40.6850 87.9993   1
  -2   0  -1 60.7967 64.5559   3
  -2   0  -2 1008.90 215.298   4
   2   0   2 1060.42 177.706   9
  -2   0  -2 1295.27 197.224  10
  -2   0  -2 846.272 110.112   3
  -2   0  -2 1162.79 230.271   7
   2   0   2 977.771 166.269   5
   2   0   2 786.347 194.066   8
  -2   0  -3 58.1889 156.184   4
   2   0   3-47.2456 99.9741   5
  -2   0  -3 163.741 183.232   7
  -2   0  -3 286.111 148.815  10
   2   0   3 43.6637 118.635   9
   2   0   3 75.6937 138.161   8
  -2   0  -4 20673.4 1015.60   7
   2   0   4 18788.3 982.996   8
  -2   0  -4 19186.1 906.120  10
   2   0   4 20605.8 930.670   9
  -2   0  -4 20145.3 1005.78   4
   2   0   4 18802.0 862.875   5
  -2   0  -5 35.1613 225.579   4
   2   0   5-42.6239 139.015   5
   2   0   5-45.1429 153.285   9
  -2   0  -5 9.19475 164.056  10
  -2   0  -5 509.133 298.621   7
   2   0   5 186.632 225.382   8
  -2   0  -6 23501.7 1307.94   7
  -2   0  -6 21617.0 1232.09   4
   2   0   6 22519.2 1244.05   8
   2   0   6 24410.5 1166.71   5
   2   0   6 25093.0 1215.37   9
  -2   0  -6 24443.4 1206.45  10
   2   0   7 207.002 197.913   9
   2   0   7 65.3033 176.937   8
  -2   0  -7 217.558 217.180  10
  -2   0  -7-12.8136 169.541   4
   2   0   7 234.362 236.269   5
   2   0   8 541.481 257.600   9
   2   0   8 216.951 209.475   5
  -2   0  -8 85.4239 233.584   4
  -2   0  -8 853.178 325.537  10
   2   0   8 673.472 375.378   8
  -2   0  -9 275.128 243.987  10
   2   0   9 557.551 334.139   8
  -2   0  -9-190.860 304.541   4
   2   0   9 116.932 235.096   9
   2   0   9 17.9363 198.559   5
  -2   0 -10 209.970 278.908  10
   2   0  10-97.2169 247.842   9
   2   0  10-57.5965 343.034   8
  -2   0 -10 647.714 373.167   4
  -2   0 -11 256.971 264.633   4
   2   1 -13 2324.74 553.442  10
  -2  -1  13 2211.28 564.944   9
  -2   1  13 2433.94 582.520   5
  -2  -1  13 2370.33 552.353   5
  -2   1  12 3590.27 652.748   5
   2  -1 -12 6185.89 998.836   7
   2   1 -12 5788.34 805.858  10
  -2  -1  12 6610.37 864.422   9
  -2  -1  12 4792.20 719.095   5
  -2   1  12 5511.64 731.789   9
   2  -1 -12 5543.33 732.050  10
   2  -1 -11 745.822 465.546   7
  -2   1  11-59.1131 189.719   9
   2  -1 -11-65.7368 174.026  10
  -2   1  11 340.302 297.419   5
   2   1 -11 144.809 203.434   4
  -2  -1  11 375.784 323.450   9
   2   1 -11 460.761 249.511  10
   2  -1 -10 9377.59 1007.82   7
   2   1 -10 7358.05 798.678  10
   2  -1 -10 8970.40 763.255   4
  -2  -1  10 8690.05 872.351   9
  -2   1  10 8004.85 836.847   5
  -2   1  10 8635.64 807.443   9
   2  -1 -10 8307.09 800.737  10
   2   1 -10 9087.66 820.646   4
   2   1  -9 1437.19 480.826   7
  -2  -1   9 1447.30 372.266   9
   2  -1  -9 1080.86 295.688   4
   2   1  -9 1362.63 344.246   4
  -2   1   9 1745.35 366.543   9
   2  -1  -9 1421.57 325.338  10
  -2  -1   9 1083.73 284.412   8
   2   1  -9 1788.61 416.833  10
   2  -1  -9 1265.13 394.582   7
   2  -1  -8 13038.2 1001.05   7
  -2  -1   8 14299.8 964.361   9
   2   1  -8 13756.1 948.617  10
  -2   1   8 12852.5 862.761   9
  -2  -1   8 11929.3 616.975   2
  -2  -1   8 12412.6 741.246   8
  -2   1   8 13272.9 682.912   8
   2  -1  -8 13252.5 871.784  10
   2   1  -8 10764.7 944.788   7
   2  -1  -8 12122.0 748.217   4
   2   1  -8 14984.3 903.258   4
   2   1  -7 10657.5 785.632  10
   2  -1  -7 11792.5 669.426   4
  -2  -1   7 12216.0 828.590   9
   2  -1  -7 12525.4 780.501  10
   2  -1  -7 10967.6 855.624   7
   2   1  -7 11670.2 902.082   7
  -2   1   7 12431.8 779.782   9
  -2  -1   7 12642.4 614.474   2
  -2   1   7 12446.1 600.840   8
   2   1  -7 12967.8 772.363   4
   2   1  -6 11867.2 811.638   7
   2  -1  -6 10692.5 758.256   7
   2  -1  -6 10787.9 665.018  10
  -2  -1   6 10421.3 539.628   2
   2   1  -6 10265.3 704.065  10
  -2   1   6 11104.3 672.882   9
  -2  -1   6 10102.2 697.113   9
   2   1  -6 10364.7 636.591   4
  -2   1   6 10950.3 491.022   8
   2  -1  -6 11065.3 569.223   4
   2   1  -5 29146.3 1182.08   7
  -2   1   5 29892.7 1066.44   9
   2  -1  -5 29004.3 890.661   4
   2  -1  -5 27791.8 1040.04  10
   2   1  -5 28997.8 1123.61  10
  -2  -1   5 29420.6 1135.66   9
   2   1  -5 27408.2 1014.86   4
  -2   1   5 28819.9 775.246   8
  -2  -1   5 28839.8 947.427   2
   2  -1  -5 29069.3 1160.49   7
   2   1  -4 78055.9 1998.41  10
  -2  -1   4 79482.6 2012.63   9
   2  -1  -4 79529.2 2032.69   7
   2   1  -4 76055.1 2007.20   7
  -2   1   4 80711.9 1927.01   9
  -2  -1   4 81599.6 1856.96   2
  -2   1   4 75838.7 1527.82   8
  -2   1   4 83605.9 1691.89   4
   2  -1  -4 81924.0 1664.04   4
   2  -1  -4 78462.5 1916.79  10
  -2  -1   3 13543.9 438.878   8
   2  -1  -3 12120.0 564.959   7
   2   1  -3 11410.8 536.202   7
  -2   1   3 12741.9 546.611   9
  -2  -1   3 12585.5 573.607   9
  -2  -1   3 12849.3 538.727   2
   2  -1  -3 11049.3 515.568  10
  -2   1   3 12662.9 348.667   4
   2   1  -3 12067.6 564.663  10
  -2  -1   2 17808.3 629.229   9
  -2  -1   2 20228.8 563.281   7
   2  -1  -2 18300.1 626.889  10
   2  -1  -2 20692.8 596.155   6
  -2   1   2 18203.5 630.693   9
   2   1  -2 17160.0 525.802   8
   2   1  -2 19024.0 545.813   1
  -2  -1   2 18551.2 643.242   2
  -2  -1   2 19849.5 551.884   8
  -2   1   2 17595.4 577.114   6
   2   1  -2 19079.5 648.460  10
  -2  -1   1 2915.00 211.115   8
   2   1  -1 2516.00 195.703  10
   2  -1  -1 3069.27 182.221   4
  -2   1   1 2111.60 153.096   6
  -2   1   1 2847.63 207.277   1
   2  -1  -1 2663.98 206.246   1
  -2  -1   1 2098.47 182.085   9
   2   1  -1 2278.33 191.898   8
   2   1  -1 2476.63 139.731   6
   2  -1  -1 2740.12 171.343   6
   2   1  -1 2762.01 207.852   9
  -2  -1   1 2958.88 208.765  10
  -2  -1   1 2612.47 221.045   2
  -2   1   1 2476.94 161.772   4
  -2  -1   0 43783.5 955.521   6
  -2  -1   0 41372.4 1041.01   2
  -2  -1   0 39605.6 852.995   7
  -2  -1   0 38511.2 968.640   9
   2   1   0 40993.0 1053.83   3
   2   1   0 40575.4 1096.67   8
   2  -1   0 41018.6 1092.08   1
  -2   1   0 41410.0 1063.64   4
   2   1   0 39212.7 938.022   6
  -2   1  -1 580.054 91.4180   5
  -2  -1  -1 486.659 107.639   2
   2   1   1 572.049 155.325   8
   2   1   1 600.110 128.112   3
   2  -1   1 395.314 152.810   9
  -2  -1  -1 527.541 151.161   4
  -2  -1  -1 466.206 111.591   7
   2   1   1 650.102 116.325   2
  -2   1  -1 371.095 132.043   4
   2  -1   1 604.754 181.773   1
   2   1   2 75943.3 2028.09   8
   2  -1   2 80684.3 2024.08   9
   2   1   2 80882.0 1981.58   5
   2  -1   2 75740.7 2038.41   1
   2  -1   2 85306.4 1747.79   5
   2   1   2 79727.2 1827.23   9
   2   1   2 78090.3 1667.83   2
  -2  -1  -2 80346.5 2082.24   4
  -2   1  -2 76764.3 2036.12   4
  -2  -1  -2 81289.4 1922.81   7
  -2   1  -2 77615.9 1998.65  10
  -2  -1  -3 1035.77 190.606  10
   2   1   3 949.031 118.744   2
  -2  -1  -3 1109.55 244.424   7
  -2   1  -3 1031.13 238.232   4
  -2   1  -3 1229.89 246.535  10
   2  -1   3 634.670 197.428   1
   2  -1   3 849.106 188.572   9
  -2  -1  -3 1045.94 245.534   4
   2   1   3 1178.59 230.655   5
   2  -1   3 890.078 170.880   5
   2   1   3 986.145 179.447   9
   2   1   3 987.970 222.105   8
   2  -1   4 13330.9 820.410   8
  -2  -1  -4 13167.7 687.232  10
   2   1   4 14349.3 712.815   9
   2   1   4 11216.2 396.275   2
   2   1   4 13240.0 748.757   5
  -2   1  -4 13874.4 793.351  10
  -2  -1  -4 14174.9 815.461   7
   2   1   4 13431.6 808.225   8
  -2   1  -4 13689.8 829.127   4
   2  -1   4 14857.2 825.131   9
  -2  -1  -4 14004.5 831.037   4
   2  -1   4 14576.4 685.665   5
  -2  -1  -5 4784.41 543.250   7
   2  -1   5 4891.47 517.841   9
   2   1   5 5153.20 554.904   8
   2   1   5 5302.13 518.708   5
  -2  -1  -5 5059.58 459.626  10
  -2   1  -5 4297.14 515.809   4
  -2  -1  -5 4250.65 511.933   4
   2  -1   5 5123.44 455.283   5
   2   1   5 4293.76 434.347   9
  -2   1  -5 5006.13 521.286  10
   2  -1   5 4981.81 546.087   8
  -2  -1  -6 59371.4 2210.43   7
   2  -1   6 60284.9 2119.86   9
   2   1   6 59142.0 2041.72   5
   2   1   6 63085.3 2004.35   9
  -2   1  -6 59657.8 2111.40  10
  -2  -1  -6 55865.6 2106.27   4
   2  -1   6 59759.7 2165.75   8
   2   1   6 59546.8 2144.37   8
  -2  -1  -6 57668.1 1945.59  10
   2  -1   6 62998.7 1950.42   5
  -2   1  -6 57066.3 2151.19   4
  -2  -1  -7 6437.06 622.353  10
  -2  -1  -7 6590.17 743.733   7
  -2   1  -7 6748.06 732.200   4
   2   1   7 6667.66 639.965   9
   2   1   7 7191.63 693.626   5
  -2   1  -7 5745.99 652.491  10
   2  -1   7 6342.36 603.217   5
   2   1   7 5716.27 665.925   8
  -2  -1  -7 5686.82 658.275   4
   2  -1   7 6729.77 705.498   9
   2  -1   7 5848.42 699.182   8
  -2  -1  -8 39337.3 2012.34   7
  -2   1  -8 37317.5 1832.24  10
   2  -1   8 42483.5 1757.03   5
  -2  -1  -8 36221.3 1836.29   4
   2  -1   8 40667.5 1908.42   9
   2   1   8 40248.9 1832.38   5
  -2  -1  -8 40105.4 1750.77  10
   2   1   8 39312.2 1728.99   9
   2  -1   8 38481.3 1887.55   8
   2   1   8 39849.3 1863.65   8
  -2   1  -8 34004.3 1827.46   4
  -2   1  -9-69.0224 237.055  10
   2   1   9 129.558 246.120   5
   2  -1   9 19.9797 191.855   9
   2   1   9 442.487 268.946   8
  -2  -1  -9 301.755 223.396   4
  -2   1  -9 181.851 307.759   4
  -2  -1  -9-18.1826 216.032  10
   2   1   9 229.802 246.620   9
   2  -1   9 82.1032 201.473   8
  -2   1 -10 97.1517 232.207  10
   2   1  10 494.973 366.254   5
  -2   1 -10-162.791 253.495   4
   2  -1  10 247.170 269.433   9
   2  -1  10-200.807 277.585   8
  -2  -1 -10 114.885 280.986   4
   2  -1  11 1131.51 396.918   9
  -2   1 -11 1129.71 389.128   4
  -2   1 -11 1246.22 416.253  10
  -2  -1 -11 789.276 396.992   4
   2   2 -12 138.415 301.095  10
   2  -2 -12 1394.70 561.036   7
   2   2 -12 232.809 266.746   4
  -2  -2  12 561.835 403.248   9
  -2  -2  12 737.072 334.895   5
  -2   2  12-392.207 310.066   5
  -2  -2  11 2122.02 500.558   9
   2  -2 -11 2974.59 644.434   7
   2   2 -11 2394.96 496.972   4
   2  -2 -11 2241.59 469.122  10
  -2   2  11 1990.47 447.898   9
  -2   2  11 1959.88 495.576   5
   2   2 -11 2726.07 557.018  10
  -2  -2  10 285.033 245.523   9
  -2   2  10-120.123 220.473   5
   2  -2 -10 650.147 366.949   7
   2   2 -10 853.552 341.763  10
   2   2 -10-66.1460 226.716   4
  -2   2  10 385.686 208.820   9
   2  -2 -10 921.052 311.763  10
  -2  -2   9 680.361 221.886   8
   2  -2  -9 1869.99 461.275   7
   2   2  -9 615.767 259.742   4
   2   2  -9 776.647 310.437  10
   2  -2  -9 934.060 269.396   4
  -2  -2   9 1497.27 392.416   9
  -2   2   9 711.003 236.100   9
  -2   2   9 1703.71 396.737   5
   2  -2  -9 1390.58 328.530  10
  -2  -2   8 2417.26 304.782   2
  -2  -2   8 1538.53 348.793   9
   2  -2  -8 2097.82 361.776  10
   2  -2  -8 1961.67 313.009   4
   2  -2  -8 2038.65 441.262   7
   2   2  -8 1686.37 353.994  10
  -2   2   8 2208.66 279.356   8
   2   2  -8 1772.30 339.603   4
  -2   2   8 2189.68 356.030   9
   2   2  -7 8534.27 719.064  10
   2  -2  -7 7871.62 717.598   7
   2  -2  -7 7161.93 578.627  10
  -2  -2   7 7399.15 673.709   9
  -2   2   7 8025.86 603.137   9
   2  -2  -7 8693.07 542.189   4
   2   2  -7 8021.29 653.220   4
  -2   2   7 8163.98 477.704   8
  -2  -2   7 8293.27 549.496   2
   2  -2  -6 485.919 251.776   7
   2  -2  -6 146.906 97.2101   4
  -2  -2   6 299.682 189.923   9
  -2   2   6 466.061 170.927   9
  -2  -2   6 84.3701 124.023   2
   2  -2  -6 214.149 144.253  10
  -2   2   6 308.932 104.777   8
   2   2  -6 334.813 187.944   4
   2   2  -6 41.5290 145.556  10
   2  -2  -5 3028.11 236.842   4
   2   2  -5 2961.52 362.444  10
  -2   2   5 3289.25 234.128   8
  -2  -2   5 2756.37 301.924   2
  -2  -2   5 3157.66 373.338   9
   2  -2  -5 2499.93 285.850  10
  -2   2   5 3081.84 307.645   9
   2  -2  -5 2707.79 362.984   7
   2   2  -4 70521.5 1927.45  10
   2  -2  -4 68576.6 1935.19   7
   2  -2  -4 70780.6 1765.17  10
   2  -2  -4 77484.7 1573.06   8
  -2   2   4 70537.9 1758.50   9
   2  -2  -4 73194.0 1475.99   4
  -2  -2   4 72217.6 1940.21   9
  -2   2   4 72595.3 1534.74   8
  -2  -2   4 72831.9 1844.22   2
  -2  -2   4 70914.1 1918.44   1
  -2  -2   3 7534.25 454.443   2
  -2  -2   3 7574.09 443.787   1
  -2   2   3 7024.88 447.850   6
  -2   2   3 7222.99 403.651   9
   2   2  -3 8492.58 484.537  10
   2  -2  -3 8066.08 319.840   8
  -2  -2   3 7363.38 453.863   9
   2  -2  -3 6449.98 379.850  10
  -2  -2   2 73014.5 1632.07   1
   2   2  -2 72565.2 1676.06  10
   2  -2  -2 69027.4 1644.61  10
   2   2  -2 68041.6 1627.69   8
   2   2  -2 77499.0 1630.56   1
  -2   2   2 73294.8 1678.76   9
  -2  -2   2 70651.9 1664.29   9
  -2  -2   2 72696.5 1748.52   2
  -2   2   2 70820.7 1678.01   6
  -2   2   1 6605.49 366.086   6
   2   2  -1 6520.35 341.726   6
  -2  -2   1 7112.21 337.383  10
  -2  -2   1 7174.55 332.886   9
  -2   2   1 7174.93 302.857   4
  -2  -2   1 6831.61 304.651   1
   2   2  -1 7289.84 399.163   8
   2  -2  -1 7709.89 425.543   1
   2   2  -1 7508.23 343.040   9
   2   2  -1 7268.20 335.027  10
  -2  -2   1 7098.34 404.088   2
   2  -2  -1 7663.54 312.523   4
   2   2  -1 6869.82 288.865   1
   2   2   0 17136.8 693.820   8
  -2  -2   0 16551.3 497.078   9
   2  -2   0 18232.4 730.362   1
   2   2   0 18500.7 624.678   6
   2  -2   0 19287.6 524.556   3
  -2   2   0 19276.7 654.085   4
  -2  -2   0 18071.6 651.337   2
   2   2   0 18010.4 720.154   3
   2   2   0 16928.4 500.105  10
   2  -2   1 3923.49 383.096   1
   2   2   1 3359.49 306.835   3
  -2  -2  -1 3714.36 264.400   2
   2  -2   1 3246.28 322.820   9
  -2  -2  -1 3816.44 210.515   9
  -2   2  -1 3247.17 304.499   4
   2   2   1 3589.77 205.694  10
   2   2   1 3643.62 302.239   6
   2   2   1 3985.67 353.866   8
  -2  -2  -1 3435.69 263.875   7
  -2  -2  -1 3923.46 359.345   4
   2  -2   2 7596.96 524.178   9
  -2  -2  -2 6958.69 435.330   7
   2  -2   2 7481.48 297.557   5
   2   2   2 6470.55 481.987   5
  -2   2  -2 7269.15 511.056  10
  -2   2  -2 7666.75 522.263   4
  -2  -2  -2 6723.10 343.061   2
   2  -2   2 8001.98 575.676   1
  -2   2  -2 6433.00 241.189   3
  -2  -2  -2 7728.28 533.013   4
   2   2   2 7887.06 527.701   8
  -2  -2  -3 286.247 115.739   7
   2  -2   3 449.430 108.864   5
   2  -2   3 1011.90 279.281   1
  -2  -2  -3 487.660 202.792   4
   2   2   3 526.517 127.501   9
   2  -2   3 456.438 192.315   9
   2   2   3 419.784 174.715   5
   2   2   3 498.874 198.505   8
  -2   2  -3 333.717 163.460  10
  -2   2  -3 718.892 223.414   4
  -2   2  -4 2626.41 375.304  10
  -2  -2  -4 2798.14 393.062   4
  -2   2  -4 1966.10 344.456   4
   2   2   4 2834.56 388.505   8
  -2  -2  -4 2654.54 281.045  10
   2  -2   4 2660.95 389.981   9
   2   2   4 2704.01 279.076   9
   2  -2   4 2415.23 259.626   5
   2   2   4 2424.41 363.891   5
  -2  -2  -4 2831.62 374.999   7
   2  -2   4 2371.92 381.856   1
  -2  -2  -5 3963.99 485.470   7
   2   2   5 5913.19 574.707   5
  -2   2  -5 4872.36 557.427   4
   2  -2   5 5260.11 428.072   5
  -2   2  -5 4792.03 546.078  10
   2   2   5 5283.21 444.212   9
  -2  -2  -5 4625.40 415.677  10
  -2  -2  -5 4882.48 527.816   4
   2  -2   5 5105.23 569.317   9
   2   2   5 4532.90 515.187   8
   2   2   6 26088.7 1141.39   9
  -2   2  -6 24929.6 1363.08   4
   2  -2   6 27285.5 1398.18   9
   2   2   6 25331.1 1304.58   8
  -2  -2  -6 27124.3 1397.64   7
   2   2   6 26658.8 1331.97   5
  -2   2  -6 26445.0 1375.06  10
   2  -2   6 27539.4 1141.78   5
  -2  -2  -6 24704.7 1314.08   4
   2  -2   6 25582.3 1360.54   8
  -2  -2  -6 25341.7 1122.79  10
   2  -2   7 2030.40 438.720   8
   2  -2   7 1603.13 397.208   9
  -2  -2  -7 1828.96 432.849   4
  -2  -2  -7 2604.48 509.416   7
   2  -2   7 1656.43 331.080   5
  -2   2  -7 1401.05 390.108  10
  -2  -2  -7 1806.78 353.471  10
  -2   2  -7 2029.44 479.696   4
   2   2   7 2122.72 407.652   5
   2   2   7 1855.82 322.042   9
   2   2   7 1681.10 395.766   8
  -2  -2  -8 782.424 378.017   7
  -2  -2  -8 49.7679 192.484   4
  -2   2  -8 95.9802 237.486   4
   2  -2   8 294.142 248.348   8
  -2   2  -8 274.417 256.105  10
   2   2   8 225.092 169.824   9
   2   2   8 75.7938 236.322   5
  -2  -2  -8 83.6290 190.174  10
   2   2   8 433.084 285.588   8
   2  -2   8 70.6376 199.592   9
  -2  -2  -9 143.761 298.309   7
  -2  -2  -9 262.266 291.653   4
  -2   2  -9 121.782 267.198  10
  -2   2  -9-101.288 225.805   4
   2   2   9-34.3920 218.485   5
   2  -2   9 1.26821 252.952   9
   2   2   9 521.546 329.404   8
   2  -2   9-132.678 226.146   8
  -2   2 -10 1682.26 499.728   4
  -2   2 -10 928.933 301.448  10
  -2  -2 -10 1764.29 566.692   7
   2   2  10 2815.18 589.118   5
  -2  -2 -10 1608.34 397.978   4
   2  -2  10 1575.34 485.959   9
   2  -2  10 1482.22 433.670   8
  -2   2 -11 1990.69 605.384   4
   2  -2  11 2226.95 595.969   9
  -2   2 -11 1831.87 543.049  10
   2   2  11 3264.33 645.558   5
   2   3 -12 999.116 424.864  10
  -2  -3  12 293.838 271.684   9
  -2   3  12 870.012 427.711   5
   2  -3 -12 1801.36 645.170   7
   2  -3 -11 388.897 361.048   7
   2   3 -11 253.037 299.674  10
  -2   3  11 204.555 264.472   5
  -2  -3  11 457.656 390.105   9
   2  -3 -10 1308.66 429.335   7
   2   3 -10 515.294 323.476  10
  -2  -3  10 672.457 285.529   9
  -2   3  10 882.280 364.984   5
   2  -3 -10 1151.27 303.175  10
  -2   3  10 449.886 201.454   9
  -2  -3   9 4004.03 604.511   9
   2  -3  -9 4210.58 629.180   7
   2   3  -9 4640.54 635.590  10
  -2   3   9 3900.82 481.689   9
   2  -3  -9 3848.62 488.260  10
  -2   3   9 2421.17 483.761   5
   2   3  -9 4225.79 574.961   4
  -2   3   8 222.074 155.039   8
   2   3  -8 216.156 246.657  10
   2  -3  -8 285.844 235.690   7
   2  -3  -8 44.3952 117.220   4
  -2   3   8 172.771 184.873   9
   2   3  -8-234.401 223.614   4
  -2   3   8 15.4852 200.690   5
   2  -3  -8 269.912 193.513  10
  -2  -3   8 326.543 234.094   9
  -2  -3   8 405.261 179.068   2
   2  -3  -7 3835.96 414.133  10
  -2   3   7 3139.65 366.806   9
   2  -3  -7 3361.83 327.169   4
  -2  -3   7 2861.30 438.161   9
  -2   3   7 3479.62 322.675   8
   2  -3  -7 3780.54 531.856   7
  -2  -3   7 3409.91 404.457   2
  -2   3   7 2950.50 465.371   5
   2   3  -7 3271.07 472.162  10
   2  -3  -6 1612.32 329.859   7
  -2   3   6 1391.80 238.594   9
   2   3  -6 1476.94 297.859  10
  -2   3   6 1317.48 312.405   5
   2  -3  -6 1472.04 236.294  10
  -2  -3   6 1487.89 309.234   9
  -2   3   6 1535.99 213.623   8
  -2  -3   6 1485.98 267.031   2
   2  -3  -6 1912.24 223.546   4
   2  -3  -5 111.862 78.2146   4
  -2  -3   5-42.5434 133.662   9
   2  -3  -5 265.669 211.800   7
  -2   3   5 53.2878 100.448   9
  -2  -3   5 207.524 176.152   1
   2   3  -5 203.390 169.091  10
  -2  -3   5 233.203 139.970   2
  -2   3   5 166.468 183.400   5
  -2   3   5 344.333 123.262   8
   2  -3  -5 36.8981 104.440  10
  -2   3   4 14188.4 751.965   5
   2  -3  -4 13592.7 451.139   4
  -2   3   4 12793.6 733.706   6
  -2  -3   4 13680.5 729.935   9
  -2   3   4 13284.6 591.495   9
  -2  -3   4 12561.8 722.413   1
   2  -3  -4 12759.3 580.389  10
   2   3  -4 13344.3 724.334  10
  -2   3   3 2811.39 258.584   9
  -2   3   3 2749.15 314.835   6
  -2  -3   3 2714.06 289.715   9
   2   3  -3 2646.36 290.953  10
  -2   3   3 2787.20 296.848   5
  -2  -3   3 2942.29 341.001   1
   2  -3  -3 2440.25 246.768  10
   2  -3  -2 13177.5 419.400   4
   2  -3  -2 12114.6 633.585   1
  -2  -3   2 11888.9 542.185   9
   2   3  -2 11319.9 533.268  10
  -2   3   2 11947.9 550.722   5
  -2  -3   2 11992.9 590.162   1
  -2   3   2 11521.8 597.135   6
   2   3  -2 11977.1 590.909   6
  -2   3   2 12727.6 569.952   9
  -2   3   1 17366.1 747.523   6
  -2  -3   1 18417.9 671.290   1
  -2  -3   1 17904.3 597.880   9
   2  -3  -1 19755.5 813.038   1
  -2   3   1 18060.3 618.370   4
   2   3  -1 17879.9 599.982  10
   2   3  -1 18288.8 751.598   8
   2   3  -1 17574.9 709.004   6
   2   3  -1 18401.2 834.623   3
  -2   3   1 19632.8 608.623   5
   2   3   0 29241.1 966.144   6
  -2  -3   0 28694.7 704.918   9
   2   3   0 30016.6 1087.79   3
  -2  -3   0 30871.8 921.953   1
   2   3   0 29840.2 1035.23   8
  -2   3   0 30028.5 1044.12   6
   2   3   0 29604.5 711.498  10
   2   3   0 30535.4 723.435   9
  -2  -3   0 30229.3 988.015   2
  -2  -3   0 30662.5 720.119  10
   2  -3   0 29520.5 1097.70   1
  -2   3   0 28940.5 931.693   4
   2   3   1 44109.6 1392.55   8
   2  -3   1 46354.8 1539.91   1
   2   3   1 43887.6 1331.82   6
   2  -3   1 44419.6 1438.42   9
   2   3   1 42944.3 1396.27   3
  -2  -3  -1 46081.8 1256.75   2
  -2   3  -1 44751.3 1351.62   4
  -2  -3  -2 45668.1 979.054   9
  -2  -3  -2 48718.1 1246.15   2
   2   3   2 47693.5 989.794  10
  -2   3  -2 46427.9 1507.95   4
   2  -3   2 45162.9 1533.93   9
  -2  -3  -2 46834.6 1399.38   7
  -2  -3  -2 46971.5 1517.43   4
   2   3   2 47299.7 1510.61   8
   2  -3   2 42530.9 1611.51   1
  -2   3  -2 47099.7 1082.21   3
  -2   3  -2 46288.5 1543.49  10
   2  -3   2 45942.1 936.271   5
   2   3   2 47802.9 1503.58   6
  -2  -3  -3 12677.3 721.402   7
   2  -3   3 12104.3 855.187   1
  -2   3  -3 13279.9 817.070  10
   2  -3   3 13700.3 477.891   5
  -2  -3  -3 12693.9 470.357   9
   2  -3   3 13163.8 816.705   9
   2   3   3 12810.6 797.311   5
   2   3   3 13417.3 785.812   8
  -2   3  -3 12844.2 791.295   4
  -2  -3  -3 13098.2 783.470   4
  -2   3  -3 12761.3 480.956   3
  -2  -3  -3 12882.8 514.668   2
   2  -3   4 10566.0 769.724   9
   2  -3   4 11850.7 531.565   5
   2  -3   4 11971.2 869.152   1
  -2   3  -4 12582.8 843.275  10
  -2  -3  -4 11545.3 759.337   7
   2   3   4 11871.5 809.947   5
  -2  -3  -4 10942.9 782.771   4
   2   3   4 11701.9 775.350   8
  -2   3  -4 10560.4 774.862   4
  -2   3  -5 13029.2 932.013   4
  -2  -3  -5 12596.4 885.305   4
   2  -3   5 11858.0 889.096   9
   2  -3   5 13734.6 666.691   5
   2   3   5 11907.6 869.902   5
  -2   3  -5 12953.3 930.241  10
   2   3   5 11971.1 839.042   8
   2  -3   5 12522.8 973.559   1
  -2  -3  -5 13355.4 889.653   7
   2   3   5 12550.7 638.841   9
  -2  -3  -6 1885.32 400.875   4
   2   3   6 2691.87 471.773   5
  -2   3  -6 1552.35 376.888   4
   2  -3   6 2354.25 431.264   9
   2  -3   6 2371.38 319.629   5
   2   3   6 2051.79 392.376   8
   2   3   6 2227.83 293.920   9
  -2  -3  -6 2586.25 472.716   7
  -2  -3  -6 1994.83 279.455  10
  -2   3  -6 2223.96 430.028  10
  -2  -3  -7 8218.60 849.635   7
   2   3   7 6285.10 704.199   8
   2  -3   7 6418.31 759.778   9
  -2  -3  -7 7201.33 743.926   4
   2   3   7 5995.26 701.931   5
  -2   3  -7 6824.21 768.962  10
  -2   3  -7 6067.21 734.378   4
   2  -3   7 6128.85 733.515   8
   2  -3   8 3351.04 575.413   8
   2   3   8 2785.08 493.886   8
  -2  -3  -8 3533.90 620.739   7
  -2   3  -8 2481.17 517.442  10
   2   3   8 2682.82 540.299   5
  -2   3  -8 3671.64 626.850   4
   2  -3   8 1751.15 454.813   9
  -2  -3  -8 3043.72 532.556   4
   2   3   9 204.159 233.552   5
  -2  -3  -9 30.2457 257.327   7
  -2  -3  -9 309.891 250.857   4
  -2   3  -9 527.163 319.842  10
  -2   3  -9 393.664 292.090   4
   2   3   9 41.9078 232.582   8
   2  -3   9 528.943 338.562   9
   2  -3   9 44.5007 221.688   8
  -2  -3 -10 1505.49 514.301   7
  -2   3 -10 2240.58 552.928  10
  -2  -3 -10 2051.33 463.299   4
   2  -3  10 1566.83 467.172   9
   2  -3  10 2232.48 561.409   8
   2   3  10 2107.37 509.380   5
  -2   3 -10 1467.43 503.806   4
   2   3  11 3250.93 667.033   5
   2  -4 -12 4782.28 935.148   7
  -2  -4  12 6603.04 944.288   9
   2   4 -12 5771.24 903.886  10
  -2   4  12 6194.28 894.096   5
   2  -4 -11 558.993 407.483   7
  -2   4  11 1005.50 402.101   5
   2   4 -11 597.498 306.248  10
  -2  -4  11 310.176 307.072   9
   2  -4 -10 4378.32 728.623   7
  -2  -4  10 3725.75 631.177   9
   2   4 -10 4251.79 668.281  10
  -2   4  10 3433.83 593.414   5
   2  -4  -9-65.4554 276.698   7
  -2   4   9-90.1269 198.427   5
   2   4  -9-227.405 192.545  10
  -2  -4   9 158.904 231.780   9
  -2  -4   9 100.821 149.639   2
   2  -4  -8 26054.0 1139.01  10
   2   4  -8 24582.5 1417.07  10
  -2   4   8 24484.9 1417.93   5
  -2  -4   8 26257.6 1253.92   2
   2  -4  -8 24598.9 1457.07   7
  -2  -4   8 24053.6 1410.93   9
  -2   4   8 24877.6 1117.53   9
   2  -4  -7 12856.2 985.370   7
  -2  -4   7 11353.7 896.333   9
   2   4  -7 11198.0 887.335  10
   2  -4  -7 12658.8 703.335  10
  -2   4   7 10946.3 882.321   5
  -2   4   7 12091.7 690.215   9
   2  -4  -7 12353.1 633.914   4
  -2  -4   7 11512.9 800.953   2
  -2   4   7 13669.2 707.703   8
   2   4  -6 41641.0 1682.97  10
   2  -4  -6 40411.1 1721.85   7
  -2   4   6 45127.5 1367.67   8
  -2   4   6 44193.1 1366.07   9
  -2  -4   6 44820.6 1739.87   9
   2  -4  -6 44406.0 1242.35   4
   2  -4  -6 44882.5 1375.46  10
  -2   4   6 42475.5 1715.04   5
  -2  -4   6 42318.2 1756.15   1
  -2   4   5 173.330 147.260   5
   2  -4  -5 180.813 102.195   4
  -2   4   5 37.0526 181.011   6
   2   4  -5 188.746 185.203  10
   2  -4  -5 14.1677 90.2700  10
  -2  -4   5-166.768 144.051   9
  -2   4   5 13.1498 93.3643   9
  -2   4   5 41.2102 98.5328   8
  -2  -4   5 105.650 170.715   1
  -2   4   4 66429.1 2070.83   6
  -2   4   4 71586.4 1720.67   9
  -2  -4   4 68566.4 2012.65   9
  -2   4   4 70642.5 2061.77   5
  -2  -4   4 66342.8 2088.37   1
   2   4  -4 70387.6 2028.69  10
   2  -4  -4 70752.7 1591.37   4
   2  -4  -4 70111.7 1713.83  10
  -2  -4   3 967.809 262.865   1
  -2   4   3 740.221 218.432   6
   2   4  -3 966.194 206.749  10
  -2   4   3 1263.16 232.546   5
  -2   4   3 721.838 147.126   9
  -2  -4   3 882.490 185.119   9
   2  -4  -3 902.509 156.435  10
   2   4  -2 19657.6 950.425   3
  -2  -4   2 19577.3 761.007   9
   2  -4  -2 19019.2 903.602   1
   2   4  -2 18403.2 843.501   6
  -2  -4   2 17752.7 831.926   1
  -2   4   2 19479.7 886.432   6
  -2   4   2 20152.3 792.500   5
   2   4  -2 18406.1 746.603  10
  -2   4   1 539.691 177.609   6
   2  -4  -1 85.9812 191.786   1
   2   4  -1 267.773 160.773   6
   2   4  -1 603.977 227.790   3
  -2  -4   1 347.353 157.306   1
  -2  -4   1 380.408 107.293   9
  -2   4   1 425.103 129.107   5
   2   4  -1 539.390 178.195   8
   2   4  -1 425.393 104.558  10
   2   4   0 3486.16 197.844  10
   2  -4   0 4108.76 437.797   1
  -2  -4   0 3702.33 200.945  10
   2   4   0 3671.78 201.146   9
   2   4   0 3293.06 392.880   3
  -2   4   0 3975.07 342.224   4
  -2  -4   0 3403.86 196.038   9
  -2  -4   0 4076.42 348.612   1
   2   4   0 3709.86 360.855   6
   2   4   0 3605.63 372.019   8
  -2   4   0 4685.31 430.059   6
   2   4   1 309.644 158.988   8
   2  -4   1 100.479 122.182   9
   2   4   1 180.034 165.512   3
   2  -4   1 75.8756 29.3387   5
   2   4   1 91.1704 114.605   6
  -2   4  -1-42.4622 97.3288   4
   2  -4   1 162.869 203.958   1
  -2  -4  -1-3.14395 94.4669   2
  -2   4  -2 49004.4 1687.07  10
   2   4   2 49814.8 1639.23   6
   2  -4   2 48051.3 1680.40   9
  -2   4  -2 50925.4 1280.56   3
   2  -4   2 45767.6 1783.62   1
  -2   4  -2 48399.6 1617.76   4
   2   4   2 48707.5 1625.19   8
  -2  -4  -2 48980.1 1395.57   2
  -2  -4  -3 170.413 137.403   7
   2   4   3-114.062 150.831   6
   2   4   3-210.408 150.205   5
  -2   4  -3 31.1010 193.750  10
  -2   4  -3 93.9822 89.2746   3
   2  -4   3 36.3042 169.311   9
   2   4   3 185.491 176.999   8
  -2   4  -3 12.0790 182.291   4
   2  -4   3 313.430 283.064   1
  -2  -4  -3 101.674 148.884   4
  -2  -4  -3 22.2418 71.7368   2
   2  -4   4 1409.43 168.646   5
  -2  -4  -4 1259.62 162.756   2
  -2   4  -4 1537.68 201.358   3
   2  -4   4 1033.25 351.816   1
   2   4   4 1306.74 329.112   5
   2   4   4 1532.27 313.455   8
   2  -4   4 1403.71 335.964   9
  -2   4  -4 1523.41 344.383   4
  -2  -4  -4 1434.38 309.500   7
  -2  -4  -4 1343.14 319.456   4
  -2   4  -4 1092.16 308.401  10
  -2   4  -5 327.062 232.868  10
  -2   4  -5 516.977 260.448   4
   2  -4   5 213.739 244.363   1
   2  -4   5 561.496 266.859   9
   2  -4   5 531.479 151.286   5
   2   4   5 367.251 242.132   5
  -2  -4  -5 9.41219 169.431   4
   2   4   5 590.100 238.865   8
  -2  -4  -5 636.992 236.037   7
   2   4   6 21654.5 1232.49   8
  -2  -4  -6 21717.9 1276.33   7
  -2  -4  -6 19593.3 1201.32   4
  -2   4  -6 20929.3 1324.18  10
   2  -4   6 21772.4 1406.38   1
   2   4   6 20992.9 1290.52   5
  -2   4  -6 21033.6 1318.43   4
   2  -4   6 23297.7 1401.94   9
  -2  -4  -7 646.023 284.867   4
  -2   4  -7 925.515 339.491  10
  -2  -4  -7 841.857 335.779   7
   2  -4   7 71.4192 204.803   9
   2   4   7 657.146 283.495   5
  -2   4  -7 414.797 291.639   4
   2   4   7 477.115 259.522   8
  -2  -4  -8 1022.39 356.226   4
  -2  -4  -8 463.694 330.523   7
  -2   4  -8 867.520 414.959   4
  -2   4  -8 766.846 325.656  10
   2  -4   8 519.662 345.905   9
   2  -4   8 226.796 249.824   8
   2   4   8 365.427 296.463   5
   2   4   8 831.901 327.049   8
   2  -4   9 765.182 379.764   8
  -2  -4  -9 22.2510 209.895   4
   2   4   9 183.482 300.865   8
  -2   4  -9 262.853 307.494   4
  -2  -4  -9 764.061 433.114   7
   2  -4   9 285.770 303.544   9
   2   4   9 308.115 323.034   5
  -2   4  -9 613.536 348.020  10
  -2  -4 -10 1162.88 493.395   7
  -2   4 -10 1849.79 566.568  10
   2  -4  10 941.315 382.035   8
   2   4  10 102.701 251.598   5
  -2   4 -10 1015.68 465.437   4
   2  -4  10 982.646 438.003   9
  -2  -5  11 2299.64 610.833   9
   2  -5 -11 1576.38 496.865   7
  -2   5  11 1870.26 534.008   5
   2   5 -11 2408.88 626.777  10
   2   5 -10 5729.46 772.417  10
  -2   5  10 4951.16 747.829   5
  -2  -5  10 5888.99 808.819   9
   2  -5 -10 7769.40 953.893   7
   2  -5  -9 66.4328 251.776   7
  -2   5   9 289.396 261.307   5
   2   5  -9 516.742 291.044  10
  -2  -5   9 369.190 305.302   9
  -2  -5   9 218.687 194.575   2
   2  -5  -8 8841.94 892.059   7
  -2  -5   8 8663.50 876.699   9
  -2   5   8 6857.32 772.915   5
  -2  -5   8 9762.53 813.224   2
   2   5  -8 8840.75 869.320  10
   2  -5  -7 3706.90 558.846   7
  -2   5   7 2315.85 444.562   5
  -2  -5   7 2399.75 453.825   9
  -2  -5   7 3643.23 479.768   2
  -2  -5   7 2547.77 470.454   1
   2   5  -7 2736.96 464.905  10
  -2   5   7 3264.76 377.746   8
   2  -5  -7 3029.90 336.224  10
   2  -5  -6 13353.9 976.377   7
  -2  -5   6 13580.3 947.572   9
  -2   5   6 12713.8 928.446   5
  -2   5   6 12589.9 716.812   8
  -2  -5   6 12123.8 947.107   1
   2  -5  -6 13943.5 639.350   4
   2  -5  -6 12906.9 643.935  10
  -2   5   6 13441.2 651.568   9
   2   5  -6 12269.5 893.760  10
  -2   5   6 12569.6 961.013   6
   2   5  -5 803.112 265.573  10
  -2  -5   5 634.327 323.015   1
  -2  -5   5 259.158 165.223   9
  -2   5   5 379.232 128.150   9
  -2   5   5 216.774 170.664   5
  -2   5   5 613.826 258.770   6
   2  -5  -5 398.508 137.956   4
   2  -5  -5 129.746 108.749  10
   2  -5  -4 64634.9 1634.84  10
  -2  -5   4 64501.3 2005.02   9
  -2   5   4 65401.7 2126.94   6
  -2   5   4 64661.7 2038.99   5
  -2  -5   4 62683.6 2139.45   1
  -2   5   4 65531.7 1637.41   9
   2   5  -4 65046.8 2012.92  10
  -2   5   3 2720.18 371.968   6
  -2  -5   3 2286.47 380.706   1
  -2  -5   3 2513.74 321.288   9
  -2   5   3 2006.48 298.718   5
  -2   5   3 2554.66 268.738   9
   2   5  -3 2111.89 299.941  10
   2  -5  -3 2132.65 242.308  10
   2  -5  -3 2893.00 395.820   1
   2   5  -3 2073.00 349.341   6
   2   5  -3 2088.61 375.887   3
   2  -5  -2 12427.8 777.514   1
   2   5  -2 11091.2 593.946  10
   2   5  -2 10513.5 739.021   3
  -2   5   2 11853.7 650.067   5
  -2   5   2 10165.3 704.893   6
  -2  -5   2 11289.7 720.224   1
   2   5  -2 10523.9 687.990   6
  -2  -5   2 10771.0 580.126   9
  -2   5   1 807.149 245.067   6
   2   5  -1 378.057 113.978  10
  -2  -5   1 418.623 181.832   1
   2   5  -1 873.603 263.353   3
  -2  -5   1 466.003 111.901   9
   2  -5  -1 581.127 193.616   1
   2   5  -1 592.424 215.520   6
   2   5   0 77652.6 1626.81   9
   2   5   0 75082.1 2311.59   3
   2   5   0 79789.1 1653.47  10
  -2  -5   0 77246.7 1625.95  10
   2   5   0 79513.0 2207.79   6
  -2   5   0 78124.5 2287.73   6
  -2  -5   0 79994.0 2131.01   1
   2   5   0 81547.9 2267.63   8
   2  -5   0 78818.5 2358.23   1
  -2  -5   0 78063.9 1649.40   9
   2   5   1 2728.77 395.987   3
  -2   5  -1 2900.48 363.263   4
   2   5   1 3473.96 425.734   8
   2   5   1 2755.74 363.023   6
  -2   5  -1 2908.45 419.680   6
   2  -5   1 2961.23 194.397   5
   2  -5   1 3058.15 452.551   1
  -2  -5  -1 2673.58 351.418   1
  -2  -5  -2 137051. 2987.61   2
  -2   5  -2 137607. 2822.79   3
   2  -5   2 128129. 3515.98   1
  -2   5  -2 133742. 3230.50   4
   2   5   2 135151. 3280.70   6
   2   5   2 132355. 3260.71   8
   2  -5   2 137448. 3357.59   9
   2   5   3 8446.06 681.822   8
  -2  -5  -3 7968.04 644.635   7
   2  -5   3 8815.85 743.305   9
  -2   5  -3 8529.00 494.632   3
   2   5   3 9060.13 730.411   6
   2  -5   3 7559.48 788.287   1
  -2   5  -3 8980.32 744.529  10
  -2  -5  -3 8414.30 535.813   2
  -2  -5  -3 8336.77 675.805   4
  -2   5  -3 8881.94 720.808   4
  -2   5  -4 3675.93 496.111   4
   2  -5   4 3876.80 605.422   1
  -2  -5  -4 4007.37 485.403   7
   2   5   4 3767.38 490.085   8
   2  -5   4 4130.34 550.606   9
  -2   5  -4 4806.75 579.205  10
  -2  -5  -4 3457.20 316.878   2
  -2   5  -4 3909.35 317.548   3
  -2  -5  -4 4298.15 512.953   4
  -2   5  -5 752.376 268.782   4
  -2  -5  -5 1590.33 364.275   7
   2  -5   5 1680.41 433.475   1
   2  -5   5 1392.91 363.696   9
   2   5   5 731.204 291.832   5
  -2   5  -5 1037.15 326.248  10
   2   5   5 1153.88 283.651   8
  -2  -5  -5 1414.95 358.926   4
   2  -5   6 33372.2 1768.61   9
   2   5   6 33866.8 1599.85   8
   2   5   6 29688.8 1642.84   5
  -2  -5  -6 32690.1 1637.73   7
  -2  -5  -6 32396.5 1603.34   4
   2  -5   6 31529.8 1783.81   1
  -2   5  -6 29027.8 1643.46   4
  -2   5  -6 32477.9 1728.18  10
  -2  -5  -7-159.829 233.421   4
   2  -5   7-46.5082 310.348   1
   2   5   7 51.2492 218.933   5
  -2   5  -7 816.259 390.420  10
   2  -5   7-66.9788 226.452   9
  -2   5  -7-36.7024 240.636   4
   2   5   7 848.042 321.205   8
  -2  -5  -7 298.941 313.004   7
  -2   5  -8 45556.4 2343.62   4
  -2  -5  -8 50085.3 2364.77   7
   2  -5   8 49001.5 2438.64   9
  -2   5  -8 49432.4 2424.46  10
   2   5   8 47886.2 2336.08   5
   2   5   8 49381.3 2168.07   8
  -2  -5  -8 49179.9 2194.99   4
   2  -5   9 903.255 433.104   8
  -2   5  -9 771.473 380.267   4
   2   5   9 415.769 275.798   5
   2  -5   9 794.645 452.415   9
  -2   5  -9 353.535 272.643  10
  -2  -5  -9 644.078 465.098   7
  -2  -5 -10 1347.56 507.760   7
   2   5  10 1107.65 466.278   5
   2  -5  10 232.771 298.216   8
   2   6 -11 2494.15 594.820  10
  -2   6  11 2432.40 599.588   5
  -2  -6  11 1767.26 568.632   9
   2  -6 -11 2105.33 560.187   7
   2  -6 -10 6133.88 871.331   7
  -2  -6  10 5304.75 804.781   9
  -2   6  10 3717.26 670.767   5
   2   6 -10 4305.58 730.279  10
   2  -6  -9 2776.22 608.867   7
   2   6  -9 2145.68 524.747  10
  -2   6   9 1626.40 469.045   5
  -2  -6   9 1970.40 495.489   9
  -2  -6   9 2598.60 486.846   2
   2  -6  -8 31643.5 1766.83   7
  -2   6   8 30743.9 1728.47   5
  -2  -6   8 30037.7 1700.41   9
   2   6  -8 31539.6 1725.21  10
  -2  -6   8 31853.8 1618.91   2
  -2  -6   8 29055.3 1722.56   1
   2  -6  -7 421.509 240.840   7
   2   6  -7 1032.02 280.660  10
  -2  -6   7-65.1377 267.608   1
  -2  -6   7 1158.73 364.504   9
  -2   6   7 194.336 202.205   5
  -2   6   6 837.913 282.550   5
   2   6  -6 404.869 218.720  10
  -2  -6   6 239.074 200.904   9
  -2   6   6 905.702 329.922   6
  -2  -6   6 380.435 279.904   1
   2  -6  -6 851.359 315.307   7
  -2  -6   5 824.476 330.231   1
   2  -6  -5 246.638 125.483  10
   2   6  -5 598.836 239.083  10
  -2   6   5 183.565 254.385   6
  -2  -6   5 477.546 258.879   9
  -2   6   5 551.812 238.312   5
  -2   6   5 350.796 119.214   9
   2  -6  -5 151.379 111.274   4
   2  -6  -4 13017.8 929.099   1
   2   6  -4 12005.9 890.377   6
   2   6  -4 12195.3 879.039   3
  -2   6   4 10521.3 831.428   6
   2   6  -4 12501.9 807.828  10
  -2  -6   4 10781.8 871.215   1
  -2  -6   4 11300.9 782.759   9
  -2   6   4 13802.9 878.178   5
  -2   6   4 12643.9 589.790   9
   2  -6  -4 12086.1 578.457  10
  -2  -6   3 2371.14 464.586   1
  -2   6   3 2258.10 354.385   5
   2  -6  -3 1647.92 218.275  10
   2   6  -3 1799.34 381.383   3
   2   6  -3 2276.38 372.543   6
  -2   6   3 2080.09 256.981   9
   2   6  -3 2142.58 323.633  10
   2  -6  -3 1586.77 334.837   1
  -2   6   3 2390.97 395.675   6
  -2  -6   3 2615.77 350.019   9
  -2   6   2 52983.3 1691.56   5
   2   6  -2 55195.1 1891.81   6
  -2  -6   2 55295.4 1626.74   9
   2   6  -2 53948.7 1618.72  10
   2   6  -2 56211.9 2003.00   3
  -2   6   2 56412.8 1969.86   6
   2  -6  -2 55186.4 1967.61   1
  -2  -6   2 51837.0 1863.19   1
  -2   6   1 138.489 182.849   6
   2   6  -1 317.425 185.490   6
   2   6  -1 171.401 103.575  10
   2  -6  -1-35.6308 185.493   1
  -2  -6   1 286.224 134.163   9
   2   6  -1 619.097 262.566   3
  -2  -6   1 427.004 201.027   1
   2  -6   0 18851.3 1104.61   1
   2   6   0 19346.9 635.657  10
  -2   6   0 19259.2 1077.14   6
   2   6   0 19385.6 1032.02   6
  -2  -6   0 19540.5 987.542   1
   2   6   0 17394.7 1044.83   3
  -2  -6   0 18636.2 625.833   9
   2   6   0 18494.8 1023.32   8
  -2  -6  -1-118.957 144.856   1
   2  -6   1 507.697 302.890   1
   2   6   1 138.848 209.669   3
   2   6   1 80.6825 162.148   8
  -2   6  -1 93.1004 190.425   6
   2   6   1 8.32456 158.821   6
   2  -6   2 529.314 357.112   1
  -2   6  -2 88.9204 235.564   6
   2   6   2 165.693 177.119   8
   2  -6   2 679.070 248.685   9
  -2  -6  -2 582.368 234.960   1
   2   6   3 23.4112 171.473   6
  -2   6  -3 193.660 170.334   4
  -2   6  -3 402.802 152.548   3
   2  -6   3 460.744 360.691   1
  -2  -6  -3 333.349 227.593   4
   2  -6   3 136.973 232.661   9
   2   6   3 460.747 204.604   8
  -2  -6  -3 176.609 134.006   2
   2  -6   4 5217.98 642.048   9
   2   6   4 5850.67 686.130   6
   2  -6   4 6172.56 761.194   1
  -2  -6  -4 6472.97 640.191   7
  -2  -6  -4 5626.80 612.507   4
   2   6   4 5562.88 611.853   8
  -2  -6  -4 5708.66 453.919   2
  -2   6  -4 5042.65 609.830   4
  -2   6  -4 6143.75 686.879  10
  -2  -6  -5 197.142 219.301   7
  -2   6  -5-183.939 238.032   4
  -2   6  -5 13.1889 168.203  10
   2  -6   5 327.118 308.841   9
   2   6   5 70.5202 271.230   8
   2  -6   5 42.3227 253.002   1
  -2  -6  -5 406.185 245.403   4
  -2  -6  -6 11735.8 979.752   7
  -2   6  -6 10950.3 1022.09  10
  -2  -6  -6 10311.0 915.143   4
   2   6   6 11149.2 929.889   8
   2  -6   6 9562.10 1021.57   1
  -2   6  -6 8638.42 909.828   4
   2  -6   6 9750.69 981.265   9
  -2  -6  -7 253.638 242.256   7
  -2   6  -7 234.737 263.668   4
  -2   6  -7-49.3288 234.049  10
   2   6   7 516.241 348.998   5
   2  -6   7 333.808 260.737   9
  -2  -6  -7 341.195 261.642   4
   2   6   7 487.135 280.313   8
   2  -6   7-54.6134 265.417   1
  -2   6  -8 303.045 295.686   4
  -2   6  -8 1917.76 545.378  10
   2   6   8 1043.99 359.238   5
  -2  -6  -8 701.351 430.012   7
   2  -6   8 1380.88 498.119   9
   2   6   8 2089.35 459.062   8
  -2  -6  -9 704.281 405.517   7
  -2   6  -9 456.636 417.748   4
  -2   6  -9 613.749 399.642  10
   2  -6   9 285.828 396.630   9
   2  -7 -10 5053.57 856.706   7
  -2   7  10 4168.92 704.503   5
  -2  -7  10 3231.65 664.508   9
   2   7 -10 4332.88 776.792  10
   2  -7  -9 3477.56 667.695   7
   2   7  -9 2635.49 566.375  10
  -2  -7   9 2591.49 580.307   9
  -2   7   9 2271.99 554.910   5
  -2  -7   9 2842.18 570.456   2
  -2  -7   8-2.01881 307.184   1
  -2  -7   8 644.922 304.266   2
   2   7  -8 1550.36 450.629  10
  -2  -7   8 1102.11 389.338   9
  -2   7   8 737.267 337.924   5
   2  -7  -8 570.083 370.180   7
   2  -7  -7 1916.05 449.076   7
  -2  -7   7 2241.48 498.774   1
   2   7  -7 1757.39 451.993  10
  -2  -7   7 2479.92 509.517   9
  -2   7   7 1785.16 442.515   5
   2   7  -6 6076.50 707.515   3
   2   7  -6 6768.73 711.588  10
  -2  -7   6 6175.62 682.392   9
  -2   7   6 5485.54 678.512   5
  -2   7   6 7278.42 809.407   6
  -2  -7   6 5772.28 763.022   1
   2   7  -5 12312.3 908.141  10
  -2   7   5 12477.5 1015.24   6
   2  -7  -5 14233.2 1082.36   1
  -2  -7   5 14402.5 1003.91   9
   2   7  -5 15072.9 1056.16   3
  -2   7   5 13489.0 1000.01   5
   2   7  -5 13189.2 1034.49   6
  -2  -7   5 15103.3 1136.29   1
  -2   7   4 24408.0 1276.65   5
   2   7  -4 25097.2 1382.88   6
   2   7  -4 24295.7 1219.73  10
   2   7  -4 24351.1 1346.64   3
  -2  -7   4 22712.8 1189.89   9
  -2  -7   4 21989.5 1347.52   1
  -2   7   4 24805.8 1377.30   6
   2  -7  -4 26102.4 1427.61   1
  -2   7   3 18903.4 811.051   9
  -2  -7   3 18001.1 1181.23   1
   2   7  -3 17229.0 950.360  10
   2  -7  -3 19478.2 1180.64   1
  -2   7   3 18206.9 1138.15   6
   2   7  -3 16848.8 1085.13   6
  -2   7   3 16925.4 993.665   5
  -2  -7   3 17591.2 954.643   9
   2  -7  -3 17652.9 781.738  10
   2   7  -3 17063.5 1118.31   3
   2  -7  -2 1137.27 345.786   1
  -2  -7   2 1715.59 271.570   9
   2   7  -2 1732.21 284.630  10
   2   7  -2 1778.73 375.500   3
  -2  -7   2 1606.75 386.899   1
  -2   7   2 1311.07 325.787   6
   2   7  -2 1950.82 369.584   6
   2  -7  -1 950.446 303.697   1
  -2  -7   1 1588.18 353.949   1
  -2  -7   1 1399.93 231.614   9
   2   7  -1 1699.26 366.262   6
   2   7  -1 1515.10 240.663  10
   2   7  -1 1346.57 338.537   3
  -2   7   1 1312.79 330.151   6
   2   7   0 18358.5 1092.29   6
  -2   7   0 19823.7 1180.18   6
   2   7   0 17584.7 1140.88   3
   2  -7   0 16876.0 1153.62   1
  -2  -7   0 19447.2 1086.15   1
  -2  -7  -1 3094.67 433.536   1
  -2   7  -1 2665.23 475.802   6
   2   7   1 2977.58 453.073   6
   2  -7   1 3557.64 589.777   1
   2   7   1 3653.69 505.417   8
   2  -7   2 5684.44 733.117   1
   2   7   2 4827.26 579.440   8
   2   7   2 4835.27 612.590   6
  -2  -7  -2 5468.76 605.489   1
  -2   7  -2 6264.26 709.399   6
   2  -7   3 1900.68 493.273   1
  -2   7  -3 2322.60 502.381   6
   2   7   3 3324.46 490.907   8
   2   7   3 2520.36 478.667   6
   2  -7   3 2684.37 463.030   9
  -2  -7  -3 2785.12 444.668   1
  -2  -7  -3 2551.05 365.387   2
  -2  -7  -4 468.664 257.251   7
   2  -7   4-28.2517 221.735   9
   2   7   4 262.007 288.869   6
   2   7   4 637.012 288.878   8
   2  -7   4-56.6541 272.662   1
  -2  -7  -4 354.757 193.271   4
   2  -7   5 3048.34 630.506   1
  -2  -7  -5 3653.16 553.911   7
   2   7   5 3857.46 566.380   8
   2  -7   5 2356.77 486.987   9
  -2   7  -5 3308.67 588.628  10
  -2  -7  -5 3375.12 539.244   4
   2  -7   6 2101.39 523.542   9
  -2   7  -6 2755.96 555.555   4
  -2  -7  -6 2154.14 436.101   7
   2  -7   6 1941.28 542.746   1
   2   7   6 3606.64 564.170   8
  -2   7  -6 2424.80 556.320  10
  -2  -7  -6 2791.59 532.898   4
  -2  -7  -7 5965.54 816.885   7
   2   7   7 5567.46 734.786   8
  -2   7  -7 4137.11 735.407  10
  -2   7  -7 4800.84 759.482   4
   2  -7   7 3340.43 679.035   9
   2  -7   7 5683.59 858.620   1
  -2  -7  -8 576.654 327.092   7
   2  -7   8 1505.18 500.161   9
  -2   7  -8 1438.81 500.303  10
   2  -7   8 1108.71 378.087   1
   2   7   8 2373.58 530.868   8
  -2  -7  -9 618.153 424.095   7
   2  -8 -10 5659.25 909.786   7
   2   8 -10 5482.46 900.494  10
  -2  -8  10 5737.85 912.423   9
  -2   8  10 4690.25 803.847   5
   2   8  -9 500.874 345.945  10
   2  -8  -9 1008.66 500.473   7
  -2  -8   9 666.499 430.812   9
  -2  -8   9 340.874 303.104   1
  -2   8   9 847.574 465.174   5
  -2  -8   9 1392.08 421.461   2
  -2  -8   8 802.660 317.080   9
   2  -8  -8 1614.57 508.535   7
  -2  -8   8 1524.32 411.189   2
  -2   8   8 2684.71 590.356   5
  -2  -8   8 1075.11 373.604   1
   2   8  -8 1367.72 415.619  10
  -2   8   7 2683.62 621.758   6
   2   8  -7 1798.33 453.542   3
  -2  -8   7 1724.49 466.382   9
  -2   8   7 2068.04 498.830   5
   2  -8  -7 2377.67 487.781   7
   2   8  -7 1710.55 444.149  10
  -2  -8   7 1497.45 471.514   1
   2   8  -6 20170.1 1307.40  10
   2  -8  -6 19789.9 1416.04   1
   2   8  -6 21602.9 1377.87   3
  -2   8   6 17275.2 1259.41   5
  -2  -8   6 20134.2 1331.65   9
  -2   8   6 19906.8 1437.21   6
  -2  -8   6 19701.6 1418.36   1
   2   8  -6 20488.6 1434.01   6
   2   8  -5 1206.99 446.096   6
   2   8  -5 1658.47 388.150  10
  -2  -8   5 1516.50 366.595   9
   2   8  -5 1848.56 403.774   3
  -2   8   5 1154.91 379.651   5
  -2  -8   5 2124.73 527.694   1
  -2   8   5 1547.10 457.694   6
   2  -8  -5 1588.86 413.086   1
   2  -8  -4 375.080 269.123   1
   2   8  -4 190.447 213.846  10
  -2  -8   4 304.595 216.633   9
   2   8  -4 291.588 268.073   3
  -2   8   4 458.726 328.732   6
   2   8  -4 417.338 303.478   6
  -2  -8   4 102.728 304.379   1
  -2  -8   3 1236.86 426.068   1
   2  -8  -3 1129.72 373.080   1
   2   8  -3 628.589 319.350   6
  -2   8   3 651.827 285.878   6
   2   8  -3 1523.70 330.410  10
   2   8  -3 1265.86 376.705   3
  -2  -8   3 1072.83 282.695   9
  -2  -8   2 10988.5 926.386   1
   2   8  -2 13255.9 794.691  10
   2   8  -2 11909.0 962.777   6
  -2   8   2 12072.7 1004.05   6
   2   8  -2 11109.7 936.197   3
   2  -8  -2 11179.2 959.925   1
  -2  -8   2 11612.9 756.116   9
   2   8  -1 883.839 332.335   6
  -2   8   1 779.113 314.044   6
   2   8  -1 1015.64 325.653   3
  -2  -8   1 1204.64 369.943   1
   2  -8  -1 1073.29 363.510   1
  -2   8   0 10104.4 907.235   6
  -2  -8   0 10320.1 856.075   1
   2   8   0 11204.5 931.565   6
   2   8   0 9175.42 872.120   3
   2  -8   0 10463.6 961.129   1
  -2  -8  -1 1329.96 336.915   1
  -2   8  -1 1535.53 425.611   6
   2   8   1 1492.19 386.038   6
   2  -8   1 1052.69 357.015   1
  -2   8  -2 3775.27 604.866   6
   2   8   2 4323.76 587.792   6
   2   8   2 4186.74 587.562   8
  -2  -8  -2 4027.88 545.989   1
   2  -8   2 2974.98 622.145   1
   2   8   3 424.411 270.605   8
  -2  -8  -3 106.776 215.386   1
   2   8   3-76.3088 205.911   6
  -2   8  -3 408.487 269.246   6
   2  -8   3 481.026 382.747   1
  -2  -8  -3 81.4925 155.578   2
   2   8   4 821.182 314.568   8
   2   8   4 961.903 356.851   6
   2  -8   4 786.175 365.709   9
  -2   8  -4 1082.09 420.473   6
  -2  -8  -4 711.964 269.983   4
  -2  -8  -4 552.183 229.620   7
   2  -8   4 687.907 376.827   1
  -2  -8  -4 1132.11 363.247   1
   2  -8   5 3401.83 682.160   1
  -2  -8  -5 3970.30 592.284   7
   2   8   5 2622.55 564.948   6
   2   8   5 3467.27 581.315   8
   2  -8   5 4221.09 684.916   9
  -2   8  -5 3876.45 709.958   6
  -2  -8  -5 2928.94 512.103   4
  -2  -8  -6 3464.64 619.123   7
   2  -8   6 3140.22 713.558   1
   2  -8   6 1919.05 511.969   9
   2   8   6 3294.43 565.183   8
  -2  -8  -7 814.257 334.809   7
   2  -8   7 1249.22 458.529   9
   2   8   7 1199.87 438.171   8
   2  -8   7 1841.69 528.497   1
  -2  -8  -8 874.630 370.824   7
   2  -8   8 637.681 452.732   9
   2  -8   8 944.089 544.410   1
   2   9  -9 12.5625 332.481   6
   2  -9  -9 247.894 308.909   1
  -2   9   9 1052.41 454.461   5
   2   9  -9 846.050 389.427  10
  -2  -9   9 523.962 358.024   9
  -2  -9   9 391.268 334.878   2
  -2  -9   9 47.0908 384.732   1
   2  -9  -9 139.547 285.085   7
   2   9  -8 410.287 439.201   6
   2   9  -8 155.681 284.031  10
  -2  -9   8 234.796 230.742   9
  -2   9   8 716.798 342.572   5
  -2  -9   8-125.934 311.724   1
  -2  -9   8 209.224 244.210   2
   2  -9  -8 605.373 380.494   1
   2  -9  -8 277.371 339.088   7
  -2   9   7 573.153 390.575   6
   2   9  -7 287.938 336.670   6
   2   9  -7 132.953 251.023  10
  -2  -9   7 374.617 362.655   1
   2  -9  -7-114.714 268.936   1
   2   9  -7 594.139 353.652   3
  -2  -9   7 92.5514 233.233   9
   2  -9  -7 61.3763 297.859   7
  -2   9   7 6.21067 266.151   5
   2   9  -6 2054.31 482.485  10
  -2   9   6 2456.71 578.111   6
   2  -9  -6 2248.85 533.923   1
   2   9  -6 2658.43 577.934   6
   2   9  -6 2116.02 470.359   3
  -2  -9   6 2239.02 513.226   9
  -2  -9   6 2508.98 628.537   1
  -2   9   6 1684.50 453.435   5
   2  -9  -5 1384.75 448.157   1
  -2   9   5 1183.44 414.375   6
   2   9  -5 1468.56 475.953   6
  -2  -9   5 1345.07 381.762   9
   2   9  -5 1213.93 380.697   3
   2   9  -5 1227.92 371.163  10
  -2  -9   5 576.200 371.473   1
  -2  -9   4 13690.4 1210.58   1
   2   9  -4 13810.0 1015.83  10
  -2   9   4 14759.8 1211.60   6
   2   9  -4 13518.1 1139.49   6
   2   9  -4 14356.4 1147.35   3
  -2  -9   4 14806.1 1052.13   9
   2  -9  -4 15005.1 1219.33   1
  -2  -9   3 277.465 347.273   1
   2  -9  -3-503.010 346.029   1
  -2  -9   3 247.296 231.708   9
   2   9  -3 27.2903 234.683   6
   2   9  -3 336.085 228.299  10
  -2   9   3 476.380 285.332   6
   2   9  -3 100.585 226.896   3
  -2   9   2 21643.6 1417.93   6
   2  -9  -2 20912.2 1420.65   1
   2   9  -2 19280.0 1334.48   3
  -2  -9   2 20604.2 1420.73   1
   2   9  -2 20873.0 1355.28   6
  -2  -9   1 192.315 237.601   1
  -2   9   1 281.822 288.437   6
   2   9  -1 166.146 214.004   6
   2  -9  -1-230.437 292.178   1
   2   9  -1 62.8673 231.794   3
   2   9   0 29887.2 1629.33   6
   2  -9   0 28696.9 1737.21   1
  -2   9   0 32930.9 1787.55   6
  -2  -9   0 30358.7 1649.76   1
  -2  -9  -1 3117.53 535.981   1
   2  -9   1 2945.49 608.111   1
   2   9   1 2521.62 498.178   6
  -2   9  -1 2242.64 487.117   6
  -2   9  -2 36423.5 1979.57   6
   2  -9   2 34920.6 2060.37   1
  -2  -9  -2 39030.9 1880.09   1
   2   9   2 37594.6 1890.84   6
  -2   9  -3 605.441 338.453   6
  -2  -9  -3 269.822 252.304   1
  -2  -9  -3 666.161 280.891   2
   2   9   3 564.747 319.479   6
   2  -9   3 220.045 317.144   1
  -2   9  -4 21180.4 1572.82   6
  -2  -9  -4 22090.0 1407.22   7
   2   9   4 20916.2 1502.73   6
  -2  -9  -4 21099.5 1455.69   1
  -2  -9  -4 21507.4 1372.06   4
   2  -9   4 18628.4 1559.21   1
   2   9   4 22127.2 1450.24   8
   2  -9   5 576.001 479.013   1
   2   9   5-125.722 214.181   8
  -2  -9  -5-252.874 267.518   1
  -2   9  -5 553.847 389.952   6
   2   9   5 223.859 402.408   6
  -2  -9  -5 1.81959 220.887   7
   2  -9   6 5299.97 883.234   1
  -2   9  -6 7586.27 1054.51   6
   2   9   6 6999.00 872.134   8
   2  -9   6 5759.23 877.818   9
  -2  -9  -6 5909.66 800.494   7
  -2  -9  -6 5941.07 847.488   1
   2  -9   7 1504.46 532.174   1
  -2  -9  -7 1019.46 401.696   7
  -2   9  -7 856.270 541.709   6
   2  -9   7 554.217 349.742   9
   2   9   7 1344.52 449.004   8
   2  10  -8 14990.6 1483.86   6
   2 -10  -8 15212.8 1501.72   1
  -2 -10   8 12865.3 1264.06   9
  -2 -10   8 13772.5 1327.61   2
   2  10  -8 13594.9 1311.00  10
  -2 -10   8 10900.4 1238.90   1
   2  10  -7 1892.08 486.426  10
  -2 -10   7 1336.46 389.958   9
   2  10  -7 2313.58 607.014   6
   2 -10  -7 2477.26 586.301   7
  -2 -10   7 2588.36 658.535   1
  -2  10   7 1891.33 609.439   6
   2 -10  -7 3042.54 689.944   1
   2 -10  -6 6686.72 935.763   1
  -2 -10   6 4540.45 793.535   1
   2  10  -6 5801.32 761.526  10
   2  10  -6 6102.12 894.871   6
  -2 -10   6 5755.98 773.066   9
   2  10  -6 6177.72 790.893   3
  -2  10   6 6830.24 991.993   6
  -2 -10   5 114.971 216.125   9
  -2  10   5 102.708 272.075   6
   2 -10  -5-278.625 303.589   1
   2  10  -5 628.108 307.945  10
   2  10  -5 829.040 406.005   6
   2  10  -5 326.447 289.712   3
  -2 -10   5-315.774 390.322   1
   2 -10  -4 4495.55 729.242   1
   2  10  -4 4370.41 716.872   6
  -2 -10   4 4824.51 801.671   1
   2  10  -4 4633.34 692.711   3
  -2  10   4 4759.07 756.770   6
  -2 -10   3 4538.73 754.538   1
  -2  10   3 4075.50 687.710   6
   2 -10  -3 4098.07 718.235   1
   2  10  -3 3311.44 648.804   6
   2  10  -3 3042.48 590.986   3
   2 -10  -2 11291.1 1139.61   1
  -2  10   2 10914.1 1084.64   6
  -2 -10   2 9671.16 1026.15   1
   2  10  -2 9537.28 986.901   3
   2  10  -2 12931.5 1130.07   6
   2  10  -1 536.427 297.338   6
  -2 -10   1 937.346 468.440   1
   2 -10  -1 266.479 362.650   1
  -2  10   1 1015.69 367.153   6
   2  10   0 2714.75 556.772   6
  -2  10   0 3440.26 623.262   6
  -2 -10   0 2744.70 550.258   1
   2 -10   0 2298.01 547.396   1
   2  10   1-118.235 214.229   6
  -2  10  -1 226.786 283.414   6
   2 -10   1 78.1646 318.768   1
  -2 -10  -1 656.231 383.251   1
   2 -10   2 3339.81 738.908   1
   2  10   2 5547.22 791.110   6
  -2  10  -2 3326.77 670.956   6
  -2 -10  -2 3402.76 595.821   1
  -2 -10  -2 4412.06 610.910   2
  -2 -10  -3 172.621 313.884   1
   2 -10   3-363.255 397.805   1
   2  10   3 471.903 359.094   6
  -2  10  -3 117.198 275.696   6
  -2 -10  -4-129.352 212.533   1
   2  10   4 767.822 362.143   6
   2 -10   4 775.621 567.321   1
  -2  10  -4 778.456 390.716   6
  -2 -10  -4 404.121 225.039   7
   2 -10   5 952.662 579.622   1
  -2 -10  -5-35.4650 213.038   7
  -2  10  -5 654.707 428.573   6
   2  10   5 705.309 417.232   6
  -2 -10  -5-6.65461 228.824   1
  -2 -10  -6 1429.79 419.378   7
  -2 -10  -6 264.895 283.440   1
  -2 -11   7 375.687 395.226   9
  -2 -11   7 46.3432 322.593   1
   2 -11  -6 462.672 434.939   1
  -2 -11   6 83.2758 420.090   1
  -2  11   6-294.794 330.017   6
   2  11  -6-292.959 386.335   6
   2 -11  -5 1509.22 522.150   1
   2  11  -5 2552.89 598.441   6
  -2  11   5 1384.15 493.309   6
   2  11  -5 1336.72 436.994   3
  -2 -11   5 1532.90 564.009   1
   2  11  -4 13956.8 1313.19   6
   2 -11  -4 12759.3 1287.38   1
  -2 -11   4 11564.1 1252.73   1
  -2  11   4 13981.5 1344.70   6
   2  11  -4 10886.9 1092.89   3
   2 -11  -3 1308.58 542.884   1
  -2 -11   3 1607.88 559.514   1
  -2  11   3 1422.98 469.853   6
   2  11  -3 1398.23 481.933   6
   2  11  -3 1168.41 417.196   3
   2  11  -2 680.078 394.922   6
  -2  11   2 658.364 374.115   6
   2 -11  -2 235.265 306.406   1
  -2 -11   2 234.576 330.563   1
  -2 -11   1 3102.96 664.366   1
  -2  11   1 2740.28 644.962   6
   2  11  -1 2499.29 574.199   6
   2 -11  -1 3397.83 734.027   1
   2  11   0 2180.54 526.050   6
  -2  11   0 1767.80 544.708   6
   2 -11   0 1376.68 568.677   1
  -2 -11   0 1474.90 516.689   1
  -2  11  -1 2522.26 656.168   6
   2  11   1 4902.65 751.022   6
  -2 -11  -1 4574.29 756.400   1
   2 -11   1 3996.63 786.913   1
  -2  11  -2 19919.3 1627.84   6
   2 -11   2 21984.0 1796.17   1
  -2 -11  -2 18708.7 1338.60   2
   2  11   2 19421.3 1522.20   6
  -2 -11  -2 16577.5 1382.61   1
   2 -11   3 1976.59 632.294   1
   2  11   3 3188.07 660.876   6
  -2  11  -3 1298.11 432.508   6
  -2 -11  -3 2105.68 501.256   1
  -2 -11  -4 420.635 243.772   7
  -2 -11  -4 877.695 409.689   1
   2  11   4 745.981 340.509   6
   2 -11   4 78.7106 329.566   1
  -2  11  -4 293.970 460.354   6
  -2 -11  -5 1706.41 524.038   1
  -2 -11  -5 2028.86 482.460   7
  -2 -12   5-62.6479 361.219   1
  -2 -12   4 210.546 343.172   1
   2 -12  -4 1005.64 505.945   1
   2  12  -4 888.567 375.809   6
   2  12  -3 540.131 332.216   6
   2 -12  -3 1717.37 613.865   1
  -2 -12   3 866.523 498.344   1
  -2 -12   2 630.538 419.472   1
   2  12  -2 1129.85 506.136   6
   2 -12  -2 2223.66 661.025   1
  -2  12   2 930.020 440.006   6
   2  12  -1 299.621 332.403   6
  -2  12   1 266.142 304.958   6
   2 -12  -1 477.466 419.183   1
  -2 -12   1 1459.58 591.883   1
  -2 -12   0 7041.80 990.548   1
   2  12   0 7122.02 965.076   6
  -2  12   0 7105.74 1028.08   6
   2 -12   0 5666.17 968.948   1
   2  12   1-24.0272 281.403   6
  -2  12  -1-142.889 318.803   6
  -2 -12  -1 792.463 515.060   1
  -2 -12  -1 141.773 257.269   2
   2 -12   1 1242.51 629.683   1
   2 -12   2 1715.23 643.673   1
   2  12   2 1210.30 472.912   6
   3   0 -13 74.3295 270.086  10
  -3   0  13-59.1200 258.227   5
  -3   0  13 95.6651 211.852   9
  -3   0  12 376.424 268.910   9
   3   0 -12-87.8283 248.946  10
  -3   0  11 445.133 241.852   9
   3   0 -11 322.557 296.069  10
   3   0 -11 423.121 359.090   7
   3   0 -10 5919.65 699.616  10
   3   0 -10 5848.31 802.693   7
  -3   0  10 6329.87 692.359   9
   3   0 -10 6023.87 610.385   4
   3   0  -9 119.559 198.322   7
   3   0  -9 404.019 237.735  10
  -3   0   9 84.3982 156.759   9
   3   0  -9 132.151 147.414   4
   3   0  -8 1873.92 301.655   4
   3   0  -8 1859.24 367.242  10
   3   0  -8 1732.23 425.566   7
  -3   0   8 2062.89 375.374   9
  -3   0   8 2026.92 234.835   8
   3   0  -7 80.8579 178.555  10
  -3   0   7 361.005 191.293   9
   3   0  -7 26.9734 133.319   4
  -3   0   7 56.6741 77.0922   8
   3   0  -6 9540.82 686.846   7
  -3   0   6 9819.48 652.840   9
  -3   0   6 8767.40 364.939   8
  -3   0   6 9986.95 541.779   2
   3   0  -6 9502.59 644.507  10
   3   0  -5 1.57300 137.701   7
   3   0  -5-54.2701 111.145  10
  -3   0   5 61.1797 133.926   9
  -3   0   5 21.1449 110.184   2
  -3   0   5 11.0207 23.1537   8
  -3   0   5 62.9691 38.7591   8
   3   0  -4 1006.58 184.726   7
   3   0  -4 801.336 176.579  10
  -3   0   4 850.372 176.080   2
  -3   0   4 654.761 159.974   9
   3   0  -3-28.5393 75.1111   7
   3   0  -3 113.754 44.2980   8
  -3   0   3 107.071 109.907   2
  -3   0   3 30.2160 100.534   9
  -3   0   3 36.7368 44.1007   8
   3   0  -3-37.5221 96.8244  10
   3   0  -2 22976.0 611.068   7
   3   0  -2 23112.5 806.816  10
  -3   0   2 22663.5 806.169   9
   3   0  -2 22462.8 664.195   8
  -3   0   2 25439.6 695.678   8
  -3   0   1 138.375 72.4627   1
   3   0  -1 266.389 96.2093   1
  -3   0   1 94.4767 96.5115   4
  -3   0   1-43.3073 107.996   9
   3   0  -1-144.559 120.396   8
   3   0   0 8905.21 369.597   7
  -3   0   0 8594.17 518.979   4
  -3   0   0 9306.88 428.267   1
   3   0   0 8757.70 405.262   1
   3   0   0 8076.71 491.308   8
  -3   0  -1 27.2389 123.714   4
   3   0   1 10.8435 94.9804   1
   3   0   1 158.848 71.9982   3
   3   0   1 15.0051 124.098   8
  -3   0  -2 5636.86 308.437   3
  -3   0  -2 4774.46 465.893   4
   3   0   2 5404.51 491.811   8
   3   0   3-55.1930 133.737   9
   3   0   3 194.505 142.810   5
  -3   0  -3 74.7190 212.561   4
   3   0   3-7.90783 156.194   8
   3   0   4 8714.19 599.785   5
   3   0   4 8294.80 714.585   8
   3   0   4 9136.73 650.168   9
  -3   0  -4 8273.14 707.919   4
  -3   0  -5-177.245 192.473   4
   3   0   5 309.372 197.668   5
   3   0   5 229.338 206.502   9
   3   0   5 128.991 245.178   8
  -3   0  -5 83.7832 174.884  10
   3   0   6 14874.4 929.362   5
  -3   0  -6 14057.4 952.942  10
   3   0   6 14584.2 976.150   9
   3   0   6 13801.9 1030.09   8
  -3   0  -6 13521.2 1025.91   4
  -3   0  -7 1.64164 218.024   4
   3   0   7 326.242 242.004   5
   3   0   7 356.069 197.855   9
   3   0   7 118.135 191.201   8
  -3   0  -7 493.695 271.549  10
  -3   0  -8 208.365 272.611   4
   3   0   8 372.018 304.721   8
   3   0   8 449.665 269.388   9
   3   0   8 462.296 244.008   5
   3   0   9 169.114 210.755   8
  -3   0  -9 164.074 262.966   4
   3   0   9 301.979 300.028   9
  -3   0 -10 927.450 419.533   4
   3   0  10 589.719 310.993   8
   3  -1 -13 2533.03 710.445   7
  -3   1  13 2073.42 561.945   5
   3   1 -13 1335.19 429.649  10
   3  -1 -13 2066.62 498.394  10
  -3  -1  13 1327.61 445.538   5
  -3  -1  13 2506.08 589.483   9
  -3   1  13 1700.28 471.820   9
   3   1 -12 14965.2 1258.71  10
   3  -1 -12 15461.2 1216.55  10
  -3   1  12 16137.3 1241.57   9
  -3   1  12 13487.3 1223.97   5
  -3  -1  12 14731.1 1258.20   9
   3  -1 -12 16594.2 1496.27   7
   3  -1 -11 919.115 472.076   7
  -3  -1  11 830.411 349.056   9
  -3   1  11 470.517 251.152   9
   3   1 -11 629.702 328.899  10
   3  -1 -11 449.387 248.673  10
   3   1 -10 3528.86 673.860   7
  -3   1  10 3102.91 494.474   9
   3  -1 -10 2669.30 611.103   7
   3   1 -10 3716.18 516.537   4
  -3  -1  10 1778.15 435.761   9
   3   1 -10 3003.57 529.992  10
   3  -1 -10 3687.01 549.321  10
   3   1  -9 12987.3 1087.84   7
   3  -1  -9 13425.7 1061.90   7
   3   1  -9 14309.0 1022.88  10
  -3  -1   9 13019.0 971.192   9
   3  -1  -9 13699.7 957.481  10
  -3   1   9 14851.0 991.324   9
   3  -1  -9 13280.0 794.268   4
   3   1  -9 13635.1 896.196   4
  -3  -1   8 420.029 175.012   8
   3   1  -8 1107.35 404.683   7
   3  -1  -8 573.520 290.115   7
  -3  -1   8 376.837 151.051   2
  -3   1   8 376.108 193.234   9
   3   1  -8 606.446 219.084   4
   3  -1  -8 535.441 175.546   4
  -3  -1   8 567.577 216.809   9
   3   1  -8 114.061 176.198  10
   3  -1  -8 813.663 251.256  10
  -3   1   7 70998.6 2121.76   9
   3   1  -7 65282.0 2244.05   7
   3  -1  -7 66628.0 2073.00  10
  -3  -1   7 66993.1 2168.67   9
  -3   1   7 68161.4 1481.42   8
   3   1  -7 67309.1 2176.68  10
   3  -1  -7 68664.9 2265.02   7
  -3  -1   7 67757.5 1867.99   2
   3  -1  -7 69831.8 1793.38   4
   3   1  -6 11786.8 783.102   7
   3  -1  -6 13204.5 805.794   7
  -3   1   6 10700.5 338.271   8
  -3   1   6 12585.2 727.061   9
  -3  -1   6 12093.7 754.742   9
   3   1  -6 11816.3 742.322  10
  -3  -1   6 11888.5 635.896   2
   3  -1  -6 12628.2 551.260   4
   3  -1  -6 12142.8 715.062  10
   3   1  -5 18322.9 871.940   7
   3  -1  -5 18718.1 881.310   7
  -3  -1   5 19009.4 790.531   2
   3   1  -5 18444.6 867.809  10
  -3  -1   5 17829.5 857.594   9
  -3   1   5 18242.5 830.325   9
   3  -1  -5 17194.3 810.177  10
   3  -1  -4 15831.9 727.549   7
  -3  -1   4 15903.2 745.620   9
  -3   1   4 15185.9 704.677   9
   3   1  -4 15280.8 690.390   7
  -3  -1   4 15877.0 703.787   2
  -3   1   4 16382.0 457.532   4
   3  -1  -4 14296.4 688.562  10
  -3  -1   4 17265.5 526.228   8
   3   1  -4 15506.5 737.877  10
   3   1  -3 33958.5 949.830   7
   3  -1  -3 35386.3 1095.15  10
  -3  -1   3 34936.6 1095.24   9
  -3   1   3 36031.6 1104.53   9
   3   1  -3 35718.0 1106.58  10
   3  -1  -3 33690.0 754.722   8
   3   1  -3 33240.1 868.741   8
  -3  -1   3 40082.4 919.910   8
   3   1  -3 37250.8 947.595   1
  -3  -1   3 34594.3 1089.71   2
  -3  -1   2 6656.89 229.082   7
   3  -1  -2 6089.42 337.688   1
  -3   1   2 5718.38 396.141   9
   3  -1  -2 6395.24 407.159  10
  -3  -1   2 5393.60 361.401   9
   3   1  -2 5804.54 367.698  10
  -3   1   2 5603.97 273.493   6
   3  -1  -2 6224.77 275.631   6
  -3   1   2 5831.53 284.679   4
   3   1  -2 6096.16 330.851   8
  -3  -1   2 5443.84 379.389   2
  -3  -1   1 122399. 2597.43   9
   3   1  -1 123327. 2590.88  10
   3  -1  -1 125944. 2553.35   1
  -3  -1   1 129205. 2297.16   6
   3   1  -1 122366. 2630.63   8
  -3   1   1 121213. 2375.10   6
  -3  -1   1 124382. 2680.32   2
  -3   1   1 123155. 2564.01   4
   3   1  -1 124444. 2285.15   6
  -3  -1   0 10692.1 380.467   7
   3  -1   0 11874.0 571.214   1
   3   1   0 12260.7 395.592   7
  -3  -1   0 12756.0 635.575   4
  -3  -1   0 12031.9 451.164   6
   3   1   0 10752.8 511.736   3
   3   1   0 11348.6 599.926   8
  -3  -1   0 13528.3 445.187   1
  -3   1   0 11477.6 576.132   4
  -3  -1   0 11539.5 547.755   2
  -3  -1  -1 70695.9 1949.40   4
   3   1   1 68122.9 1900.19   8
   3   1   1 69860.1 1649.30   3
  -3  -1  -1 66565.3 1612.58   7
  -3   1  -1 71409.9 1898.16   4
   3  -1   1 71463.9 1851.29   1
  -3  -1  -2 13875.4 672.456   7
   3  -1   2 13638.0 792.484   8
   3  -1   2 13594.5 751.113   1
  -3  -1  -2 14014.1 800.657   4
  -3   1  -2 13317.7 768.553   4
   3   1   2 14796.7 815.180   8
  -3  -1  -3 26064.1 1080.53   7
   3   1   3 25079.6 1047.43   5
   3  -1   3 25228.0 906.601   5
   3  -1   3 25365.5 1142.03   1
  -3  -1  -3 24802.1 1164.26   4
  -3   1  -3 24830.9 1158.51   4
   3   1   3 23384.4 1137.00   8
   3  -1   3 25564.6 1187.88   8
  -3   1  -3 23394.7 647.708   3
   3  -1   3 27182.5 1146.43   9
   3  -1   4 610.984 230.536   8
  -3  -1  -4 875.075 281.460   4
  -3  -1  -4 1161.82 320.905   7
   3   1   4 654.755 229.148   5
  -3   1  -4 984.534 282.679   4
   3  -1   4 1043.72 223.165   5
   3   1   4 390.368 135.650   9
   3  -1   4 904.185 237.237   9
  -3   1  -4 704.269 244.981  10
   3   1   4 602.592 237.733   8
  -3  -1  -5 2154.45 411.992   4
  -3  -1  -5 2343.85 398.592   7
  -3   1  -5 1932.75 411.618   4
  -3   1  -5 2114.16 402.037  10
   3   1   5 2115.02 335.734   9
   3  -1   5 2498.14 400.575   9
   3  -1   5 2545.33 336.624   5
   3   1   5 2321.73 378.978   5
   3   1   5 2318.24 417.482   8
   3  -1   5 2078.85 418.357   8
  -3  -1  -6 2405.49 479.869   7
  -3  -1  -6 1272.71 331.338   4
  -3   1  -6 2391.86 461.970   4
   3  -1   6 2266.89 403.367   9
   3   1   6 2310.25 394.479   9
   3  -1   6 2974.68 402.090   5
   3   1   6 2229.29 401.480   5
  -3   1  -6 2057.73 406.977  10
   3   1   6 2305.64 491.520   8
   3  -1   6 1641.97 378.451   8
   3   1   7 2814.93 463.354   5
  -3  -1  -7 2709.57 522.900   4
  -3   1  -7 3378.69 568.056   4
  -3   1  -7 2782.49 503.487  10
   3   1   7 3136.28 466.733   9
   3  -1   7 3854.00 566.332   9
   3  -1   7 3239.54 457.781   5
   3   1   7 3503.18 576.725   8
   3  -1   7 3146.68 579.897   8
  -3  -1  -8 4858.48 699.848   4
   3   1   8 6071.34 684.267   9
   3  -1   8 5181.73 696.070   9
   3   1   8 5698.45 697.272   5
  -3   1  -8 6249.85 756.203  10
  -3   1  -8 5375.64 757.762   4
   3   1   8 6079.66 762.009   8
   3  -1   8 5654.25 750.816   8
  -3  -1  -9 4876.65 761.673   4
   3   1   9 6703.06 807.052   5
   3  -1   9 6301.34 824.333   9
  -3   1  -9 6103.80 848.390   4
   3   1   9 5396.75 768.050   8
   3  -1   9 5675.41 805.240   8
   3  -1  10 239.977 265.726   9
  -3  -1 -10 384.144 271.656   4
  -3   1 -10-147.873 396.803   4
   3   1  10 242.866 285.489   8
   3  -1  10 233.885 309.100   8
   3   2 -13 13070.8 1265.45  10
  -3  -2  13 11871.2 1224.73   9
  -3   2  13 13791.6 1309.46   5
  -3   2  12 1113.73 370.511   9
   3   2 -12 1152.43 416.683  10
  -3   2  12 1501.75 477.302   5
   3  -2 -12 1058.68 352.622  10
  -3  -2  12 891.671 345.066   9
   3  -2 -11 5298.82 664.489  10
   3  -2 -11 6401.45 863.810   7
  -3  -2  11 7502.66 876.326   9
  -3   2  11 6947.31 758.661   9
  -3   2  11 7466.28 864.341   5
   3   2 -11 6473.59 812.575  10
  -3   2  10 351.267 242.921   9
   3  -2 -10 335.353 304.885   7
   3   2 -10 158.045 245.893  10
  -3  -2  10 332.621 315.196   9
   3  -2 -10 238.150 207.999  10
   3  -2  -9 430.904 308.026   7
   3  -2  -9-56.9490 134.504  10
  -3   2   9 259.445 170.240   9
  -3  -2   9 195.505 206.534   9
   3   2  -9 567.018 255.749  10
  -3  -2   9-96.0932 118.204   2
   3  -2  -9 244.608 132.647   4
   3   2  -8 5541.23 612.553  10
   3  -2  -8 6057.73 676.998   7
  -3   2   8 7314.27 624.700   9
  -3  -2   8 5847.73 510.594   2
   3  -2  -8 5542.05 441.569   4
  -3  -2   8 5573.59 625.287   9
   3  -2  -8 5920.72 573.996  10
   3  -2  -7 48660.9 1884.69   7
   3  -2  -7 53154.2 1388.00   4
   3  -2  -7 50649.5 1698.06  10
  -3  -2   7 49530.0 1855.54   9
  -3  -2   7 50703.3 1625.07   2
  -3   2   7 52698.8 1212.54   8
  -3   2   7 48156.3 1670.47   9
   3   2  -7 49527.6 1850.23  10
  -3  -2   6 14.7859 114.606   2
  -3   2   6 78.6636 52.2474   8
  -3  -2   6-202.392 155.457   9
   3   2  -6 81.0012 161.882  10
   3  -2  -6 36.7964 66.4311   4
   3  -2  -6 10.7250 99.8215  10
  -3   2   6 132.551 134.029   9
   3  -2  -5 18180.3 893.460   7
  -3  -2   5 16131.3 835.377   9
  -3   2   5 16821.9 768.294   9
   3   2  -5 15618.6 820.609  10
  -3   2   5 14455.6 453.168   4
  -3  -2   5 16629.0 783.812   2
   3  -2  -5 16913.1 771.315  10
   3  -2  -5 14657.4 445.736   8
   3   2  -4 402.601 180.659  10
  -3   2   4 550.105 179.548   6
  -3  -2   4 522.299 158.577   9
  -3   2   4 614.617 167.982   9
   3  -2  -4 397.326 65.3425   8
   3  -2  -4 517.151 150.017  10
  -3  -2   4 374.921 154.007   2
  -3   2   3 608.218 146.090   6
   3  -2  -3 1050.05 199.232  10
   3   2  -3 1021.47 185.814  10
   3   2  -3 957.731 156.923   8
  -3  -2   3 967.060 181.340   9
  -3  -2   3 720.012 131.806   1
  -3   2   3 901.668 176.645   9
  -3  -2   3 669.827 157.056   2
   3  -2  -2 3363.53 301.571   1
   3   2  -2 3082.74 277.504   8
  -3   2   2 2723.15 244.085   6
   3   2  -2 2977.41 232.093   6
   3   2  -2 3055.39 178.677   1
  -3  -2   2 3082.51 271.630   9
  -3   2   2 3542.27 328.630   9
   3   2  -2 2995.18 269.981  10
  -3  -2   2 3457.36 195.814   1
  -3  -2   2 3171.82 300.236   2
  -3   2   2 3171.00 183.216   4
   3  -2  -2 3486.79 204.337   4
   3   2  -1 5259.28 295.111   6
  -3  -2   1 6024.33 229.222   1
  -3  -2   1 5516.46 327.705   9
  -3  -2   1 5784.59 397.576   2
   3   2  -1 7988.48 457.530   8
   3  -2  -1 5513.98 389.909   1
  -3   2   1 5743.27 333.837   4
  -3   2   1 5383.18 335.711   6
   3   2  -1 5300.25 324.718  10
  -3  -2   0 4622.11 349.190   2
  -3  -2   0 4115.51 280.534   9
   3  -2   0 4932.44 408.298   1
   3   2   0 4013.80 273.601  10
   3   2   0 4415.56 378.335   8
  -3   2   0 4112.35 339.182   4
   3   2   0 4790.80 387.181   3
  -3  -2   0 4175.93 238.565   7
   3   2   0 4767.95 315.938   6
  -3  -2  -1 56828.3 1417.04   7
   3   2   1 55133.9 1578.37   3
   3  -2   1 57492.0 1753.28   1
  -3  -2  -1 58698.8 1757.27   4
   3   2   1 58708.1 1727.08   8
  -3   2  -1 58321.8 1677.44   4
  -3  -2  -1 59056.4 1504.46   2
  -3  -2  -2 2598.83 282.609   7
  -3   2  -2 2762.54 356.288   4
   3  -2   2 3003.55 408.572   1
   3   2   2 2554.55 342.556   8
  -3  -2  -2 2581.08 359.770   4
  -3  -2  -3 34084.5 1274.27   7
   3  -2   3 34592.8 1445.14   1
   3  -2   3 35677.3 1426.03   9
   3  -2   3 36943.1 1031.09   5
   3   2   3 35113.3 1371.22   5
  -3  -2  -3 34882.5 1443.69   4
   3   2   3 35210.6 1430.59   8
  -3   2  -3 34156.1 1423.20   4
  -3  -2  -4 26.1378 160.142   4
  -3   2  -4 78.6406 150.151   4
   3  -2   4-46.2878 141.625   9
  -3   2  -4 96.4118 189.032  10
   3  -2   4-57.3153 94.4414   5
   3   2   4 465.965 238.612   5
   3  -2   4-124.696 250.612   1
   3   2   4 504.571 244.525   8
  -3   2  -4 18.7485 32.5202   3
  -3  -2  -4-11.3538 180.796   7
   3  -2   5 414.980 293.758   8
  -3  -2  -5 222.706 190.206   4
  -3   2  -5 19.3223 215.386  10
  -3  -2  -5 539.559 259.158   7
   3  -2   5 226.810 241.466   9
   3  -2   5 199.076 138.295   5
   3   2   5 215.552 138.845   5
   3   2   5 286.186 218.613   8
  -3   2  -5 578.954 261.430   4
   3  -2   6 793.895 351.318   8
  -3  -2  -6 382.039 208.258   4
  -3  -2  -6 1045.84 419.112   7
  -3   2  -6-58.3671 184.739   4
   3   2   6 325.895 228.932   8
   3  -2   6 612.093 333.232   9
   3  -2   6 638.177 200.706   5
   3   2   6 133.955 179.359   5
  -3   2  -6 687.371 289.324  10
  -3   2  -7 26601.7 1538.70  10
  -3   2  -7 24691.2 1536.87   4
   3   2   7 26130.5 1478.29   5
   3  -2   7 27155.1 1562.18   9
  -3  -2  -7 26677.6 1585.05   7
   3   2   7 29307.5 1597.23   8
  -3  -2  -7 25721.5 1525.27   4
   3  -2   7 26870.0 1582.44   8
  -3  -2  -8 506.392 376.561   7
  -3  -2  -8-122.574 191.695   4
  -3   2  -8 429.063 323.393  10
   3  -2   8 105.888 234.865   9
  -3   2  -8 172.044 231.792   4
   3   2   8 224.960 200.296   5
   3   2   8 380.693 308.445   8
   3  -2   8 589.683 371.908   8
   3  -2   9 10200.0 1061.53   9
   3   2   9 10035.2 1001.73   5
   3   2   9 11492.7 1113.05   8
   3  -2   9 11031.2 1109.37   8
  -3  -2  -9 9355.94 1020.29   4
  -3   2  -9 10667.8 1142.18   4
  -3   2 -10 188.159 242.742   4
   3  -2  10 553.186 405.932   9
   3   2  10 487.675 311.898   5
  -3  -2 -10-201.033 271.259   4
   3  -2  10 82.6213 310.794   8
   3   3 -12 192.263 220.959  10
   3  -3 -12 429.011 371.480   7
  -3  -3  12 868.151 360.028   9
  -3   3  12-175.103 246.522   5
  -3   3  11 50.8032 222.517   5
   3  -3 -11 573.933 419.731   7
   3   3 -11 1640.68 452.089  10
  -3  -3  11 1245.69 452.456   9
   3  -3 -10 1871.98 521.211   7
  -3   3  10 2613.11 435.824   9
  -3   3  10 1693.77 433.625   5
   3   3 -10 2614.46 528.510  10
   3  -3 -10 3108.00 496.626  10
  -3  -3  10 3176.18 582.444   9
   3  -3  -9 26508.6 1568.33   7
   3   3  -9 25224.9 1464.57  10
   3  -3  -9 28378.7 1337.97  10
  -3  -3   9 25471.2 1467.19   9
  -3   3   9 23778.5 1427.10   5
  -3  -3   9 27173.1 1256.46   2
  -3   3   9 27565.5 1316.99   9
   3  -3  -8 2879.05 491.615   7
  -3   3   8 3113.04 415.027   9
  -3  -3   8 2554.48 462.602   9
   3  -3  -8 3555.20 443.010  10
   3   3  -8 3333.12 498.462  10
  -3  -3   8 2977.37 393.475   2
   3  -3  -7 83897.2 2687.34   7
   3   3  -7 81409.8 2615.40  10
  -3  -3   7 86531.4 2681.61   9
  -3   3   7 83453.0 2343.75   9
  -3  -3   7 83681.3 2414.17   2
  -3   3   7 91233.1 1949.15   8
   3  -3  -7 87827.0 1922.12   4
   3  -3  -7 84420.7 2356.84  10
   3   3  -6 583.744 243.846  10
   3  -3  -6 551.484 92.8645   4
   3  -3  -6 723.819 215.838  10
  -3  -3   6 785.064 266.708   9
  -3   3   6 637.857 172.757   9
   3  -3  -6 836.173 289.714   7
  -3  -3   6 593.286 193.245   2
   3  -3  -5 28380.4 1218.25   7
  -3   3   5 26956.1 1020.57   9
   3  -3  -5 26266.2 1016.42  10
   3   3  -5 28893.9 1197.11  10
  -3  -3   5 27594.8 1170.83   9
  -3   3   5 26632.3 1173.67   6
  -3  -3   5 28402.4 1148.75   2
  -3  -3   5 29196.0 1155.21   1
   3  -3  -4 4230.15 363.893  10
   3   3  -4 4413.88 414.508  10
  -3   3   4 3955.64 354.981   9
  -3  -3   4 5223.46 453.584   2
  -3  -3   4 4515.96 407.521   9
  -3  -3   4 4335.99 384.099   1
  -3   3   4 4887.03 443.701   6
  -3  -3   3 38329.1 1236.49   9
   3   3  -3 41584.1 1272.17  10
  -3   3   3 38739.5 1265.13   6
  -3   3   3 40229.8 1262.41   9
  -3  -3   3 41925.1 1209.92   1
  -3  -3   3 41271.8 1361.81   2
   3  -3  -3 39766.9 1243.61  10
   3   3  -2 9660.22 500.369   6
   3  -3  -2 10614.6 603.155   1
  -3  -3   2 9983.14 504.014   9
  -3  -3   2 9748.66 592.682   2
  -3  -3   2 10248.9 478.899   1
  -3   3   2 10047.6 553.014   6
   3   3  -2 10398.5 516.615  10
   3   3  -2 9601.50 555.606   8
   3  -3  -2 10985.6 411.319   4
  -3   3   2 10199.7 394.633   4
  -3  -3   1 2781.65 230.868   9
   3   3  -1 3082.59 247.474  10
   3   3  -1 3412.55 284.476   6
  -3  -3   1 3029.22 226.619   1
  -3  -3   1 3037.69 309.457   2
  -3   3   1 2512.75 275.702   6
   3   3  -1 3236.78 366.204   3
   3  -3  -1 2825.29 331.132   1
   3   3  -1 3089.58 317.478   8
  -3   3   1 2656.75 248.142   4
   3   3   0 1187.71 140.753  10
   3   3   0 1207.32 203.879   6
  -3   3   0 1708.37 253.584   6
   3   3   0 1123.40 246.284   3
   3  -3   0 1257.09 148.317   3
   3  -3   0 1123.58 262.637   1
  -3  -3   0 1149.09 134.197   9
  -3   3   0 978.929 190.470   4
   3   3   0 1103.09 229.512   8
  -3  -3   0 1193.34 202.925   2
  -3  -3  -1 25937.0 883.628   7
   3   3   1 24478.2 1068.11   8
   3   3   1 27287.1 1005.06   6
   3  -3   1 24763.7 1143.00   1
   3   3   1 27925.7 1091.15   3
  -3  -3  -1 24629.6 713.566   9
  -3  -3  -1 25726.9 733.995   9
   3   3   1 26051.1 723.929  10
  -3  -3  -1 25352.3 1082.44   4
  -3   3  -1 25479.4 1029.54   4
  -3  -3  -1 26018.5 927.887   2
  -3  -3  -2 706.556 168.287   2
  -3  -3  -2 871.212 180.145   7
  -3   3  -2 1023.10 237.954   4
   3  -3   2 824.386 306.485   1
   3  -3   2 1070.10 259.318   9
   3   3   2 1113.85 271.124   8
  -3  -3  -2 1325.64 276.531   4
  -3  -3  -3 189686. 4170.90   7
   3  -3   3 190128. 3530.44   5
   3  -3   3 187733. 4460.97   9
   3  -3   3 184426. 4530.55   1
  -3  -3  -3 184574. 4433.66   4
   3   3   3 185108. 4399.66   8
  -3   3  -3 187510. 4409.71   4
  -3   3  -4 2365.53 410.909  10
   3  -3   4 2545.54 452.947   1
  -3  -3  -4 2341.76 373.044   7
   3  -3   4 2552.66 241.469   5
   3  -3   4 2380.68 421.317   9
  -3  -3  -4 3244.60 466.226   4
   3   3   4 2495.08 416.585   5
  -3   3  -4 2326.70 417.078   4
   3   3   4 2628.84 406.694   8
   3   3   5 23804.1 1304.82   8
  -3  -3  -5 25467.2 1295.41   7
  -3   3  -5 24138.1 1333.01  10
   3  -3   5 21981.3 1353.29   1
   3  -3   5 24978.8 1365.24   9
   3   3   5 21132.9 1229.50   5
  -3   3  -5 23569.8 1345.40   4
   3  -3   5 23473.7 905.094   5
  -3  -3  -5 22518.3 1300.99   4
  -3  -3  -6 973.569 336.322   4
  -3  -3  -6 1060.81 350.279   7
  -3   3  -6 1570.20 415.952  10
  -3   3  -6 554.864 244.186   4
   3  -3   6 931.695 346.739   9
   3   3   6 1084.32 342.760   5
   3  -3   6 1242.95 380.545   8
   3   3   6 767.502 355.723   8
   3  -3   7 2941.62 578.501   8
  -3   3  -7 3716.60 610.139  10
  -3  -3  -7 3363.76 570.779   4
  -3  -3  -7 3201.25 588.630   7
   3   3   7 3417.63 561.583   8
   3  -3   7 3635.88 591.840   9
   3   3   7 2575.41 492.064   5
  -3   3  -7 2800.72 563.216   4
  -3  -3  -8 744.361 384.631   7
  -3  -3  -8 208.650 233.547   4
  -3   3  -8-272.105 303.031  10
   3  -3   8 732.581 385.765   8
   3  -3   8 625.289 327.807   9
   3   3   8 482.585 336.925   5
  -3   3  -8 178.932 225.454   4
   3   3   8 833.634 329.284   8
  -3  -3  -9 16889.7 1457.64   7
   3   3   9 17383.4 1347.74   8
  -3  -3  -9 14929.2 1315.62   4
   3   3   9 16640.1 1344.61   5
  -3   3  -9 16240.5 1415.68   4
   3  -3   9 18123.3 1445.81   8
   3  -3   9 18825.9 1491.52   9
  -3  -3 -10-145.644 275.666   4
   3  -3  10 740.454 364.299   9
   3   3  10-86.7561 287.927   5
   3  -3  10-43.5925 303.995   8
  -3  -4  12 767.184 345.948   9
   3  -4 -12 835.777 475.677   7
   3   4 -12 541.473 274.219  10
  -3   4  12 654.032 378.204   5
   3   4 -11 575.652 319.280  10
   3  -4 -11 540.080 376.323   7
  -3   4  11 147.788 283.475   5
  -3  -4  11 278.736 274.309   9
   3  -4 -10 1513.61 466.379   7
  -3   4  10 1639.20 453.357   5
  -3  -4  10 1940.77 480.239   9
   3   4 -10 1152.25 413.610  10
   3  -4  -9 65.8548 161.503  10
   3  -4  -9 192.484 297.676   7
   3   4  -9 389.313 240.523  10
  -3  -4   9 36.4652 238.767   9
  -3   4   9 440.370 190.868   9
  -3   4   9-90.9725 194.067   5
  -3  -4   9 29.4840 139.932   2
   3  -4  -8 4810.60 639.140   7
  -3  -4   8 3524.86 547.526   9
  -3   4   8 3957.20 437.807   9
  -3  -4   8 3587.46 470.169   2
   3  -4  -8 4061.07 445.790  10
   3   4  -8 3719.86 557.091  10
  -3   4   8 3972.10 561.329   5
   3  -4  -7 32689.9 1571.12   7
   3  -4  -7 31629.3 1234.79  10
   3   4  -7 32697.8 1515.14  10
  -3  -4   7 32311.6 1517.65   9
  -3   4   7 31874.2 1238.01   9
  -3   4   7 28226.0 1437.92   5
  -3  -4   7 31915.5 1391.71   2
  -3   4   6 3583.71 367.290   9
  -3  -4   6 3375.57 456.929   1
  -3  -4   6 3974.30 485.003   9
  -3   4   6 3902.33 486.531   5
  -3  -4   6 4113.31 472.713   2
   3  -4  -6 3387.74 366.167  10
   3  -4  -6 3195.36 188.460   4
   3   4  -6 4218.15 507.850  10
   3  -4  -6 3565.05 497.458   7
  -3   4   5-106.559 161.718   5
   3   4  -5 266.042 180.955  10
  -3   4   5 414.768 222.767   6
   3  -4  -5 114.056 107.912  10
  -3  -4   5 216.470 192.246   9
  -3   4   5 322.194 156.476   9
  -3  -4   5-84.2889 165.450   1
  -3  -4   5 35.6629 129.561   2
  -3   4   4 337.552 147.250   5
  -3  -4   4 667.680 228.636   1
   3  -4  -4 434.787 137.404  10
   3   4  -4 334.967 167.996  10
  -3   4   4 599.921 209.338   6
  -3  -4   4 309.943 178.816   9
  -3   4   4 695.305 165.877   9
  -3  -4   4 608.787 217.239   2
   3  -4  -4 300.115 47.5968   4
   3  -4  -4 255.954 51.0471   4
   3  -4  -3 209.201 68.3757   4
   3  -4  -3-48.6998 106.209  10
   3   4  -3 212.007 185.267   6
   3  -4  -3 216.709 189.488   1
  -3   4   3 10.8221 125.400   6
  -3  -4   3 197.554 207.533   1
  -3   4   3 77.5428 108.728   5
  -3  -4   3 80.3797 109.739   9
   3   4  -3 121.138 114.962  10
  -3   4   3 155.578 133.416   9
  -3  -4   3 147.056 171.638   2
   3  -4  -2 206.708 172.336   1
   3   4  -2 142.622 82.7119  10
   3   4  -2-130.018 119.166   6
  -3   4   2 69.7694 127.953   6
   3   4  -2 36.2614 158.291   3
  -3  -4   2 37.7930 95.2438   9
  -3   4   2 100.474 105.924   5
  -3  -4   2 117.037 106.634   1
   3   4  -2 13.1299 128.937   8
  -3  -4   2 15.9867 133.630   2
   3   4  -1 41101.9 1322.80   6
  -3   4   1 43445.1 1431.23   6
  -3  -4   1 43677.0 1245.88   1
   3  -4  -1 42769.4 1489.52   1
  -3  -4   1 41122.9 1109.71   9
  -3   4   1 43442.0 1068.51   5
  -3  -4   1 43404.8 1436.55   2
   3   4  -1 40919.0 1413.92   8
   3   4  -1 42209.9 1533.77   3
  -3   4   1 43748.1 1245.24   4
   3   4  -1 41983.1 1118.35  10
  -3   4   0 37.0437 163.516   6
  -3   4   0 123.298 135.270   4
   3  -4   0 192.300 204.942   1
   3   4   0 21.3890 54.5947  10
   3   4   0-14.4803 138.201   3
  -3  -4   0 59.1667 66.1848   9
   3   4   0 224.608 152.884   6
   3   4   0 126.341 139.498   8
  -3  -4   0 67.6166 101.080   1
  -3  -4   0 127.805 146.332   2
   3   4   1 68554.0 1893.04   6
   3   4   1 60476.9 1255.66  10
  -3  -4  -1 61537.9 1240.12   9
   3   4   1 65546.1 1994.25   3
   3  -4   1 68342.4 2160.60   1
  -3  -4  -1 68737.5 1804.72   2
   3   4   1 68348.3 2006.34   8
  -3   4  -1 66510.1 1909.25   4
   3   4   1 62752.4 1244.22  10
  -3  -4  -2 144.563 109.318   2
   3   4   2-23.8919 185.094   6
  -3  -4  -2-50.9835 121.944   7
   3   4   2 59.6923 35.1314  10
   3   4   2 10.6454 24.1708  10
  -3  -4  -2 166.600 202.702   4
   3  -4   2-39.4596 214.309   1
  -3  -4  -2 51.8811 27.6146   9
  -3  -4  -2 17.7824 28.0864   9
   3   4   2 262.416 179.426   8
  -3   4  -2 417.062 215.800   4
  -3  -4  -3 45945.6 1573.63   7
  -3  -4  -3 46629.6 1318.42   2
  -3  -4  -3 39147.4 989.725   9
   3  -4   3 43422.8 1839.18   1
   3  -4   3 44901.7 1774.97   9
  -3  -4  -3 42843.6 1694.07   4
   3   4   3 44648.8 1712.35   8
  -3   4  -3 43779.0 1705.00   4
  -3  -4  -4 738.302 237.279   7
   3  -4   4 1021.36 352.711   9
   3  -4   4 968.284 323.862   1
  -3   4  -4 992.355 302.239   4
   3   4   4 958.400 318.670   8
  -3  -4  -4 989.467 294.910   4
  -3  -4  -5 11843.4 884.788   7
   3   4   5 10576.0 885.177   8
  -3   4  -5 10532.6 912.059  10
  -3  -4  -5 10331.8 892.172   4
   3  -4   5 11082.0 972.108   1
  -3   4  -5 10632.2 925.620   4
   3  -4   5 10268.3 910.560   9
  -3  -4  -6 3326.30 528.594   4
  -3  -4  -6 3117.60 530.728   7
  -3   4  -6 2524.92 487.542  10
   3  -4   6 2541.97 548.199   9
   3   4   6 2903.19 505.342   5
   3  -4   6 3104.07 570.763   1
   3   4   6 3790.19 550.831   8
  -3   4  -6 2543.19 506.731   4
   3  -4   7 3440.15 617.960   8
  -3  -4  -7 3927.23 616.722   4
  -3  -4  -7 5580.55 742.092   7
  -3   4  -7 4464.22 693.548  10
  -3   4  -7 3470.17 620.455   4
   3  -4   7 4498.98 690.976   9
   3   4   7 5129.57 705.946   5
   3   4   7 5542.29 735.907   8
   3  -4   8 102.233 364.182   8
  -3  -4  -8 339.620 258.590   4
  -3  -4  -8 497.477 353.659   7
  -3   4  -8 429.853 375.094   4
   3  -4   8 65.8476 243.604   9
   3   4   8 136.863 297.532   5
   3   4   8 232.715 250.402   8
  -3  -4  -9 4847.13 816.932   7
  -3  -4  -9 4744.56 742.920   4
  -3   4  -9 4064.16 792.834   4
   3   4   9 3151.79 614.713   8
   3  -4   9 4362.24 769.189   9
   3  -4   9 3868.46 714.874   8
  -3  -4 -10 1817.47 631.128   7
   3  -4  10 655.500 443.166   8
   3  -5 -12 8757.30 1105.02   7
  -3   5  12 7997.68 1040.62   5
  -3  -5  12 5881.72 918.874   9
   3   5 -12 6879.13 974.481  10
   3  -5 -11 6304.57 899.206   7
   3   5 -11 5270.79 802.696  10
  -3  -5  11 5432.20 828.590   9
  -3   5  11 6138.14 855.978   5
   3  -5 -10 502.034 325.583   7
   3   5 -10 222.817 298.664  10
  -3  -5  10 479.458 341.593   9
  -3   5  10 894.391 385.361   5
   3  -5  -9 203.220 239.360   7
   3   5  -9 862.826 335.148  10
  -3  -5   9 516.076 320.529   9
  -3   5   9-84.6394 239.327   5
  -3  -5   9-28.8677 151.154   2
   3  -5  -8 5596.63 698.365   7
   3  -5  -8 5010.71 478.942  10
  -3  -5   8 4053.64 591.726   9
  -3   5   8 3033.03 512.666   5
  -3  -5   8 4920.64 594.139   2
   3   5  -8 4263.23 582.297  10
   3  -5  -7 3028.42 360.546  10
  -3   5   7 2322.64 322.547   9
   3   5  -7 1928.30 387.746  10
  -3  -5   7 1765.22 387.057   9
  -3   5   7 2300.33 437.728   5
   3  -5  -7 2502.47 452.464   7
  -3  -5   7 2051.34 412.067   1
  -3  -5   7 1941.98 384.539   2
  -3   5   6 15071.6 1042.78   6
   3  -5  -6 16821.4 812.001  10
  -3  -5   6 14988.6 987.997   9
   3   5  -6 15103.7 984.501  10
  -3   5   6 16211.2 786.714   9
  -3   5   6 15505.4 1002.38   5
  -3  -5   6 16138.3 997.116   2
  -3  -5   6 16046.1 1036.02   1
   3   5  -5 9894.90 726.408  10
  -3  -5   5 9722.12 730.912   9
  -3   5   5 9019.82 712.614   5
  -3   5   5 9649.66 578.105   9
   3  -5  -5 9370.07 564.313  10
  -3  -5   5 9502.00 741.163   2
   3  -5  -5 8441.85 356.867   4
  -3  -5   5 9978.08 760.172   1
  -3   5   5 8934.63 742.813   6
   3  -5  -4 8379.35 537.265  10
   3  -5  -4 9361.24 748.935   1
   3   5  -4 9096.38 702.710   6
  -3  -5   4 7369.70 588.086   9
  -3   5   4 9899.94 579.305   9
  -3   5   4 9046.48 656.000   5
   3   5  -4 9046.39 643.534  10
  -3  -5   4 8583.86 696.047   2
  -3   5   4 8154.43 671.950   6
  -3  -5   4 9520.03 718.955   1
   3  -5  -4 8815.42 375.125   4
  -3  -5   3 1010.24 259.671   1
  -3   5   3 1253.87 273.008   6
   3   5  -3 1248.74 243.518  10
  -3  -5   3 1049.41 215.554   9
   3   5  -3 1100.85 248.436   6
  -3  -5   3 1258.26 291.090   2
  -3   5   3 1175.54 233.057   9
  -3   5   3 1151.06 227.962   5
   3  -5  -3 1126.96 279.215   1
   3   5  -2 18605.5 780.282  10
  -3   5   2 18902.4 984.774   6
   3  -5  -2 17537.8 977.633   1
  -3  -5   2 18364.5 782.866   9
  -3  -5   2 17752.3 870.290   1
  -3   5   2 17951.8 773.874   5
  -3  -5   2 20231.7 1020.98   2
   3   5  -2 18052.1 1041.60   3
   3   5  -2 17899.2 904.182   6
   3   5  -1 201.008 101.347  10
  -3  -5   1 88.4977 152.179   1
   3  -5  -1 54.5200 185.474   1
  -3   5   1 87.8177 142.573   6
   3   5  -1 195.287 198.500   3
   3   5  -1 343.101 170.942   6
  -3  -5   1 157.738 96.5232   9
   3   5  -1 416.184 200.411   8
  -3  -5   1 398.464 202.565   2
   3   5   0 8878.50 360.159   9
   3   5   0 9268.19 640.939   6
   3  -5   0 8933.11 741.399   1
  -3  -5   0 9298.69 363.113   9
   3   5   0 9234.79 723.644   3
   3   5   0 9230.76 359.856  10
  -3   5   0 10367.4 742.845   6
  -3  -5   0 9003.82 638.370   2
   3   5   0 9084.19 681.943   8
  -3  -5   0 9920.33 609.184   1
  -3   5   0 8966.43 600.937   4
  -3   5  -1 7908.60 700.955   6
  -3  -5  -1 7388.31 555.415   1
   3   5   1 7439.68 656.255   3
   3  -5   1 7863.17 724.584   1
  -3  -5  -1 7912.48 578.317   2
   3   5   1 7213.43 630.962   8
   3   5   1 8335.06 637.536   6
  -3   5  -1 7757.86 606.401   4
  -3  -5  -2 4699.87 457.571   7
   3   5   2 3983.08 491.451   6
   3  -5   2 3803.38 568.978   1
  -3  -5  -2 4985.45 542.629   4
  -3  -5  -2 4712.50 431.107   2
   3   5   2 4559.10 523.409   8
  -3   5  -2 4516.34 503.554   4
  -3  -5  -3 838.402 189.160   2
  -3  -5  -3 349.242 171.465   7
   3   5   3 294.389 241.385   6
  -3   5  -3 537.653 253.191   4
   3  -5   3 136.906 191.976   9
   3  -5   3 814.992 373.431   1
   3   5   3 472.195 217.330   8
  -3  -5  -3 399.843 215.826   4
  -3  -5  -4 2215.87 384.260   7
  -3   5  -4 2049.75 422.185   4
   3  -5   4 1915.54 442.786   1
   3  -5   4 2605.35 488.205   9
   3   5   4 1979.27 414.203   8
  -3  -5  -4 1745.02 375.178   4
  -3  -5  -5 1459.55 343.678   7
  -3   5  -5 1923.29 441.680   4
   3  -5   5 1828.63 457.154   1
   3  -5   5 1686.85 416.605   9
   3   5   5 1510.02 367.987   8
  -3  -5  -5 1417.38 368.473   4
  -3  -5  -6 1868.56 431.816   4
  -3  -5  -6 2284.51 478.978   7
   3  -5   6 3078.81 582.717   9
  -3   5  -6 2176.07 477.802   4
   3  -5   6 2534.45 553.704   1
   3   5   6 2762.42 556.043   8
  -3  -5  -7 282.230 257.567   4
  -3  -5  -7 348.044 316.046   7
  -3   5  -7 395.403 239.788   4
   3  -5   7 490.973 337.047   9
   3   5   7 240.570 212.183   8
   3  -5   8 2485.38 566.528   8
  -3  -5  -8 2658.95 564.930   4
  -3  -5  -8 2176.05 526.685   7
   3  -5   8 2858.07 613.656   9
  -3   5  -8 2330.62 558.109   4
   3   5   8 2283.78 522.747   8
   3  -5   9-0.78610 314.132   8
  -3  -5  -9 169.622 409.668   7
  -3   5  -9 423.054 383.718   4
   3  -5   9 163.627 303.141   9
   3   5   9 294.717 288.500   8
   3  -6 -11 13292.0 1315.02   7
   3   6 -11 12245.0 1241.24  10
  -3  -6  11 9472.24 1105.96   9
  -3   6  11 11639.5 1198.89   5
   3  -6 -10 3002.65 662.593   7
  -3   6  10 2002.14 560.036   5
   3   6 -10 2924.84 602.402  10
  -3  -6  10 1949.95 503.910   9
   3  -6  -9 7072.53 871.192   7
   3   6  -9 5324.89 763.079  10
  -3   6   9 6207.08 789.747   5
  -3  -6   9 5828.71 788.104   9
  -3  -6   9 6229.91 721.951   2
   3   6  -8 576.379 271.381  10
   3  -6  -8 694.965 328.681   7
  -3  -6   8 650.695 283.391   9
  -3   6   8 422.617 302.276   5
  -3  -6   8 398.338 261.960   2
   3  -6  -7 179.370 282.219   7
   3   6  -7 226.553 244.940  10
  -3  -6   7 696.799 295.701   9
  -3   6   7 378.329 222.121   5
  -3  -6   7 197.508 210.284   1
  -3  -6   7 640.344 285.318   2
   3  -6  -6 5773.88 457.034  10
   3   6  -6 5018.72 574.139  10
  -3  -6   6 6566.25 665.986   9
  -3   6   6 5565.62 448.258   9
  -3   6   6 4745.27 595.893   5
  -3   6   6 5546.10 668.974   6
  -3  -6   6 5249.62 605.794   2
  -3  -6   6 5413.48 650.450   1
  -3  -6   5 3168.59 515.485   1
   3  -6  -5 1697.72 403.420   1
   3   6  -5 2098.82 353.500  10
  -3   6   5 2867.24 468.585   6
  -3  -6   5 2497.94 406.807   9
  -3   6   5 2847.09 433.463   5
  -3  -6   5 1566.81 354.471   2
   3  -6  -5 2745.07 310.873  10
  -3   6   5 2789.17 307.606   9
   3  -6  -4 1373.43 241.796  10
   3   6  -4 1117.86 326.245   3
  -3  -6   4 1137.85 361.961   1
  -3  -6   4 1132.98 266.553   9
  -3   6   4 1358.87 312.933   5
  -3   6   4 1953.34 396.362   6
   3   6  -4 1483.12 290.657  10
   3   6  -4 1060.12 342.551   6
   3  -6  -4 1215.17 321.450   1
  -3   6   4 1524.00 245.120   9
   3   6  -3 5275.67 610.398   3
   3   6  -3 6023.71 494.131  10
  -3   6   3 6842.99 643.221   6
  -3  -6   3 7329.77 538.244   9
  -3   6   3 5410.61 499.203   5
  -3   6   3 7086.64 550.997   9
  -3  -6   3 6684.73 629.255   1
   3  -6  -3 6095.18 624.795   1
   3   6  -3 6403.90 594.951   6
  -3  -6   2 6447.66 475.209   9
   3  -6  -2 6826.06 642.955   1
  -3   6   2 6595.48 636.524   6
   3   6  -2 6121.62 582.897   6
   3   6  -2 6936.83 478.191  10
  -3  -6   2 6966.17 605.627   1
  -3   6   2 6664.03 495.604   5
   3   6  -2 6568.35 667.133   3
   3   6  -1 8580.47 466.210  10
   3   6  -1 8769.80 668.003   6
  -3   6   1 8452.73 704.618   6
   3   6  -1 8517.28 753.361   3
  -3  -6   1 8666.36 466.781   9
  -3  -6   1 9094.90 645.335   1
  -3  -6   1 7817.46 662.926   2
   3  -6  -1 8628.89 745.326   1
   3   6  -1 8281.89 685.004   8
   3   6   0 5524.94 540.140   6
  -3  -6   0 4844.60 488.877   1
   3   6   0 4974.65 260.301  10
   3   6   0 4834.24 575.666   3
  -3  -6   0 6438.11 582.631   2
  -3   6   0 4873.54 559.990   6
  -3  -6   0 5028.88 259.067   9
   3   6   0 5797.13 594.002   8
   3  -6   0 5635.60 625.330   1
   3   6   1 5369.77 614.546   3
   3   6   1 5447.24 552.803   6
   3   6   1 5540.68 584.112   8
  -3  -6  -1 5736.57 531.095   2
  -3  -6  -1 5986.58 549.372   1
  -3   6  -1 6019.39 646.575   6
   3  -6   1 5592.73 678.305   1
  -3   6  -1 4968.35 530.563   4
   3   6   2 846.693 290.254   6
  -3   6  -2 1007.02 273.230   4
  -3   6  -2 1407.62 359.569   6
   3   6   2 521.316 234.893   8
   3  -6   2 969.969 391.832   1
  -3  -6  -2 874.283 225.064   2
  -3  -6  -3 351.122 205.421   7
   3   6   3-32.0389 234.315   6
   3  -6   3 234.733 327.112   1
   3   6   3-300.148 184.507   8
  -3  -6  -3-153.072 172.733   4
  -3   6  -3-5.15408 176.211   4
  -3  -6  -3 163.814 146.250   2
   3   6   4 538.979 279.890   8
   3  -6   4 629.159 367.565   1
  -3  -6  -4 714.859 262.984   7
  -3  -6  -4 443.341 268.223   4
  -3   6  -4 314.173 218.050   4
   3  -6   4 689.704 311.034   9
  -3  -6  -5 6544.54 710.997   7
  -3   6  -5 4378.32 650.837   4
   3  -6   5 5378.99 728.669   9
   3  -6   5 6311.08 830.478   1
  -3  -6  -5 5573.98 708.998   4
   3   6   5 6256.43 724.913   8
  -3  -6  -6 5393.67 697.629   4
  -3  -6  -6 4963.22 688.986   7
   3  -6   6 5114.82 729.541   9
   3   6   6 5481.06 688.655   8
  -3   6  -6 5202.11 755.138   4
   3  -6   6 5738.34 830.679   1
  -3  -6  -7 10799.9 1032.88   7
   3  -6   7 10111.8 1100.44   9
   3   6   7 10055.7 991.385   8
  -3  -6  -7 10374.3 1004.49   4
   3  -6   7 8879.84 1046.33   1
  -3   6  -7 10106.5 1088.72   4
  -3  -6  -8-82.9896 297.242   7
   3  -6   8 226.438 282.375   9
  -3   6  -8 44.5347 319.418   4
   3   6   8 852.708 363.379   8
   3  -6   9 2766.41 644.530   8
  -3  -6  -9 4112.98 801.118   7
   3   7 -11 675.614 396.784  10
  -3  -7  11 1664.51 613.662   9
  -3   7  11 1117.85 436.957   5
   3  -7 -10 30.4204 318.671   7
   3   7 -10 113.219 303.832  10
  -3  -7  10 155.151 341.773   9
  -3   7  10 423.082 345.923   5
   3  -7  -9 12622.2 1204.47   7
  -3  -7   9 10868.7 1013.42   2
  -3  -7   9 12165.9 1144.76   9
  -3   7   9 11265.3 1101.56   5
   3   7  -9 12720.4 1159.00  10
   3   7  -8 79.7368 239.690  10
  -3  -7   8 491.143 323.363   9
  -3   7   8-139.631 203.717   5
  -3  -7   8-52.8190 243.154   1
  -3  -7   8 132.805 213.411   2
   3  -7  -7 27634.2 1631.99   7
  -3   7   7 26140.7 1526.59   5
  -3   7   7 28843.0 1695.52   6
   3   7  -7 25086.2 1470.31  10
  -3  -7   7 24641.8 1464.33   2
  -3  -7   7 26310.5 1571.17   1
  -3  -7   7 22775.7 1420.73   9
   3   7  -6 408.923 236.933  10
  -3  -7   6 73.7980 214.694   1
   3   7  -6 190.321 262.615   6
  -3  -7   6 68.2232 165.238   9
  -3   7   6 274.387 262.244   6
  -3   7   6 367.758 255.738   5
  -3  -7   6 241.484 160.795   2
   3  -7  -6 61.4110 213.469   1
  -3  -7   5 21037.0 1185.87   9
   3   7  -5 22729.1 1214.57  10
   3  -7  -5 22470.6 1366.43   1
  -3   7   5 21846.2 1242.20   5
   3   7  -5 21203.3 1314.58   3
  -3  -7   5 21853.6 1322.59   1
  -3   7   5 23343.1 1368.49   6
   3   7  -5 21461.1 1318.63   6
   3  -7  -4 1852.98 281.038  10
   3   7  -4 2102.84 462.934   3
   3   7  -4 1544.42 355.493   6
   3   7  -4 2162.67 348.837  10
  -3  -7   4 1958.79 434.663   1
  -3   7   4 1324.73 309.009   5
  -3   7   4 1702.81 406.171   6
  -3  -7   4 1889.12 332.204   9
  -3   7   4 1813.87 267.539   9
   3  -7  -4 1379.57 339.946   1
   3  -7  -3 93195.1 2972.09   1
  -3  -7   3 90465.9 2859.81   1
  -3   7   3 98000.1 2568.95   9
   3   7  -3 94683.3 2540.37  10
  -3   7   3 95629.2 2960.13   6
  -3  -7   3 93509.3 2550.02   9
  -3   7   3 92923.7 2622.77   5
   3   7  -3 93433.9 2836.21   6
   3   7  -3 88537.1 2955.04   3
   3  -7  -2 917.076 330.246   1
   3   7  -2 1729.82 287.759  10
  -3   7   2 2268.11 428.535   6
   3   7  -2 1640.18 346.692   6
   3   7  -2 1209.02 340.114   3
  -3  -7   2 1751.85 259.120   9
  -3  -7   2 1480.61 358.910   1
   3   7  -1 81562.1 1939.65  10
   3   7  -1 81017.0 2518.25   6
  -3   7   1 78072.5 2622.66   6
   3  -7  -1 72046.1 2610.70   1
   3   7  -1 75343.9 2645.99   3
  -3  -7   1 78572.6 1925.57   9
  -3  -7   1 77221.6 2425.42   1
  -3   7   0 354.441 294.562   6
   3   7   0 322.062 228.862   6
   3   7   0-96.4687 168.323   3
   3  -7   0 190.246 298.249   1
   3   7   0 942.640 319.264   8
  -3  -7   0 342.066 201.488   2
  -3  -7   0 630.464 274.931   1
   3   7   1 28480.8 1452.99   8
  -3   7  -1 29455.3 1546.12   6
  -3  -7  -1 28633.7 1340.74   1
   3  -7   1 26236.6 1565.92   1
  -3  -7  -1 28673.9 1339.56   2
   3   7   1 26820.5 1366.47   6
  -3   7  -2 774.288 330.606   6
   3  -7   2 1047.68 404.201   1
   3   7   2 537.844 266.749   6
   3   7   2 1489.62 386.072   8
  -3  -7  -2 1081.98 325.327   1
  -3  -7  -2 1360.15 308.815   2
  -3  -7  -3 42355.6 1734.02   7
   3  -7   3 32865.3 1906.31   1
   3   7   3 38880.0 1811.77   6
  -3  -7  -3 36122.8 1717.67   4
  -3  -7  -3 39002.3 1510.04   2
   3   7   3 37239.5 1779.28   8
  -3   7  -3 37787.9 1918.85   6
  -3   7  -3 37480.1 1770.67   4
  -3  -7  -4 420.911 266.231   7
   3   7   4 228.545 274.839   6
   3   7   4 282.969 259.351   8
  -3   7  -4 348.387 256.690   4
   3  -7   4 1022.43 461.285   1
  -3  -7  -4 158.639 227.672   4
  -3  -7  -5 6033.37 720.591   7
   3  -7   5 6087.29 871.281   1
   3  -7   5 6603.99 835.816   9
   3   7   5 6813.16 787.724   8
  -3  -7  -5 7405.11 811.883   4
  -3   7  -5 7635.20 869.744   4
  -3  -7  -6 508.117 367.266   4
   3  -7   6 522.291 350.694   1
  -3  -7  -6 542.736 238.400   7
   3  -7   6 883.671 415.390   9
  -3   7  -6 622.185 288.915   4
   3   7   6 619.999 343.961   8
   3  -7   7 597.386 415.655   1
  -3  -7  -7-15.0527 323.682   7
  -3   7  -7 1595.09 522.261   4
   3  -7   7 1117.22 452.717   9
   3   7   7 1233.12 443.686   8
  -3  -7  -8 716.617 352.046   7
   3  -7   8 386.166 362.864   9
  -3   7  -8 267.477 388.673   4
   3   7   8 1246.79 404.129   8
   3  -8 -10 718.462 395.899   7
  -3  -8  10 615.100 364.793   9
  -3   8  10 304.880 366.837   5
  -3  -8  10 650.862 364.481   2
   3   8 -10-96.0844 278.468  10
   3  -8  -9 90.3793 232.398   7
   3   8  -9 318.339 358.015  10
  -3  -8   9 784.994 407.043   9
  -3   8   9-67.8443 260.555   5
  -3  -8   9 349.278 326.537   2
  -3  -8   8 1569.97 440.497   9
   3   8  -8 2602.32 546.909   3
   3   8  -8 2633.82 538.778  10
   3  -8  -8 2287.93 518.744   7
  -3   8   8 1497.25 428.800   5
  -3  -8   8 1742.14 421.320   2
  -3  -8   8 1457.25 436.136   1
  -3   8   7 11880.1 1074.48   5
   3  -8  -7 11577.0 1096.82   7
   3   8  -7 10111.1 965.967  10
   3  -8  -7 11200.0 1115.40   1
   3   8  -7 11727.7 1050.44   3
  -3  -8   7 12521.5 1080.21   9
  -3  -8   7 12311.9 1117.05   1
  -3  -8   7 10021.8 973.748   2
   3   8  -7 13276.4 1188.53   6
  -3   8   7 10723.5 1112.23   6
   3   8  -6 597.823 363.005   6
  -3   8   6 600.377 347.017   6
   3   8  -6 651.018 334.014  10
   3   8  -6 205.290 193.305   3
  -3  -8   6 463.242 278.664   9
  -3  -8   6 416.754 313.863   2
  -3   8   6 375.264 242.872   5
  -3  -8   6 639.075 313.599   1
   3  -8  -6-101.537 218.975   1
  -3   8   5 1816.90 445.208   6
   3   8  -5 2486.75 485.453   6
   3   8  -5 1807.35 378.067  10
   3   8  -5 1245.64 397.721   3
  -3  -8   5 2057.16 380.908   9
  -3   8   5 1547.09 374.507   5
  -3  -8   5 1180.69 375.442   1
   3  -8  -5 1808.96 453.781   1
   3  -8  -4 171.038 222.264   1
   3   8  -4 563.603 241.904  10
  -3  -8   4 538.765 315.021   1
   3   8  -4 473.795 309.228   3
  -3  -8   4 412.059 246.097   9
  -3   8   4 650.034 291.890   5
  -3   8   4 700.218 291.602   6
   3   8  -4 354.356 240.184   6
  -3  -8   3 4803.55 649.602   1
   3   8  -3 6234.16 567.047  10
   3  -8  -3 4553.85 620.773   1
  -3   8   3 6119.06 734.760   6
  -3  -8   3 6031.22 568.392   9
   3   8  -3 5098.03 664.701   3
  -3   8   3 7031.21 577.693   9
   3   8  -3 5529.14 662.984   6
   3  -8  -2 183.584 251.899   1
  -3   8   2 280.808 231.225   6
   3   8  -2 218.556 254.052   6
   3   8  -2 324.287 272.286   3
  -3  -8   2 312.932 212.879   1
   3   8  -1 3821.59 538.694   6
  -3   8   1 3550.46 545.917   6
  -3  -8   1 4127.44 555.932   1
   3   8  -1 3437.49 551.998   3
   3  -8  -1 3717.05 649.507   1
  -3   8   0 415.745 248.610   6
   3   8   0 832.395 298.648   6
  -3  -8   0 701.843 267.687   1
   3   8   0 725.420 277.453   3
   3  -8   0 1493.46 450.429   1
  -3  -8   0 838.930 292.432   2
  -3  -8  -1 831.601 272.697   1
   3   8   1 668.180 257.806   6
  -3   8  -1 1008.52 346.912   6
   3   8   1 1107.26 360.733   8
  -3  -8  -1 1527.93 337.948   2
   3  -8   1 848.141 393.320   1
  -3  -8  -2 2975.50 496.979   1
   3  -8   2 3288.36 646.674   1
   3   8   2 3481.38 565.839   6
  -3   8  -2 2883.48 577.259   6
   3   8   2 3296.82 554.642   8
  -3  -8  -2 3442.94 485.211   2
   3  -8   3 3259.89 649.143   1
  -3   8  -3 2608.25 564.002   6
   3   8   3 2795.66 518.237   6
  -3  -8  -3 2758.50 469.698   7
   3   8   3 3483.95 582.946   8
  -3  -8  -3 2555.19 481.925   4
  -3  -8  -3 3524.75 570.076   1
  -3  -8  -3 3456.61 459.938   2
  -3   8  -4 1369.79 495.221   6
   3   8   4 1691.04 458.956   6
  -3  -8  -4 1606.70 407.779   7
   3  -8   4 606.654 400.256   1
   3   8   4 1508.61 391.523   8
  -3  -8  -4 1249.54 398.573   1
  -3  -8  -4 2384.93 483.067   4
  -3  -8  -5 686.643 311.427   7
   3  -8   5 1016.63 550.712   1
  -3   8  -5 891.643 468.114   6
   3   8   5 1203.66 398.323   8
  -3  -8  -5 557.969 331.975   4
  -3  -8  -6 736.062 345.094   7
   3  -8   6 554.711 421.464   1
   3   8   6 360.463 294.906   8
  -3  -8  -7 13457.9 1228.61   7
   3   8   7 12949.2 1215.23   8
   3  -8   7 14466.2 1464.54   1
  -3  -8  -8-298.939 314.375   7
   3   8   8 123.173 289.592   8
  -3  -9  10 1762.33 439.387   2
   3  -9  -9 3720.34 725.101   7
   3   9  -9 4602.35 749.549  10
  -3  -9   9 3873.56 714.691   9
  -3   9   9 5561.48 878.033   5
   3   9  -9 4349.35 790.177   6
   3  -9  -9 4698.82 885.459   1
  -3  -9   9 4813.29 811.259   1
  -3  -9   9 3593.08 656.293   2
   3  -9  -8 6328.57 885.243   7
   3   9  -8 5257.56 775.271  10
   3   9  -8 6247.92 841.228   3
  -3  -9   8 5315.79 781.416   9
   3   9  -8 6033.49 920.154   6
  -3   9   8 4816.39 758.117   5
  -3  -9   8 3971.85 723.967   1
   3  -9  -8 6096.02 903.153   1
  -3  -9   8 3938.37 665.881   2
  -3  -9   7 5176.77 768.948   1
   3   9  -7 3813.95 618.792  10
  -3   9   7 4245.61 798.540   6
   3   9  -7 4425.51 753.851   6
   3   9  -7 4140.45 681.705   3
  -3  -9   7 5653.24 757.641   9
  -3   9   7 4379.05 697.897   5
  -3  -9   7 3869.90 653.583   2
   3  -9  -7 3858.35 704.313   1
   3   9  -6 1589.82 475.584   6
   3   9  -6 1700.90 402.659  10
  -3  -9   6 2464.01 506.941   9
  -3   9   6 1700.99 504.386   6
  -3  -9   6 1413.59 417.882   2
  -3   9   6 1739.81 410.795   5
   3   9  -6 1699.47 448.474   3
  -3  -9   6 2559.46 588.131   1
   3  -9  -6 1967.82 508.754   1
   3   9  -5 7648.04 775.589  10
   3  -9  -5 8361.02 943.288   1
   3   9  -5 7568.46 887.818   6
   3   9  -5 9110.11 960.275   3
  -3  -9   5 8989.75 845.221   9
  -3  -9   5 6542.87 843.582   1
  -3   9   5 7257.70 882.919   6
   3  -9  -4 2575.09 541.167   1
  -3   9   4 2663.35 542.242   6
   3   9  -4 2841.37 450.033  10
  -3  -9   4 2391.51 554.708   1
   3   9  -4 2402.68 511.824   6
  -3  -9   4 1533.65 374.545   9
   3   9  -4 2244.02 496.790   3
   3   9  -3 9012.43 893.940   6
   3   9  -3 7413.31 856.655   3
   3  -9  -3 8602.16 927.730   1
  -3  -9   3 8854.13 928.031   1
  -3   9   3 8351.97 901.646   6
  -3   9   2 6542.07 790.428   6
   3   9  -2 5822.08 705.510   6
   3   9  -2 4446.79 669.773   3
   3  -9  -2 5860.57 781.823   1
  -3  -9   2 5121.01 679.384   1
   3   9  -1 1745.95 384.795   6
  -3   9   1 2774.73 560.471   6
   3  -9  -1 2328.56 551.571   1
  -3  -9   1 2518.68 463.478   1
   3   9  -1 2092.04 476.253   3
  -3  -9   1 1227.61 346.082   2
  -3  -9   0 2141.55 425.820   2
  -3  -9   0 2199.72 489.156   1
   3   9   0 3132.05 548.172   6
   3  -9   0 2365.18 566.524   1
  -3   9   0 2466.55 552.138   6
  -3   9  -1 6227.62 802.117   6
   3   9   1 5527.12 705.614   6
  -3  -9  -1 5820.40 670.674   2
  -3  -9  -1 5935.17 698.131   1
   3  -9   1 5977.80 841.734   1
  -3  -9  -2 1812.90 433.905   1
   3  -9   2 2163.02 579.910   1
  -3   9  -2 2406.46 525.026   6
   3   9   2 2531.67 497.838   6
  -3  -9  -2 2685.15 467.457   2
   3   9   3 14039.0 1191.79   6
  -3  -9  -3 15346.0 1122.73   7
  -3  -9  -3 13923.9 1167.33   1
   3  -9   3 13258.9 1315.36   1
  -3  -9  -3 14179.4 1134.78   4
  -3   9  -3 14615.9 1300.87   6
   3   9   3 13903.4 1154.77   8
   3   9   4 2571.65 556.745   6
  -3   9  -4 4126.78 757.391   6
  -3  -9  -4 3825.14 584.253   7
   3  -9   4 3723.12 730.486   1
   3   9   4 3189.94 597.811   8
  -3  -9  -4 3514.74 617.668   4
  -3  -9  -4 4287.46 666.920   1
  -3  -9  -5 996.051 373.110   7
   3  -9   5 1497.12 527.393   1
   3   9   5 1366.28 450.941   8
  -3  -9  -5 1368.45 459.358   1
  -3   9  -5 1579.21 560.227   6
  -3  -9  -6 677.790 354.620   7
  -3   9  -6 853.486 561.860   6
   3   9   6 1124.78 444.908   8
  -3  -9  -6 615.214 244.966   1
   3  -9   6 778.768 425.267   1
   3   9   7 66.8135 286.716   8
  -3 -10   9 593.283 310.951   1
   3 -10  -8 1169.85 493.899   7
   3  10  -8 464.060 347.534  10
  -3 -10   8 1284.09 462.807   9
   3  10  -8 1172.30 502.102   6
  -3  10   8 380.876 284.765   5
  -3 -10   8 300.549 260.099   2
  -3 -10   8 149.779 296.975   1
   3 -10  -8 1196.92 552.861   1
   3 -10  -7 3780.36 722.073   1
   3  10  -7 1885.14 482.924  10
   3  10  -7 3423.94 733.193   6
   3  10  -7 2145.35 528.149   3
  -3 -10   7 2333.03 533.989   9
  -3  10   7 2842.62 691.111   6
  -3 -10   7 1771.79 513.586   1
  -3 -10   7 2883.01 624.759   2
   3 -10  -6 240.962 454.372   1
  -3 -10   6 1131.44 486.378   1
   3  10  -6 352.564 277.460  10
  -3  10   6 371.513 459.038   6
   3  10  -6 491.482 356.634   6
  -3 -10   6 581.728 335.387   9
   3  10  -6 260.052 283.379   3
  -3 -10   6 377.049 341.823   2
   3 -10  -5 1661.65 473.540   1
   3  10  -5 1417.41 428.274   6
  -3  10   5 1611.03 517.740   6
   3  10  -5 1025.79 371.576   3
  -3 -10   5 1537.88 417.189   2
  -3 -10   5 1368.96 548.486   1
   3 -10  -4-147.402 312.835   1
  -3  10   4 526.876 381.293   6
  -3 -10   4 58.0908 249.957   1
   3  10  -4-154.087 255.433   6
   3  10  -4 238.326 300.315   3
  -3 -10   3 1183.23 441.158   1
   3 -10  -3 1055.15 405.985   1
   3  10  -3 323.102 251.018   6
   3  10  -3 909.490 364.037   3
   3 -10  -2-15.1305 356.802   1
  -3  10   2 80.6254 260.708   6
   3  10  -2 512.170 314.429   6
  -3 -10   2 201.831 267.002   2
   3  10  -2-47.0764 247.402   3
  -3 -10   2 164.791 331.756   1
   3  10  -1 13226.4 1140.82   6
  -3  10   1 15832.7 1301.60   6
   3  10  -1 12130.4 1144.99   3
   3 -10  -1 12012.7 1191.89   1
  -3 -10   1 13845.5 1165.72   1
  -3 -10   1 9691.46 962.869   2
  -3 -10   0 413.878 381.783   1
  -3  10   0 56.2842 295.442   6
   3  10   0 249.766 288.882   6
   3 -10   0-574.065 394.551   1
  -3 -10   0 85.2554 199.476   2
   3  10   1 5537.64 758.888   6
  -3  10  -1 6638.43 911.048   6
  -3 -10  -1 5308.48 717.969   1
  -3 -10  -1 5263.53 681.350   2
   3 -10   1 6112.91 914.716   1
  -3 -10  -2 675.455 317.523   1
   3  10   2 445.762 253.177   6
  -3  10  -2 937.904 385.956   6
  -3 -10  -2 1021.57 314.053   2
   3 -10   2 596.892 382.681   1
  -3 -10  -3 2821.92 556.221   1
   3  10   3 2359.26 566.255   6
  -3  10  -3 2804.77 620.587   6
   3 -10   3 3421.46 763.402   1
  -3 -10  -3 2850.63 527.618   4
  -3 -10  -4 152.448 265.838   1
   3 -10   4 593.464 583.604   1
  -3 -10  -4 1317.78 459.562   7
  -3  10  -4 327.499 390.861   6
   3  10   4 153.779 243.054   6
  -3 -10  -5 10938.9 1113.80   7
   3 -10   5 13663.1 1459.75   1
   3  10   5 11642.4 1199.16   8
  -3  10  -5 13911.9 1411.86   6
   3 -11  -6 2118.10 602.000   1
  -3  11   6 3565.96 757.616   6
   3  11  -6 2259.63 634.330   6
   3  11  -6 1275.04 466.848   3
  -3 -11   6 1935.55 560.869   2
   3  11  -5 14763.9 1352.97   6
   3 -11  -5 17699.5 1531.06   1
   3  11  -5 17421.5 1435.64   3
  -3 -11   5 16651.2 1425.62   2
  -3  11   5 18006.5 1549.51   6
   3 -11  -4 238.820 422.142   1
   3  11  -4 325.032 286.936   6
  -3 -11   4-66.3491 306.996   1
   3  11  -4 173.514 257.292   3
  -3 -11   4 352.004 303.298   2
  -3  11   4 538.297 395.657   6
  -3 -11   3 2955.37 672.044   1
  -3  11   3 5385.15 842.906   6
   3 -11  -3 4188.17 733.986   1
   3  11  -3 4765.41 770.953   6
   3  11  -3 2958.61 637.195   3
  -3 -11   3 4069.85 699.680   2
  -3  11   2 700.479 415.575   6
   3  11  -2 1244.88 405.359   6
   3 -11  -2 1690.73 513.172   1
   3  11  -2 1360.11 505.819   3
  -3 -11   2 699.871 344.407   2
  -3 -11   2 1297.60 485.789   1
   3  11  -1 11544.4 1137.07   6
  -3  11   1 15092.4 1375.83   6
   3 -11  -1 12058.1 1279.98   1
  -3 -11   1 11526.4 1105.29   2
   3  11   0-138.970 236.295   6
  -3  11   0 316.429 358.408   6
   3 -11   0 161.559 310.024   1
  -3 -11   0-35.3411 279.603   2
   3 -11   1 23171.2 1873.64   1
   3  11   1 21889.9 1581.20   6
  -3 -11  -1 21553.0 1483.44   2
  -3  11  -1 24022.2 1766.89   6
   3  11   2 37.5927 346.365   6
   3 -11   2 83.0305 323.292   1
  -3  11  -2 1033.01 505.872   6
  -3  11  -3 1041.20 476.930   6
   3  11   3 1519.92 499.052   6
   3 -11   3 520.645 344.506   1
   3  11   4 506.247 461.782   6
   3  12  -5 614.092 384.610   3
   3  12  -4 1978.86 604.390   6
   3  12  -4 595.211 382.075   3
   3  12  -3 250.367 325.144   6
  -3 -12   3-159.482 261.125   2
  -3  12   2 601.235 420.059   6
   3  12  -2 680.852 449.178   6
   3 -12  -2 1333.03 561.385   1
  -3 -12   2 635.663 318.631   2
  -3  12   1 1102.88 482.876   6
   3  12  -1 726.205 397.515   6
   3 -12  -1 1784.57 663.126   1
  -3 -12   1 780.578 409.654   2
  -3  12   0 772.148 428.141   6
   3  12   0 446.254 318.114   6
  -3 -12   0 160.464 276.299   2
   3 -12   0 184.613 409.536   1
   3  12   1 77.3809 324.191   6
  -3 -12  -1-33.3955 223.983   2
   4   0 -13 254.263 293.959  10
  -4   0  13 91.3435 261.268   9
   4   0 -12 2841.05 727.046   7
  -4   0  12 1670.62 439.373   9
   4   0 -12 1679.43 460.685  10
   4   0 -11 242.125 344.657   7
  -4   0  11-188.750 220.109   9
   4   0 -11-128.291 217.253  10
   4   0 -10 9620.42 989.072   7
  -4   0  10 8862.53 833.108   9
   4   0 -10 9000.57 844.510  10
   4   0  -9 193.993 154.068  10
  -4   0   9-117.996 158.745   9
   4   0  -8 23351.9 1284.33   7
  -4   0   8 22331.6 1196.34   9
   4   0  -8 25165.2 1256.67  10
   4   0  -7-25.9828 217.318   7
   4   0  -7-40.6582 150.421  10
  -4   0   7 126.181 172.423   9
   4   0  -6 4737.86 472.961   7
  -4   0   6 5466.09 506.658   9
   4   0  -6 5167.40 489.800  10
  -4   0   5 350.597 158.993   9
   4   0  -5-63.1344 111.683   7
   4   0  -5 117.464 120.605  10
   4   0  -4 43641.3 1224.03   7
   4   0  -4 44125.9 1384.21  10
   4   0  -4 40193.6 893.007   8
  -4   0   4 42975.0 1367.62   9
  -4   0   4 42920.1 936.659   8
   4   0  -3 78.1917 77.9994   7
   4   0  -3-12.6335 108.963  10
   4   0  -3 62.9982 56.0840   6
  -4   0   3-50.4781 112.913   9
   4   0  -3 130.821 78.6610   8
   4   0  -2 118175. 2243.68   1
  -4   0   2 115901. 2674.71   9
   4   0  -2 116295. 2660.92  10
  -4   0   2 117412. 2560.19   4
   4   0  -2 112180. 2488.79   8
  -4   0   1 85.5969 64.9113   1
   4   0  -1-10.7159 75.2466   1
  -4   0   1 168.537 137.494   9
  -4   0   1 279.849 140.077   4
   4   0  -1 88.4582 120.546   8
   4   0   0 91278.2 1942.08   3
  -4   0   0 87882.1 2306.84   4
   4   0   0 91741.6 2032.17   1
   4   0   0 84613.6 2282.46   8
  -4   0  -1 233.474 184.093   4
   4   0   1 50.2927 67.0169   3
   4   0   1 87.7156 135.420   8
  -4   0  -2 72093.0 2254.78   4
   4   0   2 76269.3 2295.71   8
  -4   0  -3 696.971 297.609   4
   4   0   3 200.231 227.740   8
  -4   0  -4 84632.7 2782.77   4
   4   0   4 97798.1 2931.51   8
  -4   0  -5 60.8321 194.625   4
   4   0   5 191.665 249.368   8
  -4   0  -6 1973.44 428.851   4
   4   0   6 2090.55 373.074   5
   4   0   6 2552.13 490.780   8
  -4   0  -7-168.181 219.950   4
   4   0   7 397.491 257.336   5
   4   0   7 391.376 301.021   8
   4   0   8 13736.3 1219.04   8
  -4   0  -8 11701.0 1140.11   4
  -4   0  -9 199.699 290.195   4
   4   0   9 24.9570 265.394   8
   4   0  10 21514.8 1681.70   8
   4  -1 -13 800.698 528.693   7
   4  -1 -13 228.393 301.736  10
  -4   1  13 121.571 249.657   9
  -4   1  13 486.450 341.755   5
  -4  -1  13 594.628 381.274   9
   4   1 -13-88.0428 212.791  10
   4  -1 -12 28065.4 1933.59   7
  -4  -1  12 31550.4 1835.01   9
  -4   1  12 28990.3 1693.77   9
   4  -1 -12 31342.7 1760.87  10
   4   1 -12 28501.6 1746.98  10
   4   1 -11 3448.45 593.172  10
   4  -1 -11 3057.55 597.741   7
  -4  -1  11 3834.22 603.934   9
  -4   1  11 3068.04 520.408   9
   4  -1 -11 3001.17 542.429  10
   4   1 -10 10440.6 1006.67   7
   4  -1 -10 11557.4 1067.32   7
   4   1 -10 11594.2 987.745  10
   4  -1 -10 11688.9 941.688  10
  -4  -1  10 11030.2 957.391   9
  -4   1  10 11583.0 929.382   9
   4   1  -9 698.539 312.261   7
   4  -1  -9 825.248 343.775   7
   4   1  -9 891.106 285.076  10
  -4  -1   9 887.680 285.684   9
  -4   1   9 1095.82 306.616   9
   4  -1  -9 904.175 283.105  10
  -4  -1   9 1213.12 244.802   2
   4   1  -8 15590.6 1043.16   7
   4  -1  -8 13979.2 983.205   7
  -4  -1   8 15780.0 1001.96   9
  -4   1   8 14824.5 934.677   9
   4   1  -8 12935.6 911.445  10
   4  -1  -8 14900.4 935.725  10
  -4  -1   8 13345.6 581.232   8
  -4  -1   8 13703.2 781.142   2
   4   1  -7 639.513 280.942   7
   4  -1  -7 475.513 198.687   7
  -4  -1   7 484.060 185.652   2
   4   1  -7 616.789 220.910  10
   4  -1  -7 641.731 232.649  10
  -4  -1   7 350.313 213.202   9
  -4   1   7 549.689 199.089   9
   4   1  -6 116478. 2999.14   7
   4  -1  -6 118755. 3038.31   7
   4   1  -6 119831. 3061.23  10
   4  -1  -6 119337. 3008.99  10
  -4  -1   6 121353. 3074.48   9
  -4   1   6 122405. 3023.60   9
  -4  -1   6 121114. 2390.43   8
  -4  -1   6 124311. 2929.68   2
   4   1  -5 975.607 219.118   7
  -4  -1   5 783.036 193.931   2
   4  -1  -5 622.179 185.527   7
  -4  -1   5 733.043 214.800   9
  -4   1   5 858.137 110.444   4
   4   1  -5 525.809 181.034  10
  -4   1   5 1099.72 223.273   9
  -4  -1   5 856.616 116.972   8
   4  -1  -5 826.015 205.775  10
   4   1  -4 23404.0 815.004   7
   4  -1  -4 23317.8 949.112  10
   4  -1  -4 24646.3 890.807   7
   4   1  -4 25523.5 998.958  10
   4   1  -4 22469.9 668.437   8
   4  -1  -4 20956.3 514.359   8
  -4   1   4 23705.7 954.721   9
  -4  -1   4 24830.2 977.157   2
  -4  -1   4 22498.5 942.745   9
   4   1  -3 6918.44 321.306   7
   4   1  -3 7721.65 498.434  10
   4  -1  -3 7612.81 342.530   6
  -4  -1   3 6163.52 449.328   9
  -4   1   3 7090.51 494.892   9
   4  -1  -3 6200.06 455.934  10
  -4   1   3 7774.35 361.221   4
   4   1  -3 7107.25 379.199   8
   4   1  -3 6921.87 296.123   1
   4  -1  -3 7013.82 348.405   8
  -4  -1   3 6807.61 488.648   2
   4  -1  -2 1386.29 190.868   8
  -4  -1   2 1419.03 223.118   2
   4   1  -2 1421.21 212.395  10
  -4  -1   2 1435.59 219.647   9
  -4   1   2 1305.27 122.241   6
   4  -1  -2 1371.44 173.234   1
  -4   1   2 1262.72 220.127   9
   4   1  -2 1284.77 189.854   8
  -4   1   2 1856.66 208.869   4
  -4  -1   1 16299.0 712.198   9
  -4  -1   1 15366.2 445.023   6
  -4   1   1 15196.5 513.811   6
  -4  -1   1 15131.9 410.085   1
   4  -1  -1 15669.0 653.862   1
   4   1  -1 16647.7 710.322  10
  -4  -1   1 16232.3 759.824   4
  -4   1   1 15444.2 701.832   4
   4   1  -1 15557.9 727.665   8
   4  -1  -1 15620.7 720.198   8
  -4  -1   1 16282.1 758.068   2
   4   1   0 36300.0 893.363   7
   4   1   0 35164.4 1261.33   8
   4   1   0 35819.0 1101.02   3
   4  -1   0 33479.5 1139.41   1
  -4  -1   0 34672.9 1276.17   4
  -4   1   0 34390.2 1221.94   4
   4  -1   0 34015.3 1246.95   8
   4   1   1 6583.22 413.359   3
   4  -1   1 6977.65 526.671   1
  -4  -1  -1 7598.22 603.532   4
  -4   1  -1 6832.16 557.171   4
   4   1   1 6905.78 564.562   8
   4  -1   1 6454.70 570.249   8
  -4  -1  -2 21585.8 915.632   7
  -4  -1  -2 20185.9 1067.43   4
  -4   1  -2 21242.3 1070.67   4
   4  -1   2 21316.3 1006.48   1
   4   1   2 20352.6 1078.17   8
   4  -1   2 21847.1 1110.77   8
  -4  -1  -3 2604.03 396.085   7
  -4  -1  -3 2649.08 413.572   4
  -4   1  -3 2024.41 380.989   4
   4   1   3 2243.59 418.333   8
   4  -1   3 2441.97 418.207   8
  -4   1  -4 31171.6 1529.25   4
  -4  -1  -4 32872.6 1559.35   4
   4   1   4 31940.0 1533.43   8
   4  -1   4 33470.4 1577.06   8
  -4  -1  -5 77.4901 176.578   4
  -4   1  -5 461.727 273.211   4
   4   1   5 889.971 348.321   8
   4  -1   5 701.658 276.797   8
  -4  -1  -6 875.736 286.970   4
  -4   1  -6 1912.28 452.805   4
   4  -1   6 1679.64 323.068   5
   4   1   6 841.205 343.133   8
   4  -1   6 2316.08 520.589   8
  -4  -1  -7 148.607 211.805   4
  -4   1  -7 71.8273 202.492   4
   4   1   7 218.685 202.868   8
   4  -1   7 554.007 378.044   8
  -4  -1  -8 5467.43 787.397   4
  -4   1  -8 6213.74 871.392   4
   4   1   8 6095.78 823.710   8
   4  -1   8 6384.19 854.448   8
  -4   1  -9 98.6217 285.801   4
  -4  -1  -9 177.948 289.737   4
   4   1   9 158.373 329.068   8
   4  -1   9 423.843 362.325   8
   4   1  10 1219.34 481.101   8
   4  -1  10 860.085 413.273   8
   4   2 -13 1928.99 484.424  10
  -4  -2  13 2233.47 544.054   9
  -4   2  13 1872.17 538.070   5
   4  -2 -12 486.970 461.651   7
   4  -2 -12 336.010 310.138  10
  -4  -2  12 206.913 289.904   9
  -4   2  12 367.672 302.142   9
  -4   2  12 626.516 314.149   5
   4   2 -12 791.931 385.961  10
  -4  -2  11 2151.03 499.732   9
   4  -2 -11 1956.24 532.897   7
   4  -2 -11 558.988 270.186  10
   4   2 -11 854.852 331.097  10
  -4   2  11 1617.95 400.387   9
   4   2 -10 1491.14 428.681  10
   4  -2 -10 278.181 314.860   7
  -4   2  10 266.196 195.598   9
  -4  -2  10 1103.37 354.731   9
   4  -2 -10 459.860 279.898  10
   4  -2  -9 1717.62 347.631  10
  -4  -2   9 1854.05 337.504   2
   4  -2  -9 2594.62 488.861   7
  -4  -2   9 1745.40 415.286   9
  -4   2   9 1807.73 360.602   9
   4   2  -9 1753.88 403.727  10
  -4  -2   8 989.524 254.402   2
   4  -2  -8 1015.88 316.220   7
  -4  -2   8 695.714 253.377   9
  -4   2   8 1423.44 326.306   9
   4   2  -8 1179.78 334.614  10
   4  -2  -8 993.563 289.855  10
   4  -2  -7 12268.5 848.278   7
  -4   2   7 12517.2 788.886   9
  -4  -2   7 10373.6 789.179   9
   4  -2  -7 10561.1 733.258  10
  -4  -2   7 10636.7 714.213   2
   4   2  -7 11586.4 817.689  10
   4  -2  -6 11272.1 754.400   7
  -4   2   6 10409.6 663.943   9
  -4  -2   6 10454.0 722.518   9
   4   2  -6 11141.6 746.721  10
  -4  -2   6 11181.0 688.451   2
   4  -2  -6 10549.6 670.023  10
   4  -2  -5 13431.1 761.193   7
   4   2  -5 12912.2 757.853  10
  -4  -2   5 12497.8 744.250   9
   4  -2  -5 12179.6 696.215  10
  -4  -2   5 13381.1 746.562   2
  -4   2   5 13038.4 723.775   9
  -4   2   4 8739.43 514.586   6
   4  -2  -4 9343.77 580.399  10
  -4   2   4 9902.43 605.021   9
  -4  -2   4 8754.36 584.155   2
  -4  -2   4 9249.50 589.146   9
   4   2  -4 10076.4 618.024  10
  -4  -2   3 9697.97 384.038   7
  -4   2   3 7957.27 441.960   6
  -4  -2   3 7804.31 505.176   9
   4  -2  -3 9346.44 574.801  10
   4  -2  -3 8699.36 515.087   1
  -4   2   3 9158.26 576.415   9
   4   2  -3 8611.21 350.547   1
   4   2  -3 8919.16 485.703   8
  -4  -2   3 8595.88 564.684   2
  -4   2   3 8874.65 333.369   4
   4   2  -3 9223.94 555.822  10
  -4   2   2 128143. 2725.10   6
   4   2  -2 132804. 2593.35   6
  -4  -2   2 131816. 2892.63   9
   4  -2  -2 136378. 2918.13   1
  -4   2   2 132886. 3119.25   9
   4   2  -2 135953. 2924.10  10
   4   2  -2 135755. 2945.08   8
  -4   2   2 135117. 2717.31   4
  -4  -2   2 135640. 3065.99   2
   4   2  -1 28986.4 816.830   6
  -4  -2   1 25209.5 625.097   1
  -4   2   1 29277.8 919.549   6
   4  -2  -1 30342.9 1062.66   1
  -4  -2   1 28782.5 962.141   9
   4   2  -1 29603.3 971.604  10
  -4  -2   1 31891.2 648.551   1
   4   2  -1 31350.8 1109.47   8
  -4   2   1 29682.0 996.705   4
  -4  -2   1 29628.3 1084.94   2
  -4   2   0 1013.21 215.825   4
  -4  -2   0 989.700 128.876   7
   4  -2   0 863.427 233.992   1
  -4  -2   0 768.646 162.578   2
   4   2   0 985.564 226.060   3
  -4  -2   0 646.836 144.744   9
  -4  -2   0 1158.07 255.391   4
   4   2   0 1027.55 230.461   8
  -4  -2  -1 8355.70 458.516   7
   4   2   1 8199.72 537.370   3
  -4   2  -1 8237.73 354.922   5
   4  -2   1 7427.64 591.492   1
  -4  -2  -1 8898.95 666.968   4
   4   2   1 8725.93 644.704   8
  -4   2  -1 8984.53 637.304   4
  -4  -2  -2 465.001 178.475   7
  -4   2  -2 687.593 245.605   4
   4  -2   2 526.716 219.722   1
   4   2   2 223.751 178.993   8
  -4  -2  -2 370.441 196.221   4
  -4  -2  -3 3771.37 508.002   4
   4  -2   3 3195.11 490.828   8
  -4  -2  -3 3607.34 415.454   7
  -4   2  -3 3179.34 454.724   4
   4  -2   3 3592.32 469.957   1
   4   2   3 3824.13 494.369   8
  -4  -2  -4 19631.6 1068.19   7
  -4  -2  -4 17441.5 1149.33   4
   4   2   4 18535.2 1155.63   8
  -4   2  -4 17078.5 1122.82   4
   4  -2   4 21015.5 1242.40   8
   4  -2   4 17646.7 1117.49   1
   4  -2   5 4323.56 623.093   8
  -4  -2  -5 3753.85 563.316   4
  -4  -2  -5 3931.57 538.918   7
  -4   2  -5 4179.04 604.656   4
   4   2   5 3625.03 552.216   8
  -4  -2  -6 1977.14 483.669   7
  -4  -2  -6 1487.40 397.663   4
  -4   2  -6 1814.84 433.007   4
   4  -2   6 2305.12 458.371   9
   4   2   6 2246.49 469.722   8
   4  -2   6 1924.44 437.368   8
  -4  -2  -7 6318.48 803.776   7
  -4  -2  -7 5913.49 772.835   4
  -4   2  -7 5100.97 750.367   4
   4   2   7 6330.24 796.676   8
   4  -2   7 5790.92 795.286   8
  -4  -2  -8 1002.52 397.770   4
  -4   2  -8 845.475 409.585   4
   4   2   8 583.749 297.950   8
   4  -2   8 1045.23 460.695   8
  -4   2  -9 532.668 348.283   4
  -4  -2  -9 867.301 434.105   4
   4   2   9 1509.66 495.439   8
   4  -2   9 1643.32 497.311   8
   4  -3 -13 1678.82 634.802   7
  -4  -3  13 1432.00 476.866   9
  -4   3  13 900.676 474.975   5
   4   3 -13 912.000 416.670  10
   4  -3 -12 2252.72 567.453   7
   4   3 -12 2625.16 578.946  10
  -4  -3  12 2520.37 586.859   9
  -4   3  12 3317.07 655.427   5
   4  -3 -11 25168.4 1710.58   7
   4  -3 -11 24207.0 1396.55  10
  -4   3  11 24811.9 1403.62   9
  -4  -3  11 25871.9 1650.02   9
  -4   3  11 23751.1 1586.36   5
   4   3 -11 21127.9 1496.76  10
   4  -3 -10 2289.05 420.412  10
   4  -3 -10 1715.03 462.889   7
  -4   3  10 1188.49 336.532   9
  -4  -3  10 2297.25 498.322   9
   4   3 -10 2652.85 504.760  10
   4  -3  -9 13426.0 1085.94   7
   4   3  -9 12448.2 1007.12  10
   4  -3  -9 12762.3 891.880  10
  -4  -3   9 12349.0 1020.47   9
  -4  -3   9 14304.6 917.882   2
  -4   3   9 13662.4 919.021   9
   4  -3  -8 4182.50 592.471   7
   4  -3  -8 4264.29 486.316  10
  -4  -3   8 2982.94 488.638   9
  -4   3   8 3634.43 451.156   9
   4   3  -8 3849.17 520.494  10
  -4  -3   8 4342.03 508.064   2
  -4  -3   7 353.409 207.227   9
   4  -3  -7 515.488 277.582   7
   4   3  -7 235.680 193.721  10
  -4   3   7 320.799 212.578   9
  -4  -3   7 379.654 205.044   2
   4  -3  -7 774.880 250.739  10
   4  -3  -6 27260.3 1256.43   7
  -4   3   6 27028.8 1112.40   9
   4   3  -6 26218.0 1217.22  10
   4  -3  -6 28378.8 1136.94  10
  -4  -3   6 26382.1 1220.02   9
   4  -3  -6 23444.7 678.021   8
  -4  -3   6 27349.4 1202.40   2
  -4   3   5 12093.4 739.256   6
   4   3  -5 12716.2 776.973  10
   4  -3  -5 11166.9 674.003  10
  -4   3   5 11145.1 675.327   9
  -4  -3   5 11137.0 728.775   2
  -4  -3   5 11987.7 749.855   9
  -4   3   4 30758.4 1150.32   6
   4  -3  -4 31286.4 1171.41  10
   4   3  -4 32588.5 1207.41  10
  -4  -3   4 30739.7 1178.29   9
  -4   3   4 31634.4 1188.76   9
  -4  -3   4 31899.4 1257.27   2
  -4  -3   4 34558.7 1042.52   1
   4   3  -3 10537.9 602.238  10
   4   3  -3 10117.6 521.874   6
   4  -3  -3 9906.83 618.405   1
  -4   3   3 10710.5 657.720   9
  -4   3   3 9987.04 569.586   6
   4   3  -3 9354.57 563.536   8
  -4  -3   3 9936.47 578.699   9
  -4  -3   3 11167.9 458.950   1
   4  -3  -3 9853.48 379.281   4
  -4  -3   3 10257.8 657.806   2
  -4   3   3 10017.9 356.495   4
  -4  -3   2 4333.13 250.504   1
  -4   3   2 4094.28 345.932   6
   4  -3  -2 4046.10 397.081   1
  -4  -3   2 4216.90 340.953   9
  -4  -3   2 3171.52 370.485   2
   4   3  -2 3526.60 356.779   8
   4   3  -2 3787.01 298.781   6
  -4   3   2 4260.08 289.148   4
   4   3  -2 4117.98 344.443  10
  -4  -3   1 1284.94 233.157   2
  -4   3   1 1580.98 228.356   4
  -4  -3   1 1687.97 160.836   1
   4   3  -1 1015.81 168.182  10
   4   3  -1 1785.94 216.728   6
   4   3  -1 870.733 225.724   3
  -4   3   1 1315.85 213.818   6
   4  -3  -1 1669.36 271.472   1
  -4  -3   1 1375.63 189.181   9
   4   3  -1 1746.18 281.104   8
  -4  -3   0 3252.92 250.102   7
  -4  -3   0 2931.03 258.863   9
  -4   3   0 2784.02 321.969   4
   4  -3   0 2517.70 188.086   3
   4   3   0 3049.78 369.890   3
  -4  -3   0 3029.23 333.560   2
   4   3   0 3346.35 279.260  10
   4   3   0 2726.31 354.957   8
   4  -3   0 3307.06 411.000   1
   4   3   0 2992.28 296.151   6
  -4  -3  -1 81.2704 119.868   2
  -4  -3  -1 161.560 105.382   7
  -4   3  -1 104.817 140.332   4
   4  -3   1 189.915 241.364   1
   4   3   1 21.3381 99.5515  10
   4   3   1-14.2018 120.322   3
  -4  -3  -1 198.194 99.6406   9
   4   3   1 250.116 197.690   8
  -4  -3  -1 144.356 172.896   4
  -4  -3  -2 5152.22 437.629   7
  -4  -3  -2 5786.48 440.894   2
   4  -3   2 4539.61 553.081   1
  -4  -3  -2 5417.06 570.793   4
   4   3   2 5245.45 548.672   8
  -4   3  -2 4458.97 497.793   4
  -4  -3  -3-35.4173 128.418   7
  -4   3  -3 242.882 182.767   4
   4  -3   3-71.2212 203.585   1
   4   3   3 330.920 240.264   8
  -4  -3  -3 87.6129 153.569   4
  -4  -3  -4 970.781 320.577   4
  -4  -3  -4 688.617 228.720   7
   4   3   4 460.924 270.296   8
   4  -3   4 674.192 275.224   1
  -4   3  -4 862.803 289.781   4
   4  -3   5 21.8117 327.602   8
  -4  -3  -5 114.905 185.540   4
  -4   3  -5 130.749 190.056   4
   4  -3   5-417.564 266.823   1
   4   3   5 342.580 222.750   8
   4  -3   6 254.804 285.823   8
  -4  -3  -6 152.403 265.384   4
  -4  -3  -6 587.285 385.034   7
   4  -3   6 923.899 380.579   9
  -4   3  -6 431.009 304.043   4
   4   3   6 53.5235 186.620   8
  -4  -3  -7 404.419 341.038   7
  -4  -3  -7 333.402 271.580   4
  -4   3  -7 190.662 279.693   4
   4   3   7 917.285 397.941   8
   4  -3   7 359.997 282.926   8
  -4  -3  -8 485.169 419.354   7
  -4  -3  -8-75.9778 230.525   4
  -4   3  -8-143.170 252.525   4
   4   3   8 10.0885 263.273   8
   4  -3   8 89.0703 235.904   8
  -4   3  -9 1616.48 505.266   4
  -4  -3  -9 2019.09 542.969   4
   4   3   9 2422.75 567.226   8
   4  -3   9 2651.68 612.291   8
   4  -4 -12 1942.61 646.898   7
   4   4 -12 1840.34 511.039  10
  -4  -4  12 1710.96 535.040   9
  -4   4  12 859.824 378.909   5
   4  -4 -11-89.0794 294.698   7
   4   4 -11 160.954 304.376  10
  -4  -4  11 503.914 339.403   9
  -4   4  11 450.184 317.379   5
  -4  -4  10 4100.85 535.408   2
   4  -4 -10 4442.76 706.262   7
   4  -4 -10 4114.50 545.211  10
   4   4 -10 4540.22 680.336  10
  -4  -4  10 4240.07 654.736   9
  -4   4  10 4626.40 677.784   5
  -4   4  10 4567.69 561.186   9
  -4   4   9 4593.25 525.956   9
   4  -4  -9 4747.49 663.173   7
   4  -4  -9 3862.46 494.250  10
  -4  -4   9 4856.50 658.743   9
  -4   4   9 2705.90 498.614   5
   4   4  -9 4166.85 607.506  10
  -4  -4   9 4863.56 576.061   2
   4  -4  -8 3043.32 521.127   7
   4  -4  -8 3112.48 406.428  10
   4   4  -8 2804.21 489.737  10
  -4   4   8 3145.98 505.547   5
  -4  -4   8 2037.84 426.941   9
  -4   4   8 2909.02 388.637   9
  -4  -4   8 2638.33 416.259   2
   4  -4  -7 6499.71 698.422   7
   4   4  -7 7953.55 724.844  10
  -4   4   7 8660.56 634.988   9
   4  -4  -7 8691.63 643.398  10
  -4  -4   7 8166.06 717.088   2
  -4  -4   7 6833.56 681.415   9
   4  -4  -6 6779.57 650.929   7
  -4   4   6 7349.64 674.472   6
  -4  -4   6 6855.81 635.197   9
  -4   4   6 7090.05 544.135   9
   4   4  -6 6290.94 611.542  10
   4  -4  -6 6839.75 534.610  10
  -4  -4   6 7712.84 663.564   2
   4  -4  -5 1793.37 274.742  10
   4   4  -5 1658.49 299.331  10
  -4   4   5 1310.81 294.226   6
  -4   4   5 1442.48 272.084   9
  -4  -4   5 1429.00 263.950   1
  -4  -4   5 1693.91 300.122   9
  -4  -4   5 1371.58 298.797   2
  -4  -4   4 15835.3 826.442   9
   4   4  -4 16340.0 820.187   6
   4  -4  -4 14928.7 783.984  10
   4  -4  -4 16055.9 909.908   1
  -4   4   4 16291.7 866.436   6
   4   4  -4 16783.2 848.014  10
  -4   4   4 16477.8 833.815   9
  -4  -4   4 16716.7 929.668   2
  -4  -4   4 15800.5 757.913   1
   4  -4  -3 1196.37 287.779   1
   4  -4  -3 1022.82 135.376   4
  -4   4   3 882.104 224.944   6
   4   4  -3 1214.55 231.292   6
  -4  -4   3 1424.51 236.679   1
  -4  -4   3 1033.99 225.338   9
   4   4  -3 1011.78 233.014  10
  -4   4   3 1640.51 285.363   9
   4   4  -3 1307.33 258.719   8
  -4  -4   3 1030.80 266.316   2
   4   4  -2 56064.8 1542.32  10
  -4  -4   2 56791.9 1546.07   9
  -4   4   2 58413.5 1735.62   6
   4   4  -2 55319.8 1578.45   6
   4  -4  -2 55124.6 1792.40   1
  -4  -4   2 56237.8 1467.51   1
  -4   4   2 58724.2 1454.51   5
  -4  -4   2 54864.7 1799.30   2
   4   4  -2 53488.1 1727.07   8
   4   4  -2 52934.0 1874.07   3
  -4   4   2 57609.5 1459.31   4
   4   4  -1 9441.39 558.578   6
  -4   4   1 7645.85 568.709   6
   4   4  -1 9255.51 478.920  10
  -4  -4   1 8921.39 465.757   1
  -4   4   1 8974.24 353.923   5
  -4  -4   1 9387.78 645.959   2
   4   4  -1 8620.16 630.136   8
   4  -4  -1 8806.95 664.219   1
   4   4  -1 8127.56 668.276   3
  -4   4   1 9539.59 551.625   4
  -4  -4   1 9324.99 473.328   9
  -4   4   0 21199.1 1019.41   6
   4   4   0 22469.7 941.337   6
  -4  -4   0 22595.6 839.128   1
   4   4   0 20752.7 1069.01   3
  -4  -4   0 21886.9 711.455   9
   4   4   0 21906.2 718.395  10
   4  -4   0 20480.5 1108.67   1
  -4  -4   0 22260.8 997.545   2
   4   4   0 19807.0 1035.55   8
  -4   4   0 22149.2 976.331   4
  -4  -4  -1 3564.84 346.552   7
   4   4   1 4068.35 475.411   3
  -4  -4  -1 4141.55 264.374   9
  -4  -4  -1 3431.76 446.690   4
   4   4   1 3686.62 249.882  10
  -4  -4  -1 4263.11 415.651   2
  -4   4  -1 3846.43 440.241   4
   4   4   1 3117.23 424.913   8
   4  -4   1 3865.55 522.911   1
   4   4   1 4336.60 433.749   6
  -4  -4  -2 25531.7 1051.96   7
   4   4   2 23276.4 742.036  10
  -4  -4  -2 23335.4 741.807   9
   4  -4   2 25009.4 1340.97   1
  -4  -4  -2 24267.0 1275.12   4
   4   4   2 23898.7 1242.80   8
  -4  -4  -2 25345.3 1024.21   2
  -4   4  -2 24995.0 1227.32   4
  -4  -4  -3 87.3776 132.281   7
   4  -4   3 730.798 348.309   1
  -4   4  -3-78.2405 149.234   4
  -4  -4  -3 355.197 197.767   2
   4   4   3 523.570 253.962   8
  -4  -4  -3 133.335 184.310   4
  -4  -4  -4 33695.6 1465.90   7
   4  -4   4 30835.8 1652.15   1
  -4  -4  -4 30267.2 1573.22   4
   4   4   4 30407.2 1563.55   8
  -4   4  -4 29652.7 1562.35   4
  -4   4  -5 480.351 305.630   4
  -4  -4  -5 570.291 327.827   4
  -4  -4  -5 406.436 252.447   7
   4   4   5 750.950 293.664   8
   4  -4   5 249.259 241.769   1
  -4  -4  -6 6099.09 748.467   7
  -4  -4  -6 5042.75 696.378   4
  -4   4  -6 4419.90 699.081   4
   4   4   6 6719.31 792.559   8
   4  -4   6 7077.53 872.799   8
   4  -4   7 3312.95 662.971   8
  -4  -4  -7 1902.02 483.985   4
  -4  -4  -7 3220.99 641.414   7
   4   4   7 2621.04 535.800   8
  -4   4  -7 2772.57 617.992   4
  -4  -4  -8 12100.0 1204.26   7
   4   4   8 9160.15 999.503   8
  -4  -4  -8 9801.35 1053.67   4
   4  -4   8 10882.3 1166.10   8
  -4   4  -8 8829.23 1062.32   4
  -4  -4  -9 789.711 442.107   7
  -4  -4  -9-132.921 267.038   4
   4   4   9 462.845 367.869   8
   4  -4   9 240.666 281.491   8
   4  -5 -12 21832.3 1725.87   7
   4   5 -12 20982.1 1617.28  10
  -4  -5  12 20371.7 1616.05   9
  -4   5  12 20478.2 1618.12   5
   4  -5 -11 955.886 496.479   7
   4   5 -11 776.863 428.138  10
  -4  -5  11 286.917 304.343   9
  -4   5  11 1325.07 450.569   5
   4  -5 -10 11423.9 1109.71   7
   4   5 -10 9953.38 1022.66  10
  -4  -5  10 9558.85 1019.40   9
  -4   5  10 9361.62 995.287   5
  -4  -5  10 9672.33 884.471   2
   4  -5  -9 1952.78 487.004   7
   4   5  -9 1332.60 407.612  10
  -4  -5   9 1684.33 424.190   9
  -4   5   9 1042.70 366.843   5
  -4  -5   9 2330.57 441.939   2
   4  -5  -8 21639.1 1375.73   7
   4   5  -8 22164.5 1343.52  10
  -4  -5   8 21944.1 1347.20   9
  -4   5   8 21761.6 1077.08   9
  -4   5   8 18771.8 1258.80   5
  -4  -5   8 21370.7 1254.52   2
   4  -5  -8 22654.1 1097.59  10
   4  -5  -7 9590.00 851.546   7
   4   5  -7 8090.40 759.198  10
   4  -5  -7 9117.34 662.248  10
  -4  -5   7 8797.16 788.612   9
  -4   5   7 8459.40 632.201   9
  -4   5   7 8229.02 770.075   5
  -4  -5   7 9319.94 793.949   2
   4   5  -6 83239.6 2604.48  10
   4  -5  -6 87296.1 2340.05  10
  -4  -5   6 80649.3 2582.26   9
  -4   5   6 85960.9 2323.92   9
  -4   5   6 81012.4 2584.50   5
  -4  -5   6 85077.8 2655.13   2
  -4  -5   6 83928.5 2547.41   1
  -4   5   6 84419.6 2700.05   6
   4  -5  -5 758.088 255.027   1
   4   5  -5 681.007 238.541  10
  -4   5   5 751.524 264.544   6
   4  -5  -5 840.522 234.832  10
  -4  -5   5 995.937 273.736   9
  -4   5   5 1628.51 316.973   5
  -4  -5   5 1148.28 283.974   1
  -4   5   5 1311.15 267.497   9
  -4  -5   5 1176.29 294.361   2
   4   5  -4 10316.7 682.499  10
   4  -5  -4 10425.1 677.910  10
  -4   5   4 9158.51 702.650   6
   4   5  -4 10583.0 700.423   6
   4  -5  -4 9234.56 750.038   1
  -4  -5   4 10163.6 672.815   9
  -4   5   4 10717.8 690.834   9
  -4   5   4 10092.2 673.878   5
  -4  -5   4 11793.0 726.962   1
  -4  -5   4 10091.5 758.590   2
   4  -5  -4 8531.60 340.570   4
   4  -5  -3 269.161 171.871   1
  -4  -5   3 563.526 220.192   1
   4   5  -3 411.395 185.487  10
  -4   5   3 143.977 169.232   6
  -4  -5   3 547.156 168.454   9
  -4   5   3 413.873 173.346   5
  -4   5   3 463.890 183.611   9
   4   5  -3 361.511 178.300   6
  -4  -5   3 675.924 236.764   2
   4   5  -2 48583.9 1399.05  10
  -4   5   2 46677.6 1665.83   6
   4   5  -2 46324.4 1542.24   6
  -4  -5   2 46588.6 1700.15   2
   4   5  -2 46128.3 1809.26   3
   4  -5  -2 47833.2 1753.97   1
  -4  -5   2 46744.2 1383.55   9
  -4  -5   2 47738.8 1468.73   1
  -4   5   2 47643.7 1328.62   5
   4   5  -2 47299.7 1684.05   8
   4   5  -1-33.2959 77.0049  10
  -4  -5   1 114.560 138.069   1
  -4   5   1-126.627 158.794   6
  -4   5   1 79.6241 139.119   4
   4   5  -1-93.4162 130.815   6
   4  -5  -1 357.896 248.236   1
   4   5  -1-117.493 185.013   3
  -4  -5   1 46.4914 89.3603   9
   4   5  -1-44.7590 164.633   8
  -4  -5   1 215.126 165.195   2
   4   5   0 89751.7 1857.05  10
   4   5   0 89255.7 2413.94   6
  -4  -5   0 88969.9 2249.50   1
  -4   5   0 84829.9 2546.92   6
   4   5   0 79464.0 2572.86   3
  -4  -5   0 89026.8 1854.32   9
   4  -5   0 85583.2 2700.74   1
  -4  -5   0 86167.9 2446.06   2
   4   5   0 86414.2 2587.98   8
  -4   5   0 85579.0 2387.18   4
  -4  -5  -1 26.9845 147.022   2
   4  -5   1 131.394 304.408   1
   4   5   1 129.531 219.287   3
  -4   5  -1 179.335 150.485   4
   4   5   1 42.6036 179.079   6
   4   5   1-35.3799 153.866   8
  -4   5  -1 261.456 225.936   6
  -4  -5  -1 222.405 155.065   7
  -4  -5  -2 1080.32 230.072   2
  -4  -5  -2 1297.38 267.980   7
  -4   5  -2 1579.27 351.281   4
   4   5   2 736.321 247.168   6
   4  -5   2 1675.04 425.655   1
   4   5   2 1544.63 330.553   8
  -4  -5  -2 1375.13 342.276   4
  -4  -5  -3 2401.83 321.108   2
  -4  -5  -3 2270.53 363.954   7
  -4   5  -3 2340.35 448.047   4
   4   5   3 2160.66 431.173   8
   4  -5   3 3340.34 562.741   1
  -4  -5  -3 1697.53 412.865   4
  -4  -5  -4 13089.6 914.365   7
   4  -5   4 12971.4 1097.13   1
  -4  -5  -4 13475.1 1051.90   4
   4   5   4 13919.5 1047.30   8
  -4   5  -4 12581.4 1029.29   4
  -4  -5  -5 365.268 266.198   4
  -4  -5  -5 147.815 197.558   7
  -4   5  -5 330.547 321.732   4
   4   5   5 3.79286 246.024   8
   4  -5   5-122.763 249.825   1
  -4  -5  -6 5547.97 732.319   4
  -4  -5  -6 6679.07 784.525   7
  -4   5  -6 6240.77 815.196   4
   4  -5   6 5026.54 768.723   1
   4   5   6 6206.91 769.583   8
   4  -5   7 548.091 361.566   8
  -4  -5  -7 1010.74 379.156   4
  -4  -5  -7 1406.17 497.550   7
  -4   5  -7 1066.07 427.307   4
   4   5   7 1421.13 467.863   8
   4  -5   8 4150.71 749.374   8
  -4  -5  -8 3508.49 644.660   4
  -4  -5  -8 5164.17 796.922   7
  -4   5  -8 3636.55 731.132   4
   4   5   8 3867.20 662.466   8
  -4  -5  -9 543.724 447.123   7
   4   5   9 455.905 341.545   8
   4  -6 -11 2606.98 599.999   7
   4   6 -11 2875.09 624.098  10
  -4  -6  11 2358.76 556.466   9
  -4   6  11 3110.41 635.521   5
   4  -6 -10 4471.23 730.345   7
   4   6 -10 2784.23 593.061  10
  -4  -6  10 3151.90 602.421   9
  -4   6  10 3901.68 675.987   5
  -4  -6  10 4538.38 649.113   2
   4  -6  -9 856.975 371.925   7
   4   6  -9 613.336 341.611  10
  -4  -6   9 3.57086 264.132   9
  -4   6   9 159.566 199.262   5
  -4  -6   9-46.3498 204.534   2
  -4   6   8 5556.00 707.452   5
   4   6  -8 6176.85 726.738  10
  -4  -6   8 7092.58 785.161   9
  -4  -6   8 7930.14 800.277   2
   4  -6  -8 4882.65 671.888   7
  -4   6   7 168.679 135.968   9
   4  -6  -7-146.824 237.896   7
   4   6  -7 427.500 227.217  10
   4  -6  -7 315.192 166.992  10
  -4  -6   7 59.2440 219.110   9
  -4   6   7 207.084 231.217   5
  -4  -6   7 332.731 231.803   1
  -4   6   7 711.509 328.452   6
  -4  -6   7 36.8000 225.741   2
  -4   6   6 5671.34 685.649   6
   4  -6  -6 5655.03 511.782  10
   4  -6  -6 6148.74 706.006   1
   4   6  -6 5265.45 613.335  10
  -4  -6   6 4954.49 576.204   9
  -4   6   6 5438.25 494.108   9
  -4   6   6 4878.09 578.278   5
  -4  -6   6 5407.89 639.894   2
  -4  -6   6 5238.32 596.124   1
  -4  -6   5 3923.44 503.900   1
  -4   6   5 4180.88 545.775   6
   4  -6  -5 3430.69 388.303  10
   4   6  -5 3447.84 501.660   6
  -4  -6   5 3039.73 449.743   9
  -4   6   5 3505.89 465.295   5
  -4   6   5 2886.89 360.406   9
   4   6  -5 3684.26 453.188  10
   4  -6  -5 3541.71 557.679   1
  -4  -6   5 2247.56 424.381   2
   4   6  -4 5809.34 531.599  10
  -4   6   4 6176.70 621.226   6
   4  -6  -4 5293.60 611.517   1
   4   6  -4 5763.65 576.903   6
  -4  -6   4 4926.23 564.053   2
  -4  -6   4 6286.31 560.352   9
  -4   6   4 5494.07 507.879   9
  -4   6   4 6767.06 574.029   5
   4   6  -4 5831.13 667.445   3
  -4  -6   4 6117.11 592.378   1
   4  -6  -4 4845.78 471.876  10
  -4  -6   3 3398.55 448.469   1
   4  -6  -3 3276.22 481.252   1
   4   6  -3 3803.63 551.725   3
   4   6  -3 3791.24 406.024  10
  -4  -6   3 3147.15 364.379   9
  -4   6   3 2904.49 435.053   6
   4   6  -3 3240.09 430.841   6
  -4  -6   3 2312.28 394.337   2
  -4   6   3 3403.01 374.045   5
  -4   6   3 3523.68 434.827   9
   4   6  -2 40117.5 1281.97  10
  -4   6   2 40390.4 1651.15   6
   4   6  -2 42124.3 1556.82   6
   4   6  -2 37824.1 1718.94   3
   4  -6  -2 41009.5 1725.36   1
  -4  -6   2 40290.6 1292.04   9
  -4   6   2 39863.5 1258.04   5
  -4  -6   2 42018.1 1484.88   1
  -4  -6   2 37743.5 1602.17   2
   4   6  -2 38843.1 1616.89   8
   4   6  -1 1652.83 209.666  10
   4   6  -1 1128.20 287.020   6
  -4  -6   1 2157.27 237.122   9
   4  -6  -1 1913.34 436.966   1
   4   6  -1 1388.02 357.355   3
  -4  -6   1 2179.29 334.908   1
  -4   6   1 2183.37 384.738   6
   4   6  -1 2064.14 382.807   8
  -4  -6   1 1540.24 336.255   2
  -4   6   0 1560.79 386.314   6
  -4  -6   0 1654.25 290.677   1
  -4   6   0 1518.60 308.780   4
   4   6   0 1500.28 318.538   6
   4   6   0 1209.18 323.652   3
   4  -6   0 1273.26 339.126   1
   4   6   0 1301.80 341.216   8
  -4  -6   0 1437.13 294.982   2
   4   6   1 3564.09 460.663   6
   4  -6   1 2407.00 495.159   1
  -4   6  -1 3514.73 476.904   4
  -4   6  -1 3240.97 487.909   6
   4   6   1 1763.52 404.648   3
   4   6   1 2403.12 431.628   8
  -4  -6  -1 2919.28 390.948   1
  -4  -6  -1 2965.67 408.503   2
  -4  -6  -2 10914.2 752.866   7
  -4   6  -2 10237.1 914.495   6
   4  -6   2 8516.98 894.195   1
  -4  -6  -2 8906.80 803.533   4
   4   6   2 9810.21 841.630   8
  -4  -6  -2 11054.9 744.072   2
  -4   6  -2 8747.40 772.702   4
   4   6   2 10430.7 823.539   6
  -4  -6  -3 4024.91 498.914   7
  -4   6  -3 4059.28 592.663   4
   4  -6   3 4032.88 641.045   1
  -4  -6  -3 4070.66 445.055   2
   4   6   3 3729.02 572.138   8
  -4  -6  -3 3908.03 587.158   4
  -4  -6  -4 43009.0 1790.63   7
   4  -6   4 38411.8 2039.01   1
  -4  -6  -4 38411.4 1890.12   4
   4   6   4 39224.3 1902.56   8
  -4   6  -4 38050.2 1903.68   4
  -4  -6  -5 2831.31 497.844   7
  -4   6  -5 3036.00 573.292   4
   4  -6   5 1891.24 533.460   1
   4   6   5 2831.06 552.719   8
  -4  -6  -5 2949.65 546.435   4
  -4  -6  -6 242.148 255.309   4
  -4  -6  -6 47.8103 222.850   7
  -4   6  -6 445.630 353.346   4
   4  -6   6 486.137 294.200   1
   4   6   6 128.812 271.976   8
  -4  -6  -7 1976.88 489.534   4
  -4  -6  -7 1833.67 486.246   7
  -4   6  -7 2032.90 559.704   4
   4  -6   7 1369.37 477.898   1
   4   6   7 2137.19 509.665   8
   4  -6   8 3782.06 748.316   8
  -4  -6  -8 3276.62 686.544   7
   4   6   8 4796.81 799.414   8
   4  -7 -11 4306.92 785.949   7
  -4  -7  11 4226.47 767.768   9
  -4   7  11 5074.13 823.020   5
   4   7 -11 4319.23 777.034  10
   4  -7 -10 810.518 438.256   7
   4   7 -10 1032.23 420.465  10
  -4  -7  10 331.543 356.326   9
  -4   7  10 321.189 289.286   5
  -4  -7  10 777.455 324.490   2
   4  -7  -9 307.131 300.304   7
   4   7  -9 155.625 229.720  10
  -4  -7   9 399.003 319.044   9
  -4   7   9 204.487 309.643   5
  -4  -7   9 492.457 322.414   2
  -4  -7   8 359.521 288.162   1
   4   7  -8 548.523 301.605  10
  -4  -7   8 368.134 308.674   9
  -4   7   8-45.0882 211.920   5
   4  -7  -8 180.599 280.913   7
  -4  -7   8 256.988 196.192   2
   4  -7  -7 1460.11 435.023   1
  -4   7   7 2446.19 532.651   6
  -4  -7   7 1567.24 391.319   1
  -4  -7   7 1127.99 339.371   9
   4   7  -7 2241.90 439.922  10
  -4   7   7 1846.40 451.835   5
  -4  -7   7 1871.89 438.485   2
   4   7  -6 13798.1 990.887  10
  -4   7   6 13796.7 1085.70   6
   4  -7  -6 12588.9 1059.03   1
  -4  -7   6 11961.0 928.986   9
  -4   7   6 11899.1 954.085   5
  -4  -7   6 13370.0 1034.66   2
  -4  -7   6 14364.6 1038.60   1
   4   7  -6 13152.6 1032.45   6
   4   7  -5 7170.09 679.065  10
   4  -7  -5 7428.60 587.805  10
   4   7  -5 5993.11 667.845   6
  -4  -7   5 7234.15 679.018   9
  -4   7   5 6938.65 755.923   6
  -4   7   5 7522.33 593.919   9
  -4   7   5 6551.67 644.055   5
  -4  -7   5 7599.25 750.109   1
  -4  -7   5 6860.51 716.849   2
   4  -7  -5 7367.64 790.653   1
   4   7  -5 6933.82 801.046   3
   4   7  -4 7061.44 618.870  10
   4  -7  -4 8153.48 629.828  10
   4   7  -4 7797.01 720.525   6
   4   7  -4 6858.89 771.552   3
  -4  -7   4 7854.61 650.559   9
  -4   7   4 7854.22 631.165   9
   4  -7  -4 7591.28 770.649   1
  -4   7   4 7668.58 659.053   5
  -4  -7   4 7780.83 730.117   1
  -4  -7   4 7296.72 735.572   2
  -4   7   4 7892.99 762.877   6
  -4  -7   3 675.781 267.929   1
   4   7  -3 691.185 202.316  10
  -4   7   3 507.629 246.365   6
  -4  -7   3 464.233 177.080   9
   4  -7  -3 748.186 284.469   1
  -4   7   3 499.266 224.916   5
  -4   7   3 1084.50 279.302   9
   4   7  -3 816.238 285.648   6
  -4  -7   3 601.456 229.555   2
   4   7  -3 786.730 338.800   3
   4  -7  -2 3576.75 542.722   1
   4   7  -2 4060.09 374.002  10
  -4   7   2 4044.54 548.008   6
   4   7  -2 3612.78 472.779   6
  -4  -7   2 3562.45 348.904   9
   4   7  -2 3036.13 538.162   3
  -4  -7   2 3386.48 450.283   1
  -4  -7   2 3125.93 464.981   2
   4   7  -1 4939.69 554.359   6
  -4   7   1 5776.09 667.963   6
  -4  -7   1 4400.69 496.525   1
   4  -7  -1 4603.68 624.799   1
   4   7  -1 4648.69 608.185   3
  -4  -7   1 4542.79 555.503   2
   4   7  -1 5212.74 622.446   8
  -4   7   0 3024.50 489.179   6
   4   7   0 3074.76 467.109   6
  -4  -7   0 2968.00 421.599   1
   4   7   0 2631.64 465.857   3
   4  -7   0 2176.65 527.350   1
   4   7   0 3158.77 503.576   8
  -4  -7   0 3096.70 457.647   2
  -4  -7  -1 6300.70 621.180   1
  -4   7  -1 4987.56 675.360   6
  -4  -7  -1 5739.44 606.429   2
   4   7   1 5747.22 676.439   8
   4   7   1 6673.76 686.332   6
   4  -7   1 5862.46 766.479   1
  -4  -7  -2 2003.36 354.921   2
  -4   7  -2 2622.78 468.163   4
  -4  -7  -2 2487.71 413.149   7
   4  -7   2 1626.63 445.134   1
  -4   7  -2 1821.46 449.296   6
  -4  -7  -2 1710.04 399.996   4
   4   7   2 2780.30 509.838   8
   4   7   2 2582.31 471.901   6
  -4  -7  -2 1965.88 382.195   1
  -4  -7  -3 1144.12 334.365   7
   4   7   3 900.611 343.276   6
   4  -7   3 1368.54 479.031   1
  -4   7  -3 708.975 296.081   4
   4   7   3 1341.09 394.615   8
  -4  -7  -3 852.024 370.496   4
  -4   7  -3 994.667 425.244   6
   4  -7   4 5463.10 802.847   1
  -4  -7  -4 4222.65 565.783   7
  -4   7  -4 4318.69 655.491   4
   4   7   4 4900.17 695.837   8
  -4  -7  -4 5163.30 687.680   4
  -4  -7  -5 114.780 263.099   7
  -4   7  -5-83.6915 241.024   4
   4  -7   5 584.797 344.984   1
   4   7   5 282.583 344.860   8
  -4  -7  -5-64.1774 195.909   4
  -4  -7  -6 921.753 399.298   4
  -4  -7  -6 604.270 299.831   7
   4  -7   6 183.874 346.618   1
  -4   7  -6-50.4057 231.643   4
   4   7   6 1130.86 416.322   8
  -4  -7  -7 152.094 256.856   4
  -4   7  -7 281.012 296.655   4
   4  -7   7 67.0812 334.571   1
   4   7   7-80.5610 236.748   8
   4   7   8 3873.35 698.282   8
   4  -8 -10 236.098 352.307   7
   4   8 -10 50.3327 249.652  10
  -4  -8  10 228.309 268.949   9
  -4   8  10 780.637 439.722   5
  -4  -8  10 98.3306 281.090   2
  -4  -8   9 568.154 305.452   9
   4  -8  -9 766.009 364.820   1
   4   8  -9 305.362 257.696  10
  -4   8   9 108.443 286.475   5
   4  -8  -9-346.232 235.861   7
  -4  -8   9 796.848 352.409   2
   4  -8  -8 330.984 332.803   7
   4   8  -8 831.153 394.421  10
   4   8  -8 465.264 350.952   3
  -4  -8   8 169.284 231.213   1
   4   8  -8 239.449 354.719   6
  -4  -8   8 280.008 289.081   9
  -4   8   8 104.255 274.432   5
   4  -8  -8 1003.64 399.191   1
  -4  -8   8 359.380 254.085   2
  -4  -8   7 4775.03 682.305   1
   4   8  -7 3649.92 605.458  10
  -4   8   7 4119.78 689.597   6
   4   8  -7 3576.42 631.499   3
   4   8  -7 3511.19 595.456   6
  -4  -8   7 3256.91 569.210   9
  -4   8   7 3039.78 574.184   5
  -4  -8   7 3265.90 574.480   2
   4  -8  -7 3131.02 593.094   1
   4   8  -6 9326.72 831.138  10
   4  -8  -6 9099.50 962.505   1
   4   8  -6 8791.44 937.077   3
  -4  -8   6 8983.23 850.416   9
  -4   8   6 8966.41 861.704   5
  -4  -8   6 8482.11 897.876   2
  -4  -8   6 8542.33 853.650   1
  -4   8   6 9540.67 970.584   6
   4   8  -6 10159.0 951.833   6
   4  -8  -5 2607.17 493.780   1
   4   8  -5 2521.91 433.266  10
   4   8  -5 2140.23 441.482   6
   4   8  -5 2708.98 546.854   3
  -4   8   5 2716.06 538.796   6
  -4  -8   5 2296.52 428.927   9
  -4   8   5 2251.71 417.754   5
  -4  -8   5 1657.71 401.609   2
  -4  -8   5 2981.32 548.277   1
   4  -8  -4 1629.21 441.320   1
   4   8  -4 921.976 275.358  10
  -4   8   4 1221.04 363.528   6
   4  -8  -4 1088.28 279.866  10
  -4  -8   4 857.596 375.929   1
   4   8  -4 1491.60 415.249   3
  -4  -8   4 1132.96 313.688   9
   4   8  -4 849.998 298.920   6
  -4   8   4 1069.64 281.708   5
  -4   8   4 1063.59 263.802   9
  -4  -8   4 1213.09 337.302   2
  -4  -8   3 730.645 336.387   1
  -4  -8   3 875.735 234.150   9
  -4   8   3 565.739 303.094   6
   4  -8  -3 402.116 299.521   1
   4   8  -3 782.118 310.489   6
   4   8  -3 559.896 288.201   3
  -4   8   3 1315.77 343.217   9
  -4  -8   3 820.340 334.877   2
  -4   8   2 8052.17 833.064   6
   4   8  -2 8046.62 757.349   6
   4   8  -2 7443.90 832.375   3
   4  -8  -2 7395.36 824.550   1
  -4  -8   2 6940.67 699.875   1
  -4  -8   2 7572.99 766.350   2
   4  -8  -1 4604.29 692.512   1
  -4   8   1 4430.48 641.868   6
  -4  -8   1 3696.72 515.440   1
   4   8  -1 3341.58 582.785   3
  -4  -8   1 3867.86 548.365   2
   4   8  -1 3908.89 541.256   6
   4   8   0 11562.8 929.353   6
  -4   8   0 11901.9 1022.81   6
   4   8   0 11190.1 1014.20   3
  -4  -8   0 12834.3 915.305   1
   4  -8   0 11206.8 1082.27   1
  -4  -8   0 9779.11 848.611   2
   4   8   0 11420.7 982.354   8
  -4  -8  -1 3251.79 501.224   1
  -4   8  -1 4020.06 629.963   6
   4   8   1 3117.38 529.320   6
   4   8   1 3743.85 589.735   8
  -4  -8  -1 3491.29 498.309   2
   4  -8   1 2701.43 577.334   1
  -4  -8  -2 8543.56 756.674   7
   4   8   2 8410.12 837.198   6
   4  -8   2 8142.46 978.408   1
  -4   8  -2 9756.88 987.598   6
  -4  -8  -2 10926.6 892.728   1
  -4  -8  -2 8757.69 861.323   4
  -4  -8  -2 9335.03 792.443   2
   4   8   2 10316.5 951.938   8
  -4  -8  -3 3388.22 520.084   7
  -4   8  -3 1931.84 576.309   6
   4  -8   3 2747.49 647.337   1
   4   8   3 1906.42 473.284   6
   4   8   3 3366.94 599.247   8
  -4  -8  -3 1805.71 448.695   1
  -4  -8  -3 2565.81 509.098   4
  -4  -8  -4 367.137 223.125   7
  -4   8  -4 937.626 445.755   6
  -4  -8  -4 172.063 221.079   1
   4   8   4 651.920 360.901   8
  -4  -8  -4 220.372 232.751   4
  -4  -8  -5 145.845 181.587   7
  -4   8  -5-65.1456 302.095   4
   4  -8   5 1083.54 480.915   1
  -4   8  -5 1073.22 506.651   6
   4   8   5 345.295 297.943   8
  -4  -8  -5 152.317 212.824   4
   4   8   6 15617.9 1353.24   8
  -4  -8  -6 14418.1 1282.15   4
   4  -8   6 16698.0 1539.09   1
  -4   8  -6 14347.7 1376.30   4
   4   8   7 303.748 313.203   8
  -4  -9  10 5677.28 854.039   2
   4  -9  -9 919.449 500.475   7
   4   9  -9 497.587 373.127  10
   4   9  -9-75.2752 233.504   3
   4   9  -9-244.564 285.559   6
  -4  -9   9 384.009 338.167   9
  -4   9   9 116.644 249.675   5
   4  -9  -9 468.195 433.347   1
  -4  -9   9 905.152 390.805   2
   4  -9  -8 7739.00 1019.93   7
   4   9  -8 7269.82 869.700  10
   4   9  -8 6718.14 874.741   3
   4   9  -8 9644.19 1083.04   6
  -4   9   8 8134.38 1059.51   6
   4  -9  -8 8992.83 1067.41   1
  -4  -9   8 6775.18 843.579   9
  -4   9   8 6896.62 884.573   5
  -4  -9   8 7952.82 957.509   2
  -4  -9   8 7305.01 911.057   1
   4   9  -7-210.068 242.825  10
  -4   9   7 788.573 404.736   6
   4   9  -7 134.805 313.772   6
  -4  -9   7 306.750 327.566   9
   4   9  -7 250.875 256.808   3
  -4   9   7 197.558 215.309   5
  -4  -9   7 65.3003 207.613   2
  -4  -9   7 275.114 363.036   1
   4  -9  -7 205.093 341.895   1
   4   9  -6 23807.2 1426.06  10
   4   9  -6 23667.7 1561.23   6
   4  -9  -6 25431.5 1705.03   1
   4   9  -6 28185.6 1750.18   3
  -4  -9   6 26353.1 1495.01   9
  -4   9   6 23150.2 1472.49   5
  -4   9   6 28787.1 1789.98   6
  -4  -9   6 24401.8 1598.60   2
  -4  -9   6 31530.2 1751.51   1
   4  -9  -5 1859.29 490.756   1
   4   9  -5 1756.76 392.302  10
  -4   9   5 2504.01 547.150   6
   4   9  -5 1664.33 426.015   6
   4   9  -5 2301.93 528.967   3
  -4  -9   5 1527.56 365.997   9
  -4   9   5 1936.03 431.468   5
  -4  -9   5 1977.07 538.686   1
  -4  -9   5 2095.42 470.422   2
   4   9  -4 30705.4 1823.95   3
   4   9  -4 33579.9 1752.33   6
   4  -9  -4 30997.7 1845.61   1
  -4   9   4 35269.7 1924.37   6
  -4  -9   4 36813.5 1848.80   1
  -4  -9   4 31495.3 1764.88   2
  -4  -9   3 460.108 340.369   1
  -4   9   3 1123.57 377.822   6
   4   9  -3 571.102 280.290   6
   4  -9  -3 309.730 326.158   1
   4   9  -3 324.389 320.706   3
  -4  -9   3 458.619 308.728   2
  -4   9   2 10988.8 1036.73   6
   4   9  -2 14066.0 1075.03   6
   4   9  -2 10322.5 1041.71   3
   4  -9  -2 12991.3 1171.42   1
  -4  -9   2 12059.2 992.320   1
  -4  -9   2 10736.6 985.133   2
   4   9  -1 14.9551 276.717   6
   4   9  -1-102.998 221.408   3
  -4   9   1 106.342 285.716   6
  -4  -9   1-1.93416 242.513   1
   4  -9  -1 261.280 277.677   1
  -4  -9   1-41.5006 197.065   2
  -4   9   0 5993.58 788.289   6
  -4  -9   0 6183.62 687.293   1
   4   9   0 6373.71 745.076   6
   4   9   0 5708.26 785.515   3
  -4  -9   0 6635.58 740.331   2
   4  -9   0 5904.12 864.913   1
   4  -9   1 355.855 327.032   1
   4   9   1 388.304 310.354   6
  -4   9  -1 25.5933 221.293   6
   4   9   1 205.161 230.847   8
  -4  -9  -1 382.379 275.973   1
  -4  -9  -1 500.128 297.884   2
   4   9   2 4942.96 699.908   6
   4  -9   2 6517.48 929.106   1
  -4   9  -2 5211.83 756.440   6
  -4  -9  -2 5999.54 677.144   2
   4   9   2 6488.26 822.878   8
   4   9   3 610.348 328.297   6
  -4   9  -3 493.570 368.906   6
   4  -9   3 24.2508 331.530   1
   4   9   3 364.545 335.736   8
  -4  -9  -3-133.543 213.850   4
  -4   9  -4 1019.66 497.512   6
   4   9   4 742.833 356.886   8
  -4  -9  -4 516.196 297.316   4
   4  -9   4 1325.36 593.715   1
   4  -9   5 1027.43 576.967   1
  -4   9  -5 184.911 363.983   6
   4   9   5 178.919 282.094   8
  -4  -9  -5-76.1888 262.188   4
   4   9   6 215.198 290.020   8
   4  10  -9 2759.97 629.589  10
  -4 -10   9 2587.94 627.093   9
  -4  10   9 2296.23 587.195   5
  -4  10   8 1854.45 609.873   6
   4  10  -8 428.760 335.794  10
   4  10  -8 977.394 424.080   6
  -4 -10   8 1387.84 415.061   9
  -4  10   8 1739.78 496.268   5
   4  10  -8 1102.56 427.096   3
   4 -10  -8 675.366 315.152   7
  -4 -10   8 1843.13 540.760   2
   4 -10  -8 617.931 426.785   1
   4 -10  -7 228.063 345.553   1
   4  10  -7-83.4872 207.736  10
   4  10  -7-3.70283 302.139   6
   4  10  -7 21.6861 244.100   3
  -4 -10   7 314.315 269.649   9
  -4  10   7 361.559 303.346   5
  -4  10   7 270.600 376.454   6
  -4 -10   7 110.785 236.315   2
   4 -10  -6 5174.78 819.739   1
  -4  10   6 5435.30 863.520   6
   4  10  -6 4526.18 731.679   6
   4  10  -6 5336.55 782.825   3
  -4 -10   6 4687.99 748.997   2
   4  10  -5 845.753 431.635   6
   4 -10  -5-88.5424 292.618   1
   4  10  -5 302.251 281.244   3
  -4  10   5 27.6988 252.719   6
  -4 -10   5 385.488 270.279   2
   4 -10  -4 2117.05 563.460   1
  -4  10   4 1531.30 522.300   6
   4  10  -4 1803.67 451.008   6
   4  10  -4 2245.15 517.994   3
  -4 -10   4 1488.29 465.492   2
  -4  10   3 4628.27 753.722   6
   4 -10  -3 4594.35 751.319   1
   4  10  -3 4063.83 643.030   6
   4  10  -3 3446.72 623.079   3
  -4 -10   3 4233.79 683.714   2
  -4  10   2 7751.83 942.362   6
   4  10  -2 7589.95 871.812   6
   4 -10  -2 8816.08 1042.54   1
   4  10  -2 6674.88 891.630   3
  -4 -10   2 6344.91 792.038   2
   4  10  -1 159.435 220.790   6
  -4  10   1-168.426 259.873   6
   4  10  -1 1000.89 454.465   3
   4 -10  -1 336.700 340.259   1
  -4 -10   1 294.059 229.963   2
   4  10   0 5226.22 714.319   6
  -4  10   0 5008.39 803.851   6
   4 -10   0 4464.56 806.767   1
  -4 -10   0 4372.15 634.066   2
   4 -10   1 133.981 305.470   1
   4  10   1-27.7230 234.114   6
  -4  10  -1 157.346 320.667   6
  -4 -10  -1 6.78840 191.089   2
   4 -10   2 5647.62 958.961   1
  -4  10  -2 6710.84 971.208   6
   4  10   2 7212.03 887.191   6
   4  10   3 428.658 335.524   6
  -4  10  -3-186.250 339.920   6
   4 -10   3 90.2757 314.801   1
   4  10   3 738.194 398.949   8
  -4 -10  -3 231.926 282.826   4
  -4  10  -4 9693.27 1202.58   6
   4  10   4 7084.39 937.645   8
  -4 -10  -4 6168.04 867.308   4
   4 -10   4 9617.48 1234.87   1
   4  11  -7 5043.00 833.771   6
   4  11  -7 4148.71 719.815   3
   4 -11  -6 6949.85 997.470   1
   4  11  -6 9256.16 1097.18   6
  -4  11   6 7858.42 1049.59   6
   4  11  -6 5265.60 803.422   3
  -4 -11   6 5760.14 890.649   2
   4 -11  -5 2058.52 607.951   1
   4  11  -5 1404.44 391.032   6
   4  11  -5 1205.59 448.438   3
  -4  11   5 1532.14 527.386   6
  -4 -11   5 1882.10 513.001   2
   4 -11  -4 478.684 388.211   1
  -4  11   4 317.256 270.957   6
   4  11  -4 433.372 416.185   6
   4  11  -4 267.901 321.068   3
  -4 -11   4 656.961 388.439   2
  -4  11   3-173.641 335.057   6
   4  11  -3 659.069 424.699   6
   4  11  -3 1065.04 444.433   3
   4 -11  -3 826.262 428.117   1
  -4 -11   3 1065.42 418.446   2
   4  11  -2 10174.0 1060.42   6
  -4  11   2 11153.4 1203.72   6
   4 -11  -2 9827.46 1178.38   1
  -4 -11   2 8221.36 947.579   2
   4  11  -2 8499.31 1058.41   3
  -4  11   1 1376.26 509.207   6
   4  11  -1 996.571 355.546   6
   4 -11  -1 823.972 391.880   1
  -4 -11   1 834.060 333.339   2
  -4  11   0 17230.6 1514.78   6
   4  11   0 16126.7 1346.20   6
   4 -11   0 17121.2 1589.42   1
  -4 -11   0 15726.3 1291.79   2
   4 -11   1 108.154 411.370   1
  -4  11  -1 224.615 358.663   6
   4  11   1 174.273 248.909   6
  -4 -11  -1 193.325 218.783   2
   4  11   2 3107.16 609.417   6
   4 -11   2 3643.83 888.105   1
  -4  11  -2 4477.47 833.437   6
  -4 -11  -2 2317.92 498.108   4
   4  11   3-346.365 309.002   6
   4  12  -4 1490.62 477.382   6
   4  12  -3 1443.35 490.184   6
   4  12  -3 1216.93 425.385   3
   4  12  -2 3253.58 659.799   6
  -4  12   2 3034.19 646.694   6
  -4 -12   2 3295.56 661.254   2
   4  12  -1 842.759 395.132   6
  -4 -12   1 405.520 354.479   2
   4  12   0 6786.57 938.666   6
  -4 -12   0 6118.49 839.326   2
   5   0 -14 117.257 299.137  10
  -5   0  14 231.704 242.699   9
   5   0 -13 462.671 360.950   7
   5   0 -13-119.511 221.695  10
  -5   0  13 348.159 294.710   9
   5   0 -12 6388.25 888.777   7
   5   0 -12 6868.42 842.774  10
  -5   0  12 6283.89 809.688   9
   5   0 -11-155.141 184.967  10
  -5   0  11 197.341 178.728   9
   5   0 -10 17773.8 1279.32   7
   5   0 -10 16122.8 1149.23  10
  -5   0  10 17897.8 1191.12   9
   5   0  -9 816.891 337.220   7
   5   0  -9 117.384 193.097  10
  -5   0   9 148.096 240.940   9
   5   0  -8 334.625 216.608   7
  -5   0   8 950.796 281.320   9
   5   0  -8 445.526 222.562  10
   5   0  -7 178.602 177.622   7
   5   0  -7 179.561 187.106  10
  -5   0   7 51.5949 167.159   9
   5   0  -6 56726.1 1765.97   7
  -5   0   6 56474.3 1880.04   9
   5   0  -6 58060.5 1908.04  10
   5   0  -5 101.285 104.730   7
   5   0  -5-44.1578 122.050  10
  -5   0   5 77.1662 126.853   9
   5   0  -5 51.4280 42.7503   8
   5   0  -4 47832.5 1324.11   7
   5   0  -4 52375.8 1183.21   6
   5   0  -4 50910.2 1630.10  10
  -5   0   4 51372.8 1637.72   9
   5   0  -4 51555.9 1237.42   8
   5   0  -3 259.215 108.323   1
   5   0  -3-21.2999 65.0880   7
   5   0  -3 85.6013 132.620  10
  -5   0   3-84.8639 119.417   9
   5   0  -3 22.5800 88.4157   8
   5   0  -2 199.274 143.915  10
  -5   0   2 205.707 156.024   9
   5   0  -2 298.149 99.1073   1
  -5   0   2 221.709 127.580   4
   5   0  -2 424.566 161.279   8
   5   0  -1 165.064 93.6782   7
  -5   0   1 47.6144 52.6642   6
   5   0  -1 287.745 118.452   1
   5   0  -1 109.774 165.164   8
  -5   0   1-96.9424 110.482   4
   5   0   0 11736.0 532.513   3
  -5   0   0 11033.9 725.066   4
   5   0   0 11359.5 570.312   1
   5   0   0 10828.5 738.957   8
  -5   0  -1 350.734 229.599   4
   5   0   1 196.214 96.8158   3
   5   0   1 368.022 236.654   8
  -5   0  -2 4013.44 532.323   4
   5   0   2 4816.57 571.736   8
  -5   0  -3-39.8661 181.573   4
   5   0   3 150.616 228.919   8
  -5   0  -4 2679.64 507.540   4
   5   0   4 2446.06 486.018   8
  -5   0  -5-90.7058 208.297   4
   5   0   5 116.562 215.371   8
  -5   0  -6 3741.33 626.300   4
   5   0   6 4008.69 651.875   8
  -5   0  -7-29.0171 246.787   4
   5   0   7 224.968 271.826   8
  -5   0  -8 3003.02 701.413   4
   5   0   8 3353.16 663.874   8
   5   0   9 249.239 303.686   8
   5  -1 -14 5899.00 843.650  10
  -5   1  14 6138.32 855.955   9
   5  -1 -13 2468.62 703.817   7
   5   1 -13 1079.04 409.893  10
   5  -1 -13 967.589 399.420  10
  -5  -1  13 2103.93 507.690   9
  -5   1  13 1646.10 461.266   9
   5  -1 -12 1799.03 511.644   7
  -5   1  12 1599.11 452.833   9
   5   1 -12 2611.32 553.302  10
   5  -1 -12 2128.45 536.059  10
  -5  -1  12 1778.60 472.379   9
   5   1 -11 24129.5 1637.35   7
   5  -1 -11 23174.8 1598.69   7
  -5  -1  11 26641.4 1587.42   9
   5  -1 -11 24408.2 1474.90  10
  -5   1  11 23646.2 1447.91   9
   5   1 -11 23526.3 1501.37  10
   5   1 -10 2398.92 507.356   7
   5  -1 -10 1958.68 497.695   7
   5  -1 -10 2809.09 484.156  10
  -5  -1  10 1677.16 415.149   9
  -5   1  10 1531.63 343.237   9
   5   1 -10 2316.14 452.457  10
   5   1  -9 18351.6 1202.86   7
   5  -1  -9 17499.8 1183.78   7
   5   1  -9 17128.0 1127.63  10
  -5  -1   9 17419.1 1146.89   9
  -5   1   9 19098.6 1141.91   9
   5  -1  -9 17193.1 1097.63  10
   5   1  -8 5205.77 607.655   7
   5  -1  -8 5457.70 611.112   7
  -5  -1   8 6197.40 634.769   9
  -5   1   8 5947.41 600.413   9
   5   1  -8 6971.53 681.208  10
   5  -1  -8 5370.01 584.045  10
  -5  -1   8 5829.87 550.455   2
   5   1  -7 3297.33 437.065   7
   5  -1  -7 2679.71 393.516   7
  -5  -1   7 2520.42 355.762   2
   5   1  -7 3137.64 450.900  10
   5  -1  -7 3147.38 427.983  10
  -5   1   7 3622.60 454.738   9
  -5  -1   7 2265.41 382.500   9
   5   1  -6 2450.71 328.146   7
   5  -1  -6 1757.72 296.138   7
   5   1  -6 2003.92 346.184  10
   5  -1  -6 2625.09 362.040  10
  -5  -1   6 2264.86 347.430   2
  -5  -1   6 2848.47 388.831   9
  -5   1   6 2527.42 361.964   9
  -5  -1   6 1981.24 174.407   8
   5   1  -5 1813.95 259.827   7
   5  -1  -5 2080.84 294.769   7
   5   1  -5 1831.58 314.709  10
   5  -1  -5 2431.98 335.909  10
  -5  -1   5 2128.00 315.717   9
  -5   1   5 2629.02 353.470   9
  -5  -1   5 1940.02 308.654   2
   5   1  -4 60.5103 98.8938   7
   5  -1  -4 67.1708 92.6472   7
  -5  -1   4 301.271 187.340   2
   5   1  -4-57.3116 129.171  10
   5  -1  -4 26.7434 111.996  10
  -5  -1   4 210.546 152.829   9
  -5   1   4 60.7044 121.526   9
   5   1  -4 186.791 90.0307   8
  -5   1   4 165.409 84.3500   4
   5  -1  -4 113.613 70.5306   8
   5  -1  -3 12141.8 408.153   6
   5  -1  -3 13565.3 569.110   1
   5  -1  -3 12336.6 718.031  10
  -5  -1   3 12255.5 690.964   9
  -5   1   3 12144.2 725.048   9
   5   1  -3 13155.7 719.856  10
  -5   1   3 12629.3 584.308   4
   5   1  -3 11490.1 581.463   8
   5  -1  -3 11917.3 577.393   8
  -5  -1   3 12311.7 727.436   2
  -5   1   2 1759.97 141.602   6
   5  -1  -2 2058.29 237.237   1
  -5  -1   2 2237.75 305.406   9
  -5   1   2 2475.34 336.248   9
   5   1  -2 1995.54 290.413  10
   5   1  -2 2002.26 269.127   8
   5  -1  -2 1876.76 261.254   8
  -5   1   2 2048.29 265.528   4
  -5   1   1 1034.90 241.768   4
  -5  -1   1 363.749 80.9309   1
  -5  -1   1 263.838 74.3127   6
   5  -1  -1 499.628 173.293   1
  -5  -1   1 247.103 141.348   9
  -5  -1   1 462.225 175.390   4
   5   1  -1 157.974 129.605   8
   5  -1  -1 506.171 185.791   8
   5  -1   0 950.822 239.666   1
  -5   1   0 866.304 250.286   4
   5   1   0 886.017 195.282   3
   5   1   0 639.423 231.301   8
  -5  -1   0 827.369 283.045   4
   5  -1   0 641.181 231.592   8
   5  -1   1 2046.47 306.464   1
  -5   1  -1 2106.41 363.264   4
   5   1   1 1914.51 240.318   3
   5   1   1 2147.71 375.130   8
  -5  -1  -1 2638.60 400.672   4
   5  -1   1 2308.20 398.574   8
  -5  -1  -2 1015.88 317.847   4
  -5   1  -2 917.708 266.094   4
   5   1   2 732.081 266.448   8
   5  -1   2 618.443 192.609   1
   5  -1   2 1414.63 336.394   8
  -5  -1  -3 60.2316 213.700   4
  -5   1  -3 334.073 215.776   4
   5   1   3 232.234 229.622   8
   5  -1   3 222.607 258.838   8
  -5  -1  -4 1737.12 405.298   4
  -5   1  -4 2006.55 441.587   4
   5   1   4 1350.83 361.758   8
   5  -1   4 2044.66 429.654   8
  -5  -1  -5 385.579 311.376   4
  -5   1  -5 213.266 189.445   4
   5   1   5 572.265 326.182   8
   5  -1   5 325.440 261.563   8
  -5  -1  -6-199.849 207.777   4
  -5   1  -6 329.680 295.986   4
   5   1   6 468.208 327.644   8
   5  -1   6 279.364 306.854   8
  -5  -1  -7-241.204 224.002   4
  -5   1  -7 239.767 339.106   4
   5   1   7 578.173 391.305   8
   5  -1   7 144.593 268.748   8
  -5  -1  -8 886.067 410.981   4
  -5   1  -8 1086.41 486.240   4
   5   1   8 1233.98 438.350   8
   5  -1   8 1530.83 503.491   8
   5   1   9 5712.17 885.720   8
   5  -1   9 8265.90 1065.48   8
   5  -2 -13 3091.17 678.925   7
   5   2 -13 2971.17 613.405  10
   5  -2 -13 1807.26 460.504  10
  -5   2  13 2674.08 630.714   5
  -5  -2  13 2270.87 541.371   9
  -5   2  13 3174.33 603.851   9
   5  -2 -12 304.488 400.589   7
   5   2 -12 294.209 265.451  10
   5  -2 -12 79.5651 264.685  10
  -5  -2  12 52.5340 245.427   9
  -5   2  12 10.8293 224.061   9
   5  -2 -11 7763.43 927.031   7
   5  -2 -11 6458.11 739.733  10
   5   2 -11 5455.42 751.753  10
  -5  -2  11 6561.86 825.793   9
  -5   2  11 6775.69 765.101   9
   5  -2 -10 244.529 269.218   7
  -5  -2  10 316.948 217.158   2
   5  -2 -10 408.234 230.119  10
  -5  -2  10 353.102 242.703   9
  -5   2  10 347.679 234.149   9
   5   2 -10 598.893 330.576  10
   5  -2  -9 3099.29 515.075   7
  -5  -2   9 3277.97 450.307   2
   5   2  -9 2950.25 490.399  10
  -5  -2   9 3309.40 520.152   9
  -5   2   9 3015.62 467.274   9
   5  -2  -9 3290.78 479.190  10
  -5  -2   8 3453.29 450.682   2
   5  -2  -8 4521.25 568.855   7
   5   2  -8 4437.12 551.218  10
  -5   2   8 4119.10 499.908   9
   5  -2  -8 3436.15 465.408  10
  -5  -2   8 3217.77 477.154   9
   5  -2  -7 43072.0 1684.10   7
   5  -2  -7 42875.4 1620.85  10
  -5  -2   7 40176.7 1655.05   9
   5   2  -7 40058.5 1646.99  10
  -5   2   7 40091.9 1568.29   9
  -5  -2   7 42313.9 1594.90   2
  -5  -2   6 2006.86 327.948   2
   5  -2  -6 1405.37 302.450   7
   5   2  -6 1990.17 355.320  10
   5  -2  -6 1969.85 326.143  10
  -5  -2   6 2120.55 341.172   9
  -5   2   6 1996.41 328.158   9
   5  -2  -5 92633.2 2337.64   7
   5  -2  -5 93903.6 2421.37  10
  -5   2   5 95150.2 2439.80   9
   5  -2  -5 80905.5 1647.62   8
  -5  -2   5 88749.4 2415.77   2
   5   2  -5 93511.4 2454.13  10
  -5  -2   5 92551.3 2429.45   9
  -5   2   4 6335.50 418.241   6
   5   2  -4 7402.38 550.235  10
   5  -2  -4 6329.14 532.216  10
   5  -2  -4 6761.56 488.033   1
  -5  -2   4 5772.13 500.170   9
  -5   2   4 7081.72 570.215   9
   5   2  -4 6066.90 336.599   1
   5   2  -4 6426.49 429.703   8
  -5   2   4 7019.89 308.423   4
  -5  -2   4 6542.70 548.334   2
   5  -2  -4 7261.11 388.658   8
   5   2  -3 15281.9 764.595  10
   5  -2  -3 13470.0 772.211  10
   5   2  -3 13453.8 463.803   6
  -5   2   3 13280.8 560.296   6
   5  -2  -3 15148.3 697.729   1
  -5  -2   3 12886.9 702.705   9
  -5   2   3 14238.5 807.803   9
   5   2  -3 13540.6 672.989   8
  -5   2   3 13740.8 557.765   4
  -5  -2   3 13702.4 790.035   2
  -5   2   2 27.3029 85.8090   4
  -5  -2   2 100.173 150.749   2
   5   2  -2 104.170 60.6073   6
   5   2  -2 231.241 156.201  10
  -5   2   2 114.882 92.5931   6
   5  -2  -2 78.2749 148.501   1
  -5  -2   2 224.497 135.831   9
  -5   2   2 0.28988 151.078   9
   5   2  -2 302.268 157.409   8
   5   2  -1 174747. 3645.69  10
  -5   2   1 167071. 3413.61   6
   5   2  -1 170422. 3756.82   3
  -5  -2   1 169794. 3642.85   9
   5  -2  -1 168876. 3712.30   1
  -5  -2   1 159221. 3025.82   1
  -5  -2   1 176140. 3912.30   4
   5   2  -1 169915. 3830.19   8
  -5   2   1 167536. 3673.07   4
  -5  -2   1 171310. 3791.55   2
  -5  -2   0 7140.22 511.171   9
   5   2   0 7071.32 520.233   3
   5  -2   0 7282.31 583.942   1
  -5  -2   0 7346.13 623.830   4
   5   2   0 6410.98 574.418   8
  -5   2   0 7259.41 574.868   4
  -5  -2  -1 89175.8 2098.17   7
   5   2   1 87687.2 2283.84   3
   5  -2   1 89007.1 2507.97   1
  -5  -2  -1 85814.1 2617.52   4
   5   2   1 87836.4 2622.64   8
  -5   2  -1 86958.1 2529.27   4
   5  -2   1 83585.3 2573.53   8
  -5  -2  -2 5924.94 500.969   7
   5  -2   2 5996.16 593.011   1
  -5  -2  -2 5933.80 639.460   4
   5   2   2 6482.48 649.179   8
  -5   2  -2 5511.48 599.439   4
   5  -2   2 7103.71 696.676   8
  -5  -2  -3 10806.6 741.761   7
  -5  -2  -3 9883.08 858.556   4
   5   2   3 8931.69 810.490   8
   5  -2   3 10322.5 824.161   1
  -5   2  -3 9446.45 814.029   4
   5  -2   3 8900.07 830.380   8
  -5  -2  -4 342.447 264.381   4
  -5   2  -4 130.087 164.700   4
   5   2   4-88.3990 213.528   8
   5  -2   4-143.759 187.507   8
  -5  -2  -5 43663.6 2084.97   4
   5   2   5 48298.4 2166.66   8
   5  -2   5 45522.4 2130.59   8
  -5   2  -5 41152.9 2033.70   4
  -5  -2  -6 829.382 378.958   4
  -5   2  -6 523.406 352.113   4
   5   2   6 890.089 363.635   8
   5  -2   6 473.240 324.812   8
  -5  -2  -7 5160.30 787.196   4
  -5   2  -7 5528.37 817.797   4
   5   2   7 5637.91 796.570   8
   5  -2   7 6531.69 906.920   8
  -5  -2  -8 699.261 382.937   4
  -5   2  -8-104.937 316.504   4
   5   2   8 52.7990 312.190   8
   5  -2   8 67.4122 302.673   8
   5   2   9 1607.07 527.605   8
   5  -3 -13 1321.16 508.286   7
   5   3 -13 1259.65 409.823  10
  -5  -3  13 1258.34 487.616   9
  -5   3  13 1226.26 434.714   5
   5  -3 -12 874.346 477.482   7
   5   3 -12-5.59868 278.386  10
  -5   3  12 708.348 289.467   9
  -5  -3  12 514.905 300.346   9
  -5   3  12 761.166 364.414   5
   5  -3 -12 218.048 234.014  10
   5  -3 -11 37723.6 2076.78   7
   5   3 -11 36256.7 1974.02  10
   5  -3 -11 37651.8 1788.11  10
  -5  -3  11 36282.2 1975.78   9
  -5   3  11 36497.3 1762.17   9
  -5  -3  10 2563.06 436.503   2
   5  -3 -10 2162.34 516.839   7
   5   3 -10 2615.51 477.035  10
  -5  -3  10 2742.03 547.803   9
  -5   3  10 1948.74 406.538   9
   5  -3 -10 2148.24 401.284  10
   5  -3  -9 21255.6 1344.55   7
   5   3  -9 20913.6 1318.97  10
   5  -3  -9 21918.3 1212.75  10
  -5   3   9 21692.8 1198.96   9
  -5  -3   9 20398.4 1174.18   2
  -5  -3   9 22381.6 1360.07   9
  -5  -3   8 142.441 186.151   2
   5  -3  -8 448.399 247.162   7
   5   3  -8 335.735 205.922  10
   5  -3  -8-73.1501 150.815  10
  -5  -3   8 284.433 209.835   9
  -5   3   8-81.4601 128.825   9
  -5  -3   7 1748.31 354.177   2
   5  -3  -7 1990.90 392.243   7
   5   3  -7 1371.59 318.678  10
   5  -3  -7 1468.49 303.310  10
  -5  -3   7 2317.07 427.529   9
  -5   3   7 2282.61 353.573   9
   5  -3  -6 173.387 168.823   7
  -5  -3   6 422.529 183.995   2
   5   3  -6 475.325 215.865  10
   5  -3  -6 355.849 171.252  10
  -5  -3   6 433.215 209.228   9
  -5   3   6 285.368 148.008   9
  -5  -3   5 104907. 2785.11   9
  -5   3   5 108989. 2801.52   9
  -5   3   5 102823. 2659.69   6
   5   3  -5 105425. 2794.26  10
  -5  -3   5 104349. 2847.32   2
   5  -3  -5 103217. 2751.41  10
  -5  -3   4 1162.44 252.971   2
   5   3  -4 1600.59 288.728  10
   5  -3  -4 1680.09 292.005  10
   5   3  -4 1439.35 225.563   6
  -5   3   4 1457.13 247.124   6
  -5  -3   4 1422.09 265.663   9
  -5   3   4 1554.38 276.099   9
   5   3  -4 1546.73 237.628   8
  -5   3   4 1134.77 93.3326   4
   5  -3  -4 1569.54 271.324   1
  -5  -3   3 12275.7 440.183   7
  -5  -3   3 12127.5 681.836   9
   5   3  -3 12186.9 689.904  10
   5   3  -3 12097.3 537.433   6
  -5   3   3 12088.0 628.584   6
   5  -3  -3 12274.8 706.116   1
  -5   3   3 12172.7 771.728   9
   5   3  -3 11104.9 662.989   8
  -5   3   3 12474.0 502.565   4
  -5  -3   3 11550.7 749.082   2
  -5  -3   2 996.074 250.988   2
  -5   3   2 1224.82 198.786   4
   5   3  -2 1183.38 215.439  10
   5   3  -2 1130.31 165.443   6
   5  -3  -2 866.023 234.575   1
  -5   3   2 1237.39 209.994   6
  -5  -3   2 1272.76 221.694   9
   5   3  -2 1361.51 256.249   8
  -5  -3   1 1671.65 136.112   7
  -5  -3   1 1955.47 309.841   2
  -5   3   1 1958.31 282.485   4
  -5  -3   1 1904.39 154.685   1
   5   3  -1 1960.50 231.894   6
   5   3  -1 2022.98 267.039  10
   5   3  -1 2168.20 335.702   3
  -5   3   1 2021.10 274.494   6
  -5  -3   1 1664.01 239.123   9
   5  -3  -1 1685.24 337.148   1
   5   3  -1 2159.93 340.369   8
  -5  -3   0 80.4309 88.2609   7
   5  -3   0 239.977 220.241   1
  -5   3   0-24.6347 150.974   4
  -5  -3   0 14.6840 137.720   2
   5   3   0 15.5832 100.081  10
   5   3   0-54.8781 120.830   3
   5  -3   0 37.1350 41.2520   3
  -5   3   0 6.62198 28.0386   5
  -5  -3   0 286.310 148.120   9
  -5  -3   0 13.9470 175.507   4
   5   3   0 82.8450 169.920   8
  -5  -3  -1 41764.2 1231.58   7
  -5  -3  -1 39878.1 1290.41   9
   5  -3   1 39491.6 1624.35   1
  -5  -3  -1 37636.5 1613.72   4
   5   3   1 40175.6 1642.41   8
  -5   3  -1 37319.9 1520.13   4
   5   3   1 36077.0 1418.29   3
  -5  -3  -1 39540.0 1409.13   2
  -5  -3  -2 533.626 205.041   7
  -5   3  -2 71.9336 141.864   4
   5  -3   2 882.973 332.628   1
  -5  -3  -2 198.285 157.244   9
   5   3   2 647.275 274.277   8
  -5  -3  -2 253.731 221.400   4
   5  -3   3 1203.59 333.964   1
  -5  -3  -3 1602.32 307.878   7
  -5   3  -3 1439.43 386.247   4
   5   3   3 1825.70 430.974   8
  -5  -3  -3 811.582 298.091   4
   5  -3   4 1446.77 382.349   1
   5  -3   4 1603.27 437.151   8
  -5  -3  -4 1430.06 421.509   4
  -5  -3  -4 2359.08 432.556   7
  -5   3  -4 928.164 316.510   4
   5   3   4 1144.23 356.561   8
  -5  -3  -5 8233.90 807.330   7
  -5  -3  -5 6196.40 753.239   4
  -5   3  -5 5898.58 759.226   4
   5   3   5 6913.56 802.691   8
   5  -3   5 7167.35 842.250   8
  -5  -3  -6 400.449 275.754   4
  -5  -3  -6 1202.63 435.999   7
  -5   3  -6 825.321 346.626   4
   5   3   6 1272.52 475.699   8
   5  -3   6 727.872 429.039   8
  -5  -3  -7 1087.59 410.487   4
  -5   3  -7 693.332 363.331   4
   5   3   7 1044.05 427.193   8
   5  -3   7 447.919 325.368   8
  -5  -3  -8 185.460 274.485   4
   5   3   8-218.179 371.704   8
  -5   3  -8-82.7061 265.132   4
   5  -3   8 2.39913 258.882   8
   5  -4 -12 1519.21 517.303   7
   5   4 -12 1669.55 535.014  10
  -5  -4  12 1368.94 461.541   9
  -5   4  12 1511.92 491.995   5
   5  -4 -11 1314.05 460.749   7
   5   4 -11 1441.46 488.391  10
   5  -4 -11 1392.07 372.380  10
  -5   4  11 1253.73 340.665   9
  -5  -4  11 534.041 362.751   9
  -5   4  11 1143.69 408.451   5
   5  -4 -10 9239.65 960.194   7
   5   4 -10 8863.18 912.352  10
   5  -4 -10 8696.12 776.811  10
  -5  -4  10 9472.34 950.708   9
  -5   4  10 7487.31 857.404   5
  -5   4  10 8487.51 768.326   9
  -5  -4  10 10002.7 879.831   2
  -5  -4   9 4169.11 556.010   2
   5  -4  -9 3921.51 605.756   7
   5  -4  -9 4272.77 525.469  10
   5   4  -9 4686.00 645.852  10
  -5   4   9 4378.39 524.743   9
  -5  -4   9 2407.08 475.442   9
  -5  -4   8 230.394 165.109   2
   5  -4  -8 262.568 260.485   7
   5   4  -8 417.065 224.341  10
   5  -4  -8 178.210 160.662  10
  -5  -4   8 322.806 243.718   9
  -5   4   8 217.727 137.077   9
   5   4  -7 21250.5 1220.25  10
   5  -4  -7 22966.6 1287.81   7
   5  -4  -7 24089.8 1152.66  10
  -5   4   7 22904.8 1129.92   9
  -5  -4   7 22958.4 1255.75   9
  -5  -4   7 23811.4 1259.66   2
  -5  -4   6 2372.78 392.622   2
   5   4  -6 2076.95 346.911  10
  -5  -4   6 2296.62 380.677   9
  -5   4   6 2916.65 434.936   6
  -5   4   6 2413.46 360.204   9
   5  -4  -6 2061.65 340.980  10
   5   4  -5 6216.58 566.954  10
  -5   4   5 5908.81 545.988   6
   5  -4  -5 5742.30 577.477   1
  -5  -4   5 5629.20 542.892   9
  -5   4   5 4651.31 492.836   9
   5  -4  -5 5641.39 530.675  10
  -5  -4   5 5411.06 569.126   2
   5   4  -4 20003.4 967.562  10
   5  -4  -4 18301.2 977.487  10
   5   4  -4 19995.9 876.792   6
   5  -4  -4 19939.7 1037.80   1
  -5  -4   4 18514.6 935.285   9
  -5   4   4 19916.7 1028.79   9
   5   4  -4 18939.9 929.463   8
  -5  -4   4 19342.9 1059.21   2
  -5  -4   4 21239.1 760.918   1
  -5   4   4 18926.7 941.120   6
  -5  -4   3 3800.05 450.080   2
   5  -4  -3 3195.63 405.800   1
   5   4  -3 3854.18 396.864  10
  -5   4   3 3837.93 396.681   6
   5   4  -3 3317.01 330.039   6
  -5  -4   3 3521.30 366.208   9
  -5  -4   3 4379.35 290.133   1
  -5   4   3 3622.38 437.040   9
   5   4  -3 3110.90 388.004   8
  -5   4   3 3826.00 274.989   4
   5   4  -2 21287.8 855.276   6
   5   4  -2 20249.5 1108.54   3
   5  -4  -2 20480.0 1044.06   1
   5   4  -2 20362.0 873.059  10
  -5  -4   2 21278.3 881.957   9
  -5  -4   2 21259.2 691.120   1
  -5   4   2 20945.4 963.510   6
   5   4  -2 20037.7 1020.58   8
  -5  -4   2 19653.6 1036.26   2
  -5   4   2 20454.8 824.696   4
   5  -4  -1 118445. 3169.83   1
  -5  -4   1 120530. 2490.62   1
   5   4  -1 126298. 2730.90  10
  -5   4   1 119656. 2968.52   6
   5   4  -1 123530. 2791.88   6
  -5  -4   1 119276. 2695.21   9
  -5   4   1 115489. 2261.09   5
   5   4  -1 118230. 3138.76   8
  -5  -4   1 123055. 3109.43   2
  -5   4   1 121912. 2894.34   4
   5   4  -1 113079. 3161.16   3
  -5  -4   0 25235.7 843.527   7
   5   4   0 23793.4 1005.83   6
   5   4   0 23693.4 853.795  10
   5  -4   0 18989.5 673.256   3
   5   4   0 22912.6 1162.97   3
  -5  -4   0 24629.2 866.094   9
   5  -4   0 20951.0 1203.26   1
  -5   4   0 23168.7 1104.42   6
   5   4   0 25083.0 1234.44   8
  -5  -4   0 23050.2 1094.04   2
  -5   4   0 22883.4 1078.28   4
  -5  -4  -1 19464.1 837.861   7
  -5  -4  -1 19609.0 762.854   9
   5   4   1 19337.3 750.098  10
   5   4   1 19490.7 1065.95   3
   5  -4   1 18849.5 1164.80   1
  -5  -4  -1 18366.9 1121.23   4
   5   4   1 19645.3 1140.20   8
  -5  -4  -1 20582.7 996.875   2
  -5   4  -1 19017.6 1061.72   4
  -5  -4  -2 9443.39 625.327   7
  -5  -4  -2 7846.16 476.227   9
   5   4   2 8048.08 483.075  10
   5  -4   2 7471.19 783.837   1
  -5  -4  -2 8586.78 792.668   4
   5   4   2 8699.28 787.572   8
  -5   4  -2 8463.50 755.743   4
  -5  -4  -2 8399.79 616.578   2
  -5  -4  -3 9349.14 687.562   7
   5  -4   3 8564.60 839.256   1
  -5  -4  -3 7850.97 804.983   4
   5   4   3 8150.46 844.226   8
  -5   4  -3 8182.01 791.461   4
  -5  -4  -4 3338.60 601.588   4
  -5  -4  -4 3266.65 476.953   7
   5  -4   4 2601.93 519.879   1
  -5   4  -4 2774.68 521.429   4
   5   4   4 2421.84 465.049   8
  -5  -4  -5 16990.5 1150.02   7
  -5  -4  -5 13447.5 1152.29   4
   5   4   5 15494.7 1219.90   8
   5  -4   5 13120.1 1139.46   1
   5  -4   5 15513.3 1266.09   8
  -5   4  -5 13083.5 1149.69   4
   5  -4   6 624.943 337.378   8
  -5  -4  -6 1259.57 389.508   4
  -5  -4  -6 1718.18 512.305   7
  -5   4  -6 1394.82 413.561   4
   5   4   6 1061.89 394.679   8
  -5  -4  -7 2833.69 598.196   4
  -5  -4  -7 3118.27 604.035   7
  -5   4  -7 2055.46 546.487   4
   5   4   7 2751.04 600.176   8
   5  -4   7 1854.79 529.555   8
  -5  -4  -8 1282.40 499.596   4
   5   4   8 575.737 352.750   8
   5  -4   8 836.683 514.435   8
   5  -5 -12 395.839 430.151   7
   5   5 -12 1574.61 486.471  10
  -5  -5  12 2072.14 599.400   9
  -5   5  12 1438.52 471.248   5
   5  -5 -11 1482.18 472.639   7
  -5  -5  11 1757.75 518.473   9
  -5   5  11 1611.61 494.571   5
   5   5 -11 1964.72 506.010  10
   5  -5 -10 6189.09 812.480   7
   5   5 -10 5944.35 799.968  10
  -5  -5  10 5659.97 761.795   9
  -5   5  10 5170.69 755.359   5
  -5  -5  10 5842.23 705.599   2
  -5  -5   9 177.390 170.661   2
   5  -5  -9 146.538 214.538   7
   5   5  -9 71.7827 210.781  10
   5  -5  -9 394.142 226.996  10
  -5  -5   9 439.841 317.825   9
  -5   5   9-167.613 190.757   5
  -5   5   9 311.349 168.020   9
  -5  -5   8 3751.55 545.099   2
   5  -5  -8 3114.33 546.090   7
  -5   5   8 3039.62 527.826   5
  -5  -5   8 3569.64 554.372   9
  -5   5   8 3389.96 447.975   9
   5  -5  -8 3113.68 434.197  10
   5   5  -8 3097.57 512.496  10
   5  -5  -7 14333.4 1057.01   7
   5   5  -7 13044.1 972.594  10
   5  -5  -7 15774.0 917.241  10
  -5  -5   7 13739.2 994.454   9
  -5   5   7 15410.4 905.317   9
  -5   5   7 14281.9 1003.87   5
  -5  -5   7 14885.0 1030.35   2
   5  -5  -6 1416.24 357.702   1
   5   5  -6 2602.10 426.616  10
  -5   5   6 2016.54 384.711   6
  -5  -5   6 1856.95 324.193   1
   5  -5  -6 2546.53 371.869  10
  -5   5   6 1596.29 339.410   5
  -5  -5   6 2340.73 400.829   9
  -5   5   6 2030.44 351.022   9
  -5  -5   6 2311.40 424.763   2
   5   5  -5 10088.9 743.297  10
  -5   5   5 10129.6 776.782   6
   5  -5  -5 9817.84 714.033  10
   5   5  -5 10193.3 707.314   6
  -5  -5   5 9994.48 736.966   9
  -5   5   5 11164.3 770.433   9
  -5   5   5 9855.13 718.195   5
  -5  -5   5 9964.86 810.082   2
  -5  -5   5 11831.0 689.551   1
   5  -5  -5 9947.32 791.267   1
   5  -5  -4 895.633 261.754   1
  -5  -5   4 522.691 198.971   1
  -5   5   4 678.552 245.621   6
   5  -5  -4 715.989 252.333  10
   5   5  -4 848.666 234.911   6
   5   5  -4 952.036 236.683  10
  -5   5   4 565.258 188.667   5
  -5  -5   4 923.819 232.918   9
  -5   5   4 889.728 268.936   9
  -5  -5   4 908.649 285.322   2
   5   5  -3 8623.07 593.283  10
  -5   5   3 9533.59 700.535   6
   5   5  -3 10016.7 647.611   6
   5   5  -3 9340.72 800.686   3
   5  -5  -3 9659.05 757.214   1
  -5  -5   3 9728.12 623.569   9
  -5   5   3 10612.0 602.096   5
  -5  -5   3 10141.7 574.040   1
  -5   5   3 9469.42 748.335   9
  -5  -5   3 10125.1 777.634   2
   5   5  -3 9647.24 726.530   8
  -5  -5   2 168.349 207.002   2
   5   5  -2 131.004 117.837  10
  -5   5   2-25.0485 97.7604   4
   5   5  -2 67.8652 120.374   6
   5  -5  -2 241.287 212.849   1
  -5   5   2 315.932 214.623   6
   5   5  -2 170.928 202.972   3
  -5  -5   2 317.614 163.331   9
  -5   5   2 105.541 108.800   5
  -5  -5   2 124.471 157.228   1
   5   5  -2 409.186 221.916   8
  -5  -5   1 30.5786 187.575   2
  -5  -5   1 70.7422 107.036   1
  -5   5   1 88.4131 162.740   4
   5   5  -1 162.864 130.122  10
   5   5  -1 124.495 148.249   6
  -5   5   1-187.794 206.357   6
   5   5  -1 81.8300 181.109   3
   5  -5  -1 550.974 284.503   1
  -5  -5   1 23.6254 75.8484   9
   5   5  -1 97.8036 220.354   8
  -5  -5   0 350.926 203.407   2
   5   5   0 473.267 199.190   6
  -5  -5   0 214.602 128.434   7
  -5   5   0 278.776 196.801   4
   5   5   0 177.812 99.1535  10
  -5   5   0 299.235 204.311   6
   5   5   0 309.314 202.063   3
  -5  -5   0 184.566 90.6426   9
   5   5   0 213.275 156.932   8
   5  -5   0 32.0704 277.610   1
  -5  -5   0 104.188 156.696   1
  -5   5  -1 7673.17 722.652   6
  -5  -5  -1 7420.89 536.533   7
   5   5   1 5902.77 624.466   3
   5  -5   1 6822.77 751.835   1
  -5  -5  -1 5882.67 654.404   4
   5   5   1 7010.86 627.198   6
   5   5   1 6601.84 684.521   8
  -5  -5  -1 8322.95 646.279   2
  -5   5  -1 7326.56 665.600   4
  -5  -5  -2 243.400 200.459   7
  -5  -5  -2 236.464 201.582   2
  -5   5  -2 50.3166 172.000   4
   5  -5   2 363.612 276.509   1
   5   5   2-184.178 201.593   8
  -5  -5  -2 92.8090 199.680   4
  -5  -5  -3 52.6762 198.410   7
   5  -5   3 194.527 311.219   1
   5   5   3 185.157 260.693   8
  -5   5  -3 564.427 285.955   4
  -5  -5  -3-47.3104 184.838   4
  -5  -5  -4 671.533 231.171   7
  -5   5  -4 507.676 333.412   4
   5  -5   4-18.1932 231.946   1
   5   5   4 803.873 309.272   8
  -5  -5  -4 117.675 213.521   4
  -5  -5  -5 947.387 349.951   4
  -5  -5  -5 589.783 323.817   7
  -5   5  -5 781.356 330.686   4
   5  -5   5 552.963 337.771   1
   5  -5   6 889.639 392.465   8
  -5  -5  -6 224.085 212.997   4
  -5   5  -6 132.164 292.271   4
   5  -5   6 561.396 350.691   1
   5   5   6 788.699 413.818   8
   5  -5   7 99.1486 361.781   8
  -5  -5  -7 1114.26 426.783   4
  -5   5  -7 686.661 380.834   4
   5   5   7 503.339 337.670   8
  -5  -5  -8 1213.43 454.395   4
   5   5   8 1087.04 479.506   8
  -5   6  12 2519.97 643.890   5
   5  -6 -11 1036.21 445.195   7
   5   6 -11 1622.36 455.400  10
  -5  -6  11 1326.90 439.529   9
  -5   6  11 2193.88 544.381   5
  -5  -6  10 5469.30 733.581   2
   5  -6 -10 9039.97 1023.67   7
   5   6 -10 7440.86 890.743  10
  -5  -6  10 7085.53 879.670   9
  -5   6  10 6967.60 884.155   5
   5  -6  -9 8161.26 918.977   7
   5   6  -9 6809.77 800.107  10
  -5  -6   9 7265.37 833.807   9
  -5   6   9 6345.45 799.990   5
  -5  -6   9 6492.43 763.704   2
   5  -6  -8 18.0817 214.083   7
   5   6  -8 97.3104 180.570  10
  -5  -6   8 187.339 228.639   9
  -5   6   8-97.5029 187.745   5
  -5   6   8 190.812 171.282   9
   5  -6  -8 171.200 182.356  10
  -5  -6   8 310.946 237.808   2
   5  -6  -7 16434.2 945.649  10
   5  -6  -7 14438.1 1120.66   1
  -5  -6   7 16349.8 1119.52   9
  -5   6   7 16492.2 1116.41   5
  -5   6   7 17652.9 977.779   9
   5   6  -7 14857.7 1066.84  10
  -5   6   7 17261.0 1201.04   6
  -5  -6   7 14669.2 1093.52   2
   5   6  -6 10918.4 865.556  10
  -5   6   6 9312.56 834.905   6
   5  -6  -6 12123.1 802.656  10
   5  -6  -6 10731.5 933.186   1
   5   6  -6 10266.6 826.333   6
  -5  -6   6 10208.2 827.178   9
  -5   6   6 11325.3 773.322   9
  -5   6   6 10420.3 837.824   5
  -5  -6   6 10072.8 887.772   2
  -5  -6   6 11933.6 827.155   1
  -5   6   5 22508.5 1260.57   6
   5   6  -5 23240.4 1186.27   6
   5  -6  -5 24471.4 1353.52   1
   5  -6  -5 23150.6 1148.95  10
  -5  -6   5 22050.2 1159.41   9
  -5   6   5 23905.8 1167.81   9
  -5   6   5 22289.5 1154.94   5
   5   6  -5 23292.3 1185.45  10
  -5  -6   5 19399.3 1214.45   2
  -5  -6   5 24472.6 1133.51   1
   5   6  -4 12600.9 798.572  10
   5   6  -4 11251.1 779.170   6
   5   6  -4 11540.8 960.678   3
   5  -6  -4 12886.1 976.057   1
  -5   6   4 12924.8 873.538   9
  -5   6   4 11944.4 753.800   5
  -5  -6   4 12446.9 792.822   9
   5  -6  -4 13230.6 870.835  10
  -5  -6   4 12983.1 791.738   1
  -5   6   4 13420.7 927.006   6
  -5  -6   4 12591.7 942.959   2
   5   6  -3 6778.55 532.595  10
  -5   6   3 7495.30 684.470   6
   5   6  -3 6936.02 596.141   6
   5   6  -3 7012.43 749.011   3
   5  -6  -3 6639.04 688.075   1
  -5  -6   3 7254.53 547.211   9
  -5   6   3 8400.82 719.346   9
  -5   6   3 6992.73 505.157   5
  -5  -6   3 7052.35 565.413   1
  -5  -6   3 5999.01 647.194   2
   5   6  -3 7519.80 674.967   8
   5   6  -2 497.849 192.725   6
  -5   6   2 618.097 249.260   6
   5  -6  -2 448.555 252.997   1
   5   6  -2 116.570 187.331   3
  -5  -6   2 411.103 148.500   9
  -5   6   2 363.528 118.116   5
  -5  -6   2 142.448 139.137   1
   5   6  -2 172.353 206.891   8
   5   6  -2 77.3735 121.753  10
  -5  -6   2 508.836 237.003   2
  -5   6   1 5280.61 586.229   6
   5   6  -1 5088.78 626.917   3
  -5  -6   1 5956.94 502.620   1
  -5  -6   1 5963.95 393.343   9
   5  -6  -1 6331.40 704.628   1
  -5  -6   1 6508.66 632.541   2
   5   6  -1 6899.44 696.277   8
  -5   6   1 6000.10 531.507   4
   5   6  -1 5518.13 533.662   6
  -5  -6   0 1083.38 325.856   2
  -5  -6   0 270.669 176.200   1
  -5   6   0 247.323 167.499   4
   5   6   0 181.626 185.850   6
  -5   6   0 164.944 267.446   6
   5   6   0 47.1288 181.179   3
   5   6   0 243.383 225.779   8
   5  -6   0 284.051 293.928   1
  -5  -6  -1 29736.6 1203.50   7
  -5  -6  -1 28767.0 1241.62   1
  -5   6  -1 27760.9 1481.04   6
   5   6   1 23616.2 1384.40   3
   5  -6   1 25576.8 1542.80   1
  -5  -6  -1 26156.8 1466.15   4
   5   6   1 27010.0 1341.75   6
   5   6   1 28155.7 1504.09   8
  -5  -6  -1 28740.1 1327.96   2
  -5   6  -1 28509.4 1406.51   4
  -5  -6  -2 730.014 258.913   2
  -5  -6  -2 1306.08 298.584   7
  -5   6  -2 1652.17 369.523   4
  -5   6  -2 1629.38 432.007   6
   5  -6   2 824.573 382.542   1
   5   6   2 1380.85 383.336   8
  -5  -6  -2 1033.98 318.056   4
  -5  -6  -3 25936.0 1283.58   7
   5  -6   3 23450.6 1568.59   1
  -5  -6  -3 22684.0 1455.65   4
   5   6   3 23242.9 1475.80   8
  -5   6  -3 22627.4 1431.20   4
  -5  -6  -4 1695.68 380.965   7
  -5   6  -4 1014.13 431.673   4
   5  -6   4 1569.90 487.516   1
   5   6   4 2372.53 482.277   8
  -5  -6  -4 1571.71 459.011   4
  -5  -6  -5 7752.50 905.782   4
   5  -6   5 7704.87 969.283   1
   5   6   5 7742.94 895.932   8
  -5   6  -5 9162.10 1004.04   4
  -5  -6  -6 363.518 298.458   4
  -5   6  -6 382.022 320.375   4
   5  -6   6 940.324 454.528   1
   5   6   6-36.2382 250.331   8
   5  -6   7 5779.65 907.590   8
  -5  -6  -7 7135.08 957.146   4
  -5   6  -7 7531.72 1041.10   4
   5   6   7 5245.31 801.342   8
   5  -7 -11 17053.8 1525.11   7
   5   7 -11 17594.5 1455.98  10
  -5  -7  11 15966.2 1421.07   9
  -5   7  11 16767.9 1451.51   5
  -5  -7  10-56.3428 236.255   2
   5  -7 -10 279.771 305.092   7
   5   7 -10 393.303 335.850  10
  -5  -7  10 207.662 307.418   9
  -5   7  10-20.1146 231.801   5
   5  -7  -9 10841.2 1096.62   7
   5   7  -9 9996.04 1010.32  10
  -5  -7   9 11265.3 1069.70   9
  -5   7   9 10102.1 1025.44   5
  -5  -7   9 10707.4 1041.01   2
   5  -7  -8 86.2103 233.846   7
   5   7  -8 204.554 249.369  10
  -5  -7   8 316.828 228.512   9
  -5   7   8 863.206 347.454   5
   5  -7  -8-11.0323 249.587   1
  -5  -7   8 35.2206 205.248   2
  -5   7   7 2168.35 483.323   6
  -5  -7   7 1697.18 365.294   1
   5   7  -7 2232.30 448.874  10
   5   7  -7 1905.61 437.544   6
  -5  -7   7 1740.10 387.872   9
  -5   7   7 2153.02 448.761   5
   5  -7  -7 1659.73 449.002   1
  -5  -7   7 1722.38 433.850   2
   5   7  -6 630.712 255.243  10
  -5   7   6 624.132 323.846   6
   5   7  -6 484.964 289.427   6
  -5  -7   6 1079.62 310.668   9
  -5   7   6 900.635 254.800   5
  -5   7   6 1068.57 277.402   9
   5  -7  -6 668.340 219.123  10
  -5  -7   6 742.007 304.658   2
  -5  -7   6 1123.47 334.534   1
   5  -7  -6 816.641 327.914   1
  -5   7   5 27389.2 1510.07   6
   5  -7  -5 30515.7 1352.27  10
  -5  -7   5 26228.2 1310.73   9
   5   7  -5 27997.6 1401.60   6
   5  -7  -5 25710.0 1504.43   1
   5   7  -5 24285.3 1523.55   3
   5   7  -5 27504.4 1333.17  10
  -5   7   5 30293.3 1362.99   9
  -5   7   5 25855.7 1306.98   5
  -5  -7   5 30484.1 1394.55   1
  -5  -7   5 24619.0 1447.64   2
   5  -7  -4 1061.62 330.726   1
   5   7  -4 1445.10 374.125   3
   5   7  -4 1015.41 266.557  10
   5  -7  -4 1329.02 313.246  10
  -5   7   4 1799.43 370.168   6
   5   7  -4 1024.21 296.334   6
  -5  -7   4 1502.94 298.368   9
  -5  -7   4 1494.10 336.409   1
  -5   7   4 1101.57 281.638   5
  -5   7   4 1894.79 391.570   9
  -5  -7   4 960.766 327.176   2
   5   7  -3 6326.69 537.427  10
  -5   7   3 5512.20 644.352   6
   5   7  -3 6162.77 614.884   6
   5  -7  -3 5477.69 674.248   1
   5   7  -3 6771.85 766.781   3
  -5  -7   3 6046.06 528.423   9
  -5   7   3 7208.40 701.987   9
  -5  -7   3 6211.42 582.681   1
  -5  -7   3 6166.74 696.360   2
   5   7  -2 1002.22 286.795   6
  -5   7   2 192.087 225.767   6
   5  -7  -2 652.293 317.057   1
   5   7  -2 606.712 312.907   3
  -5  -7   2 389.673 206.481   1
   5   7  -2 320.538 240.412   8
  -5  -7   2 97.9315 198.199   2
   5   7  -1 312.085 180.295   6
  -5  -7   1 335.514 214.818   1
  -5   7   1 556.118 276.627   6
   5   7  -1 495.404 287.409   3
   5  -7  -1 406.851 324.431   1
   5   7  -1 216.159 232.691   8
  -5  -7   1 883.165 283.816   2
  -5  -7   0 292.379 253.238   2
  -5  -7   0 240.451 201.142   1
   5   7   0 380.551 208.520   6
  -5   7   0-109.600 287.834   6
   5   7   0-67.9761 194.220   3
   5   7   0 36.3872 204.465   8
  -5   7   0 69.6374 186.865   4
   5  -7   0-150.295 252.845   1
  -5  -7  -1 3599.63 475.089   1
  -5  -7  -1 5035.33 502.685   7
   5  -7   1 4050.71 704.481   1
   5   7   1 4666.35 604.530   6
  -5   7  -1 4218.18 636.126   6
  -5   7  -1 3715.67 555.119   4
  -5  -7  -1 4187.99 534.949   2
   5   7   1 3569.97 590.107   8
  -5   7  -2 203.901 225.865   4
  -5  -7  -2 467.824 246.205   2
   5  -7   2 97.4862 273.591   1
  -5   7  -2 483.412 342.785   6
   5   7   2 72.7302 259.234   6
   5   7   2 597.770 307.550   8
  -5  -7  -2 789.144 306.186   4
  -5   7  -3 331.963 268.742   4
  -5   7  -3 1195.97 449.460   6
   5   7   3 1060.68 399.427   8
   5  -7   3 1305.74 483.397   1
  -5  -7  -3 460.977 299.037   4
  -5   7  -4 325.393 371.510   4
   5  -7   4 73.4887 255.658   1
   5   7   4 233.865 313.990   8
  -5  -7  -4-3.28555 253.751   4
  -5   7  -5 1670.31 456.049   4
   5   7   5 1459.09 436.044   8
   5  -7   5 1667.95 525.172   1
  -5  -7  -5 1701.28 481.760   4
  -5  -7  -6 128.269 239.749   4
  -5   7  -6-494.612 277.723   4
   5   7   6 188.645 293.007   8
   5  -7   6-481.613 295.241   1
  -5  -7  -7 131.985 304.381   4
   5  -8 -10 3859.91 717.534   7
   5  -8 -10 3439.71 721.578   1
   5   8 -10 3492.79 677.588  10
  -5  -8  10 2098.74 567.893   9
  -5   8  10 2767.88 612.132   5
  -5  -8  10 2229.36 534.399   2
   5  -8  -9 1648.29 543.419   7
   5   8  -9 1253.44 382.585  10
   5   8  -9 1972.83 523.072   6
  -5  -8   9 1302.78 449.143   9
  -5   8   9 611.925 351.196   5
   5  -8  -9 795.194 424.119   1
  -5  -8   9 736.829 376.424   2
   5  -8  -8 4927.86 758.521   7
  -5   8   8 5654.10 811.934   6
   5   8  -8 5535.19 735.581  10
   5   8  -8 6712.65 834.789   6
   5   8  -8 5562.39 805.977   3
  -5  -8   8 4507.42 679.716   9
  -5   8   8 3584.77 625.251   5
   5  -8  -8 6243.28 872.588   1
  -5  -8   8 5710.91 779.005   2
   5   8  -7 4384.53 618.109  10
  -5   8   7 5302.79 767.138   6
   5   8  -7 5486.13 769.934   3
   5   8  -7 5829.83 754.564   6
  -5  -8   7 5479.27 692.361   9
  -5   8   7 5548.98 698.160   5
  -5  -8   7 5409.39 737.553   2
   5  -8  -7 6496.49 836.912   1
   5  -8  -6 1110.70 433.678   1
   5   8  -6 467.404 218.440  10
  -5   8   6 1046.75 422.714   6
   5   8  -6 560.576 338.410   3
   5   8  -6 773.769 321.057   6
  -5  -8   6 971.308 343.503   9
  -5   8   6 524.527 246.656   5
  -5  -8   6 670.183 341.976   2
   5   8  -5 22292.2 1221.70  10
   5  -8  -5 22969.5 1198.56  10
   5   8  -5 22765.9 1343.54   6
   5   8  -5 17052.2 1337.26   3
   5  -8  -5 21874.9 1469.94   1
  -5  -8   5 21105.4 1216.98   9
  -5   8   5 22730.6 1194.13   9
  -5   8   5 21823.6 1228.61   5
  -5  -8   5 19060.3 1330.68   2
  -5   8   5 23690.7 1478.53   6
   5  -8  -4 155.746 247.793   1
   5   8  -4 124.228 141.035  10
  -5   8   4 691.219 324.231   6
   5  -8  -4 568.899 250.445  10
   5   8  -4 461.932 252.967   6
   5   8  -4 396.276 326.191   3
  -5  -8   4 350.956 208.454   9
  -5   8   4 492.704 207.797   9
  -5  -8   4 290.307 267.450   2
  -5   8   3 5821.22 722.502   6
   5   8  -3 5391.58 630.537   6
   5  -8  -3 5555.73 735.162   1
  -5   8   3 5048.91 611.224   9
   5   8  -3 4902.24 706.830   3
  -5  -8   3 4492.37 617.355   2
   5   8  -2 4384.37 574.290   6
  -5   8   2 4738.24 663.785   6
   5  -8  -2 5239.62 745.775   1
   5   8  -2 4430.98 673.637   3
  -5  -8   2 4232.54 618.436   2
   5   8  -1 32664.4 1578.14   6
  -5   8   1 33555.3 1763.62   6
   5   8  -1 28684.2 1701.65   3
   5  -8  -1 29201.3 1770.95   1
  -5  -8   1 32396.6 1649.45   2
   5   8  -1 32759.1 1723.92   8
   5   8   0 1408.04 373.658   6
  -5   8   0 1137.31 378.424   6
   5   8   0 1191.69 400.528   3
   5   8   0 913.126 334.226   8
   5  -8   0 854.533 349.287   1
  -5  -8   0 1033.04 333.107   2
   5   8   1 11314.8 958.477   6
  -5   8  -1 11266.7 1051.72   6
   5  -8   1 10908.3 1128.16   1
   5   8   1 10783.8 1018.60   8
  -5  -8  -1 11719.9 942.122   2
   5   8   2 291.064 223.889   6
   5  -8   2 149.018 275.750   1
  -5   8  -2-227.935 228.796   6
   5   8   2 112.304 281.325   8
  -5  -8  -2-5.54759 203.400   4
  -5   8  -3 5827.80 770.674   4
  -5   8  -3 4370.80 721.444   6
   5  -8   3 4224.32 770.225   1
   5   8   3 5048.06 744.174   8
  -5  -8  -3 4674.33 707.428   4
  -5   8  -4 815.722 495.113   4
   5  -8   4 1827.03 546.485   1
  -5   8  -4 1148.16 495.542   6
   5   8   4 1380.69 482.464   8
  -5   8  -5 24172.7 1811.29   6
   5  -8   5 22340.1 1773.67   1
  -5  -8  -5 19371.4 1542.35   4
   5   8   5 25360.5 1749.12   8
  -5   8  -5 22307.5 1685.89   4
  -5  -8  -6 2937.79 641.537   4
  -5   8  -6 4803.64 934.428   6
   5   8   6 3480.09 718.217   8
   5   9 -10 3294.89 678.266  10
   5   9 -10 3572.69 744.657   3
   5   9 -10 3480.29 747.871   6
  -5  -9  10 3541.69 703.961   9
  -5   9  10 3469.63 688.192   5
  -5  -9  10 4496.04 757.524   2
   5  -9  -9 1800.63 525.275   7
   5   9  -9 706.092 338.765  10
   5   9  -9 700.836 363.410   3
   5   9  -9 1141.85 436.805   6
  -5  -9   9 773.062 371.941   9
  -5   9   9 1120.61 417.682   5
   5  -9  -9 1364.85 543.981   1
  -5  -9   9 1648.81 480.578   2
   5   9  -8 152.367 251.668  10
  -5   9   8 287.845 325.813   6
   5   9  -8-177.881 314.025   3
   5   9  -8 105.142 342.608   6
  -5  -9   8 142.691 213.903   9
  -5   9   8 170.666 304.477   5
  -5  -9   8 630.541 379.904   2
   5  -9  -8 762.032 422.222   1
   5  -9  -8-71.6390 240.372   7
   5  -9  -7 755.478 427.899   1
  -5   9   7 1806.54 528.070   6
   5   9  -7 1437.36 418.766  10
   5   9  -7 2538.66 594.754   6
   5   9  -7 1030.34 486.778   3
  -5  -9   7 771.593 359.530   9
  -5   9   7 1078.99 388.846   5
  -5  -9   7 1197.18 368.777   2
   5  -9  -6 486.077 388.989   1
   5   9  -6 329.022 219.161  10
  -5   9   6 1026.80 427.791   6
   5   9  -6-13.4840 202.839   6
  -5  -9   6 240.832 212.833   9
  -5  -9   6 625.447 300.221   2
   5   9  -6 649.892 380.359   3
  -5   9   5 17491.5 1340.97   6
   5   9  -5 15344.7 1178.46   6
   5   9  -5 14746.9 1296.38   3
   5  -9  -5 15491.9 1308.02   1
  -5  -9   5 13937.3 1206.47   2
   5  -9  -4 2333.63 516.332   1
  -5   9   4 2129.26 514.272   6
   5   9  -4 2124.59 449.505   6
   5   9  -4 2254.47 520.226   3
  -5  -9   4 1885.89 438.529   2
  -5   9   3 481.859 282.899   6
   5   9  -3-271.949 211.488   6
   5  -9  -3 713.841 384.833   1
   5   9  -3 349.969 289.387   3
  -5   9   3 139.666 190.343   9
  -5  -9   3-311.222 216.531   2
   5   9  -2 849.700 298.457   6
  -5   9   2 555.411 358.073   6
   5  -9  -2 474.808 344.394   1
   5   9  -2 713.817 375.607   3
  -5  -9   2 187.084 241.718   2
   5   9  -1 1556.61 397.184   6
   5   9  -1 415.577 327.610   3
   5  -9  -1 886.175 429.586   1
  -5   9   1 1102.47 432.959   6
  -5  -9   1 307.297 254.051   2
   5   9   0 483.019 294.614   6
  -5   9   0 417.558 343.087   6
   5   9   0 383.571 317.243   3
   5   9   0 388.269 309.852   8
   5  -9   0-50.2724 318.926   1
  -5  -9   0 28.2054 227.260   2
  -5   9  -1 12898.5 1210.78   6
   5  -9   1 13682.9 1335.49   1
   5   9   1 15981.3 1205.73   6
   5   9   1 13516.1 1210.56   8
  -5  -9  -1 12034.3 1020.94   2
   5  -9   2 300.051 395.979   1
  -5   9  -2 710.822 375.063   6
   5   9   2 155.683 332.032   6
   5   9   2 871.049 469.785   8
  -5  -9  -2 27.6242 210.482   4
  -5   9  -3 3795.93 761.135   6
   5  -9   3 2887.39 690.917   1
   5   9   3 4525.06 750.765   8
  -5  -9  -3 2845.02 617.054   4
   5  -9   4 2597.76 710.716   1
  -5   9  -4 1495.50 521.168   6
   5   9   4 1259.21 526.403   8
  -5  -9  -4 2262.54 559.978   4
  -5   9  -5 1823.24 595.357   6
  -5  -9  -5 1924.16 558.983   4
   5  10  -9 2466.14 567.371  10
   5  10  -9 4722.88 833.105   3
  -5 -10   9 3847.73 696.551   9
   5 -10  -8 391.238 389.425   1
   5  10  -8 168.657 232.895  10
  -5  10   8 850.196 384.678   6
   5  10  -8 558.937 363.611   6
   5  10  -8 242.699 356.312   3
  -5 -10   8 161.711 261.613   9
  -5 -10   8 1027.84 425.101   2
   5 -10  -7-33.6349 330.704   1
  -5  10   7 51.3563 259.447   6
   5  10  -7-169.144 315.462   6
   5  10  -7 16.0170 218.052   3
   5 -10  -6 2037.40 590.462   1
  -5  10   6 2117.63 534.419   6
   5  10  -6 812.606 382.721   6
   5  10  -6 1951.80 542.666   3
  -5 -10   6 1936.24 528.423   2
   5 -10  -5 3985.18 755.035   1
  -5  10   5 4054.97 729.655   6
   5  10  -5 3907.15 625.964   6
   5  10  -5 4251.95 742.265   3
  -5 -10   5 3286.74 601.171   2
   5 -10  -4 1971.64 539.282   1
  -5  10   4 1768.94 471.782   6
   5  10  -4 1891.23 493.327   6
   5  10  -4 1743.91 513.832   3
  -5 -10   4 621.950 358.238   2
  -5  10   3 14719.1 1305.58   6
   5  10  -3 14753.5 1187.70   6
   5  10  -3 12969.0 1271.90   3
   5 -10  -3 16783.2 1455.83   1
  -5 -10   3 13701.1 1215.89   2
   5  10  -2 3498.44 619.232   6
  -5  10   2 2896.10 625.871   6
   5 -10  -2 2866.32 643.297   1
   5  10  -2 3177.30 637.238   3
  -5 -10   2 2789.17 571.956   2
   5  10  -1 3544.09 593.442   6
  -5  10   1 3692.69 704.233   6
   5  10  -1 3939.59 714.960   3
   5 -10  -1 2956.21 685.242   1
  -5 -10   1 3045.59 575.959   2
   5  10   0 5093.09 737.178   6
  -5  10   0 5908.74 874.180   6
  -5 -10   0 3934.23 699.233   2
  -5 -10  -1 4505.88 665.328   2
   5 -10   1 3069.39 756.905   1
   5  10   1 3773.69 644.285   6
  -5  10  -1 3060.93 671.146   6
   5  10   2 1473.96 494.151   6
   5 -10   2 1796.38 646.012   1
  -5  10  -2 1061.45 423.847   6
   5  10   2 2294.22 580.973   8
  -5 -10  -2 412.393 269.788   4
  -5  10  -3 17057.5 1532.06   6
   5 -10   3 16609.1 1622.86   1
  -5 -10  -3 14358.4 1338.62   4
   5  10   3 17851.3 1508.60   8
  -5 -10  -4 1509.24 510.440   4
   5  11  -7 8842.90 1094.00   6
   5  11  -7 9965.96 1177.54   3
  -5  11   6 693.265 408.066   6
   5  11  -6 655.823 392.340   6
   5  11  -6 82.6243 297.106   3
  -5  11   5 1752.17 590.968   6
   5  11  -5 1082.44 417.064   6
   5  11  -5 3122.07 743.961   3
   5 -11  -5 2830.07 716.575   1
  -5 -11   5 2313.35 591.882   2
  -5  11   4 687.318 372.179   6
   5  11  -4 217.941 313.460   6
   5 -11  -4 539.860 512.807   1
   5  11  -4 1322.15 471.304   3
  -5 -11   4 1489.40 555.265   2
  -5  11   3 8859.40 1091.26   6
   5  11  -3 8978.78 996.677   6
   5  11  -3 8613.78 1075.39   3
   5 -11  -3 8958.25 1125.13   1
  -5 -11   3 8508.64 1011.02   2
   5  11  -2 486.486 296.855   6
  -5  11   2 596.768 313.276   6
   5  11  -2 973.782 407.452   3
   5 -11  -2 966.959 504.816   1
  -5 -11   2 885.034 380.533   2
   5  11  -1 4180.75 770.088   6
  -5  11   1 3403.65 672.082   6
   5 -11  -1 2702.08 675.305   1
  -5 -11   1 3611.50 690.820   2
   5 -11   0 1113.22 583.161   1
   5  11   0 342.806 258.376   6
  -5  11   0 223.504 442.799   6
   5  11   1 3559.29 708.031   6
  -5  11  -1 4819.77 847.368   6
   5  11   2 692.965 377.464   6
  -5 -11  -2 211.055 328.638   4
   5  12  -4-113.747 270.764   6
   5  12  -3 2045.22 519.343   6
   5  12  -2 478.740 316.292   6
   5  12  -1 3902.03 704.150   6
  -5 -12   1 3357.35 675.103   2
   6   0 -14 554.374 348.760  10
  -6   0  14 582.855 338.861   9
   6   0 -13 697.338 458.079   7
  -6   0  13-131.933 238.909   9
   6   0 -13 343.224 342.085  10
   6   0 -12 3479.14 657.243   7
  -6   0  12 3473.33 617.180   9
   6   0 -12 3349.38 622.446  10
   6   0 -11 181.091 350.250   7
   6   0 -11 134.868 237.923  10
  -6   0  11 152.191 212.719   9
   6   0 -10 45906.2 2084.19   7
  -6   0  10 45577.9 2019.00   9
   6   0 -10 46623.1 2038.28  10
   6   0  -9 788.752 308.415   7
   6   0  -9-73.2614 181.952  10
  -6   0   9 563.140 237.945   9
   6   0  -8 7306.55 680.240   7
   6   0  -8 6826.91 682.052  10
  -6   0   8 6458.95 667.092   9
   6   0  -7-248.933 142.264  10
  -6   0   7-87.6555 159.655   9
   6   0  -6 98919.4 2547.62   7
  -6   0   6 101176. 2822.74   9
   6   0  -6 102049. 2826.38  10
   6   0  -5 18.5086 111.375   7
   6   0  -5 21.9357 148.951  10
  -6   0   5 36.0402 134.166   9
   6   0  -5 105.119 96.1367   8
   6   0  -4 306625. 5656.40   7
  -6   0   4 301507. 6322.93   9
   6   0  -4 305480. 6333.35  10
   6   0  -4 302579. 5812.93   8
   6   0  -4 305566. 5621.48   1
   6   0  -3 43.5044 62.1459   7
   6   0  -3 102.583 125.515  10
   6   0  -3-106.358 71.8489   1
  -6   0   3-70.9137 152.053   9
  -6   0   3 85.9570 120.759   4
   6   0  -3 83.6571 142.682   8
  -6   0   2 20918.1 1047.00   9
   6   0  -2 20301.0 1017.44  10
   6   0  -2 22384.5 720.604   1
  -6   0   2 23119.0 1040.72   4
   6   0  -2 24190.6 1043.96   8
   6   0  -1 72.2412 99.4156   1
  -6   0   1-42.6883 49.8065   6
  -6   0   1 31.1318 136.807   9
   6   0  -1-142.495 161.171   8
  -6   0   1 178.909 199.460   4
   6   0   0 81794.6 1929.27   3
  -6   0   0 79491.8 2469.87   4
   6   0   0 79290.8 2467.25   8
  -6   0  -1-23.8096 193.321   4
   6   0   1 230.237 229.086   8
  -6   0  -2 53579.1 2096.41   4
   6   0   2 50271.8 2054.93   8
  -6   0  -3 442.968 244.025   4
   6   0   3 186.845 208.879   8
  -6   0  -4 5405.13 708.059   4
   6   0   4 6533.32 779.301   8
  -6   0  -5-70.9895 212.194   4
   6   0   5 205.452 262.905   8
   6   0   6 12918.2 1206.96   8
  -6   0  -6 11516.3 1156.95   4
  -6   0  -7 286.175 317.193   4
   6   0   7 181.109 348.874   8
   6   0   8 11299.1 1248.24   8
  -6   1  14 11023.9 1133.54   9
   6  -1 -14 10396.7 1101.25  10
   6  -1 -13 541.033 384.591   7
   6   1 -13 1828.52 560.093  10
   6  -1 -13 1501.31 421.695  10
  -6  -1  13 1688.51 490.474   9
  -6   1  13 1138.75 394.425   9
   6  -1 -12 716.378 544.926   7
   6   1 -12 444.298 362.854  10
  -6  -1  12 411.273 229.484   9
  -6   1  12 136.356 289.644   9
   6  -1 -12 338.711 293.851  10
   6   1 -11 1224.34 487.051   7
   6  -1 -11 1202.16 423.803   7
   6   1 -11 1232.81 387.534  10
   6  -1 -11 1138.08 367.387  10
  -6  -1  11 1620.64 404.515   9
  -6   1  11 842.607 312.811   9
   6   1 -10 6689.52 796.689   7
   6  -1 -10 8077.49 864.516   7
   6  -1 -10 8211.30 808.352  10
   6   1 -10 9284.81 883.896  10
  -6  -1  10 7273.93 787.553   9
  -6   1  10 8219.53 801.967   9
   6   1  -9 304.325 276.359   7
   6  -1  -9 1194.04 348.708   7
   6  -1  -9 664.786 268.819  10
   6   1  -9 1156.47 335.028  10
  -6  -1   9 881.023 325.165   9
  -6   1   9 726.421 271.733   9
   6   1  -8 13580.8 922.584   7
   6  -1  -8 13842.0 922.507   7
   6   1  -8 12404.5 920.462  10
  -6  -1   8 11568.1 885.886   9
  -6   1   8 11798.4 877.829   9
   6  -1  -8 12592.4 908.747  10
   6   1  -7 2401.99 376.171   7
   6  -1  -7 1768.37 322.374   7
  -6  -1   7 2184.41 366.202   2
   6   1  -7 2160.83 381.972  10
   6  -1  -7 2659.12 414.417  10
  -6  -1   7 2325.99 390.190   9
  -6   1   7 2473.81 387.539   9
  -6   1   6 23194.2 1159.53   9
   6   1  -6 23503.8 1000.05   7
   6  -1  -6 24762.8 1074.99   7
   6   1  -6 24491.7 1205.04  10
  -6  -1   6 25112.4 1215.11   9
   6  -1  -6 26611.8 1230.15  10
  -6  -1   6 24209.6 1177.81   2
   6   1  -5 4675.54 365.444   7
   6  -1  -5 4610.48 402.931   7
   6   1  -5 4535.82 471.900  10
  -6  -1   5 4731.64 481.869   9
  -6   1   5 4951.02 508.590   9
  -6   1   5 4795.31 343.727   4
   6   1  -5 4743.36 337.045   8
   6  -1  -5 4666.15 280.351   8
  -6  -1   5 4033.37 467.410   2
   6  -1  -5 6190.63 563.761  10
   6   1  -4 948.348 124.755   7
   6   1  -4 1071.12 257.737  10
   6  -1  -4 732.312 236.770  10
   6  -1  -4 1061.00 124.239   6
   6   1  -4 734.913 96.3871   1
  -6  -1   4 905.537 249.324   9
  -6   1   4 1074.05 270.312   9
   6   1  -4 1281.14 212.503   8
  -6   1   4 998.237 188.759   4
   6  -1  -4 929.992 174.455   8
   6   1  -4 855.416 102.016   1
   6  -1  -4 1173.95 190.163   1
   6   1  -3 6760.76 552.884  10
   6  -1  -3 6330.68 569.092  10
   6  -1  -3 6692.74 425.322   1
  -6  -1   3 6154.09 530.082   9
  -6   1   3 6628.64 598.698   9
  -6   1   3 7233.90 497.744   4
   6   1  -3 6787.75 500.658   8
   6  -1  -3 6538.18 494.082   8
  -6   1   2 5392.36 249.450   6
  -6  -1   2 6544.03 554.085   9
  -6   1   2 6510.98 587.234   9
   6  -1  -2 6300.38 447.668   1
  -6  -1   2 6095.24 529.707   4
  -6   1   2 5606.43 483.089   4
   6   1  -2 6035.67 516.940   8
   6   1  -2 7280.56 564.122  10
   6  -1  -2 6752.62 528.942   8
  -6  -1   1 9594.54 396.455   6
  -6  -1   1 10744.0 436.422   1
  -6  -1   1 11014.2 727.708   9
   6  -1  -1 11197.7 630.030   1
  -6  -1   1 11457.2 779.828   4
  -6   1   1 12065.0 758.362   4
   6   1  -1 10461.3 742.005   8
   6  -1  -1 11597.8 781.042   8
   6  -1   0 16486.3 570.832   3
   6   1   0 16165.2 763.749   3
  -6  -1   0 16144.6 923.464   9
   6  -1   0 16049.6 820.749   1
  -6  -1   0 15388.2 975.903   4
  -6   1   0 15914.0 951.240   4
   6   1   0 15161.0 969.676   8
   6  -1   0 16769.8 993.754   8
  -6  -1  -1 4234.84 553.466   4
   6   1   1 3669.80 344.896   3
  -6   1  -1 5118.69 584.579   4
   6  -1   1 4630.04 465.954   1
   6   1   1 3650.07 514.552   8
   6  -1   1 4674.04 571.389   8
  -6  -1  -2 143.780 259.082   4
  -6   1  -2 504.300 298.577   4
   6   1   2 160.335 208.329   8
   6  -1   2 432.861 276.688   8
  -6  -1  -3 101.000 177.659   4
  -6   1  -3 20.5083 168.416   4
   6   1   3-152.949 234.402   8
   6  -1   3 578.460 343.355   8
  -6  -1  -4 9382.06 957.530   4
   6   1   4 13636.5 1114.89   8
  -6   1  -4 11239.6 1010.31   4
   6  -1   4 12011.2 1047.05   8
  -6  -1  -5 1420.07 427.197   4
  -6   1  -5 1404.13 404.566   4
   6   1   5 1754.02 473.198   8
   6  -1   5 1038.35 385.712   8
   6   1   6 23952.6 1654.11   8
  -6  -1  -6 24014.4 1665.37   4
  -6   1  -6 20558.2 1555.37   4
  -6  -1  -7 1017.99 410.578   4
  -6   1  -7 423.941 343.596   4
   6   1   7 983.230 448.023   8
   6  -1   7 1296.33 530.883   8
   6   1   8 597.741 410.157   8
   6  -1   8 338.544 433.196   8
   6  -2 -14 201.123 233.023  10
  -6   2  14-171.055 237.054   9
   6  -2 -13 549.737 391.756   7
   6   2 -13 633.946 353.320  10
   6  -2 -13-124.682 245.506  10
  -6  -2  13-99.6815 222.869   9
  -6   2  13 448.272 257.885   9
   6  -2 -12 1609.39 546.451   7
   6   2 -12 1036.76 399.417  10
   6  -2 -12 1540.89 402.947  10
  -6  -2  12 1682.69 469.066   9
  -6   2  12 1596.62 415.599   9
   6  -2 -11 5216.76 755.496   7
   6  -2 -11 5305.97 692.508  10
   6   2 -11 5141.08 732.214  10
  -6  -2  11 3367.15 616.306   9
  -6   2  11 3910.93 590.122   9
   6  -2 -10 2824.14 533.610   7
  -6  -2  10 1877.03 381.992   2
   6   2 -10 3270.73 560.350  10
   6  -2 -10 3372.80 525.601  10
  -6  -2  10 2817.97 522.802   9
  -6   2  10 2280.99 434.301   9
   6  -2  -9 33853.9 1666.55   7
   6  -2  -9 32847.7 1572.57  10
  -6  -2   9 31541.4 1625.94   9
  -6   2   9 32303.3 1559.56   9
   6   2  -9 34445.7 1686.43  10
  -6  -2   9 31697.0 1503.63   2
   6  -2  -8 12911.4 927.061   7
   6   2  -8 12879.9 948.392  10
  -6  -2   8 11133.2 887.989   9
  -6   2   8 12331.7 882.763   9
   6  -2  -8 12510.0 895.084  10
  -6  -2   8 10970.1 833.745   2
   6  -2  -7 935.222 270.009   7
  -6  -2   7 1269.87 292.652   2
   6   2  -7 1724.00 371.287  10
   6  -2  -7 973.040 266.296  10
  -6  -2   7 744.469 260.317   9
  -6   2   7 1478.07 313.107   9
  -6  -2   6 3072.44 427.282   2
   6  -2  -6 2978.17 375.531   7
   6   2  -6 3561.82 459.199  10
  -6  -2   6 3154.86 432.744   9
   6  -2  -6 2982.75 415.873  10
  -6   2   6 3207.03 430.351   9
   6   2  -5 10033.4 720.119  10
   6  -2  -5 9713.29 723.976  10
   6  -2  -5 10365.9 652.986   1
  -6  -2   5 9320.19 690.551   9
  -6   2   5 10728.6 756.281   9
   6   2  -5 8998.89 535.023   8
  -6   2   5 9148.40 392.065   4
   6  -2  -5 9850.10 452.235   8
  -6  -2   5 8944.64 707.182   2
  -6   2   4 35773.6 1078.40   6
   6  -2  -4 36517.6 1466.25  10
   6   2  -4 37139.5 913.336   6
   6  -2  -4 37316.2 1264.30   1
  -6  -2   4 36701.9 1397.91   9
  -6   2   4 36785.6 1484.68   9
   6   2  -4 38600.2 1434.20  10
   6   2  -4 35793.6 1241.71   8
  -6   2   4 36885.1 1069.71   4
   6  -2  -4 36203.7 1166.61   8
  -6  -2   4 37381.1 1483.77   2
   6   2  -3 30592.0 1217.69  10
   6  -2  -3 30171.7 1094.27   1
  -6  -2   3 29433.9 1199.07   9
  -6   2   3 27713.7 1285.79   9
  -6   2   3 29126.7 874.384   6
   6   2  -3 30000.7 1164.33   8
  -6   2   3 30311.1 1039.99   4
   6  -2  -3 28839.0 1110.16   8
  -6  -2   3 28047.9 1258.31   2
   6   2  -3 26764.7 651.684   6
   6   2  -2 6807.96 538.553  10
  -6   2   2 6503.73 375.920   6
  -6  -2   2 6376.49 522.519   9
  -6   2   2 6902.71 634.445   9
   6  -2  -2 6106.26 491.363   1
   6   2  -2 5953.17 519.236   8
  -6   2   2 6315.94 490.584   4
   6  -2  -2 6318.23 541.658   8
  -6  -2   2 5109.74 514.111   2
   6  -2  -1 1994.04 338.527   8
  -6   2   1 1731.72 307.819   4
   6  -2  -1 1779.82 314.542   1
   6   2  -1 1512.30 273.177  10
   6   2  -1 1888.35 320.760   3
  -6  -2   1 1388.37 123.346   1
  -6   2   1 1406.41 227.442   6
  -6  -2   1 2261.46 314.944   9
  -6  -2   1 1364.92 282.665   4
   6   2  -1 2001.32 355.742   8
   6  -2   0 3458.05 462.684   8
  -6   2   0 3276.24 425.144   4
   6   2   0 3654.72 396.286   3
  -6  -2   0 3583.60 407.637   9
   6  -2   0 2810.38 405.073   1
   6   2   0 3169.85 452.506   8
  -6  -2   0 3415.76 471.125   4
   6  -2   1 5181.68 599.750   8
   6   2   1 5975.32 500.616   3
  -6  -2  -1 6607.67 566.355   9
   6  -2   1 7602.31 653.105   1
  -6  -2  -1 5650.10 649.349   4
   6   2   1 5292.76 621.288   8
  -6   2  -1 6063.94 624.590   4
  -6  -2  -2 17802.2 1172.80   4
   6  -2   2 18237.4 1079.41   1
   6   2   2 15747.1 1129.50   8
  -6   2  -2 14630.3 1043.41   4
   6  -2   2 17099.5 1152.45   8
  -6  -2  -3 1899.96 480.146   4
  -6   2  -3 2919.67 511.696   4
   6  -2   3 2233.43 423.214   1
   6   2   3 2070.20 475.672   8
   6  -2   3 2614.88 509.950   8
  -6  -2  -4 1774.78 453.856   4
  -6   2  -4 962.944 354.866   4
   6   2   4 1904.84 510.922   8
   6  -2   4 1911.73 493.174   8
  -6  -2  -5 348.826 313.128   4
  -6   2  -5 233.880 263.061   4
   6   2   5 138.947 272.322   8
   6  -2   5 427.602 320.250   8
  -6  -2  -6 258.191 257.351   4
  -6   2  -6 697.215 355.377   4
   6   2   6 490.936 386.949   8
   6  -2   6 1054.02 459.699   8
  -6  -2  -7 264.632 350.193   4
  -6   2  -7 961.263 480.305   4
   6   2   7 211.375 298.561   8
   6  -2   7-169.193 278.083   8
   6  -3 -13 4988.79 879.873   7
   6   3 -13 6334.55 891.440  10
   6  -3 -13 5274.19 742.422  10
  -6   3  13 5385.47 860.674   5
  -6  -3  13 5088.04 819.477   9
   6  -3 -12 1327.85 498.334   7
   6  -3 -12 743.463 313.494  10
  -6  -3  12 866.529 384.505   9
  -6   3  12 529.879 289.796   9
   6   3 -12 1032.76 353.300  10
   6  -3 -11 8246.97 936.245   7
  -6   3  11 6562.38 749.377   9
   6   3 -11 6793.35 848.916  10
   6  -3 -11 6087.93 724.043  10
  -6  -3  11 6221.23 809.728   9
   6  -3 -10 345.453 289.834   7
  -6  -3  10 989.373 327.709   2
   6   3 -10 983.347 364.832  10
   6  -3 -10 836.299 297.306  10
  -6  -3  10 1034.59 376.566   9
  -6   3  10 868.489 306.551   9
   6  -3  -9 9442.87 888.515   7
   6   3  -9 8336.91 840.955  10
   6  -3  -9 9110.25 805.788  10
  -6  -3   9 8557.39 829.224   9
  -6   3   9 8206.81 764.230   9
  -6  -3   9 7813.16 758.997   2
  -6  -3   8 1069.86 297.833   2
   6  -3  -8 1199.06 356.724   7
   6   3  -8 706.575 278.253  10
  -6  -3   8 1215.80 351.085   9
   6  -3  -8 929.428 301.224  10
  -6   3   8 1175.66 280.441   9
  -6  -3   7 4.70792 158.988   2
   6  -3  -7 271.248 254.348   7
   6   3  -7 59.7889 173.294  10
   6  -3  -7 11.5909 132.185  10
  -6  -3   7 100.527 262.433   9
  -6   3   7 34.9299 201.795   9
  -6  -3   6 222.813 212.259   2
   6   3  -6 1071.94 294.609  10
   6  -3  -6 451.950 232.229  10
  -6  -3   6 794.657 248.743   9
  -6   3   6 545.165 223.592   9
   6  -3  -6 432.742 96.7062   8
  -6  -3   5 1566.70 330.182   2
  -6   3   5 1849.49 281.361   6
   6   3  -5 2323.33 375.151  10
   6  -3  -5 2502.53 401.580  10
   6   3  -5 2149.38 265.793   6
  -6  -3   5 2464.53 374.152   9
  -6   3   5 1889.98 357.175   9
   6   3  -5 2052.45 290.078   8
   6  -3  -5 1724.87 313.976   1
   6  -3  -4 1007.20 263.367   1
  -6  -3   4 542.391 243.100   2
  -6   3   4 461.462 106.220   4
  -6  -3   4 346.835 74.8166   7
   6   3  -4 466.458 200.977  10
  -6   3   4 454.965 152.559   6
   6  -3  -4 303.806 229.266  10
   6   3  -4 558.762 131.158   6
  -6  -3   4 315.850 173.892   9
  -6   3   4 213.902 173.388   9
   6   3  -4 222.570 120.568   8
  -6  -3   3 162.458 210.551   2
  -6   3   3 86.9577 93.1590   4
   6  -3  -3 76.0839 142.732   1
   6   3  -3 301.564 178.165  10
   6   3  -3 259.437 94.7429   6
  -6   3   3 192.456 129.340   6
  -6  -3   3 283.534 169.886   9
  -6   3   3 105.075 205.868   9
   6   3  -3 264.791 158.946   8
  -6   3   2 109.719 117.787   4
  -6  -3   2 160.934 132.882   2
   6   3  -2 394.002 108.979   6
   6   3  -2 415.377 167.870  10
  -6   3   2 235.043 138.580   6
   6  -3  -2 361.136 221.332   1
  -6  -3   2 412.912 177.559   9
   6   3  -2 301.765 197.322   8
  -6   3   1 711.549 214.947   4
  -6  -3   1 758.147 248.755   2
  -6  -3   1 481.133 80.9570   1
   6   3  -1 1019.27 224.301  10
  -6   3   1 810.765 197.855   6
   6   3  -1 741.272 246.565   3
  -6  -3   1 609.943 183.469   9
  -6  -3   1 974.344 277.820   4
   6   3  -1 786.153 255.833   8
  -6  -3   1 428.461 75.0136   1
   6  -3  -1 986.337 304.297   1
   6   3   0 4835.30 443.692  10
   6   3   0 4707.21 495.543   3
   6  -3   0 4260.75 500.480   1
  -6  -3   0 5349.63 467.746   9
  -6  -3   0 4744.95 577.019   4
  -6   3   0 4779.51 517.633   4
   6   3   0 3942.18 517.702   8
   6  -3   1 1700.25 417.766   1
  -6  -3  -1 901.165 199.090   7
  -6   3  -1 589.517 230.220   4
   6   3   1 687.299 179.793  10
   6   3   1 475.448 189.435   3
  -6  -3  -1 1511.62 278.198   9
   6   3   1 964.742 296.177   8
  -6  -3  -1 792.083 307.551   4
   6  -3   2 3061.43 536.924   8
  -6  -3  -2 3279.36 386.539   7
  -6   3  -2 2386.46 454.361   4
   6  -3   2 2977.23 467.804   1
  -6  -3  -2 3372.37 386.773   9
   6   3   2 3189.19 521.733   8
  -6  -3  -2 2658.34 467.243   4
   6  -3   3 2068.83 451.947   8
  -6  -3  -3 1914.92 454.847   4
  -6  -3  -3 2280.71 386.407   7
  -6   3  -3 2031.71 435.885   4
   6  -3   3 2505.22 486.095   1
   6   3   3 2420.34 523.322   8
   6  -3   4 1103.82 445.641   8
  -6  -3  -4 1331.96 405.463   4
   6  -3   4 1296.76 387.440   1
  -6   3  -4 919.257 364.492   4
   6   3   4 1825.48 463.990   8
  -6  -3  -5 5288.40 767.673   4
  -6   3  -5 5266.25 766.832   4
   6   3   5 7354.00 918.060   8
   6  -3   5 6116.33 839.644   8
  -6  -3  -6 1695.94 533.200   4
  -6   3  -6 1774.04 488.568   4
   6   3   6 1683.94 499.952   8
   6  -3   6 2123.92 577.579   8
  -6  -3  -7 74.7139 333.789   4
  -6   3  -7 626.300 392.230   4
   6   3   7 280.550 357.543   8
   6  -3   7 456.598 409.253   8
   6  -4 -13 555.087 438.262   7
   6  -4 -12 8707.05 1050.17   7
  -6  -4  12 7457.75 959.731   9
  -6   4  12 8351.00 1001.81   5
   6   4 -12 6135.02 872.924  10
   6  -4 -11 1011.16 491.984   7
   6   4 -11 83.3280 246.227  10
   6  -4 -11 207.654 208.948  10
  -6  -4  11 245.472 349.886   9
  -6   4  11 526.234 186.056   9
   6  -4 -10 21628.7 1472.18   7
   6   4 -10 19326.6 1385.62  10
   6  -4 -10 22484.4 1301.41  10
  -6  -4  10 19713.5 1397.30   9
  -6   4  10 19983.4 1222.90   9
  -6  -4  10 19838.7 1289.87   2
   6  -4  -9 8681.91 879.860   7
   6  -4  -9 11052.1 877.313  10
  -6  -4   9 9365.96 921.757   9
  -6   4   9 9585.69 816.180   9
  -6  -4   9 9510.46 857.657   2
   6   4  -9 10239.3 936.504  10
  -6  -4   8 2540.68 463.237   2
   6  -4  -8 3187.81 562.205   7
   6   4  -8 2791.84 479.495  10
   6  -4  -8 2361.89 423.611  10
  -6  -4   8 2445.50 444.997   9
  -6   4   8 2746.67 428.818   9
  -6  -4   7 481.032 242.410   2
   6  -4  -7 522.732 250.733   7
   6   4  -7 977.609 309.632  10
   6  -4  -7 378.986 224.830  10
  -6  -4   7 621.233 259.022   9
  -6   4   7 675.640 264.865   9
   6   4  -6 26571.4 1315.86  10
   6  -4  -6 26744.7 1287.05  10
   6  -4  -6 28553.4 1361.60   1
  -6   4   6 27608.7 1269.96   6
  -6  -4   6 27504.6 1333.28   9
  -6   4   6 26789.9 1288.02   9
  -6  -4   6 24056.4 1303.70   2
  -6  -4   5 4279.34 538.879   2
   6   4  -5 3673.64 383.188   6
  -6   4   5 3613.24 434.020   6
   6   4  -5 4154.16 487.235  10
   6  -4  -5 3168.02 449.572  10
  -6  -4   5 3841.30 481.539   9
  -6   4   5 3440.68 465.125   9
   6  -4  -5 3648.02 457.427   1
   6   4  -4 85783.6 2425.32  10
  -6   4   4 81619.7 2281.20   6
   6  -4  -4 83658.2 2568.67  10
   6   4  -4 86737.7 2124.12   6
   6  -4  -4 86951.1 2510.44   1
  -6  -4   4 87670.1 2439.46   9
  -6   4   4 88701.5 2647.36   9
   6   4  -4 84007.0 2408.01   8
  -6  -4   4 80886.9 2582.37   2
  -6   4   4 82665.3 1804.54   4
  -6   4   3 12006.8 887.055   9
   6   4  -3 12737.3 629.255   6
  -6   4   3 11847.8 711.316   6
   6   4  -3 13477.1 773.662  10
   6  -4  -3 11619.8 799.123   1
  -6  -4   3 11937.1 730.040   9
   6   4  -3 11625.6 788.564   8
  -6  -4   3 11296.2 831.674   2
  -6   4   3 12536.2 610.555   4
   6   4  -2 5683.60 603.973   3
  -6  -4   2 5821.01 247.716   7
   6   4  -2 7112.88 468.415   6
  -6   4   2 6705.76 531.508   6
   6   4  -2 7198.25 531.943  10
  -6  -4   2 7343.25 527.213   9
   6  -4  -2 5660.59 597.589   1
   6   4  -2 6171.16 591.261   8
  -6  -4   2 6080.69 596.569   2
  -6   4   2 5966.43 477.203   4
  -6  -4   1 369.476 208.247   2
  -6  -4   1 373.358 95.2561   1
  -6   4   1 598.030 215.714   4
   6   4  -1 788.958 196.723  10
   6   4  -1 664.150 187.215   6
  -6   4   1 329.356 164.768   6
   6   4  -1 845.700 256.339   3
  -6  -4   1 652.575 187.871   9
   6  -4  -1 465.284 282.269   1
   6   4  -1 666.577 268.686   8
  -6  -4   0 25595.2 835.096   7
   6   4   0 22801.2 958.132  10
  -6   4   0 24711.9 1187.11   6
   6   4   0 24151.8 1241.40   3
  -6  -4   0 24782.9 981.324   9
   6  -4   0 23495.4 1305.46   1
  -6  -4   0 22277.9 1281.71   4
   6   4   0 22054.5 1260.16   8
  -6   4   0 23203.9 1182.87   4
  -6  -4   0 24541.2 1197.95   2
  -6  -4  -1 305.785 134.676   7
  -6   4  -1-236.626 182.913   4
   6   4   1 207.026 135.360  10
   6   4   1 516.240 232.562   3
   6  -4   1 435.862 288.718   1
  -6  -4  -1 299.483 160.895   9
   6   4   1 448.361 278.049   8
  -6  -4  -1 222.230 213.718   2
  -6  -4  -1 288.480 222.529   4
   6  -4   2 53003.7 2163.60   1
  -6  -4  -2 51375.1 2196.69   4
   6   4   2 53649.0 2210.58   8
  -6   4  -2 49280.4 2071.05   4
   6  -4   3 883.397 376.693   8
  -6   4  -3 965.443 358.494   4
   6  -4   3 463.241 322.441   1
   6   4   3 839.933 343.830   8
  -6  -4  -3 638.552 293.975   4
  -6  -4  -4 7363.17 865.486   4
   6   4   4 7101.41 847.278   8
   6  -4   4 7805.93 871.372   1
   6  -4   4 8409.26 937.112   8
  -6   4  -4 7667.29 873.708   4
   6  -4   5 1197.44 458.741   8
  -6  -4  -5 946.584 384.042   4
  -6   4  -5 1015.71 380.275   4
   6   4   5 291.619 347.929   8
  -6  -4  -6 5060.00 786.208   4
  -6   4  -6 5770.42 873.910   4
   6   4   6 5435.28 832.487   8
   6  -4   6 5022.84 848.120   8
  -6  -4  -7 75.2531 261.964   4
  -6   4  -7 401.037 405.524   4
   6   4   7-71.9275 381.432   8
   6  -4   7 37.0010 348.913   8
   6  -5 -12 757.579 424.443   7
   6   5 -12 602.337 329.310  10
  -6  -5  12 323.793 354.286   9
  -6   5  12 349.134 307.679   5
  -6  -5  11 23.6902 237.642   2
   6  -5 -11 353.954 301.557   7
   6   5 -11 606.475 379.955  10
  -6  -5  11 64.2194 262.767   9
  -6   5  11-370.126 298.604   5
   6  -5 -10 16722.4 1349.81   7
   6   5 -10 17405.7 1326.95  10
   6  -5 -10 18408.1 1153.98  10
  -6  -5  10 16813.8 1318.05   9
  -6   5  10 16542.3 1095.63   9
  -6   5  10 15047.5 1240.09   5
  -6  -5  10 14529.6 1153.28   2
  -6  -5   9 533.947 277.027   2
   6  -5  -9 1016.86 402.641   7
   6   5  -9 546.531 308.813  10
   6  -5  -9 658.859 297.306  10
  -6   5   9 394.375 263.305   5
  -6  -5   9 1209.24 366.332   9
  -6   5   9 1153.43 341.848   9
   6  -5  -8 14408.3 1112.43   7
   6   5  -8 10818.6 945.827  10
   6  -5  -8 12400.7 896.845  10
  -6  -5   8 14571.0 1078.23   9
  -6   5   8 12473.7 895.631   9
  -6  -5   8 12510.2 1007.39   2
  -6  -5   7 2395.14 456.416   2
   6  -5  -7 1866.88 386.599   1
   6   5  -7 2340.71 434.295  10
   6  -5  -7 2282.34 406.931  10
  -6  -5   7 1975.05 411.761   9
  -6   5   7 2070.97 371.590   9
   6   5  -6 21588.4 1197.02  10
  -6   5   6 23332.5 1235.72   6
   6  -5  -6 21554.8 1169.29  10
   6  -5  -6 24059.0 1320.20   1
   6   5  -6 22154.9 1102.43   6
  -6  -5   6 20169.5 1171.83   9
  -6   5   6 22525.8 1189.72   9
  -6  -5   6 21724.2 1280.51   2
   6  -5  -5 1683.14 363.221   1
  -6  -5   5 895.246 295.076   2
   6   5  -5 1640.13 342.566  10
  -6   5   5 1209.98 305.347   6
   6  -5  -5 1276.20 316.542  10
   6   5  -5 1290.97 251.759   6
  -6  -5   5 1137.91 275.601   9
  -6   5   5 1144.53 308.713   9
   6   5  -4 6688.10 571.321  10
   6  -5  -4 6947.29 656.098  10
  -6   5   4 6032.22 574.582   6
   6   5  -4 6645.01 521.137   6
   6  -5  -4 5496.22 593.679   1
  -6  -5   4 6339.37 554.810   9
  -6   5   4 6434.05 654.270   9
   6   5  -4 6643.01 613.122   8
  -6  -5   4 6092.85 651.371   2
  -6  -5   4 6426.69 379.968   1
  -6  -5   3 730.740 243.955   2
   6  -5  -3 472.442 252.042   1
   6   5  -3 944.220 237.238  10
  -6   5   3 1001.47 253.235   6
   6   5  -3 550.517 191.036   6
   6   5  -3 733.087 303.566   3
  -6   5   3 516.833 160.433   4
  -6   5   3 528.134 170.106   5
  -6  -5   3 380.910 163.460   9
  -6   5   3 453.602 233.489   9
   6   5  -3 599.456 250.473   8
  -6  -5   2 4156.18 531.215   2
   6   5  -2 4642.88 434.082   6
  -6   5   2 4824.17 509.304   6
  -6  -5   2 4995.78 434.440   9
   6   5  -2 4887.61 601.901   3
   6  -5  -2 4052.08 542.047   1
   6   5  -2 4375.05 408.088  10
   6   5  -2 4275.62 523.895   8
  -6   5   2 4510.16 431.086   4
  -6  -5   1 134.468 169.409   2
  -6   5   1 382.251 207.904   4
   6   5  -1 427.006 149.133  10
   6   5  -1 517.703 213.165   6
  -6   5   1 408.206 210.250   6
   6   5  -1 272.120 234.331   3
  -6  -5   1 442.011 156.650   9
   6  -5  -1 492.757 280.804   1
   6   5  -1 826.287 310.399   8
   6   5   0 50017.6 1703.25   6
  -6   5   0 45978.0 1827.85   6
   6   5   0 47536.5 1933.96   3
   6  -5   0 49428.4 2078.92   1
  -6  -5   0 44188.2 1946.42   4
   6   5   0 47318.5 1974.37   8
  -6  -5   0 43941.5 1767.06   2
  -6   5   0 49648.4 1837.76   4
  -6  -5  -1 164.830 169.264   2
  -6   5  -1 39.9060 159.042   4
   6  -5   1 254.831 212.974   1
  -6   5  -1 537.555 303.761   6
   6   5   1 117.800 151.970   3
   6   5   1 361.616 274.773   8
  -6  -5  -1 272.771 227.158   4
  -6   5  -2 1480.51 368.199   4
   6   5   2 1467.69 401.384   8
  -6  -5  -2 1318.86 404.427   4
   6  -5   3 18.9993 242.474   1
  -6   5  -3-5.62956 226.250   4
   6   5   3 39.6774 294.314   8
  -6  -5  -3 40.1614 221.295   4
  -6  -5  -4 4140.95 680.226   4
   6  -5   4 3626.61 637.019   1
  -6   5  -4 4233.87 685.046   4
   6   5   4 5567.54 761.770   8
   6  -5   5 633.440 454.988   8
  -6  -5  -5-69.4064 299.576   4
  -6   5  -5 391.645 257.671   4
   6  -5   5-166.876 356.173   1
   6   5   5 207.937 288.158   8
   6   5   6 18361.4 1509.79   8
  -6  -5  -6 16642.4 1457.04   4
   6  -5   6 19093.5 1591.64   8
  -6   5  -6 15161.9 1407.09   4
  -6  -5  -7 2407.09 595.726   4
   6   5   7 1149.40 425.725   8
   6  -6 -12 103.065 317.142   7
   6   6 -12 104.540 279.446  10
  -6  -6  12 283.549 294.931   9
  -6   6  12 1073.63 434.417   5
  -6  -6  11 1255.08 409.200   2
   6  -6 -11 1443.63 493.135   7
   6   6 -11 382.598 279.208  10
  -6  -6  11 1471.29 506.954   9
  -6   6  11 711.878 382.910   5
   6  -6 -10 17486.2 1436.63   7
   6   6 -10 17762.5 1370.59  10
  -6  -6  10 17330.8 1360.61   9
  -6   6  10 15476.5 1290.84   5
  -6  -6  10 17256.0 1314.34   2
  -6  -6   9 4003.13 619.337   2
   6  -6  -9 4326.40 697.722   7
   6  -6  -9 4853.06 584.277  10
   6   6  -9 3976.75 632.037  10
  -6  -6   9 4684.56 663.498   9
  -6   6   9 4453.23 660.787   5
  -6   6   9 4027.60 529.900   9
  -6  -6   8 168.069 234.926   2
   6  -6  -8 523.317 290.382   7
   6  -6  -8 295.783 210.736   1
   6   6  -8 710.970 342.964  10
  -6  -6   8 807.479 320.317   9
  -6   6   8 474.085 294.554   5
  -6   6   8 746.962 263.219   9
   6  -6  -8 594.043 235.267  10
  -6  -6   7 4920.38 660.994   2
   6   6  -7 5189.47 633.638  10
  -6   6   7 7072.53 761.613   6
   6  -6  -7 4886.90 570.858  10
  -6  -6   7 5203.32 638.507   9
  -6   6   7 6013.92 619.016   9
  -6   6   7 6069.39 672.010   5
   6  -6  -7 5615.91 718.667   1
   6   6  -7 5248.25 617.314   6
   6   6  -6 21493.9 1229.79  10
  -6   6   6 20968.2 1265.50   6
   6   6  -6 23382.1 1206.94   6
  -6  -6   6 20685.1 1209.63   9
   6  -6  -6 22531.1 1212.98  10
  -6   6   6 23428.3 1232.67   9
  -6   6   6 21299.3 1196.52   5
   6  -6  -6 23713.3 1395.91   1
  -6  -6   6 22422.9 1360.61   2
  -6  -6   5 3201.40 508.911   2
   6  -6  -5 3043.10 498.612   1
   6   6  -5 3380.74 441.888  10
  -6   6   5 3527.33 504.237   6
   6  -6  -5 4081.41 512.116  10
   6   6  -5 3665.66 467.399   6
  -6   6   5 4033.75 479.656   5
  -6  -6   5 3266.96 451.609   9
  -6   6   5 3052.33 467.871   9
   6   6  -4 73839.4 2213.27  10
  -6   6   4 67883.5 2348.90   6
   6  -6  -4 72960.5 2454.43  10
   6   6  -4 74489.4 2213.06   6
   6   6  -4 63272.0 2541.05   3
   6  -6  -4 69798.3 2506.70   1
  -6  -6   4 72865.7 2200.54   9
  -6   6   4 72526.7 2479.59   9
  -6   6   4 72071.1 2091.92   5
  -6  -6   4 69949.2 2529.63   2
  -6  -6   3 2643.60 433.916   2
   6  -6  -3 2279.91 457.439   1
  -6   6   3 2526.79 416.288   6
   6   6  -3 2365.40 353.637   6
   6   6  -3 2196.94 456.460   3
  -6  -6   3 2672.25 341.623   9
  -6   6   3 2846.81 484.585   9
   6   6  -3 2799.49 436.880   8
   6   6  -3 2307.28 332.472  10
  -6  -6   2 666.644 264.720   2
   6   6  -2 745.083 186.128  10
   6   6  -2 739.745 225.227   6
  -6   6   2 742.961 257.111   6
   6   6  -2 669.143 274.020   3
  -6   6   2 663.488 199.801   4
   6  -6  -2 933.309 346.887   1
  -6  -6   2 1202.69 221.669   9
   6   6  -2 434.213 265.426   8
   6   6  -1 6412.04 584.121   6
  -6   6   1 5985.49 649.653   6
   6   6  -1 5932.43 688.417   3
   6  -6  -1 6500.11 778.183   1
   6   6  -1 6057.32 695.213   8
  -6  -6   1 5376.62 608.795   2
  -6   6   1 6634.13 593.558   4
  -6   6   0 26417.3 1409.18   6
   6   6   0 26295.5 1275.03   6
   6   6   0 23800.3 1405.41   3
   6  -6   0 22954.8 1465.64   1
   6   6   0 25482.3 1469.90   8
  -6  -6   0 26223.0 1347.25   2
  -6   6   0 26535.0 1335.86   4
  -6  -6  -1 3230.51 475.177   2
  -6   6  -1 3145.50 511.052   4
   6  -6   1 2717.52 583.811   1
  -6   6  -1 3604.48 569.054   6
   6   6   1 2481.89 481.301   3
   6   6   1 1940.97 479.378   8
  -6  -6  -1 2711.24 508.888   4
  -6   6  -2 15374.0 1170.21   6
   6  -6   2 14690.9 1230.75   1
  -6  -6  -2 13716.2 1147.11   4
   6   6   2 15264.0 1214.15   8
  -6  -6  -2 15658.0 985.176   2
  -6   6  -2 13062.6 1067.30   4
  -6   6  -3 499.322 339.698   4
   6  -6   3 317.566 366.820   1
   6   6   3 202.849 272.552   8
  -6  -6  -3 270.897 343.263   4
  -6   6  -4 6693.02 855.845   4
   6  -6   4 6389.43 881.017   1
   6   6   4 6207.23 820.077   8
  -6  -6  -4 6303.97 843.903   4
  -6  -6  -5 464.508 360.762   4
  -6   6  -5 817.794 456.770   4
   6  -6   5 15.3997 295.837   1
   6   6   5 201.421 270.892   8
   6  -6   6 5746.37 941.112   8
  -6  -6  -6 6560.27 909.968   4
  -6   6  -6 6362.17 946.833   4
   6   6   6 6061.65 902.729   8
   6  -6   6 5862.01 911.523   1
  -6  -7  11 304.202 288.029   2
   6  -7 -11 335.563 410.813   7
   6   7 -11 1123.94 471.104  10
  -6  -7  11 283.942 350.458   9
  -6   7  11 1482.71 559.873   5
  -6  -7  10-45.7886 242.660   2
   6  -7 -10 406.993 350.697   7
   6   7 -10 78.3158 235.019  10
  -6  -7  10 244.884 285.020   9
  -6   7  10 192.856 286.623   5
  -6  -7   9 2480.07 542.579   2
   6  -7  -9 2783.53 581.671   7
   6   7  -9 2722.28 582.754  10
   6   7  -9 2676.56 562.673   6
  -6  -7   9 2185.67 518.712   9
  -6   7   9 1727.54 461.429   5
   6  -7  -9 2770.05 603.504   1
  -6  -7   8 2503.56 512.264   2
   6   7  -8 3003.83 536.122  10
   6  -7  -8 3104.44 593.892   7
   6   7  -8 2977.02 536.397   6
  -6  -7   8 3084.71 537.463   9
  -6   7   8 3317.51 569.182   5
   6  -7  -8 2980.57 576.015   1
   6   7  -7 93.0723 180.799  10
  -6   7   7 93.9793 185.546   6
   6  -7  -7 298.387 219.709  10
   6   7  -7 611.128 295.153   6
  -6  -7   7 33.5681 152.778   9
  -6   7   7 93.1638 211.284   5
  -6   7   7 783.900 316.406   9
   6  -7  -7 245.740 341.153   1
  -6  -7   7 142.780 206.267   2
   6  -7  -6 5340.87 720.572   1
   6   7  -6 5721.22 634.879  10
  -6   7   6 6194.63 720.591   6
   6  -7  -6 6538.45 646.901  10
   6   7  -6 7414.67 708.821   6
  -6  -7   6 5992.77 654.985   9
  -6   7   6 5384.38 600.308   9
  -6   7   6 5937.91 637.198   5
  -6  -7   6 6660.35 778.579   2
   6   7  -5 9093.33 761.231  10
  -6   7   5 9896.70 885.138   6
   6  -7  -5 9436.50 816.496  10
   6   7  -5 8887.49 757.092   6
   6   7  -5 8375.32 906.369   3
   6  -7  -5 9251.85 923.888   1
  -6  -7   5 7840.72 709.645   9
  -6   7   5 8613.30 789.415   9
  -6   7   5 8454.08 705.323   5
  -6  -7   5 7788.15 842.978   2
   6  -7  -4 530.393 295.257   1
   6   7  -4 1016.25 270.972  10
  -6   7   4 997.608 337.958   6
   6   7  -4 861.812 278.323   6
   6   7  -4 1111.37 365.553   3
  -6  -7   4 843.132 244.121   9
  -6   7   4 993.766 332.296   9
  -6  -7   4 598.571 277.834   2
  -6  -7   3 1469.68 378.870   2
  -6   7   3 2009.64 416.720   6
   6   7  -3 2204.16 399.081   6
   6  -7  -3 3029.42 539.559   1
   6   7  -3 947.144 333.111   3
  -6   7   3 1147.93 344.779   9
   6   7  -3 2191.45 456.273   8
  -6  -7   2 961.541 313.852   2
   6   7  -2 542.880 206.813   6
  -6   7   2 1229.14 387.000   6
   6   7  -2 733.427 312.691   3
   6  -7  -2 1406.94 412.579   1
   6   7  -2 966.347 361.454   8
   6   7  -1 6391.02 644.833   6
  -6   7   1 6143.76 739.099   6
   6   7  -1 4543.13 652.943   3
  -6  -7   1 5863.79 668.095   2
   6  -7  -1 4870.00 702.377   1
   6   7  -1 5460.24 671.929   8
  -6   7   1 5131.41 570.471   4
   6  -7   0 463.981 371.210   1
  -6  -7   0 404.475 265.166   2
  -6   7   0 575.384 275.624   4
   6   7   0 401.662 214.400   6
  -6   7   0 467.169 355.404   6
   6   7   0 686.362 321.185   3
   6   7   0 490.109 312.535   8
   6   7   1 5913.84 675.767   6
  -6   7  -1 4453.55 604.694   4
   6  -7   1 4821.23 766.776   1
  -6   7  -1 5002.53 679.420   6
  -6  -7  -1 5679.57 631.614   2
   6   7   1 6012.64 774.707   8
  -6  -7  -1 4150.04 668.207   4
  -6   7  -2 13174.9 1148.92   6
   6  -7   2 12549.1 1205.55   1
  -6  -7  -2 11058.1 1072.65   4
   6   7   2 12683.4 1127.63   8
  -6   7  -2 12194.7 1049.63   4
   6  -7   3 973.545 446.528   1
  -6   7  -3 910.819 379.156   4
  -6   7  -3 1185.72 476.617   6
   6   7   3 597.740 313.665   8
  -6  -7  -3 361.300 270.077   4
  -6   7  -4 1219.66 463.953   4
  -6   7  -4 1758.31 552.423   6
   6  -7   4 1453.52 494.345   1
   6   7   4 2012.16 537.448   8
  -6  -7  -4 1014.83 349.589   4
  -6  -7  -5 2151.10 558.194   4
  -6   7  -5 2147.34 560.295   4
   6  -7   5 2528.66 664.534   1
   6   7   5 2993.45 686.557   8
  -6  -7  -6 6990.66 989.377   4
  -6  -8  11 613.239 347.073   2
   6   8 -11 808.677 489.786   6
  -6   8  11 295.134 392.041   5
  -6  -8  10 3077.18 640.731   2
   6  -8 -10 2875.29 693.099   7
   6   8 -10 2608.02 605.391  10
   6   8 -10 3167.72 657.678   6
  -6  -8  10 2498.97 554.775   9
  -6   8  10 2498.81 586.748   5
   6  -8 -10 2193.60 604.673   1
  -6  -8   9 5864.35 825.133   2
   6  -8  -9 8026.55 995.948   7
   6   8  -9 6224.62 835.806  10
   6   8  -9 6678.90 865.048   6
  -6  -8   9 6069.39 811.592   9
  -6   8   9 5008.49 742.733   5
   6  -8  -9 8001.47 1018.63   1
   6   8  -8 17701.6 1291.37  10
  -6   8   8 18724.9 1442.83   6
   6   8  -8 16730.5 1275.50   6
   6  -8  -8 16858.3 1415.58   1
  -6  -8   8 15330.5 1234.57   9
  -6   8   8 17669.4 1302.94   5
  -6  -8   8 15417.7 1304.80   2
   6  -8  -7 461.550 386.522   1
  -6   8   7 474.210 339.742   6
   6   8  -7 619.816 299.072  10
   6   8  -7 540.109 360.734   3
   6   8  -7-138.214 237.253   6
  -6  -8   7 215.697 230.419   9
  -6   8   7 122.556 245.565   5
  -6  -8   7 106.422 230.481   2
   6   8  -6 7245.21 740.631  10
  -6   8   6 6663.10 812.222   6
   6  -8  -6 7178.76 698.852  10
   6   8  -6 7437.34 763.102   6
   6  -8  -6 7599.42 890.488   1
  -6  -8   6 7514.09 755.579   9
   6   8  -6 5547.75 810.233   3
  -6  -8   6 8119.34 878.600   2
   6  -8  -5 764.944 352.323   1
   6   8  -5 1023.03 267.494  10
  -6   8   5 738.015 336.049   6
   6  -8  -5 949.852 296.515  10
   6   8  -5 1038.30 338.073   6
   6   8  -5 937.522 388.620   3
  -6  -8   5 547.551 198.160   9
  -6   8   5 1369.58 330.096   9
  -6  -8   5 711.056 343.102   2
   6  -8  -4 4028.21 635.074   1
  -6   8   4 4860.54 674.038   6
   6  -8  -4 2822.31 491.634  10
   6   8  -4 3999.79 555.042   6
   6   8  -4 3298.21 610.603   3
  -6   8   4 3757.32 583.999   9
  -6  -8   4 3122.58 577.143   2
   6   8  -3 4166.15 551.459   6
  -6   8   3 4813.13 688.877   6
   6  -8  -3 3464.58 607.037   1
   6   8  -3 2588.90 532.677   3
  -6   8   3 5076.73 677.349   9
  -6  -8   3 3443.84 564.287   2
   6   8  -2 18942.4 1161.74   6
  -6   8   2 17878.8 1268.55   6
   6   8  -2 16089.4 1283.04   3
   6  -8  -2 17225.8 1340.60   1
   6   8  -2 18805.5 1321.75   8
  -6  -8   2 16498.0 1217.53   2
  -6  -8   1 1197.39 349.467   2
   6   8  -1 1150.71 333.528   6
  -6   8   1 923.264 351.514   6
   6   8  -1 1172.34 442.580   3
   6  -8  -1 546.546 371.402   1
   6   8  -1 464.479 362.347   8
   6  -8   0 582.544 376.652   1
  -6  -8   0 825.066 338.607   2
   6   8   0 1596.94 389.340   6
  -6   8   0 1115.93 359.377   6
   6   8   0 1551.73 436.922   3
   6   8   0 1728.23 418.160   8
  -6  -8  -1 2408.61 455.262   2
   6  -8   1 1473.43 509.815   1
   6   8   1 2978.72 514.973   6
  -6   8  -1 1564.04 407.966   4
  -6   8  -1 2498.67 533.690   6
   6   8   1 1480.77 422.134   8
  -6  -8  -1 2136.70 505.875   4
  -6   8  -2 2029.00 465.804   4
  -6   8  -2 2170.61 568.429   6
   6  -8   2 1788.56 564.450   1
   6   8   2 2683.12 568.021   8
  -6  -8  -2 2735.39 576.829   4
   6  -8   3 880.265 439.310   1
  -6   8  -3-360.714 338.781   4
  -6   8  -3 153.712 366.059   6
   6   8   3 480.404 408.306   8
  -6  -8  -3 1631.88 506.352   4
  -6   8  -4 15707.1 1418.44   6
   6  -8   4 17009.6 1533.82   1
  -6  -8  -4 15820.0 1398.12   4
   6   8   4 15166.5 1385.07   8
  -6   8  -4 14035.1 1307.68   4
  -6  -8  -5-161.914 314.816   4
  -6   8  -5-83.5373 323.301   6
   6   9 -10 1228.53 421.532  10
   6   9 -10 293.495 382.130   3
   6   9 -10 441.038 269.337   6
  -6  -9  10 232.364 324.397   9
  -6   9  10 766.181 368.614   5
   6  -9  -9 88.8479 251.051   7
   6   9  -9 456.738 293.897  10
   6   9  -9 809.500 447.286   3
   6   9  -9 308.019 351.071   6
  -6  -9   9 658.355 370.140   9
  -6   9   9 470.505 333.946   5
   6  -9  -9 429.543 307.854   1
   6  -9  -8 2523.14 611.129   1
   6   9  -8 1819.66 452.248  10
  -6   9   8 2577.87 619.030   6
   6   9  -8 2357.82 603.674   3
   6   9  -8 2005.63 587.946   6
  -6  -9   8 2049.75 470.093   9
  -6  -9   8 2467.39 560.218   2
   6  -9  -7 372.670 412.942   1
   6   9  -7 182.865 227.460  10
  -6   9   7 693.786 394.935   6
   6   9  -7 73.1413 285.865   6
   6   9  -7-37.7189 254.342   3
  -6  -9   7 46.8747 327.792   9
  -6  -9   7 429.209 378.020   2
   6  -9  -6 2145.94 507.230   1
  -6   9   6 2895.10 577.994   6
   6   9  -6 3326.17 577.384   6
   6   9  -6 3135.57 657.728   3
  -6  -9   6 2670.81 558.783   2
   6  -9  -5 1442.48 461.504   1
  -6   9   5 1530.56 468.102   6
   6   9  -5 1666.05 397.939   6
   6   9  -5 1415.28 470.257   3
  -6  -9   5 2428.60 535.786   2
  -6   9   4 478.585 371.922   6
   6  -9  -4 428.338 360.595   1
   6  -9  -4 91.8013 274.377  10
   6   9  -4 323.006 264.628   6
   6   9  -4 237.804 245.375   3
  -6   9   4 382.839 268.943   9
  -6  -9   4 211.357 230.397   2
   6   9  -3 1337.55 383.476   6
  -6   9   3 2564.18 533.066   6
   6  -9  -3 1934.40 500.353   1
   6   9  -3 1410.50 444.112   3
  -6   9   3 1546.68 423.091   9
  -6  -9   3 1130.30 406.954   2
   6   9  -2 1628.03 387.406   6
  -6   9   2 1920.23 481.444   6
   6   9  -2 957.849 384.403   3
   6  -9  -2 1787.28 509.819   1
  -6  -9   2 1698.34 405.859   2
  -6  -9   1 101.611 214.096   2
   6   9  -1 355.156 251.629   6
  -6   9   1 610.466 351.597   6
   6   9  -1 539.491 306.477   3
   6   9  -1 668.101 329.230   8
   6  -9  -1-159.764 385.696   1
  -6  -9   0 4721.60 656.921   2
   6  -9   0 4240.11 789.120   1
   6   9   0 4827.65 667.711   6
  -6   9   0 5116.87 768.800   6
   6   9   0 4656.05 741.353   8
   6  -9   1 444.695 433.657   1
   6   9   1 630.144 365.572   6
  -6   9  -1 272.752 251.100   6
   6   9   1 1134.51 431.406   8
  -6  -9  -1 1109.75 438.581   4
  -6   9  -2 3510.54 659.728   6
   6  -9   2 3926.84 761.889   1
   6   9   2 3582.73 698.759   8
  -6  -9  -2 3442.30 662.346   4
  -6   9  -3-208.671 324.992   6
   6   9   3-55.2618 285.403   8
  -6  -9  -3 273.996 290.731   4
  -6   9  -4 3476.59 766.551   6
  -6  -9  -4 2533.70 631.285   4
   6  10  -9-173.707 291.157   6
  -6  10   8 6605.04 975.522   6
   6  10  -8 5154.16 804.304   6
   6  10  -8 6990.87 993.334   3
   6 -10  -7 553.780 422.504   1
  -6  10   7 859.418 474.285   6
   6  10  -7 78.7419 242.497   6
   6  10  -7 114.022 295.593   3
  -6 -10   7 324.132 318.879   2
   6 -10  -6 4713.63 845.468   1
  -6  10   6 3850.22 749.644   6
   6  10  -6 4350.56 688.537   6
   6  10  -6 4616.66 834.708   3
  -6 -10   6 4602.43 749.093   2
   6 -10  -5 830.964 435.529   1
  -6  10   5 308.682 360.359   6
   6  10  -5 100.044 231.205   6
   6  10  -5-83.1604 258.607   3
  -6 -10   5 488.951 383.709   2
  -6  10   4 11951.4 1184.24   6
   6  10  -4 9062.05 926.680   6
   6 -10  -4 9024.60 1098.05   1
   6  10  -4 7621.88 1003.39   3
  -6 -10   4 8740.61 1016.90   2
   6  10  -3 223.336 233.023   6
  -6  10   3 126.199 267.074   6
   6 -10  -3 193.752 366.134   1
   6  10  -3-13.5265 233.476   3
  -6 -10   3 80.4041 237.378   2
   6  10  -2 4209.52 632.727   6
  -6  10   2 3951.30 707.486   6
   6  10  -2 3444.35 700.096   3
   6 -10  -2 4300.20 803.675   1
  -6  10   2 3927.58 673.985   9
  -6 -10   2 3151.19 587.252   2
  -6 -10   1 1146.74 406.664   2
   6  10  -1 1330.38 418.759   6
  -6  10   1 980.034 461.378   6
   6  10  -1 1737.98 541.071   3
   6 -10  -1 2800.20 709.991   1
   6  10   0 11827.4 1099.14   6
  -6  10   0 10002.6 1147.85   6
   6 -10   0 13257.6 1399.03   1
  -6 -10   0 11447.6 1079.30   2
   6  10   1 2253.35 523.832   6
   6 -10   1 3619.87 778.537   1
  -6  10  -1 3832.18 739.049   6
   6  10   1 3237.21 661.944   8
  -6 -10  -1 2097.34 521.455   4
   6  10   2 10600.8 1132.06   6
  -6  10  -2 14531.8 1404.33   6
  -6 -10  -2 11583.5 1219.74   4
   6  11  -7 766.618 290.295   6
  -6  11   6 2760.79 630.174   6
   6  11  -6 2467.80 570.251   6
   6  11  -5 308.597 279.532   6
   6  11  -5 943.175 403.040   3
  -6  11   4 2277.59 579.136   6
   6  11  -4 1682.90 471.799   6
   6 -11  -4 2191.54 623.519   1
   6  11  -4 3048.23 723.282   3
  -6 -11   4 2266.80 568.517   2
   6  11  -3 119.013 336.755   6
  -6  11   3 116.067 283.927   6
   6  11  -3-201.983 272.046   3
   6 -11  -3-57.1518 300.810   1
  -6 -11   3-154.811 247.103   2
   6  11  -2 130.716 222.308   6
  -6  11   2 237.317 393.377   6
   6  11  -2-237.505 310.665   3
   6 -11  -2 602.402 539.378   1
  -6 -11   2 493.828 340.965   2
  -6 -11   1 635.751 327.851   2
   6  11  -1 487.935 315.343   6
  -6  11   1 363.830 370.861   6
  -6  11   0 12328.8 1320.09   6
   7   0 -14 4992.00 821.287  10
  -7   0  14 4343.34 738.820   9
   7   0 -13 78.0020 362.500   7
   7   0 -13-53.5372 238.757  10
  -7   0  13-284.029 298.995   9
   7   0 -12-44.5812 204.870  10
  -7   0  12 199.100 250.819   9
   7   0 -11 397.134 353.627   7
   7   0 -11 296.314 295.635  10
  -7   0  11 363.968 237.065   9
   7   0 -10 381.146 293.388   7
   7   0 -10 157.413 223.249  10
  -7   0  10 488.470 272.119   9
   7   0  -9 342.968 248.368   7
   7   0  -9-99.5108 198.698  10
  -7   0   9 15.6918 218.706   9
   7   0  -8 37732.3 1549.71   7
   7   0  -8 35804.9 1671.36  10
  -7   0   8 35923.4 1668.98   9
   7   0  -7 94.8820 157.894   7
   7   0  -7 149.906 149.442  10
  -7   0   7 23.2586 155.811   9
   7   0  -6 2532.98 308.957   7
   7   0  -6 3301.33 466.307  10
  -7   0   6 2378.45 406.925   9
   7   0  -6 2836.42 226.349   8
   7   0  -5-56.6426 91.4120   7
   7   0  -5 21.1275 162.667  10
  -7   0   5 135.353 166.732   9
   7   0  -5 236.539 138.308   8
   7   0  -5-23.3647 84.8942   1
   7   0  -4 207.202 101.524   7
   7   0  -4 387.910 253.863  10
   7   0  -4 137.379 101.898   1
  -7   0   4 553.375 250.519   9
  -7   0   4 172.438 168.951   4
   7   0  -4 91.0066 158.290   8
   7   0  -3-19.7761 46.7405   7
   7   0  -3 43.7514 73.3672   1
   7   0  -3 222.605 213.895  10
  -7   0   3 69.5738 180.995   9
   7   0  -3 150.422 160.311   8
  -7   0   3-42.4950 129.087   4
   7   0  -2 16887.2 985.176  10
  -7   0   2 13603.4 914.450   9
   7   0  -2 16001.3 615.224   1
  -7   0   2 15516.8 921.651   4
   7   0  -2 15298.4 923.732   8
   7   0  -1-50.5275 107.380   1
  -7   0   1 82.3266 149.819   4
  -7   0   1 476.853 215.787   9
   7   0  -1 33.5907 161.778   8
  -7   0   0 338.843 248.607   4
   7   0   0 405.796 143.219   3
   7   0   0 626.827 282.623   8
  -7   0  -1 152.463 236.936   4
   7   0   1 131.489 244.690   8
  -7   0  -2-49.1759 262.651   4
   7   0   2-12.6727 238.602   8
  -7   0  -3-151.989 230.840   4
   7   0   3 263.621 302.855   8
  -7   0  -4 74.5706 246.227   4
   7   0   4 61.7116 241.433   8
  -7   0  -5 722.813 347.326   4
   7   0   5 82.4143 321.908   8
  -7   0  -6 360.727 285.437   4
   7   0   6 1541.70 540.472   8
   7  -1 -14 4525.62 868.781   7
   7  -1 -14 4377.41 740.940  10
  -7   1  14 3729.67 702.411   9
   7  -1 -13 1872.86 577.804   7
   7   1 -13 1356.74 499.838  10
   7  -1 -13 1142.01 386.838  10
  -7  -1  13 1528.03 513.270   9
  -7   1  13 1628.67 455.644   9
   7  -1 -12 751.804 394.072   7
   7   1 -12 291.565 335.301  10
   7  -1 -12 71.6254 232.339  10
  -7  -1  12 899.033 391.028   9
  -7   1  12 142.633 215.349   9
   7   1 -11 738.815 427.929   7
   7  -1 -11 395.763 316.356   7
   7   1 -11 33.2168 192.695  10
   7  -1 -11 755.710 329.862  10
  -7  -1  11 46.9432 257.748   9
  -7   1  11 302.870 301.315   9
   7   1 -10 3609.74 583.199   7
   7  -1 -10 3865.23 606.808   7
   7  -1 -10 3963.60 575.740  10
   7   1 -10 4131.54 617.722  10
  -7  -1  10 4121.39 607.787   9
  -7   1  10 4702.79 646.350   9
   7   1  -9 1011.28 324.531   7
   7  -1  -9 579.994 258.799   7
   7   1  -9 957.698 321.198  10
   7  -1  -9 958.663 344.058  10
  -7  -1   9 757.351 301.772   9
  -7   1   9 70.0664 201.466   9
   7   1  -8 12719.8 861.432   7
   7  -1  -8 12791.8 897.400   7
   7   1  -8 13395.5 984.321  10
   7  -1  -8 13194.5 971.529  10
  -7  -1   8 12285.5 944.530   9
  -7   1   8 12955.8 961.886   9
   7   1  -7 316.475 205.972   7
   7  -1  -7 342.331 217.480   7
   7   1  -7 171.361 209.690  10
   7  -1  -7 397.205 242.685  10
  -7  -1   7 340.518 246.582   9
  -7   1   7 105.508 186.780   9
   7   1  -6 800.988 200.131   7
   7  -1  -6 908.424 239.410   7
   7   1  -6 497.401 241.598  10
   7  -1  -6 457.089 215.897  10
  -7  -1   6 532.140 238.393   9
  -7   1   6 670.620 304.731   9
   7   1  -6 630.466 159.605   8
   7  -1  -6 638.184 100.406   8
  -7   1   6 446.003 127.385   4
   7   1  -5 7666.87 408.966   7
   7  -1  -5 8457.55 548.689   7
   7   1  -5 8937.86 709.331  10
   7  -1  -5 8198.89 698.224  10
   7   1  -5 7733.76 358.943   1
   7  -1  -5 8995.47 539.358   1
  -7  -1   5 9104.92 719.143   9
  -7   1   5 8446.27 721.505   9
  -7   1   5 9351.77 549.652   4
   7   1  -5 8228.32 511.269   8
   7  -1  -5 8872.56 495.964   8
   7   1  -4 2929.03 412.746  10
   7  -1  -4 2416.08 402.057  10
   7  -1  -4 2851.44 293.086   1
  -7  -1   4 3099.57 412.962   9
  -7   1   4 2314.50 407.635   9
   7   1  -4 2640.74 332.877   8
   7  -1  -4 2573.66 330.439   8
  -7   1   4 2735.09 331.655   4
   7   1  -3 287.651 131.484  10
   7  -1  -3 343.643 246.919  10
  -7  -1   3 197.077 189.240   9
  -7   1   3 263.806 207.898   9
   7  -1  -3 180.737 137.220   1
  -7  -1   3 59.3425 174.673   4
   7   1  -3 560.057 201.601   8
   7  -1  -3 253.935 161.817   8
  -7   1   3 297.441 191.691   4
   7   1  -2 7491.37 634.128  10
  -7  -1   2 7670.97 649.739   9
  -7   1   2 7070.88 657.512   9
   7  -1  -2 6442.11 487.103   1
  -7  -1   2 7190.58 632.987   4
  -7   1   2 5674.90 545.760   4
   7   1  -2 6580.52 603.125   8
   7  -1  -2 7354.25 637.675   8
  -7   1   1 1976.23 355.452   4
   7  -1  -1 2004.23 301.330   1
   7   1  -1 2162.09 325.910   3
  -7  -1   1 1514.11 319.393   9
  -7   1   1 1828.34 357.070   9
   7   1  -1 2056.14 378.990   8
  -7  -1   1 1765.34 384.767   4
   7  -1  -1 2102.55 406.438   8
   7   1   0 12393.5 693.044   3
   7  -1   0 12362.3 495.084   3
  -7  -1   0 13374.0 911.222   9
  -7  -1   0 12624.3 953.885   4
   7  -1   0 12685.7 756.692   1
  -7   1   0 12500.1 918.618   4
   7   1   0 12600.7 935.414   8
   7  -1   0 12104.2 924.617   8
  -7  -1  -1 52624.5 2145.82   4
  -7   1  -1 49972.0 2058.24   4
   7   1   1 55808.4 2193.84   8
   7  -1   1 50379.4 2112.12   8
   7  -1   1 53651.6 1825.46   1
  -7  -1  -2 2860.86 526.269   4
  -7   1  -2 3138.72 521.157   4
   7   1   2 3273.80 546.309   8
   7  -1   2 3252.34 575.440   8
  -7  -1  -3 8905.20 907.309   4
   7   1   3 10226.0 990.216   8
  -7   1  -3 9000.32 921.460   4
   7  -1   3 9767.03 971.402   8
  -7  -1  -4 56.5672 225.528   4
  -7   1  -4 279.109 259.614   4
   7  -1   4 721.012 436.470   8
  -7  -1  -5 2971.88 629.501   4
  -7   1  -5 2339.50 604.051   4
   7   1   5 2969.25 623.147   8
   7  -1   5 3072.28 637.591   8
  -7  -1  -6 3708.25 705.780   4
  -7   1  -6 4217.61 761.113   4
   7   1   6 2912.61 623.160   8
   7  -1   6 4521.31 810.153   8
   7  -2 -14 736.421 405.101  10
  -7   2  14 128.898 273.123   9
   7  -2 -13 9273.34 1175.84   7
   7   2 -13 9676.57 1097.59  10
   7  -2 -13 11196.7 1089.38  10
  -7  -2  13 10664.8 1124.88   9
  -7   2  13 10446.4 1070.95   9
   7  -2 -12 1044.63 472.126   7
   7   2 -12 1325.44 466.266  10
   7  -2 -12 1212.87 409.542  10
  -7  -2  12 261.671 291.142   9
  -7   2  12 953.245 363.424   9
   7  -2 -11 6783.26 854.605   7
   7   2 -11 7121.23 877.646  10
   7  -2 -11 6822.13 795.267  10
  -7  -2  11 6885.42 829.323   9
  -7   2  11 6846.24 794.582   9
   7  -2 -10 1820.47 453.337   7
   7   2 -10 1356.67 408.607  10
   7  -2 -10 1479.12 380.203  10
  -7  -2  10 1269.79 429.099   9
  -7   2  10 1735.97 401.524   9
   7  -2  -9 56675.8 2213.48   7
   7   2  -9 55013.5 2253.14  10
   7  -2  -9 57204.3 2223.26  10
  -7  -2   9 56456.9 2287.94   9
  -7   2   9 53982.3 2161.66   9
  -7  -2   9 55487.1 2165.61   2
   7  -2  -8 7240.82 695.036   7
   7   2  -8 6337.35 700.986  10
   7  -2  -8 7565.88 735.297  10
  -7  -2   8 7114.30 729.910   9
  -7   2   8 7550.63 730.857   9
  -7  -2   8 7543.00 725.265   2
   7  -2  -7 17724.6 1001.34   7
   7   2  -7 16233.0 1053.93  10
  -7  -2   7 15328.3 1022.31   9
  -7   2   7 16951.1 1055.78   9
  -7  -2   7 15958.8 1041.02   2
   7  -2  -7 15829.1 1029.61  10
  -7   2   6 154.939 68.5040   4
   7  -2  -6 268.391 163.097   7
  -7  -2   6 75.1944 192.621   2
   7   2  -6 49.0646 179.502  10
   7  -2  -6 93.1451 174.357  10
  -7  -2   6 71.8652 172.285   9
  -7   2   6 330.271 217.996   9
   7   2  -6 122.697 104.760   8
   7  -2  -6 291.188 167.015   1
   7   2  -5 33861.9 1446.46  10
   7  -2  -5 32460.4 1464.02  10
   7   2  -5 29032.6 793.814   6
   7  -2  -5 33704.5 1234.14   1
  -7  -2   5 32457.0 1411.14   9
  -7   2   5 30141.3 1428.85   9
   7   2  -5 30786.4 1145.62   8
  -7   2   5 31767.3 996.791   4
   7  -2  -5 32006.8 1066.16   8
  -7  -2   5 29539.8 1419.55   2
  -7   2   4 3578.39 274.668   6
  -7  -2   4 3900.52 496.254   2
   7   2  -4 2897.53 412.610  10
   7  -2  -4 3631.29 486.148  10
   7  -2  -4 4380.87 418.368   1
  -7  -2   4 4075.25 473.276   9
  -7   2   4 3933.23 527.619   9
   7   2  -4 4106.83 422.188   8
  -7   2   4 3488.06 334.609   4
   7  -2  -4 3586.93 389.577   8
   7   2  -3 149542. 3640.87  10
  -7   2   3 144455. 2891.13   6
  -7  -2   3 146842. 3627.98   9
   7  -2  -3 145890. 3361.97   1
  -7   2   3 147966. 3877.44   9
   7   2  -3 145397. 3568.50   8
  -7   2   3 142741. 3376.25   4
   7  -2  -3 148676. 3530.29   8
   7  -2  -2 240.010 205.526   1
  -7   2   2-23.8411 141.798   4
   7   2  -2 123.023 162.754  10
  -7   2   2 94.0105 102.464   6
  -7  -2   2 553.163 228.602   9
  -7   2   2 274.493 207.061   9
  -7  -2   2 147.892 215.187   4
   7   2  -2 58.7523 194.861   8
   7  -2  -2 18.9704 156.662   8
  -7   2   1 211.763 176.589   4
   7   2  -1 114.906 165.725  10
   7   2  -1 225.400 154.537   3
  -7   2   1 360.778 183.660   6
   7  -2  -1 222.005 207.423   1
  -7  -2   1 246.561 201.762   9
   7   2  -1 383.522 245.681   8
  -7  -2   1 355.607 226.770   4
   7  -2  -1 379.432 297.731   8
  -7   2   0 663.091 230.105   4
   7  -2   0 566.112 234.014   1
   7   2   0 397.086 183.433   3
  -7  -2   0 171.775 160.911   9
   7   2   0 574.568 251.421   8
  -7  -2   0 615.029 308.609   4
   7  -2   0 221.991 186.536   8
   7  -2   1 135.866 227.898   1
  -7   2  -1 415.617 234.313   4
   7   2   1 365.579 172.912   3
  -7  -2  -1 111.708 200.859   9
   7   2   1 215.837 239.922   8
   7  -2   1 541.675 308.803   8
  -7  -2  -1 351.055 266.153   4
  -7  -2  -2 813.915 335.577   4
  -7   2  -2 520.635 288.955   4
   7  -2   2 235.906 238.416   1
   7   2   2 243.249 233.270   8
   7  -2   2 434.496 274.567   8
  -7  -2  -3 25811.0 1607.19   4
   7   2   3 27993.9 1677.67   8
   7  -2   3 27035.7 1651.26   8
  -7   2  -3 29338.4 1679.76   4
  -7  -2  -4 203.604 262.195   4
  -7   2  -4 780.922 353.880   4
   7   2   4 458.013 318.645   8
   7  -2   4 582.551 388.793   8
  -7  -2  -5 2641.81 609.997   4
  -7   2  -5 1859.66 476.577   4
   7   2   5 1345.61 440.809   8
   7  -2   5 1823.07 527.822   8
  -7  -2  -6 1077.11 452.377   4
  -7   2  -6 474.234 375.586   4
   7   2   6 704.233 390.487   8
   7  -2   6 489.754 381.329   8
   7  -3 -13 9794.76 1167.08   7
   7   3 -13 9852.50 1124.76  10
   7  -3 -13 9306.42 986.431  10
  -7  -3  13 10943.6 1185.39   9
  -7   3  13 8271.60 929.585   9
   7  -3 -12 136.768 350.507   7
   7   3 -12 363.674 339.558  10
   7  -3 -12 228.233 247.872  10
  -7  -3  12 811.729 400.085   9
  -7   3  12 524.080 250.980   9
   7  -3 -11 6377.97 837.396   7
  -7  -3  11 3765.17 579.024   2
   7   3 -11 3960.33 647.802  10
   7  -3 -11 4248.10 619.241  10
  -7  -3  11 3753.36 652.776   9
  -7   3  11 5047.97 670.289   9
   7  -3 -10 5133.05 716.266   7
  -7  -3  10 3446.60 538.688   2
   7   3 -10 5786.24 759.000  10
   7  -3 -10 4539.91 617.706  10
  -7  -3  10 3752.27 646.731   9
  -7   3  10 4173.66 591.942   9
   7  -3  -9 8027.62 805.185   7
   7   3  -9 6752.30 760.851  10
   7  -3  -9 7181.05 741.017  10
  -7  -3   9 6554.49 738.363   9
  -7   3   9 7283.69 733.707   9
  -7  -3   9 7801.27 780.151   2
  -7  -3   8 797.832 331.797   2
   7  -3  -8 916.537 299.589   7
   7   3  -8 630.070 278.479  10
   7  -3  -8 399.824 229.832  10
  -7  -3   8 535.133 256.353   9
  -7   3   8 297.081 227.031   9
  -7  -3   7 885.744 274.446   2
   7  -3  -7 1419.82 313.302   7
   7   3  -7 498.928 221.153  10
   7  -3  -7 1701.81 357.332  10
  -7  -3   7 1489.82 367.775   9
  -7   3   7 1757.24 369.922   9
  -7  -3   6 302.599 234.252   2
   7   3  -6 487.743 257.083  10
   7  -3  -6 908.425 304.291  10
   7   3  -6 800.044 193.029   6
  -7  -3   6 843.805 289.246   9
  -7   3   6 341.753 210.098   9
   7  -3  -6 450.704 205.466   1
  -7   3   5 78781.8 2079.44   6
   7   3  -5 82459.7 2504.04  10
   7  -3  -5 77055.1 2523.64  10
   7   3  -5 80194.6 1827.78   6
   7  -3  -5 80144.5 2320.85   1
  -7  -3   5 77424.7 2430.18   9
  -7   3   5 77386.6 2550.18   9
   7   3  -5 79516.3 2229.68   8
   7  -3  -5 79897.4 2050.62   8
  -7   3   5 76837.8 1710.07   4
  -7  -3   5 73916.2 2515.41   2
   7   3  -4 8052.18 677.863  10
  -7   3   4 9169.58 538.201   6
   7  -3  -4 9285.67 782.912  10
   7   3  -4 8717.25 390.724   6
   7  -3  -4 9064.99 666.554   1
  -7  -3   4 8966.90 705.391   9
  -7   3   4 8318.66 756.922   9
   7   3  -4 8237.67 641.417   8
  -7   3   4 8464.17 494.886   4
   7  -3  -4 8814.52 624.608   8
  -7  -3   4 9829.67 795.762   2
   7   3  -3 24460.0 708.324   6
   7   3  -3 25005.0 1160.75  10
  -7   3   3 24010.8 914.587   6
   7  -3  -3 24199.6 1127.89   1
  -7  -3   3 25244.9 1157.73   9
  -7   3   3 25777.2 1367.74   9
   7   3  -3 24166.1 1183.72   8
  -7   3   3 22757.2 978.894   4
   7  -3  -3 24532.3 1151.81   8
  -7  -3   3 22689.5 1237.51   2
   7  -3  -2 2104.18 382.545   8
  -7   3   2 1978.59 329.185   4
  -7  -3   2 1691.80 339.651   2
   7   3  -2 2117.05 328.400  10
  -7   3   2 1716.21 249.232   6
   7   3  -2 2388.97 375.560   3
  -7  -3   2 1770.98 312.778   9
  -7  -3   2 1765.70 355.021   4
  -7   3   2 2439.60 459.634   9
   7  -3  -2 1658.84 354.111   1
   7   3  -2 1579.86 361.705   8
   7  -3  -1 4099.94 528.366   8
  -7   3   1 3459.69 450.853   4
   7   3  -1 3675.35 427.270  10
   7  -3  -1 3027.69 451.076   1
  -7   3   1 3385.63 383.587   6
   7   3  -1 3518.08 465.869   3
  -7  -3   1 3167.75 398.210   9
   7   3  -1 3051.23 475.334   8
  -7  -3   1 3036.54 482.683   4
   7  -3   0 250.484 289.879   8
  -7   3   0 432.896 196.458   4
   7   3   0 344.957 185.030  10
  -7   3   0 316.527 223.805   6
   7   3   0 613.547 214.121   3
  -7  -3   0 355.577 200.261   9
   7  -3   0 180.810 244.678   1
   7   3   0 155.054 279.484   8
  -7  -3   0 516.976 273.197   4
   7   3   1 44562.8 1677.03   3
  -7  -3  -1 43377.2 1623.37   9
   7  -3   1 43448.1 1824.53   1
   7   3   1 44823.4 1633.81  10
  -7  -3  -1 43066.1 2001.71   4
   7   3   1 43618.0 1975.48   8
  -7   3  -1 40413.8 1834.63   4
   7  -3   1 43592.9 1973.25   8
   7  -3   2 2304.16 489.912   8
  -7   3  -2 1745.07 416.106   4
   7  -3   2 1769.14 430.022   1
  -7  -3  -2 1788.03 344.523   9
   7   3   2 1581.61 418.752   8
  -7  -3  -2 1735.38 422.970   4
  -7  -3  -3 16319.2 1284.82   4
   7   3   3 15206.2 1232.18   8
   7  -3   3 17180.6 1204.21   1
   7  -3   3 16607.8 1295.87   8
  -7   3  -3 13096.3 1124.87   4
  -7  -3  -4 892.294 390.741   4
  -7   3  -4 19.4461 233.440   4
   7   3   4 1070.21 416.925   8
   7  -3   4-54.5711 244.061   8
  -7  -3  -5 7402.28 943.849   4
  -7   3  -5 7338.25 950.596   4
   7   3   5 8325.54 1032.92   8
   7  -3   5 7974.17 1017.23   8
  -7  -3  -6 392.753 396.624   4
  -7   3  -6 479.366 372.172   4
   7   3   6 439.289 419.843   8
   7  -3   6 760.548 444.589   8
   7  -4 -13 615.902 416.983   7
   7  -4 -12 4178.08 761.236   7
   7   4 -12 4133.01 722.193  10
   7  -4 -12 3894.89 615.998  10
  -7  -4  12 3076.78 646.131   9
  -7   4  12 3546.62 597.539   9
   7  -4 -11 522.790 372.635   7
  -7  -4  11 973.127 378.994   2
   7   4 -11 674.689 362.588  10
   7  -4 -11 570.233 308.753  10
  -7  -4  11 1126.08 400.252   9
  -7   4  11 473.431 296.025   9
  -7  -4  10 3162.60 543.594   2
   7  -4 -10 1978.32 493.981   7
   7   4 -10 3700.70 625.504  10
   7  -4 -10 3421.27 539.323  10
  -7  -4  10 3796.01 636.287   9
  -7   4  10 3105.33 518.857   9
   7  -4  -9 27761.0 1580.76   7
   7   4  -9 25074.9 1508.00  10
   7  -4  -9 26950.5 1463.82  10
  -7  -4   9 25004.9 1506.13   9
  -7   4   9 28674.3 1491.87   9
  -7  -4   9 26866.4 1534.53   2
   7  -4  -8 11209.4 937.217   7
   7   4  -8 10416.2 902.640  10
   7  -4  -8 10886.8 877.341  10
  -7  -4   8 11121.6 955.338   9
  -7   4   8 10068.1 844.245   9
  -7  -4   8 10860.3 923.890   2
  -7  -4   7 1340.10 337.868   2
   7  -4  -7 1425.23 355.850   7
   7   4  -7 1417.04 341.548  10
   7  -4  -7 1574.85 357.440  10
  -7  -4   7 1722.21 374.815   9
  -7   4   7 1388.99 339.559   9
   7  -4  -7 1183.29 326.263   1
  -7  -4   6 1078.06 259.667   2
   7   4  -6 1338.68 317.221  10
   7  -4  -6 1893.93 375.117  10
  -7   4   6 1492.52 322.885   6
   7   4  -6 1409.53 251.004   6
  -7  -4   6 1134.76 280.879   9
  -7   4   6 1972.04 401.936   9
   7  -4  -6 1528.69 314.431   1
   7  -4  -5 1182.16 302.813   1
  -7  -4   5 921.452 314.858   2
   7   4  -5 1407.74 307.186  10
  -7   4   5 1259.88 270.728   6
   7  -4  -5 1223.93 340.752  10
   7   4  -5 1173.44 210.828   6
  -7  -4   5 1658.02 335.289   9
  -7   4   5 1156.91 289.439   9
   7   4  -5 1454.65 305.403   8
  -7  -4   4 329.325 257.356   2
  -7   4   4 226.485 122.225   4
   7  -4  -4-45.5300 163.368   1
   7   4  -4 129.808 162.688  10
  -7   4   4 59.2643 141.160   6
   7  -4  -4 145.216 212.424  10
   7   4  -4 344.197 136.933   6
  -7  -4   4 175.280 172.300   9
  -7   4   4 240.334 228.946   9
   7   4  -4-132.252 124.860   8
   7   4  -3 78156.6 2310.82  10
   7   4  -3 81625.0 1913.77   6
  -7   4   3 76654.0 2156.35   6
   7  -4  -3 75955.0 2416.94   1
  -7  -4   3 76588.3 2286.01   9
  -7   4   3 77404.9 2662.17   9
   7   4  -3 77133.3 2448.47   8
  -7  -4   3 72019.5 2489.50   2
  -7   4   3 77045.3 2074.00   4
  -7  -4   2-15.4328 160.429   2
  -7   4   2-78.3757 126.949   4
   7   4  -2 270.178 135.784   6
   7   4  -2-67.8471 115.880  10
  -7   4   2 53.8550 127.788   6
   7   4  -2 255.288 216.743   3
  -7  -4   2 453.129 188.832   9
   7  -4  -2 583.619 276.203   1
   7   4  -2 382.890 231.543   8
   7  -4  -1 408.694 290.777   1
  -7   4   1 204.809 174.845   4
  -7  -4   1-7.16012 182.116   2
   7   4  -1 409.823 152.330  10
  -7   4   1 74.6401 128.179   6
   7   4  -1 631.477 236.012   3
  -7  -4   1 499.627 210.698   9
   7   4  -1 387.547 208.712   8
  -7  -4   1 243.644 213.386   4
  -7   4   0 27.5839 141.491   4
   7   4   0 22.4497 147.440  10
  -7   4   0 206.824 180.530   6
   7  -4   0 128.180 263.653   1
   7   4   0 180.210 179.856   3
  -7  -4   0-64.2817 130.959   9
   7   4   0 15.0975 195.831   8
  -7  -4   0 297.278 242.117   4
   7  -4   1 3319.85 546.962   1
   7  -4   1 3784.88 591.017   8
  -7   4  -1 3011.02 493.864   4
   7   4   1 3226.49 460.461   3
   7   4   1 2602.61 493.148   8
  -7  -4  -1 3137.45 517.877   4
   7  -4   2 991.979 382.089   8
  -7   4  -2 602.826 290.876   4
   7  -4   2 1194.59 375.145   1
   7   4   2 322.515 301.275   8
  -7  -4  -2 417.015 309.398   4
  -7  -4  -3 6616.77 827.225   4
   7   4   3 8533.83 931.930   8
   7  -4   3 8590.15 887.849   1
   7  -4   3 8640.52 948.747   8
  -7   4  -3 6766.58 845.659   4
   7  -4   4 420.671 372.941   8
  -7  -4  -4 356.562 303.007   4
  -7   4  -4 716.824 374.603   4
   7  -4   4-46.8147 248.108   1
   7   4   4 1156.88 400.757   8
  -7  -4  -5 2170.81 542.814   4
  -7   4  -5 775.489 428.095   4
   7   4   5 2292.16 604.564   8
   7  -4   5 2062.73 528.882   8
  -7  -4  -6 51.3856 273.005   4
  -7   4  -6 605.488 497.808   4
   7   4   6 496.556 394.355   8
   7  -4   6 530.257 478.216   8
   7  -5 -12 36.1491 349.432   7
   7   5 -12 325.916 433.564  10
  -7  -5  12-95.8170 249.643   9
  -7   5  12 322.116 362.437   5
   7  -5 -11 192.235 236.885  10
  -7  -5  11-61.0816 206.961   2
   7  -5 -11 51.5386 309.660   7
   7   5 -11 68.7719 203.516  10
  -7   5  11 104.453 230.509   5
  -7  -5  11 326.615 366.113   9
  -7   5  11 276.152 247.488   9
  -7  -5  10 3950.66 634.247   2
   7  -5 -10 4158.38 681.857   7
   7   5 -10 4630.74 699.612  10
   7  -5 -10 4257.72 605.254  10
  -7  -5  10 4219.82 693.881   9
  -7   5  10 3485.45 530.132   9
  -7  -5   9 1368.98 381.341   2
   7  -5  -9 920.200 364.758   7
   7   5  -9 1355.41 418.232  10
   7  -5  -9 1268.84 342.791  10
  -7  -5   9 1021.26 366.638   9
  -7   5   9 814.626 299.726   9
   7  -5  -8 5853.37 717.023   7
  -7  -5   8 5321.32 678.893   2
   7   5  -8 5444.60 671.438  10
   7  -5  -8 6436.59 706.905  10
  -7  -5   8 6231.49 722.203   9
  -7   5   8 4963.43 612.010   9
   7  -5  -8 5803.40 715.642   1
  -7  -5   7 3023.22 509.811   2
   7   5  -7 3496.30 515.171  10
   7  -5  -7 3557.04 519.505  10
   7   5  -7 3694.01 456.398   6
  -7  -5   7 3129.68 493.656   9
  -7   5   7 3909.77 522.438   9
   7  -5  -7 4025.38 586.003   1
   7  -5  -6 1042.19 331.882   1
  -7  -5   6 455.259 204.182   2
   7   5  -6 1016.60 302.466  10
  -7   5   6 1007.19 283.609   6
   7  -5  -6 1437.02 340.570  10
   7   5  -6 938.957 239.511   6
  -7  -5   6 843.213 278.800   9
  -7   5   6 915.904 306.234   9
  -7  -5   5 1889.42 388.039   2
   7  -5  -5 2124.80 402.115   1
   7   5  -5 1841.70 350.763  10
  -7   5   5 1651.23 344.191   6
   7  -5  -5 1555.08 371.051  10
   7   5  -5 2048.84 310.013   6
  -7  -5   5 1994.62 362.569   9
  -7   5   5 1991.85 441.916   9
   7   5  -5 1752.76 379.522   8
   7   5  -4 10163.2 749.507  10
   7  -5  -4 10725.2 881.661  10
   7   5  -4 11196.0 658.681   6
   7  -5  -4 10308.4 849.493   1
  -7  -5   4 9533.08 725.632   9
  -7   5   4 10747.5 903.987   9
  -7   5   4 10186.8 738.612   6
   7   5  -4 9260.85 782.150   8
  -7  -5   4 8935.71 828.027   2
   7   5  -3 7423.48 606.095  10
   7   5  -3 6646.44 498.316   6
  -7   5   3 6534.05 601.106   6
   7   5  -3 6080.60 706.730   3
  -7  -5   3 6525.70 563.985   9
   7  -5  -3 6640.68 700.605   1
  -7   5   3 7212.66 760.260   9
   7   5  -3 8133.94 736.316   8
  -7  -5   3 7060.90 733.429   2
  -7   5   3 6726.08 516.089   4
   7   5  -2 6160.22 528.050  10
   7   5  -2 6044.45 491.452   6
  -7   5   2 6275.12 600.491   6
  -7  -5   2 6396.60 526.292   9
   7   5  -2 5132.33 633.342   3
   7  -5  -2 5523.10 694.490   1
   7   5  -2 5527.22 647.177   8
  -7  -5   2 5234.33 605.946   2
  -7   5   2 5958.87 533.682   4
   7  -5  -1 4859.20 655.437   1
  -7  -5   1 4094.37 536.734   2
   7   5  -1 5011.95 479.339   6
  -7   5   1 4883.21 554.175   6
   7   5  -1 4708.25 603.321   3
  -7  -5   1 4431.50 615.583   4
  -7   5   1 4612.14 519.480   4
   7   5  -1 4538.24 612.445   8
  -7   5   0 7449.05 710.037   6
   7   5   0 8271.92 778.367   3
   7  -5   0 7894.65 821.762   1
  -7  -5   0 6872.54 778.465   4
   7   5   0 6841.38 759.269   8
  -7   5   0 8111.04 754.802   4
  -7  -5   0 6762.31 692.949   2
  -7   5  -1 1129.81 316.328   4
  -7   5  -1 1178.79 378.525   6
   7  -5   1 481.761 277.367   1
   7   5   1 1817.48 457.367   8
  -7  -5  -1 910.860 361.654   4
  -7   5  -2 4006.14 631.993   4
   7  -5   2 4954.62 720.805   1
   7   5   2 5747.88 758.680   8
  -7  -5  -2 5174.87 736.933   4
   7  -5   3 1280.83 452.817   8
  -7   5  -3 1673.78 468.524   4
   7   5   3 1294.08 463.136   8
   7  -5   3 1390.61 416.156   1
  -7  -5  -3 1624.79 512.670   4
   7  -5   4 961.234 466.111   8
  -7  -5  -4 1035.12 384.303   4
  -7   5  -4-92.9768 247.843   4
   7   5   4 981.335 384.754   8
   7  -5   4 231.574 292.619   1
   7  -5   5 446.986 444.948   8
  -7  -5  -5 243.658 376.941   4
  -7   5  -5-212.893 230.812   4
   7   5   5 74.6914 273.840   8
   7  -6 -12 734.331 417.564   7
  -7   6  12 1217.65 471.537   5
   7  -6 -11 9053.42 1073.74   7
   7   6 -11 7413.21 941.314  10
  -7   6  11 9289.32 1068.66   5
  -7  -6  11 7024.63 930.148   9
  -7  -6  11 9139.29 1008.82   2
  -7  -6  10 1067.27 402.982   2
   7  -6 -10 1487.08 467.749   7
   7   6 -10 1351.79 482.179  10
  -7  -6  10 1093.62 410.922   9
  -7   6  10 1044.36 410.191   5
   7  -6  -9 14149.2 1211.20   7
   7   6  -9 12300.4 1107.71  10
   7  -6  -9 13038.2 1006.35  10
   7  -6  -9 12336.7 1132.60   1
  -7  -6   9 13251.2 1134.51   9
  -7   6   9 13132.4 1000.84   9
  -7   6   9 10292.1 1001.08   5
  -7  -6   9 10901.8 1054.14   2
  -7  -6   8 4923.54 694.642   2
   7  -6  -8 5137.05 686.535   7
   7  -6  -8 6735.61 698.760  10
   7  -6  -8 6539.24 802.185   1
   7   6  -8 5084.27 675.868  10
   7   6  -8 5263.39 627.339   6
  -7   6   8 6693.97 696.089   9
  -7   6   8 5520.95 690.245   5
  -7  -6   8 4946.91 679.486   9
   7   6  -7 7609.82 774.864  10
  -7   6   7 7797.05 806.451   6
   7  -6  -7 9352.88 817.618  10
   7   6  -7 8688.75 738.873   6
   7  -6  -7 7866.70 847.036   1
  -7  -6   7 8694.64 827.950   9
  -7   6   7 8210.95 785.684   9
  -7   6   7 8184.92 785.885   5
  -7  -6   7 8583.44 888.393   2
  -7  -6   6 1230.58 419.813   2
   7  -6  -6 1881.68 410.192   1
   7   6  -6 1628.67 375.721  10
  -7   6   6 1723.78 389.470   6
   7  -6  -6 2071.75 409.867  10
   7   6  -6 2163.68 348.915   6
  -7   6   6 2145.67 393.124   5
  -7  -6   6 2065.42 402.514   9
  -7   6   6 2127.36 426.852   9
  -7  -6   5 4892.83 643.723   2
   7  -6  -5 4865.00 647.444   1
   7   6  -5 4898.00 558.048  10
  -7   6   5 4631.23 563.158   6
   7  -6  -5 5389.29 652.193  10
   7   6  -5 5099.32 503.608   6
  -7  -6   5 5356.61 571.941   9
  -7   6   5 5450.21 660.802   9
  -7   6   5 6053.01 562.568   5
  -7  -6   4 142.548 210.455   2
   7   6  -4-44.2169 114.703  10
   7  -6  -4 302.340 222.105   1
  -7   6   4-71.8725 163.299   6
   7   6  -4 12.5002 167.735   6
   7   6  -4 49.8683 239.637   3
  -7  -6   4 37.3751 138.299   9
  -7   6   4 182.315 250.895   9
   7   6  -4-71.5002 158.201   8
   7   6  -3 12773.8 800.236  10
   7   6  -3 13853.5 814.565   6
  -7   6   3 14629.6 971.283   6
   7   6  -3 12113.5 1040.91   3
  -7  -6   3 13528.5 816.127   9
   7  -6  -3 13963.3 1072.64   1
  -7   6   3 13807.3 1091.64   9
   7   6  -3 13469.2 1012.66   8
  -7  -6   3 14168.3 1060.13   2
  -7  -6   2 2543.53 478.844   2
  -7   6   2 2957.76 406.547   4
   7   6  -2 3358.60 410.101   6
  -7   6   2 2866.35 453.462   6
   7   6  -2 3373.60 562.405   3
   7  -6  -2 2896.47 528.007   1
   7   6  -2 4061.92 578.301   8
   7   6  -1 17599.7 976.766   6
  -7   6   1 15771.8 1068.40   6
   7   6  -1 15003.4 1140.03   3
   7  -6  -1 14739.5 1177.51   1
   7   6  -1 15775.6 1163.40   8
  -7  -6   1 15651.5 1096.84   2
  -7   6   1 16953.1 1042.14   4
  -7  -6   0 144.499 157.082   2
  -7   6   0 85.6268 175.771   4
   7  -6   0 447.664 355.490   1
  -7   6   0 140.676 283.574   6
   7   6   0 244.433 252.882   3
   7   6   0 32.3031 274.454   8
  -7  -6   0-397.826 317.186   4
  -7   6  -1 2996.49 516.838   4
  -7   6  -1 4751.63 636.349   6
  -7  -6  -1 3400.26 532.778   2
   7  -6   1 2410.91 529.087   1
   7   6   1 4235.04 661.309   8
  -7  -6  -1 2723.67 554.446   4
   7  -6   2 558.188 340.286   1
  -7   6  -2 657.964 317.107   4
  -7   6  -2 397.004 390.266   6
   7   6   2 507.861 351.754   8
  -7  -6  -2 145.668 222.226   4
  -7   6  -3 549.175 353.004   4
  -7   6  -3 757.926 398.944   6
   7  -6   3 372.857 309.894   1
   7   6   3 654.192 343.854   8
  -7  -6  -3 564.675 296.440   4
  -7  -6  -4 165.521 235.965   4
   7  -6   4 521.947 398.513   8
  -7   6  -4 558.695 416.950   4
   7  -6   4-384.749 430.190   1
   7   6   4 864.217 467.537   8
   7  -6   5 739.858 472.176   8
  -7  -6  -5 469.756 354.964   4
   7  -6   5 722.760 404.906   1
  -7   6  -5 706.164 443.963   4
   7   6   5 779.574 514.642   8
  -7  -7  11 263.792 351.139   2
   7  -7 -11 396.252 352.527   7
   7  -7 -11 126.042 295.212   1
   7   7 -11 30.5506 254.583  10
  -7  -7  11 314.252 313.161   9
  -7   7  11 129.469 241.784   5
  -7  -7  10 84.1241 224.991   2
   7  -7 -10-61.6521 318.226   7
   7   7 -10 341.727 343.251  10
  -7  -7  10 138.842 314.443   9
  -7   7  10 450.065 319.807   5
   7  -7 -10-120.552 284.427   1
  -7  -7   9 412.073 299.448   2
   7  -7  -9 209.512 249.726   7
   7   7  -9 1012.41 442.214  10
   7   7  -9 29.9974 217.360   6
  -7  -7   9 705.177 419.933   9
  -7   7   9 324.043 309.232   5
   7  -7  -9 439.427 315.819   1
  -7  -7   8 1745.08 455.157   2
   7   7  -8 2442.15 513.784  10
   7  -7  -8 2298.84 439.320  10
   7   7  -8 1757.50 431.732   6
  -7  -7   8 1824.05 439.845   9
  -7   7   8 2129.37 459.394   5
  -7   7   8 3005.32 495.663   9
   7  -7  -8 1775.11 450.917   1
  -7  -7   7 1231.92 387.334   2
   7  -7  -7 1755.89 486.911   1
   7   7  -7 496.428 292.725  10
  -7   7   7 1564.11 421.748   6
   7  -7  -7 1487.09 351.519  10
   7   7  -7 1393.23 372.022   6
  -7  -7   7 1013.01 351.574   9
  -7   7   7 1992.06 478.864   5
  -7   7   7 1199.54 324.332   9
  -7  -7   6 737.804 342.580   2
   7  -7  -6 385.949 356.983   1
   7   7  -6 157.267 202.456  10
  -7   7   6 298.351 304.035   6
   7   7  -6 821.771 356.241   3
   7  -7  -6 288.945 228.495  10
   7   7  -6 1000.11 317.237   6
  -7  -7   6 278.080 203.922   9
  -7   7   6 908.781 339.303   9
   7   7  -5 13634.3 929.570  10
  -7   7   5 12448.1 996.933   6
   7  -7  -5 12739.8 1017.34  10
   7   7  -5 13202.9 904.547   6
   7   7  -5 10402.2 1036.42   3
   7  -7  -5 11311.1 1030.33   1
  -7  -7   5 13605.6 940.710   9
  -7   7   5 12109.6 1006.11   9
  -7  -7   5 11188.9 1030.48   2
  -7  -7   4 88.7604 222.226   2
  -7   7   4 430.724 288.471   6
   7  -7  -4 628.261 347.507   1
   7   7  -4 351.399 220.956   6
   7   7  -4 264.172 267.005   3
  -7   7   4 511.724 311.038   9
   7   7  -3 10472.7 775.732   6
  -7   7   3 9112.69 835.559   6
   7   7  -3 8226.76 914.038   3
   7  -7  -3 8983.30 928.310   1
  -7   7   3 9073.03 914.549   9
   7   7  -3 10191.2 928.883   8
  -7  -7   3 7101.67 788.748   2
  -7  -7   2 216.286 211.183   2
  -7   7   2 171.407 225.171   6
   7   7  -2 110.347 206.259   3
   7  -7  -2-136.829 290.607   1
   7   7  -2 303.018 300.504   8
  -7  -7   1 4084.55 598.519   2
  -7   7   1 4616.29 643.127   6
   7   7  -1 3414.73 621.345   3
   7   7  -1 6081.28 767.584   8
  -7   7   1 4764.97 582.871   4
   7  -7  -1 4167.81 691.472   1
  -7  -7   0 438.325 245.509   2
   7  -7   0-90.1793 322.965   1
  -7   7   0 74.0569 247.754   4
  -7   7   0 211.101 218.922   6
   7   7   0-259.903 235.410   3
   7   7   0 236.467 257.366   8
  -7  -7   0 140.914 220.819   4
  -7   7  -1 44731.1 2110.10   6
   7  -7   1 37457.9 2124.80   1
  -7  -7  -1 39192.1 2122.60   4
   7   7   1 41181.9 2140.56   8
  -7  -7  -1 38287.2 1811.23   2
  -7   7  -1 39528.5 1941.65   4
  -7   7  -2-102.067 229.219   4
  -7   7  -2 380.690 377.289   6
   7   7   2 159.110 287.975   8
  -7  -7  -2 423.581 297.977   4
   7  -7   2 815.419 463.195   1
  -7   7  -3 12782.8 1215.98   6
   7  -7   3 15193.1 1379.07   1
  -7  -7  -3 13760.1 1294.30   4
   7   7   3 11928.8 1206.85   8
  -7   7  -3 11600.8 1144.16   4
  -7  -7  -4 912.682 410.709   4
   7  -7   4 565.565 474.478   1
  -7   7  -4 371.913 335.122   4
  -7   7  -4 566.574 393.641   6
   7   7   4-58.6983 260.924   8
  -7   7  -5 2148.71 609.692   6
  -7  -8  11 1670.87 510.209   2
  -7   8  11 1312.51 461.025   5
  -7  -8  10 1100.89 448.028   2
   7  -8 -10 921.830 429.224   7
   7   8 -10 882.388 432.562  10
  -7  -8  10 241.485 263.331   9
  -7   8  10 787.283 388.643   5
   7  -8 -10 1899.95 536.946   1
   7  -8  -9 17100.4 1453.20   7
   7   8  -9 14645.9 1253.27  10
   7  -8  -9 17639.4 1498.93   1
  -7  -8   9 16609.4 1335.02   9
  -7   8   9 15164.2 1266.43   5
  -7  -8   9 16164.0 1390.48   2
  -7  -8   8 430.818 335.710   2
   7  -8  -8 256.650 260.471   1
   7   8  -8 498.676 293.604  10
   7   8  -8 44.9880 300.460   3
  -7   8   8 131.913 380.115   6
  -7  -8   8 126.810 242.108   9
  -7  -8   7 6499.26 848.742   2
   7   8  -7 7529.03 805.951  10
   7  -8  -7 7882.85 957.307   1
  -7  -8   7 7328.33 798.486   9
   7   8  -7 7222.21 970.000   3
  -7   8   7 7783.40 899.375   6
  -7  -8   6 306.039 284.530   2
   7  -8  -6 58.1740 304.887   1
   7   8  -6-164.626 200.591  10
  -7   8   6 182.741 272.920   6
   7  -8  -6 1112.59 331.638  10
   7   8  -6 618.092 356.582   3
  -7  -8   6 952.575 313.368   9
  -7   8   6 425.529 288.136   9
  -7  -8   5 4411.21 692.727   2
   7  -8  -5 5354.58 754.905   1
  -7   8   5 4813.69 688.289   6
   7  -8  -5 5249.32 673.455  10
   7   8  -5 4074.56 703.453   3
  -7   8   5 5594.75 698.234   9
  -7  -8   4 4193.43 662.779   2
  -7   8   4 3962.12 620.339   6
   7  -8  -4 4073.15 749.482   1
   7   8  -4 3469.63 643.786   3
  -7   8   4 4303.38 651.455   9
  -7   8   3 22510.7 1416.08   6
   7   8  -3 17687.4 1407.00   3
   7  -8  -3 18146.2 1406.61   1
  -7   8   3 21421.3 1460.78   9
   7   8  -3 20603.3 1411.68   8
  -7  -8   3 18331.2 1341.93   2
  -7  -8   2 377.102 298.011   2
  -7   8   2 248.328 275.406   6
   7   8  -2 292.875 302.203   3
   7  -8  -2 229.306 310.852   1
   7   8  -2 54.0392 193.008   8
  -7  -8   1 89.1208 215.139   2
  -7   8   1 712.157 389.401   6
   7   8  -1-154.936 258.406   3
   7   8  -1 494.512 308.158   8
   7  -8  -1 673.442 393.184   1
  -7  -8   0 113.780 259.066   2
   7  -8   0 505.766 419.985   1
  -7   8   0-5.56548 222.819   6
   7   8   0 504.426 292.511   3
   7   8   0 206.042 386.564   8
  -7  -8   0 137.425 252.242   4
  -7   8  -1 2090.49 485.326   4
  -7   8  -1 1377.68 410.811   6
   7  -8   1 1583.18 517.286   1
   7   8   1 2100.48 537.321   8
  -7  -8  -1 2115.07 553.556   4
  -7   8  -2 1907.16 520.981   4
  -7   8  -2 1751.03 525.071   6
   7   8   2 1318.75 438.105   8
   7  -8   2 3026.97 689.772   1
  -7  -8  -2 1428.13 474.642   4
  -7   8  -3 14067.5 1331.89   6
   7  -8   3 13310.1 1362.35   1
  -7  -8  -3 13644.6 1323.69   4
   7   8   3 13688.7 1345.93   8
  -7   8  -3 11955.7 1198.39   4
  -7   8  -4 235.402 333.152   4
  -7   8  -4-57.2587 278.163   6
   7   9 -10 4813.91 796.177  10
  -7  -9  10 4985.88 809.530   9
  -7  -9   9 662.722 270.536   2
   7  -9  -9 1714.52 609.318   1
   7  -9  -9 2525.64 657.344   7
   7   9  -9 982.273 388.981  10
   7   9  -9 1884.63 606.222   3
  -7  -9   9 880.596 390.525   9
  -7  -9   8 1391.65 529.310   2
   7  -9  -8 1146.94 444.483   1
   7   9  -8 1053.92 437.996   3
  -7  -9   8 1040.75 362.922   9
  -7   9   8 1398.19 448.511   6
  -7  -9   7 3211.84 640.010   2
   7  -9  -7 3578.11 704.945   1
  -7   9   7 4113.55 698.377   6
   7   9  -7 4371.78 783.080   3
  -7  -9   6 1251.69 413.864   2
   7  -9  -6 2829.28 632.261   1
  -7   9   6 2104.58 537.271   6
   7   9  -6 2505.55 594.421   3
  -7   9   5 7193.92 877.759   6
   7  -9  -5 7610.94 829.841  10
   7  -9  -5 6617.46 944.544   1
  -7   9   5 8264.97 860.523   9
   7   9  -5 7447.03 987.432   3
  -7  -9   5 8874.12 993.780   2
  -7   9   4 10853.6 1073.10   6
   7  -9  -4 9751.24 973.828  10
   7   9  -4 10230.1 1132.76   3
   7  -9  -4 10697.7 1154.10   1
  -7   9   4 11083.8 1037.79   9
  -7  -9   4 10687.2 1085.05   2
  -7  -9   3 185.674 256.239   2
  -7   9   3 587.321 294.327   6
   7   9  -3 241.419 258.736   3
   7  -9  -3 1019.09 518.522   1
  -7   9   3 941.080 404.540   9
  -7  -9   2 1370.73 388.514   2
  -7   9   2 1573.32 466.610   6
   7   9  -2 1705.85 461.986   3
   7   9  -2 1046.80 408.808   8
   7  -9  -2 2042.91 559.612   1
  -7  -9   1 2050.81 484.840   2
  -7   9   1 3583.64 664.082   6
   7   9  -1 2905.83 599.232   3
   7   9  -1 2204.84 580.696   8
   7  -9  -1 2321.52 622.989   1
  -7  -9   0 1145.28 394.229   2
  -7   9   0 659.136 437.037   6
   7   9   0 1335.46 440.326   8
  -7  -9   0 368.843 290.531   4
  -7   9  -1 8159.20 1014.68   6
   7  -9   1 10414.6 1241.86   1
  -7  -9  -1 8193.32 1024.87   4
   7   9   1 8752.13 1087.52   8
  -7   9  -2 2161.61 571.042   6
   7   9   2 5037.88 858.441   8
   7  -9   2 4235.91 877.563   1
  -7  -9  -2 2981.14 664.746   4
  -7   9  -3 77.4219 306.337   6
  -7  10   8 1571.46 602.703   6
   7 -10  -7 3029.45 692.631   1
  -7  10   7 2800.08 625.711   6
   7  10  -7 2706.97 730.419   3
  -7 -10   6 725.351 449.246   2
   7 -10  -6 1048.84 577.104   1
  -7  10   6 184.626 382.688   6
   7  10  -6 2014.96 557.508   3
  -7 -10   5 4247.83 750.672   2
  -7  10   5 5211.42 809.594   6
   7 -10  -5 5760.65 928.602   1
   7  10  -5 3957.98 739.372   3
  -7 -10   4 948.252 388.387   2
  -7  10   4 53.5532 322.615   6
   7 -10  -4 726.326 467.971   1
   7  10  -4 572.227 328.795   3
  -7 -10   3 2857.41 606.337   2
  -7  10   3 2491.44 586.929   6
   7  10  -3 2393.93 592.378   3
   7 -10  -3 3743.45 774.654   1
  -7  10   3 3440.69 644.146   9
  -7 -10   2 295.619 294.939   2
  -7  10   2-35.1486 275.688   6
   7  10  -2 752.145 348.742   3
  -7  10   2 186.554 232.741   9
   7 -10  -2 776.186 513.215   1
   7 -10  -1 2224.21 677.895   1
  -7 -10   1 1436.85 418.258   2
  -7  10   1 2754.13 692.211   6
   7  10  -1 2835.11 681.412   3
   7 -10   0 1902.59 607.252   1
  -7  10   0 923.661 461.750   6
   7  10   0 1391.72 544.941   8
  -7 -10   0 975.303 372.938   4
  -7  10  -1 1699.63 566.922   6
  -7  11   6 440.766 364.398   6
  -7  11   5 411.221 387.524   6
  -7  11   4 2044.99 559.262   6
  -7  11   3 2503.86 619.340   6
  -7 -11   2-79.2032 313.207   2
  -7  11   2-72.7068 327.134   6
  -7  11   1 11460.7 1270.05   6
  -7 -11   1 10890.9 1157.14   2
   8   0 -13-251.683 400.551   7
   8   0 -13 30.3242 245.955  10
  -8   0  13 615.858 379.144   9
   8   0 -12 14252.6 1262.85   7
   8   0 -12 16699.2 1338.25  10
  -8   0  12 15526.8 1304.28   9
   8   0 -11 648.890 339.464   7
   8   0 -11 506.655 319.879  10
  -8   0  11 241.512 304.612   9
   8   0 -10 2837.81 510.088   7
   8   0 -10 4359.68 648.714  10
  -8   0  10 2683.27 514.320   9
   8   0  -9-25.6968 220.300   7
   8   0  -9 324.664 250.650  10
  -8   0   9 109.588 196.862   9
   8   0  -8 33701.6 1407.36   7
   8   0  -8 34878.9 1699.30  10
  -8   0   8 32093.6 1628.15   9
   8   0  -7 122.030 161.425   7
   8   0  -7 375.637 246.519  10
  -8   0   7 152.399 216.777   9
   8   0  -6 4812.72 401.845   7
   8   0  -6 4646.40 587.611  10
   8   0  -6 5648.25 396.699   1
  -8   0   6 4855.27 599.451   9
  -8   0   6 5366.39 474.860   4
   8   0  -6 4759.63 368.732   8
   8   0  -5 88.7408 95.7887   1
   8   0  -5-16.2008 164.529  10
  -8   0   5 100.290 196.415   9
   8   0  -5 118.969 162.957   8
  -8   0   5 339.156 188.941   4
   8   0  -4 2855.49 453.665  10
   8   0  -4 2174.49 212.052   1
  -8   0   4 2722.49 442.705   9
   8   0  -4 2201.65 347.706   8
  -8   0   4 2588.94 370.899   4
   8   0  -3 365.518 254.553  10
  -8   0   3 38.2643 150.366   9
   8   0  -3-46.9688 138.133   8
  -8   0   3 307.194 264.682   4
   8   0  -2 55798.9 2095.61  10
  -8   0   2 54872.1 2109.29   9
  -8   0   2 58301.5 2098.87   4
   8   0  -2 57499.6 2082.89   8
  -8   0   1 94.8079 245.968   4
   8   0  -1 142.672 147.082   3
  -8   0   1 152.254 190.393   9
   8   0  -1 104.460 191.995   8
  -8   0   0 592.448 270.537   4
  -8   0   0 1576.53 384.035   9
   8   0   0 852.896 364.132   8
  -8   0  -1 46.7037 214.067   4
   8   0   1 320.239 276.918   8
  -8   0  -2 32266.0 1807.44   4
   8   0   2 36981.1 1943.31   8
  -8   0  -3-221.493 213.308   4
   8   0   3 280.060 357.263   8
   8   0   4 9270.16 1064.11   8
  -8   0  -4 8068.74 1000.31   4
  -8   0  -5 334.384 266.911   4
   8   0   5 480.186 399.621   8
   8  -1 -14 2562.38 794.172   7
   8  -1 -13 6252.71 914.087   7
   8   1 -13 5823.79 859.955  10
   8  -1 -13 6112.15 854.362  10
  -8  -1  13 7261.42 948.921   9
  -8   1  13 6731.04 878.660   9
   8  -1 -12 369.056 398.942   7
   8   1 -12 346.029 274.099  10
   8  -1 -12 570.431 333.602  10
  -8  -1  12 357.547 348.661   9
  -8   1  12 152.042 261.308   9
   8   1 -11 3543.34 632.322   7
   8  -1 -11 3778.02 633.323   7
   8   1 -11 3522.69 586.463  10
   8  -1 -11 4496.68 675.780  10
  -8  -1  11 3748.99 656.869   9
  -8   1  11 4095.91 632.706   9
   8   1 -10 6374.10 740.414   7
   8  -1 -10 7585.55 803.926   7
   8   1 -10 7792.34 836.957  10
   8  -1 -10 7220.43 805.869  10
  -8  -1  10 6821.17 811.248   9
  -8   1  10 6545.32 766.862   9
   8   1  -9 4127.46 557.245   7
   8  -1  -9 4047.11 541.264   7
   8   1  -9 4697.41 652.149  10
   8  -1  -9 3952.25 596.924  10
  -8  -1   9 4169.94 609.725   9
  -8   1   9 4334.55 593.637   9
   8   1  -8 34338.3 1387.83   7
   8  -1  -8 31740.6 1426.38   7
   8   1  -8 34397.8 1687.98  10
   8  -1  -8 31984.7 1620.09  10
  -8  -1   8 30837.3 1601.97   9
  -8   1   8 29762.4 1567.72   9
   8   1  -7 6970.11 550.904   7
   8  -1  -7 7393.46 600.854   7
   8   1  -7 8393.34 792.114  10
   8  -1  -7 7914.37 777.560  10
  -8  -1   7 6815.90 717.545   9
  -8   1   7 7988.85 774.645   9
   8  -1  -6 1633.63 266.487   7
   8   1  -6 1217.37 324.645  10
   8  -1  -6 1626.98 385.151  10
  -8  -1   6 1569.29 357.939   9
  -8   1   6 1640.28 387.347   9
   8   1  -6 1473.63 231.679   8
  -8   1   6 1465.96 241.881   4
   8  -1  -6 1895.59 272.037   1
   8  -1  -5 697.902 175.853   7
   8  -1  -5 998.674 213.666   1
   8   1  -5 517.308 249.910  10
   8  -1  -5 803.389 274.990  10
  -8  -1   5 897.979 273.225   9
  -8   1   5 1239.41 322.871   9
   8   1  -5 662.421 201.543   8
   8  -1  -5 513.854 185.798   8
  -8   1   5 682.291 219.615   4
   8   1  -4 34052.0 1532.11  10
  -8  -1   4 31876.1 1492.80   9
  -8   1   4 31725.4 1545.41   9
   8  -1  -4 33189.6 1122.50   1
   8  -1  -4 32680.0 1553.01  10
  -8  -1   4 32971.0 1432.52   4
  -8   1   4 32521.0 1319.49   4
   8   1  -4 33227.7 1344.17   8
   8  -1  -4 30154.3 1271.19   8
  -8   1   3 642.519 220.955   4
   8  -1  -3 847.539 218.164   1
   8   1  -3 1313.59 327.631  10
   8  -1  -3 1011.82 304.900  10
  -8  -1   3 474.493 233.840   9
  -8   1   3 1141.40 315.725   9
   8   1  -3 1256.07 311.067   8
  -8  -1   3 956.837 243.256   4
   8  -1  -3 1200.40 291.653   8
   8   1  -2 34962.2 1548.40  10
  -8  -1   2 34092.2 1550.85   9
  -8   1   2 32825.3 1609.22   9
   8  -1  -2 34552.1 1211.11   1
  -8  -1   2 33253.3 1564.42   4
  -8   1   2 32744.7 1479.23   4
   8   1  -2 33983.4 1550.42   8
   8  -1  -2 32494.3 1510.10   8
   8  -1  -1 1496.49 271.318   1
  -8   1   1 2277.55 418.704   4
   8   1  -1 1642.01 361.287  10
   8   1  -1 1750.47 299.253   3
  -8  -1   1 2196.74 404.360   9
  -8   1   1 2201.54 428.440   9
   8   1  -1 1241.49 310.259   8
   8  -1  -1 1568.36 358.881   8
  -8  -1   1 1935.35 413.289   4
  -8  -1   0 164.918 195.931   4
  -8   1   0 839.269 295.120   4
   8  -1   0 731.236 200.292   1
   8   1   0 738.988 192.817   3
  -8  -1   0 1140.40 327.019   9
   8   1   0 796.934 337.419   8
   8  -1   0 1049.67 372.579   8
  -8  -1  -1 2036.14 452.801   4
  -8   1  -1 2344.11 475.483   4
  -8  -1  -1 2054.24 426.031   9
   8   1   1 2925.83 532.723   8
   8  -1   1 2536.24 486.753   8
  -8  -1  -2 41754.9 2072.63   4
   8   1   2 43096.5 2122.48   8
  -8   1  -2 40310.6 2022.32   4
   8  -1   2 42615.4 2117.62   8
  -8  -1  -3 1995.83 496.951   4
  -8   1  -3 1723.39 471.762   4
   8   1   3 1930.34 490.304   8
   8  -1   3 2359.36 589.297   8
  -8  -1  -4 18502.5 1480.27   4
   8   1   4 22718.4 1657.96   8
   8  -1   4 20544.7 1576.68   8
  -8   1  -4 19621.9 1523.99   4
  -8  -1  -5 99.7355 278.547   4
  -8   1  -5 972.741 449.230   4
   8   1   5 452.506 278.176   8
   8  -1   5 621.019 422.171   8
   8  -2 -14 668.306 316.121  10
  -8   2  14 1437.90 469.322   9
   8  -2 -13 1687.32 565.346   7
   8   2 -13 2184.40 645.375  10
   8  -2 -13 1107.57 426.669  10
  -8  -2  13 1398.79 448.242   9
  -8   2  13 781.577 326.324   9
   8  -2 -12 1254.80 480.261   7
   8   2 -12 194.358 308.906  10
   8  -2 -12 1354.11 466.625  10
  -8  -2  12 1396.25 457.965   9
  -8   2  12 520.299 348.521   9
   8  -2 -11 1826.76 481.398   7
   8   2 -11 2086.78 503.051  10
   8  -2 -11 2586.79 520.005  10
  -8  -2  11 2853.49 575.275   9
  -8   2  11 2111.27 468.845   9
   8  -2 -10 769.832 313.348   7
   8   2 -10 1057.52 356.015  10
   8  -2 -10 956.760 338.277  10
  -8  -2  10 878.915 348.954   9
  -8   2  10 647.535 247.024   9
   8  -2  -9 406.014 233.266   7
   8   2  -9 787.935 321.451  10
   8  -2  -9 707.689 317.126  10
  -8  -2   9 1375.55 398.180   9
  -8   2   9 909.180 350.247   9
   8  -2  -8 14992.6 982.560   7
   8   2  -8 16846.0 1152.99  10
   8  -2  -8 15768.0 1109.25  10
  -8  -2   8 14373.7 1069.31   9
  -8   2   8 16091.4 1124.65   9
   8  -2  -7 3685.81 458.494   7
   8   2  -7 3407.31 525.484  10
   8  -2  -7 3480.70 532.835  10
  -8  -2   7 3213.79 504.535   9
  -8   2   7 3407.38 508.518   9
   8  -2  -7 2979.09 414.495   1
   8  -2  -6 21373.6 1028.33   7
   8   2  -6 21402.8 1233.46  10
   8  -2  -6 21091.9 1247.86  10
   8  -2  -6 22478.3 1040.08   1
  -8  -2   6 20487.6 1209.59   9
  -8   2   6 21286.8 1265.43   9
   8   2  -6 20789.7 935.664   8
  -8   2   5 373.226 167.442   4
   8  -2  -5 69.8324 148.568   1
   8   2  -5 179.313 224.573  10
  -8  -2   5-34.2182 144.714   9
  -8   2   5-118.933 167.176   9
   8   2  -5 98.2920 153.874   8
   8  -2  -5 174.407 178.721   8
  -8   2   4 1747.64 291.794   4
   8   2  -4 2356.35 398.143  10
   8  -2  -4 2261.01 431.279  10
   8  -2  -4 1915.95 293.664   1
  -8  -2   4 2071.73 371.775   9
  -8   2   4 2070.75 416.663   9
   8   2  -4 1890.83 336.917   8
   8  -2  -4 1898.21 306.460   8
   8   2  -3 10154.6 793.804  10
  -8  -2   3 10202.9 802.236   9
  -8   2   3 9842.25 866.000   9
   8  -2  -3 10437.5 696.255   1
  -8  -2   3 11534.6 872.931   4
   8   2  -3 9458.81 759.955   8
  -8   2   3 10538.0 733.804   4
   8  -2  -3 11190.6 803.948   8
  -8   2   2 196.939 185.931   4
   8   2  -2 589.302 261.155   3
   8   2  -2 410.608 202.437  10
   8  -2  -2 410.818 209.346   1
  -8  -2   2 170.122 184.337   9
  -8   2   2 430.057 258.876   9
   8   2  -2 313.870 218.032   8
  -8  -2   2 316.928 241.590   4
   8  -2  -2 44.3676 208.119   8
   8  -2  -1 1667.73 321.785   1
  -8   2   1 1217.52 347.679   4
   8   2  -1 1582.07 355.672  10
   8   2  -1 2045.29 351.912   3
  -8  -2   1 1171.78 313.749   9
   8   2  -1 1356.17 390.551   8
  -8  -2   1 1881.85 404.344   4
   8  -2  -1 1009.75 348.976   8
  -8   2   0 1151.45 321.266   4
   8   2   0 225.778 152.290  10
   8   2   0 790.715 245.178   3
  -8  -2   0 669.603 251.015   9
   8  -2   0 440.367 204.442   1
   8   2   0 842.279 360.799   8
   8  -2   0 533.799 319.461   8
  -8  -2   0 852.473 291.776   4
  -8  -2  -1 929.994 332.900   4
   8  -2   1 492.347 209.263   1
  -8   2  -1 873.711 317.696   4
  -8  -2  -1 675.731 305.792   9
   8   2   1 381.501 349.124   8
   8  -2   1 674.324 348.324   8
  -8  -2  -2 5510.12 759.966   4
  -8   2  -2 4449.43 668.406   4
  -8  -2  -2 6235.85 673.268   9
   8   2   2 5459.13 753.983   8
   8  -2   2 4610.71 691.137   8
  -8  -2  -3-12.3399 272.332   4
  -8   2  -3 496.016 267.480   4
   8  -2   3 170.073 358.303   8
  -8  -2  -4 798.670 428.682   4
  -8   2  -4 521.761 332.923   4
   8   2   4 770.524 460.807   8
   8  -2   4 483.097 275.460   8
  -8  -2  -5 1759.56 527.235   4
  -8   2  -5 2104.29 547.997   4
   8   2   5 2279.19 640.424   8
   8  -2   5 1866.12 568.528   8
   8  -3 -14 48.5860 267.322  10
  -8   3  14 130.227 236.525   9
   8  -3 -13 7459.41 1030.40   7
   8   3 -13 6521.27 922.620  10
   8  -3 -13 6733.71 860.874  10
  -8  -3  13 8425.33 1073.25   9
  -8   3  13 7266.37 880.644   9
   8  -3 -12 1325.26 443.639   7
   8   3 -12 1702.57 573.157  10
   8  -3 -12 659.737 337.300  10
  -8  -3  12 1402.14 426.443   9
  -8   3  12 2166.40 482.777   9
   8  -3 -11 3836.64 658.492   7
  -8  -3  11 2817.47 550.226   2
   8   3 -11 5485.64 782.994  10
   8  -3 -11 3551.58 587.864  10
  -8  -3  11 3452.18 630.085   9
  -8   3  11 4644.14 664.560   9
   8  -3 -10 756.069 347.265   7
  -8  -3  10 682.684 304.876   2
   8   3 -10 1251.42 404.189  10
   8  -3 -10 1516.56 390.324  10
  -8  -3  10 1071.33 401.606   9
  -8   3  10 891.512 339.639   9
   8  -3  -9 809.289 315.426   7
  -8  -3   9 1733.47 414.727   2
   8   3  -9 1263.27 408.074  10
   8  -3  -9 990.998 301.830  10
  -8  -3   9 1269.61 392.425   9
  -8   3   9 1584.33 389.030   9
   8  -3  -8 114.394 219.409   7
  -8  -3   8 118.492 215.720   2
   8  -3  -8 201.381 188.542   1
   8   3  -8-113.509 169.908  10
   8  -3  -8 637.539 291.515  10
  -8  -3   8 489.196 299.768   9
  -8   3   8 573.275 272.285   9
   8  -3  -7 9435.10 771.267   7
   8   3  -7 10384.7 891.795  10
   8  -3  -7 9013.58 838.361  10
   8  -3  -7 11136.0 828.051   1
  -8  -3   7 10568.0 884.968   9
  -8   3   7 9978.17 887.164   9
  -8  -3   7 8882.99 843.781   2
  -8  -3   6 4988.93 633.858   2
   8   3  -6 6283.00 676.881  10
   8  -3  -6 7118.78 730.689  10
   8  -3  -6 6449.04 596.954   1
  -8  -3   6 5671.49 631.831   9
  -8   3   6 7122.13 725.063   9
   8   3  -6 6191.83 532.457   8
   8   3  -5 9398.46 781.898  10
   8  -3  -5 8639.50 801.986  10
   8  -3  -5 9978.51 729.824   1
  -8  -3   5 8923.46 762.710   9
  -8   3   5 7425.32 755.000   9
   8   3  -5 9051.52 691.617   8
   8  -3  -5 8412.67 614.834   8
  -8  -3   5 8273.89 784.181   2
   8   3  -4 22385.3 1188.59  10
   8  -3  -4 20842.7 1275.64  10
   8  -3  -4 20534.3 1065.24   1
  -8  -3   4 22521.4 1188.43   9
  -8   3   4 21936.8 1319.88   9
   8   3  -4 22014.4 1133.21   8
  -8   3   4 21435.9 942.124   4
   8  -3  -4 21573.8 1088.66   8
  -8  -3   4 22058.9 1291.96   2
   8   3  -3 11990.7 844.240  10
  -8  -3   3 11023.8 807.212   9
  -8   3   3 10562.9 923.590   9
   8  -3  -3 11234.6 798.769   1
  -8  -3   3 12470.3 948.738   4
   8   3  -3 12207.0 887.685   8
  -8   3   3 9839.49 689.413   4
   8  -3  -3 12573.5 879.700   8
   8   3  -2 10043.9 765.040  10
   8   3  -2 10619.4 816.155   3
  -8  -3   2 10660.6 788.157   9
  -8   3   2 10038.7 927.887   9
   8  -3  -2 10776.2 811.272   1
  -8  -3   2 10396.6 895.330   4
   8   3  -2 10495.4 859.126   8
  -8   3   2 9769.85 748.429   4
   8  -3  -2 9522.04 824.016   8
   8   3  -1 7904.81 677.288  10
   8   3  -1 7645.43 687.518   3
  -8  -3   1 8105.41 691.463   9
   8  -3  -1 7659.47 705.908   1
  -8  -3   1 7854.11 807.242   4
   8   3  -1 7963.47 785.277   8
  -8   3   1 7589.93 719.512   4
   8  -3  -1 8537.48 807.063   8
  -8   3   0 1427.05 367.825   4
   8  -3   0 1848.72 384.817   1
   8   3   0 1617.43 329.806  10
   8   3   0 1000.10 292.188   3
  -8  -3   0 1298.05 281.737   9
   8   3   0 949.006 364.492   8
  -8  -3   0 995.935 356.821   4
   8  -3   0 1429.91 398.767   8
   8   3   1 8085.47 701.536  10
  -8  -3  -1 9153.59 756.107   9
   8  -3   1 8918.39 822.260   1
  -8  -3  -1 7381.58 866.832   4
   8   3   1 7597.66 852.646   8
   8  -3   1 7676.74 852.950   8
  -8   3  -1 7996.84 836.490   4
  -8  -3  -2 2759.90 580.083   4
   8  -3   2 3617.56 543.165   1
  -8   3  -2 2750.39 527.731   4
   8   3   2 4285.54 688.081   8
   8  -3   2 3143.61 601.817   8
  -8  -3  -3 2464.12 587.614   4
  -8   3  -3 1459.54 471.371   4
   8   3   3 1734.59 452.719   8
   8  -3   3 1587.66 507.225   8
  -8  -3  -4 3441.66 644.049   4
  -8   3  -4 3623.81 688.136   4
   8   3   4 3602.17 713.957   8
   8  -3   4 3038.09 642.596   8
  -8  -3  -5 972.751 500.219   4
  -8   3  -5 854.530 442.294   4
   8   3   5 1611.36 466.356   8
   8  -3   5 597.379 413.657   8
   8  -4 -13 433.981 340.331   7
   8  -4 -13 609.680 307.099  10
  -8   4  13 808.653 326.511   9
   8  -4 -12 10398.9 1137.38   7
   8   4 -12 9225.85 1082.67  10
   8  -4 -12 9309.85 965.646  10
  -8  -4  12 11198.2 1181.96   9
  -8   4  12 10681.1 1031.85   9
   8  -4 -11 2945.08 596.163   7
  -8  -4  11 1544.72 417.821   2
   8   4 -11 3049.24 614.161  10
   8  -4 -11 2947.78 577.301  10
  -8  -4  11 2895.00 602.101   9
  -8   4  11 2072.69 477.948   9
   8  -4 -10 6233.12 784.752   7
  -8  -4  10 5238.76 717.502   2
   8  -4 -10 6126.22 763.048  10
   8   4 -10 6042.75 788.295  10
  -8  -4  10 6429.11 805.427   9
  -8   4  10 5811.95 717.038   9
  -8  -4   9 801.435 325.710   2
   8  -4  -9 857.374 318.485   7
   8   4  -9 800.513 312.167  10
   8  -4  -9 395.111 205.404  10
  -8  -4   9 1192.55 365.038   9
  -8   4   9 1492.18 400.349   9
   8  -4  -8 21648.4 1325.47   7
   8   4  -8 21916.2 1366.88  10
   8  -4  -8 23615.4 1390.65  10
   8  -4  -8 22890.2 1345.76   1
  -8  -4   8 22622.3 1396.69   9
  -8   4   8 23072.9 1374.10   9
  -8  -4   8 22015.7 1412.58   2
  -8  -4   7 584.282 292.596   2
   8  -4  -7 410.535 224.556   7
   8   4  -7 870.638 307.361  10
   8  -4  -7 1047.73 372.571  10
  -8  -4   7 944.243 343.641   9
  -8   4   7 876.360 324.812   9
   8  -4  -7 806.775 293.341   1
   8   4  -6 15736.8 1058.45  10
   8  -4  -6 15923.4 1114.48  10
   8  -4  -6 15981.8 1019.69   1
  -8  -4   6 17203.6 1096.05   9
  -8   4   6 14480.6 1075.58   9
   8   4  -6 15576.3 926.775   8
  -8  -4   6 13998.9 1075.65   2
   8  -4  -5-47.4751 140.714   8
  -8  -4   5 94.9893 205.780   2
   8  -4  -5 42.0235 163.770   1
  -8   4   5 184.020 169.498   6
   8   4  -5 320.711 200.504  10
   8  -4  -5 148.984 217.490  10
  -8  -4   5 69.6713 133.653   9
  -8   4   5 112.463 198.989   9
   8   4  -5 34.4708 179.923   8
   8  -4  -4 738.661 244.659   8
  -8  -4   4 865.301 294.261   2
   8   4  -4 764.777 270.267  10
   8  -4  -4 618.552 314.337  10
   8  -4  -4 530.838 225.767   1
  -8  -4   4 373.500 198.994   9
  -8   4   4 643.014 292.683   9
   8   4  -4 243.356 221.985   8
  -8  -4   3 4825.92 617.762   2
   8   4  -3 6097.51 589.118  10
   8   4  -3 6349.45 698.607   3
  -8  -4   3 6247.11 594.908   9
  -8   4   3 6296.33 736.813   9
   8  -4  -3 5727.94 627.192   1
   8   4  -3 6655.31 688.091   8
   8  -4  -3 5464.15 626.035   8
  -8   4   3 6148.68 538.280   4
   8   4  -2 7320.87 619.352  10
   8   4  -2 5548.56 643.599   3
  -8  -4   2 5301.14 541.608   9
   8  -4  -2 5969.73 670.446   1
  -8   4   2 5354.18 692.116   9
   8   4  -2 5550.82 656.947   8
  -8   4   2 6390.23 597.705   4
   8  -4  -2 5910.80 670.551   8
  -8  -4   2 5744.36 653.723   2
  -8  -4   2 4643.25 634.176   4
   8  -4  -1 155.599 286.782   8
  -8   4   1-45.7653 160.639   4
   8   4  -1 252.804 145.425  10
   8  -4  -1 403.219 288.839   1
   8   4  -1-222.216 240.562   3
  -8  -4   1 325.052 189.162   9
   8   4  -1 139.932 179.092   8
  -8  -4   1-104.481 248.624   4
   8  -4   0 548.196 342.313   8
  -8   4   0 705.948 283.384   4
   8   4   0 165.213 207.996   3
   8  -4   0 934.213 336.093   1
   8   4   0 34.2206 207.887   8
  -8  -4   0 524.852 298.167   4
   8  -4   1 130.207 331.228   8
  -8   4  -1 270.671 273.220   4
   8  -4   1 518.049 324.683   1
   8   4   1 123.491 221.399   8
  -8  -4  -1 186.868 237.854   4
   8  -4   2 5087.85 765.064   8
  -8   4  -2 4613.09 672.451   4
   8  -4   2 5306.74 703.393   1
   8   4   2 5206.80 773.277   8
  -8  -4  -2 4893.94 725.994   4
  -8  -4  -3 104.938 300.868   4
  -8   4  -3-226.323 322.656   4
   8  -4   3-286.466 282.224   1
   8   4   3 826.455 440.089   8
   8  -4   3-35.6712 234.893   8
  -8  -4  -4-85.7973 238.041   4
  -8   4  -4 94.1119 233.219   4
   8   4   4-28.2586 282.700   8
   8  -4   4 634.040 426.380   8
  -8  -4  -5 1025.81 472.559   4
  -8   4  -5 1503.58 519.164   4
   8   4   5 1516.56 493.739   8
   8  -5 -12 268.007 301.662   7
   8   5 -12 242.045 374.781  10
  -8   5  12-290.959 313.731   5
  -8  -5  12 288.300 433.773   9
   8  -5 -11 614.986 425.530   7
  -8  -5  11 645.470 361.900   2
   8   5 -11 1299.89 427.564  10
   8  -5 -11 982.424 396.205  10
  -8  -5  11 636.891 360.642   9
  -8   5  11 130.102 188.739   9
   8  -5 -10 6329.29 836.756   7
   8  -5 -10 8634.99 874.414  10
   8   5 -10 5122.76 750.948  10
  -8  -5  10 7062.48 879.161   9
  -8   5  10 6540.68 759.665   9
  -8  -5  10 6768.65 872.564   2
  -8  -5   9 5997.87 782.207   2
   8  -5  -9 6045.16 775.126   7
   8  -5  -9 6177.78 731.144  10
   8  -5  -9 7249.13 835.106   1
   8   5  -9 5722.46 754.739  10
  -8  -5   9 6438.80 787.954   9
  -8   5   9 5613.60 686.918   9
   8  -5  -8 39644.5 1918.37   7
   8   5  -8 37527.5 1874.18  10
   8  -5  -8 37344.8 1821.10  10
   8  -5  -8 40788.6 1924.50   1
  -8  -5   8 36986.0 1858.52   9
  -8   5   8 37085.5 1815.91   9
  -8  -5   8 37300.3 1932.62   2
   8  -5  -7 560.378 282.330   1
  -8  -5   7 827.072 357.512   2
   8   5  -7 1198.43 347.813  10
   8  -5  -7 454.339 249.064  10
  -8  -5   7 846.749 316.063   9
  -8   5   7 613.919 279.159   9
  -8  -5   6 1223.91 359.270   2
   8  -5  -6 2019.14 412.358   1
  -8   5   6 1195.93 308.404   6
   8   5  -6 1497.51 367.770  10
   8  -5  -6 1279.74 371.707  10
  -8  -5   6 1934.59 397.907   9
  -8   5   6 1660.78 404.120   9
  -8  -5   5 404.509 285.131   2
   8  -5  -5 174.999 287.036   1
   8   5  -5 394.178 250.869  10
  -8   5   5 179.266 192.596   6
   8  -5  -5 753.636 324.461  10
  -8  -5   5 70.7521 150.660   9
  -8   5   5 341.300 261.321   9
   8   5  -5 464.247 284.949   8
   8   5  -4 22931.4 1202.07  10
  -8   5   4 21538.4 1085.37   6
   8  -5  -4 23142.0 1413.16  10
   8   5  -4 18520.7 1284.31   3
   8  -5  -4 23253.4 1326.28   1
  -8  -5   4 25167.4 1249.69   9
  -8   5   4 21476.6 1387.05   9
   8   5  -4 21664.3 1264.03   8
  -8  -5   4 20370.0 1317.09   2
  -8  -5   3 2470.78 463.560   2
   8   5  -3 2928.08 415.703  10
  -8   5   3 3912.85 461.968   6
   8   5  -3 1969.31 427.698   3
  -8  -5   3 3234.87 425.416   9
   8  -5  -3 3736.31 564.684   1
  -8   5   3 2266.34 475.516   9
   8   5  -3 3929.98 557.600   8
   8   5  -2 48097.2 1712.21  10
  -8   5   2 46844.3 1749.23   6
   8   5  -2 48385.0 2069.87   3
  -8  -5   2 47910.6 1696.31   9
   8  -5  -2 47828.0 2057.71   1
  -8  -5   2 44635.2 2085.24   4
   8   5  -2 43911.3 2013.32   8
  -8   5   2 46074.9 1755.93   4
  -8  -5   2 42794.5 1956.13   2
  -8   5   1 1648.43 386.795   4
  -8  -5   1 2744.80 487.676   2
   8  -5  -1 2030.68 478.088   1
  -8   5   1 2100.10 395.214   6
   8   5  -1 1637.41 413.289   3
   8   5  -1 1413.86 395.090   8
  -8  -5   1 1276.41 359.449   4
   8   5   0 4241.79 571.859   3
   8  -5   0 3724.38 606.465   1
  -8   5   0 3675.25 558.114   4
   8   5   0 4191.63 631.376   8
  -8  -5   0 4380.95 656.221   4
   8  -5   1 273.606 356.061   8
   8  -5   1 514.523 331.205   1
  -8   5  -1 40.1674 214.006   4
   8   5   1 274.675 324.851   8
  -8  -5  -1 264.486 286.235   4
   8  -5   2 30505.1 1771.09   1
  -8  -5  -2 29532.9 1872.26   4
   8   5   2 27570.6 1799.04   8
   8  -5   2 30155.8 1868.48   8
  -8   5  -2 27256.6 1711.35   4
   8  -5   3 224.311 310.229   8
  -8  -5  -3 31.6525 237.270   4
  -8   5  -3 565.712 413.042   4
   8  -5   3 350.855 328.625   1
   8   5   3-72.8872 276.080   8
  -8  -5  -4 15532.1 1422.11   4
   8   5   4 15849.2 1452.33   8
   8  -5   4 15729.3 1460.81   8
   8  -5   4 17880.7 1456.34   1
  -8   5  -4 14882.0 1377.93   4
   8  -6 -12 4967.14 846.987   7
  -8   6  12 5694.20 882.328   5
  -8  -6  11 702.958 515.686   2
   8  -6 -11 975.607 461.717   7
   8  -6 -11-114.775 270.934   1
   8   6 -11 272.509 290.953  10
  -8  -6  11 787.979 372.794   9
  -8   6  11-241.149 249.526   5
  -8  -6  10 114.004 246.916   2
   8  -6 -10 143.075 257.715   7
   8   6 -10 133.132 236.080  10
   8  -6 -10 359.636 261.812  10
  -8   6  10 92.5167 222.785   5
  -8  -6  10 392.051 254.634   9
  -8   6  10 412.926 293.262   9
   8  -6 -10-218.178 330.301   1
  -8  -6   9 739.910 403.661   2
   8  -6  -9 184.482 292.893   7
   8   6  -9 753.939 407.274  10
   8  -6  -9 295.483 263.449  10
  -8   6   9 706.793 328.216   5
  -8  -6   9 415.039 284.774   9
  -8   6   9 6.39469 213.802   9
   8  -6  -9 17.2962 219.125   1
   8  -6  -8 9267.80 959.337   7
   8   6  -8 9924.25 937.800  10
   8  -6  -8 10461.6 934.482  10
   8  -6  -8 9397.12 959.930   1
  -8  -6   8 9711.60 947.336   9
  -8   6   8 12138.7 1007.11   9
  -8   6   8 9228.34 886.501   5
  -8  -6   8 9961.04 1011.99   2
   8  -6  -7 159.819 324.541   1
  -8  -6   7-169.921 245.442   2
   8   6  -7 709.976 304.776  10
  -8   6   7 248.653 264.262   6
   8  -6  -7-55.4531 184.508  10
  -8   6   7 530.848 240.506   5
  -8  -6   7 7.52147 185.137   9
  -8   6   7-77.5937 235.697   9
  -8  -6   6 3831.96 607.900   2
   8  -6  -6 4187.28 607.853   1
   8   6  -6 3450.99 504.990  10
  -8   6   6 4335.39 579.464   6
   8  -6  -6 4281.28 604.661  10
  -8  -6   6 3954.53 539.514   9
  -8   6   6 3376.14 559.420   9
  -8  -6   5 330.956 247.885   2
   8   6  -5 708.917 255.965  10
   8  -6  -5 31.8541 198.179   1
   8   6  -5 557.103 253.953   3
  -8   6   5 1076.69 316.410   6
   8  -6  -5 527.025 296.799  10
  -8  -6   5 836.364 311.109   9
  -8   6   5 763.696 300.328   9
   8   6  -5 736.326 316.748   8
  -8  -6   4 3599.29 594.787   2
   8   6  -4 3181.97 446.001  10
  -8   6   4 3717.29 510.355   6
   8   6  -4 4202.56 664.402   3
   8  -6  -4 2934.70 518.393   1
  -8  -6   4 3682.12 472.219   9
  -8   6   4 3619.34 592.022   9
   8   6  -4 3458.43 551.601   8
  -8  -6   3 2.20299 236.637   2
  -8   6   3 225.320 225.888   6
   8   6  -3 713.350 316.609   3
   8  -6  -3 728.678 353.044   1
  -8   6   3 180.370 200.055   9
   8   6  -3 284.661 240.969   8
  -8   6   2 15745.0 1037.31   6
   8   6  -2 13273.2 1111.21   3
   8  -6  -2 15222.7 1199.87   1
   8   6  -2 14939.9 1171.19   8
  -8  -6   2 13495.6 1082.92   2
  -8  -6   1 212.379 222.137   2
   8  -6  -1 902.344 404.650   1
  -8   6   1 618.894 275.155   4
  -8   6   1 491.272 235.299   6
   8   6  -1 330.929 224.393   3
   8   6  -1 420.510 278.054   8
  -8  -6   1 1166.57 367.352   4
  -8  -6   0 379.053 273.311   2
  -8   6   0 513.922 259.912   4
   8  -6   0 278.447 278.902   1
   8   6   0 169.844 240.982   3
   8   6   0 382.413 320.955   8
  -8  -6   0 197.046 277.172   4
  -8   6  -1 1346.80 445.134   4
   8   6   1 2193.42 524.698   8
  -8  -6  -1 2323.16 511.177   4
   8  -6   1 2483.34 579.259   1
   8  -6   2 9421.09 1051.36   1
  -8  -6  -2 8907.06 1041.08   4
   8   6   2 9129.05 1025.37   8
   8  -6   2 9023.60 1073.94   8
  -8   6  -2 9444.93 1020.80   4
   8  -6   3 531.296 419.442   8
   8  -6   3 123.837 285.046   1
  -8   6  -3 417.787 309.675   4
   8   6   3-130.200 276.194   8
  -8  -6  -3 179.934 370.388   4
  -8  -6  -4 5580.49 873.703   4
   8  -6   4 4284.52 771.058   1
  -8   6  -4 4824.66 781.899   4
  -8  -7  11 1819.40 516.674   2
   8  -7 -11 2154.87 603.324   7
   8   7 -11 1577.13 477.323  10
  -8  -7  11 2513.39 596.762   9
  -8   7  11 2397.94 569.271   5
   8  -7 -11 1695.64 539.401   1
  -8  -7  10 1185.77 485.895   2
   8  -7 -10-31.5069 281.223   7
   8   7 -10-167.981 342.002  10
  -8  -7  10-22.7661 377.697   9
  -8   7  10-103.558 280.266   5
   8  -7 -10 475.086 383.022   1
   8  -7  -9 9860.42 1079.73   7
   8   7  -9 8072.94 921.623  10
   8  -7  -9 9867.07 930.876  10
   8  -7  -9 8955.06 1034.99   1
  -8  -7   9 9727.85 1012.84   9
  -8   7   9 10035.5 990.916   5
  -8  -7   9 11041.2 1136.86   2
   8  -7  -8 3241.74 610.207   1
  -8  -7   8 2725.61 585.073   2
   8   7  -8 4358.64 655.888  10
   8  -7  -8 4448.94 645.914  10
  -8  -7   8 4852.40 685.857   9
  -8   7   8 3707.55 573.051   9
   8   7  -7 9830.65 916.747  10
  -8   7   7 8646.67 877.231   6
   8  -7  -7 8815.21 877.209  10
   8  -7  -7 8087.23 913.486   1
  -8  -7   7 8575.30 866.797   9
  -8   7   7 9547.36 913.585   9
  -8  -7   7 9119.32 1006.17   2
  -8  -7   6 5395.12 735.975   2
   8   7  -6 5419.67 637.262  10
   8  -7  -6 4461.43 681.713   1
   8  -7  -6 5991.27 772.942  10
  -8   7   6 4803.33 642.579   6
  -8  -7   6 5318.42 631.274   9
   8   7  -6 5355.89 792.006   3
  -8   7   6 4607.61 680.052   9
  -8  -7   5 564.479 291.248   2
  -8   7   5 991.215 328.504   6
   8  -7  -5 1049.36 382.169   1
   8  -7  -5 999.053 375.265  10
   8   7  -5 883.533 317.829   3
  -8   7   5 1403.07 401.235   9
  -8  -7   4 396.579 293.267   2
  -8   7   4 259.447 189.258   6
   8   7  -4 531.928 295.542   3
   8  -7  -4 125.000 258.379   1
  -8   7   4 1034.20 374.445   9
   8   7  -4 1028.16 342.221   8
  -8  -7   3 4578.49 683.264   2
  -8   7   3 5827.36 697.753   6
   8   7  -3 4927.50 739.662   3
   8  -7  -3 5805.15 782.878   1
  -8   7   3 5424.54 781.966   9
   8   7  -3 7135.68 838.999   8
  -8  -7   2 1291.50 368.237   2
  -8   7   2 2127.72 437.438   6
   8   7  -2 1172.25 412.546   3
   8   7  -2 1389.16 389.432   8
   8  -7  -2 1128.63 430.711   1
   8  -7  -1 3025.92 650.490   1
  -8  -7   1 2529.19 508.761   2
  -8   7   1 2569.55 495.599   6
   8   7  -1 1688.13 455.670   3
   8   7  -1 2758.03 563.047   8
  -8  -7   1 2349.25 546.532   4
  -8   7   0 5220.58 687.868   4
   8   7   0 7065.46 861.405   3
   8  -7   0 6317.72 878.664   1
   8   7   0 7722.27 949.881   8
  -8  -7   0 6982.43 786.722   2
  -8  -7   0 6016.74 833.296   4
  -8   7  -1 357.075 273.816   4
   8  -7   1 854.421 456.974   1
   8   7   1 1341.80 451.652   8
  -8  -7  -1 427.659 294.192   4
  -8   7  -2 2772.85 584.906   4
   8  -7   2 5099.54 820.628   1
   8   7   2 3818.38 713.729   8
  -8  -7  -2 3183.41 650.767   4
   8  -7   3 2002.48 628.131   8
  -8   7  -3 1147.34 426.989   4
   8  -7   3 2940.90 669.663   1
   8   7   3 1871.84 569.014   8
  -8  -7  -3 2144.74 554.313   4
  -8   8  11 2312.25 582.385   5
  -8  -8  10 5562.02 865.322   2
   8  -8 -10 7046.93 980.351   7
   8   8 -10 4176.60 710.590  10
  -8  -8  10 6180.24 868.189   9
   8  -8 -10 5683.37 918.382   1
   8  -8  -9 707.864 363.278   1
  -8  -8   9 279.838 305.431   2
   8  -8  -9 799.694 397.401   7
   8   8  -9 390.556 283.992  10
  -8  -8   9 485.675 240.429   9
  -8  -8   8 435.571 327.148   2
   8  -8  -8 616.317 420.414   1
   8   8  -8 344.720 260.672  10
  -8   8   8 1076.02 473.997   6
   8   8  -8 968.731 491.825   3
  -8  -8   8 494.269 249.161   9
  -8  -8   7 617.455 391.101   2
   8  -8  -7-129.892 336.290   1
  -8   8   7 492.922 386.098   6
   8  -8  -7 328.599 206.294  10
   8   8  -7 255.061 449.185   3
  -8  -8   7-78.1057 229.959   9
  -8   8   7 376.642 281.681   9
  -8  -8   6 560.731 344.023   2
   8  -8  -6 863.584 422.051   1
  -8   8   6 876.526 372.876   6
   8  -8  -6 1272.47 409.738  10
   8   8  -6 951.412 415.939   3
  -8   8   6 1015.25 359.945   9
  -8  -8   5 581.060 319.167   2
  -8   8   5 36.5396 198.464   6
   8  -8  -5-26.9767 213.692  10
   8  -8  -5 322.484 309.614   1
   8   8  -5 24.1076 227.216   3
  -8   8   5 209.444 204.253   9
  -8  -8   4 3922.55 680.033   2
  -8   8   4 4371.82 647.255   6
   8   8  -4 3268.52 646.949   3
   8  -8  -4 4124.13 742.198   1
  -8   8   4 4187.26 702.777   9
  -8  -8   3 859.133 395.844   2
  -8   8   3 730.355 348.568   6
   8   8  -3 150.720 251.149   3
   8  -8  -3 845.544 411.954   1
  -8   8   3 711.163 375.395   9
   8   8  -3 807.789 399.028   8
  -8  -8   2-178.669 211.330   2
  -8   8   2 342.267 318.538   6
   8   8  -2 327.857 281.836   3
  -8   8   2 621.382 387.949   9
   8   8  -2-77.8304 219.718   8
   8  -8  -2 8.22504 335.090   1
  -8  -8   1 473.983 318.514   2
   8  -8  -1 672.905 454.529   1
  -8   8   1 636.669 305.777   6
   8   8  -1 751.346 354.523   3
   8   8  -1 365.108 352.402   8
  -8  -8   1 677.098 330.067   4
   8  -8   0 699.371 525.552   1
   8   8   0-287.186 288.272   8
  -8  -8   0 564.556 274.030   4
   8  -8   1 825.412 449.010   1
   8   8   1 1904.39 601.083   8
  -8  -8  -1 1449.72 479.079   4
   8  -8   2 1310.35 516.019   1
  -8   8  -2 1234.77 392.588   4
  -8   8  -3 454.056 299.606   4
  -8  -9   8 1269.97 509.751   2
   8  -9  -8 1697.39 587.730   1
  -8   9   8 1035.67 453.149   6
   8   9  -8 1719.07 556.628   3
  -8  -9   7 2662.14 628.715   2
   8  -9  -7 2129.51 605.861   1
  -8   9   7 1287.11 432.821   6
   8   9  -7 1474.80 495.057   3
  -8   9   6 11882.8 1136.68   6
   8   9  -6 10782.7 1206.37   3
   8  -9  -6 13663.6 1327.00   1
  -8  -9   6 13193.7 1267.09   2
  -8  -9   5 5.28674 248.993   2
  -8   9   5 36.5095 234.368   6
   8  -9  -5 670.794 309.117  10
   8  -9  -5 192.172 352.588   1
   8   9  -5-262.485 311.555   3
  -8   9   5 83.9007 224.977   9
  -8   9   4 25955.6 1674.86   6
   8  -9  -4 27037.5 1744.56  10
   8   9  -4 29869.8 1966.22   3
   8  -9  -4 27507.2 1902.76   1
  -8   9   4 30231.3 1851.30   9
  -8  -9   4 26918.0 1792.88   2
  -8  -9   3 571.934 391.609   2
  -8   9   3 1093.57 407.874   6
   8   9  -3 213.617 213.632   3
  -8   9   3 286.662 290.844   9
   8  -9  -3 557.855 420.288   1
  -8   9   2 15667.4 1316.08   6
   8   9  -2 14565.2 1350.27   3
  -8   9   2 17384.7 1471.71   9
   8  -9  -2 14987.3 1444.42   1
   8   9  -2 15401.5 1363.86   8
  -8  -9   2 13161.1 1223.24   2
  -8  -9   1 1030.86 398.542   2
   8  -9  -1 279.121 503.356   1
   8   9  -1 1039.20 391.430   3
  -8  -9   1 949.097 413.173   4
   8   9  -1 175.809 248.509   8
   8  -9   0 4498.29 840.965   1
   8   9   0 3958.56 758.003   8
  -8  -9   0 5403.46 892.135   4
   8  -9   1 600.028 443.496   1
  -8  10   6 3100.28 636.230   6
   8 -10  -6 3892.25 764.368   1
  -8 -10   5 137.865 263.412   2
  -8  10   5 728.063 473.884   6
   8 -10  -5 612.743 444.812   1
  -8 -10   4 776.408 410.446   2
  -8  10   4 481.439 324.245   6
   8  10  -4 535.860 465.908   3
   8 -10  -4 530.075 485.631   1
  -8 -10   3 129.955 265.469   2
   8  10  -3-262.517 286.710   3
  -8  10   3 407.010 369.140   9
   8 -10  -3 204.196 349.170   1
  -8 -10   2 2328.85 589.906   2
  -8  10   2 4530.21 802.153   9
   8 -10  -2 3535.99 848.961   1
   9   0 -13 287.013 384.605  10
  -9   0  13 422.114 347.412   9
   9   0 -12 559.453 400.593  10
  -9   0  12 508.029 299.145   9
   9   0 -11 543.568 351.297  10
  -9   0  11 335.636 312.276   9
   9   0 -10 2243.12 512.955  10
  -9   0  10 3144.70 546.707   9
   9   0  -9 358.754 285.474  10
  -9   0   9 162.505 208.961   9
   9   0  -8 9672.80 920.918  10
  -9   0   8 8252.20 854.111   9
   9   0  -7-19.1625 193.688  10
  -9   0   7 43.2172 301.474   9
  -9   0   7 97.5451 152.170   4
   9   0  -6 14488.4 1073.54  10
  -9   0   6 14517.2 1062.06   9
  -9   0   6 14690.6 883.961   4
   9   0  -5 344.666 240.604  10
  -9   0   5 166.420 176.759   9
   9   0  -5 439.232 193.184   8
  -9   0   5-32.7480 126.674   4
   9   0  -4 2920.42 482.968  10
  -9   0   4 3405.77 512.431   9
   9   0  -4 2781.03 412.138   8
  -9   0   4 2462.52 404.474   4
   9   0  -3 100.961 211.218  10
  -9   0   3 261.614 249.636   9
   9   0  -3 110.894 215.880   8
  -9   0   3 81.4422 177.185   4
   9   0  -2 20333.6 1270.65  10
  -9   0   2 22334.1 1351.67   9
  -9   0   2 19637.7 1237.91   4
   9   0  -2 19305.8 1227.18   8
  -9   0   1-67.2722 221.413   4
  -9   0   1 198.489 276.682   9
   9   0  -1 245.027 246.902   8
  -9   0   0 9980.58 932.975   9
  -9   0   0 8488.18 872.017   4
   9   0   0 7858.38 871.625   8
  -9   0  -1 391.410 297.820   4
  -9   0  -1 198.080 326.985   9
   9   0   1 452.805 304.632   8
  -9   0  -2 474.540 276.717   4
   9   0   2 610.355 342.237   8
  -9   0  -3-100.758 285.435   4
   9   0   3 389.636 405.300   8
  -9   0  -4 540.742 343.720   4
   9   0   4 385.266 380.508   8
   9  -1 -13 3722.26 726.681   7
   9   1 -13 4384.44 757.757  10
   9  -1 -13 2955.43 648.580  10
  -9  -1  13 3289.71 661.187   9
  -9   1  13 4775.62 784.188   9
   9  -1 -12 4698.46 734.824   7
   9   1 -12 4256.21 715.219  10
   9  -1 -12 3663.26 656.406  10
  -9  -1  12 3781.54 705.445   9
  -9   1  12 5452.68 796.249   9
   9  -1 -11 8125.91 863.541   7
   9   1 -11 8801.98 974.327  10
   9  -1 -11 8487.47 966.739  10
  -9  -1  11 8827.72 951.323   9
  -9   1  11 6738.82 830.453   9
   9  -1 -10 8618.08 833.012   7
   9   1 -10 9346.73 964.883  10
   9  -1 -10 10346.1 1014.16  10
  -9  -1  10 10509.2 1016.71   9
  -9   1  10 8273.76 893.211   9
   9  -1  -9 15423.2 1014.80   7
   9   1  -9 14980.1 1177.65  10
   9  -1  -9 17270.0 1256.25  10
  -9  -1   9 14511.4 1150.03   9
  -9   1   9 16280.4 1215.37   9
   9   1  -8 109.579 217.046  10
   9  -1  -8 148.658 236.391  10
  -9  -1   8 384.670 248.039   9
  -9   1   8 196.057 240.099   9
   9   1  -7 28321.9 1539.12  10
   9  -1  -7 26272.8 1497.33  10
  -9  -1   7 25631.1 1471.91   9
  -9   1   7 26369.3 1495.48   9
   9   1  -6 2438.85 454.094  10
   9  -1  -6 2086.76 409.856  10
  -9  -1   6 2130.83 419.801   9
  -9   1   6 2395.07 530.803   9
   9   1  -6 2951.81 358.248   8
  -9  -1   6 2411.82 385.702   4
  -9   1   6 2434.46 339.445   4
   9   1  -5 2568.35 444.379  10
   9  -1  -5 2122.95 399.473  10
  -9  -1   5 2121.20 426.375   9
  -9   1   5 2643.24 478.942   9
   9   1  -5 2155.83 334.845   8
  -9  -1   5 2695.82 407.309   4
   9  -1  -5 2558.73 361.344   8
  -9   1   5 3027.70 394.071   4
   9   1  -4 6690.18 703.188  10
   9  -1  -4 7260.10 753.488  10
  -9  -1   4 6186.97 674.643   9
  -9   1   4 7139.35 755.647   9
  -9  -1   4 6943.98 678.303   4
  -9   1   4 7029.46 637.423   4
   9   1  -4 6286.82 609.529   8
   9  -1  -4 6686.52 615.937   8
   9   1  -3 11596.0 911.512  10
   9  -1  -3 10751.9 928.667  10
  -9  -1   3 9833.05 851.148   9
  -9   1   3 9905.21 906.667   9
  -9  -1   3 10687.2 880.042   4
  -9   1   3 10126.9 806.401   4
   9   1  -3 8702.98 771.187   8
   9  -1  -3 8969.86 782.806   8
  -9   1   2 2801.36 459.974   4
   9   1  -2 3288.23 503.372  10
   9   1  -2 2564.90 395.388   3
  -9  -1   2 2493.18 446.435   9
  -9   1   2 2780.84 505.723   9
   9   1  -2 3215.02 530.248   8
   9  -1  -2 3031.51 509.665   8
  -9  -1   2 2545.26 474.401   4
   9   1  -1 25782.2 1426.95  10
  -9  -1   1 28275.3 1506.07   9
  -9   1   1 25876.1 1531.30   9
  -9  -1   1 26752.0 1536.46   4
  -9   1   1 25962.5 1463.00   4
   9   1  -1 26913.5 1540.66   8
   9  -1  -1 27853.8 1558.63   8
  -9  -1   0 420.498 296.136   4
  -9   1   0 779.782 359.736   4
  -9  -1   0 819.744 314.402   9
  -9   1   0 659.906 367.049   9
   9   1   0 691.012 363.870   8
   9  -1   0 512.642 341.802   8
  -9  -1  -1 51.9118 233.633   4
  -9   1  -1-97.6658 280.158   4
  -9  -1  -1 223.209 232.140   9
   9   1   1 1068.12 423.404   8
   9  -1   1 872.982 401.248   8
  -9  -1  -2 815.388 370.515   4
  -9   1  -2 899.178 367.689   4
  -9  -1  -2 615.810 317.507   9
   9   1   2 1033.69 460.736   8
   9  -1   2 463.795 376.648   8
  -9  -1  -3 1777.68 524.568   4
  -9   1  -3 761.795 375.067   4
   9   1   3 1646.27 569.604   8
   9  -1   3 1305.17 474.505   8
  -9  -1  -4 256.763 298.233   4
  -9   1  -4 503.827 347.397   4
   9   1   4 496.713 432.455   8
   9  -1   4 400.311 413.890   8
   9  -2 -14 187.439 389.287   7
   9  -2 -13-248.560 278.590   7
   9   2 -13 1017.23 496.772  10
   9  -2 -13 260.455 235.509  10
  -9  -2  13 366.742 348.992   9
  -9   2  13 319.063 345.312   9
   9  -2 -12 373.843 244.328   7
   9   2 -12 274.717 330.536  10
   9  -2 -12 312.204 335.204  10
  -9  -2  12 421.329 301.096   9
  -9   2  12 85.4224 274.954   9
   9  -2 -11 9180.43 942.235   7
   9  -2 -11 8579.60 952.280  10
   9   2 -11 6218.87 836.082  10
  -9  -2  11 8087.64 952.529   9
  -9   2  11 8746.43 940.545   9
   9  -2 -10 447.519 248.274   7
   9   2 -10 193.183 234.621  10
   9  -2 -10 417.759 317.022  10
  -9  -2  10 382.817 298.434   9
  -9   2  10 472.446 287.371   9
   9  -2  -9-76.9565 177.013   7
   9   2  -9 598.962 312.098  10
   9  -2  -9 219.127 244.703  10
  -9  -2   9 323.443 251.784   9
  -9   2   9 125.397 219.034   9
   9  -2  -8 2910.31 444.388   7
   9   2  -8 1898.56 432.632  10
   9  -2  -8 2268.37 467.289  10
  -9  -2   8 1607.76 388.156   9
  -9   2   8 1580.67 391.126   9
   9  -2  -8 1887.76 359.717   1
   9  -2  -7 2468.53 353.375   1
   9  -2  -7 1818.66 321.084   7
   9   2  -7 2814.81 512.462  10
   9  -2  -7 1599.95 411.726  10
  -9  -2   7 2708.52 507.445   9
  -9   2   7 2591.42 472.636   9
   9  -2  -6 73.4259 140.587   1
   9   2  -6 741.685 284.813  10
   9  -2  -6 766.974 295.977  10
  -9  -2   6 597.058 267.439   9
  -9   2   6 515.619 221.424   9
   9   2  -6 314.312 193.789   8
  -9   2   5 1201.12 255.212   4
   9   2  -5 1853.14 378.778  10
   9  -2  -5 1405.73 377.555  10
   9  -2  -5 1806.35 296.878   1
  -9  -2   5 1102.46 312.967   9
  -9   2   5 1446.41 389.844   9
  -9  -2   5 1599.29 349.711   4
   9   2  -5 1079.62 246.151   8
   9  -2  -5 1145.30 266.980   8
  -9   2   4 1465.53 299.307   4
   9   2  -4 1525.04 362.993  10
   9  -2  -4 1562.98 405.993  10
  -9  -2   4 1557.52 382.824   9
  -9   2   4 1413.71 375.204   9
   9  -2  -4 1081.81 254.538   1
   9   2  -4 1771.81 364.226   8
  -9  -2   4 1717.93 374.867   4
   9  -2  -4 1814.42 365.135   8
   9   2  -3 32222.4 1561.17  10
   9  -2  -3 35411.5 1756.49  10
  -9  -2   3 32957.3 1585.42   9
  -9   2   3 32129.5 1706.20   9
  -9  -2   3 30960.5 1595.57   4
   9   2  -3 31933.5 1553.75   8
  -9   2   3 31581.4 1448.93   4
   9  -2  -3 35220.2 1591.99   8
  -9   2   2 320.541 229.443   4
   9   2  -2 99.8178 174.245  10
   9   2  -2 405.571 230.842   3
  -9  -2   2 426.881 253.045   9
  -9   2   2 659.489 323.710   9
   9   2  -2 92.7162 202.722   8
  -9  -2   2 642.777 320.007   4
   9  -2  -2 155.414 232.091   8
  -9   2   1 1667.99 395.258   4
   9   2  -1 2148.02 442.200  10
   9   2  -1 2036.35 365.297   3
  -9  -2   1 2467.12 453.645   9
  -9   2   1 2173.93 461.660   9
   9   2  -1 1863.47 471.286   8
   9  -2  -1 1584.70 402.429   8
  -9  -2   1 1914.30 440.357   4
  -9  -2   0 383.763 291.104   4
  -9   2   0 66.9279 217.289   4
   9   2   0 172.236 218.175  10
  -9  -2   0 580.864 293.171   9
   9   2   0 792.508 332.343   8
   9  -2   0 727.590 363.060   8
  -9  -2  -1 388.167 283.208   4
  -9   2  -1 400.136 285.356   4
  -9  -2  -1 448.658 286.076   9
   9   2   1-24.7059 245.560   8
  -9  -2  -2 21.3769 215.465   4
  -9   2  -2-166.923 273.591   4
   9   2   2 46.8646 388.799   8
   9  -2   2 105.114 327.187   8
  -9  -2  -3 30056.0 1936.69   4
   9   2   3 27348.5 1868.39   8
   9  -2   3 28919.3 1908.53   8
  -9   2  -3 25339.1 1765.82   4
  -9  -2  -4 630.919 420.054   4
  -9   2  -4 869.242 419.966   4
   9   2   4 1251.06 510.717   8
   9  -2   4 780.060 430.878   8
   9  -3 -13 15889.1 1449.75   7
   9  -3 -13 19232.7 1491.20  10
  -9   3  13 16966.9 1397.96   9
   9  -3 -12 1745.07 531.746   7
   9   3 -12 1176.14 466.512  10
   9  -3 -12 658.614 348.090  10
  -9  -3  12 951.280 425.200   9
  -9   3  12 1125.30 453.082   9
   9  -3 -11 7778.68 894.892   7
   9   3 -11 9303.89 1049.43  10
   9  -3 -11 10223.5 1020.88  10
  -9  -3  11 9285.94 1048.83   9
  -9   3  11 9191.27 960.577   9
   9  -3 -10 765.364 346.055   7
   9   3 -10 736.422 348.918  10
   9  -3 -10 1028.15 385.908  10
  -9  -3  10 845.969 355.965   9
  -9   3  10 957.056 396.433   9
   9  -3  -9 1372.95 398.922   7
  -9  -3   9 885.722 375.714   2
   9   3  -9 876.821 319.454  10
   9  -3  -9 1023.46 371.754  10
  -9  -3   9 912.583 353.383   9
  -9   3   9 696.112 331.677   9
   9  -3  -9 658.248 307.005   1
   9  -3  -8 3329.84 477.201   7
  -9  -3   8 3162.62 544.530   2
   9   3  -8 3178.64 562.269  10
   9  -3  -8 2836.06 524.205  10
  -9  -3   8 3040.76 538.753   9
  -9   3   8 2378.86 479.638   9
   9  -3  -8 3404.30 516.028   1
   9  -3  -7 37638.7 1590.11   7
   9   3  -7 36619.7 1794.64  10
   9  -3  -7 33419.5 1752.59  10
   9  -3  -7 36979.7 1566.88   1
  -9  -3   7 35958.5 1778.84   9
  -9   3   7 35730.5 1802.40   9
  -9  -3   7 29522.1 1687.64   2
   9  -3  -6 2542.88 403.938   1
  -9  -3   6 3168.80 540.146   2
   9   3  -6 4566.90 605.726  10
   9  -3  -6 2788.95 490.024  10
  -9  -3   6 4021.99 569.747   9
  -9   3   6 2592.93 489.590   9
   9   3  -6 3497.76 441.495   8
   9   3  -5 9024.71 806.676  10
   9  -3  -5 9014.26 887.780  10
   9  -3  -5 9503.04 735.773   1
  -9  -3   5 8996.74 805.753   9
  -9   3   5 8444.32 869.637   9
   9   3  -5 9826.43 762.264   8
   9  -3  -5 10005.3 726.875   8
  -9   3   4 139.260 172.431   4
   9   3  -4-0.43171 148.894  10
   9  -3  -4 102.915 184.136  10
  -9  -3   4 176.083 203.603   9
  -9   3   4-166.472 201.292   9
   9  -3  -4 798.882 304.251   1
   9   3  -4 270.296 196.604   8
  -9  -3   4 727.229 301.906   4
   9  -3  -4 293.239 228.003   8
   9   3  -3 12194.2 921.136  10
   9   3  -3 9958.99 859.875   3
  -9  -3   3 11959.8 897.494   9
  -9   3   3 11298.3 1016.43   9
   9  -3  -3 10794.9 811.044   1
  -9  -3   3 10766.6 960.072   4
   9   3  -3 10906.3 904.321   8
  -9   3   3 11370.7 801.483   4
   9  -3  -3 9786.17 838.432   8
  -9   3   2 99.2514 207.967   4
   9   3  -2 361.580 253.952  10
   9   3  -2 24.3779 206.442   3
   9  -3  -2 548.592 301.567   1
  -9  -3   2 870.672 252.219   9
  -9   3   2 111.050 276.250   9
   9   3  -2 135.763 244.023   8
  -9  -3   2-105.916 231.137   4
   9  -3  -2 177.205 225.411   8
   9   3  -1 50389.6 1967.93  10
   9   3  -1 48383.9 1896.49   3
  -9  -3   1 50583.2 1970.43   9
  -9   3   1 54240.8 2394.63   9
   9  -3  -1 48799.2 1925.09   1
  -9  -3   1 47764.8 2224.73   4
   9   3  -1 44105.3 2097.71   8
  -9   3   1 47777.0 2033.77   4
   9  -3  -1 48001.5 2149.65   8
  -9   3   0 645.213 309.782   4
   9   3   0 1541.67 374.099  10
  -9  -3   0 1542.33 357.759   9
   9  -3   0 1169.01 363.205   1
   9   3   0 1544.78 446.920   8
  -9  -3   0 1325.84 403.115   4
   9  -3   0 1306.67 416.349   8
  -9  -3  -1 3994.62 671.630   4
  -9   3  -1 3486.39 619.811   4
   9   3   1 5873.99 817.657   8
   9  -3   1 4588.71 710.096   8
  -9  -3  -2 524.604 385.023   4
  -9   3  -2 1037.06 418.414   4
   9   3   2 902.396 502.505   8
   9  -3   2 689.748 338.452   8
  -9  -3  -3 11085.7 1178.86   4
   9   3   3 10242.6 1139.50   8
   9  -3   3 11060.0 1189.80   8
  -9   3  -3 8995.68 1068.55   4
  -9  -3  -4 377.720 397.350   4
  -9   3  -4 557.315 394.505   4
   9   3   4-406.105 386.720   8
   9  -3   4 105.098 338.401   8
   9  -4 -13 320.322 373.762   7
   9  -4 -13 344.456 256.529  10
  -9   4  13-185.145 237.006   9
   9  -4 -12 1255.49 456.822   7
   9   4 -12 1517.28 411.457  10
   9  -4 -12 1465.54 445.250  10
  -9  -4  12 1517.43 489.060   9
  -9   4  12 1891.50 477.511   9
   9  -4 -11 8665.36 990.573   7
   9   4 -11 8923.74 1029.43  10
   9  -4 -11 7541.91 885.179  10
  -9  -4  11 6811.67 873.033   2
  -9  -4  11 8859.24 1005.72   9
  -9   4  11 8441.12 935.296   9
   9  -4 -10 1457.07 500.730   7
  -9  -4  10 527.634 334.117   2
   9   4 -10 999.833 399.185  10
   9  -4 -10 1506.63 411.996  10
  -9  -4  10 1306.68 455.069   9
  -9   4  10 1543.53 429.727   9
   9  -4 -10 1106.57 362.315   1
   9  -4  -9 408.553 240.798   7
  -9  -4   9 498.827 311.862   2
   9   4  -9 238.863 259.506  10
   9  -4  -9 936.414 372.310  10
  -9  -4   9 585.961 304.565   9
  -9   4   9 1297.40 398.234   9
   9  -4  -9 802.377 338.695   1
   9  -4  -8 2180.62 432.479   7
  -9  -4   8 1855.41 433.512   2
   9   4  -8 2149.30 479.206  10
   9  -4  -8 1531.79 410.343  10
  -9  -4   8 1887.06 457.883   9
  -9   4   8 1956.72 434.836   9
   9  -4  -8 2577.22 478.049   1
   9  -4  -7 363.020 223.742   1
  -9  -4   7-85.7081 205.524   2
   9  -4  -7 465.319 229.926   7
   9   4  -7 3.58721 227.200  10
   9  -4  -7 200.472 287.946  10
  -9  -4   7 75.7493 224.970   9
  -9   4   7 240.336 268.239   9
  -9  -4   6 769.191 301.887   2
   9  -4  -6 1078.35 297.206   1
   9   4  -6 1341.64 328.022  10
   9  -4  -6 1995.74 464.724  10
  -9  -4   6 1245.38 358.384   9
  -9   4   6 1270.17 399.338   9
   9   4  -6 1286.42 301.678   8
  -9  -4   5 4791.17 639.778   2
   9   4  -5 5613.05 641.673  10
   9  -4  -5 5400.11 695.233  10
   9  -4  -5 5553.36 622.323   1
  -9  -4   5 5803.49 641.966   9
  -9   4   5 5328.40 718.691   9
   9   4  -5 6150.07 641.525   8
   9  -4  -5 5014.78 531.987   8
  -9  -4   4 805.783 286.603   2
   9   4  -4 798.156 254.039  10
   9  -4  -4 326.171 212.284  10
  -9  -4   4 573.143 263.258   9
   9  -4  -4 879.076 312.329   1
  -9   4   4 915.568 357.974   9
   9   4  -4 689.005 299.060   8
   9  -4  -4 745.955 301.890   8
   9   4  -3 15225.6 1005.07  10
   9   4  -3 14643.9 1093.54   3
  -9  -4   3 14974.0 993.011   9
  -9   4   3 14124.1 1178.95   9
   9  -4  -3 15523.9 1065.25   1
  -9  -4   3 15021.0 1156.16   4
   9   4  -3 14250.7 1070.92   8
   9  -4  -3 15320.0 1072.03   8
  -9   4   3 13925.0 895.007   4
   9  -4  -2 2874.87 514.227   8
  -9   4   2 2588.47 431.642   4
   9  -4  -2 2790.31 509.628   1
   9   4  -2 2469.67 431.613  10
   9   4  -2 2567.98 474.104   3
  -9  -4   2 2316.87 387.581   9
  -9   4   2 2918.20 578.066   9
   9   4  -2 3724.00 584.836   8
  -9  -4   2 1908.20 457.499   4
  -9   4   1 1912.27 406.476   4
   9   4  -1 1966.79 417.723   3
   9  -4  -1 1600.22 408.073   1
   9   4  -1 1897.26 466.786   8
  -9  -4   1 1111.64 419.362   4
   9  -4  -1 2251.31 495.480   8
  -9   4   0 2396.82 492.028   4
   9  -4   0 2871.16 510.790   1
   9   4   0 2983.05 472.122   3
  -9  -4   0 3078.84 633.613   4
   9  -4   0 3150.47 597.271   8
  -9   4  -1-204.784 210.289   4
   9   4   1-85.4687 279.031   8
   9  -4   1 38.1093 234.369   1
  -9  -4  -1 30.9843 278.248   4
   9  -4   1 42.9797 236.293   8
  -9  -4  -2 5353.58 839.197   4
   9  -4   2 4416.87 660.162   1
  -9   4  -2 3687.95 672.278   4
   9   4   2 5820.20 856.441   8
   9  -4   2 6179.43 889.730   8
  -9  -4  -3 7066.31 950.730   4
  -9   4  -3 7827.04 984.883   4
   9   4   3 9105.49 1087.91   8
   9  -4   3 8650.74 1066.74   8
   9  -5 -12 5202.86 850.011   7
  -9  -5  12 3506.50 676.725   2
   9   5 -12 4251.41 758.327  10
   9  -5 -12 4368.39 720.170  10
  -9  -5  12 4379.59 809.801   9
  -9   5  12 4417.26 696.955   9
   9  -5 -11 753.651 394.552   7
  -9  -5  11 651.535 356.754   2
   9   5 -11 540.226 312.591  10
   9  -5 -11 635.830 356.297  10
  -9  -5  11 219.901 359.223   9
  -9   5  11 584.662 392.800   9
   9  -5 -11 308.308 239.653   1
   9  -5 -10 7191.67 886.609   7
  -9  -5  10 6744.28 878.894   2
   9   5 -10 5607.92 797.014  10
   9  -5 -10 6142.33 810.511  10
  -9  -5  10 6510.52 876.266   9
  -9   5  10 6466.66 800.722   9
   9  -5 -10 6088.60 794.535   1
  -9  -5   9 494.526 344.516   2
   9  -5  -9 520.179 311.779   7
   9   5  -9 88.8214 225.445  10
   9  -5  -9 201.536 261.686  10
  -9  -5   9 513.420 310.073   9
  -9   5   9 906.801 366.344   9
   9  -5  -9 313.978 310.231   1
   9  -5  -8 2930.00 518.192   1
  -9  -5   8 2162.46 513.734   2
   9  -5  -8 3055.81 556.240   7
   9   5  -8 1966.57 453.378  10
   9  -5  -8 3116.66 551.551  10
  -9  -5   8 2362.55 480.060   9
  -9   5   8 2675.79 507.969   9
   9  -5  -7 1585.64 409.113   1
  -9  -5   7 1783.85 444.288   2
   9   5  -7 2278.39 463.903  10
   9  -5  -7 861.702 326.893  10
  -9  -5   7 2404.81 478.690   9
  -9   5   7 2160.24 482.207   9
   9   5  -6 9768.25 870.836  10
   9  -5  -6 7039.32 811.844  10
   9  -5  -6 7235.94 765.990   1
  -9  -5   6 8359.41 809.485   9
  -9   5   6 8050.95 885.407   9
   9   5  -6 8471.20 778.300   8
  -9  -5   6 7249.96 849.333   2
   9   5  -5 8756.79 803.173  10
   9  -5  -5 8432.22 885.935  10
   9  -5  -5 7772.16 784.287   1
  -9  -5   5 8429.45 776.011   9
  -9   5   5 6734.23 825.295   9
   9   5  -5 7236.23 740.282   8
  -9  -5   5 6496.04 787.473   2
   9  -5  -4 2099.16 426.036   8
  -9  -5   4 1325.44 353.836   2
   9   5  -4 2597.05 448.378  10
   9  -5  -4 2267.66 486.267  10
   9   5  -4 1520.92 404.016   3
  -9  -5   4 2393.03 416.105   9
   9  -5  -4 3049.50 541.376   1
  -9   5   4 2455.02 525.991   9
   9   5  -4 1454.76 362.209   8
   9   5  -3 8194.02 722.801  10
  -9  -5   3 5709.33 724.154   2
   9   5  -3 7009.58 810.517   3
  -9  -5   3 6482.37 646.358   9
  -9   5   3 7935.94 923.073   9
   9  -5  -3 7672.97 800.820   1
  -9  -5   3 6270.31 798.951   4
   9   5  -3 8398.48 849.704   8
   9  -5  -3 7419.67 774.594   8
   9  -5  -2 1360.96 471.058   8
   9  -5  -2 1195.61 425.151   1
   9   5  -2 1258.01 378.184   3
  -9   5   2 1262.93 413.086   9
   9   5  -2 1234.63 336.023   8
  -9  -5   2 1006.28 364.096   4
   9  -5  -1 1952.75 533.832   8
  -9   5   1 823.843 313.797   4
   9  -5  -1 1218.42 433.671   1
   9   5  -1 795.413 322.670   3
   9   5  -1 951.731 320.769   8
  -9  -5   1 969.753 440.354   4
   9  -5   0 1271.89 437.430   8
   9  -5   0 703.736 381.499   1
  -9   5   0 506.606 314.575   4
   9   5   0 1054.13 458.240   3
   9   5   0 934.901 439.570   8
  -9  -5   0 1132.12 398.243   4
   9  -5   1 1220.00 523.839   8
  -9   5  -1 483.573 292.276   4
   9  -5   1 918.516 351.779   1
   9   5   1 1024.89 403.058   8
  -9  -5  -1 1888.29 527.865   4
  -9  -5  -2 454.733 352.931   4
  -9   5  -2 100.846 294.406   4
   9  -5   2 123.521 229.046   1
   9   5   2 553.890 342.371   8
   9  -5   2 386.732 372.766   8
  -9  -5  -3 423.608 385.245   4
  -9   5  -3 256.718 320.515   4
   9  -5   3-24.9284 279.644   1
   9   5   3 513.254 421.128   8
   9  -5   3 205.490 403.040   8
   9  -6 -12 607.726 416.145   7
  -9  -6  12 803.682 427.250   2
  -9   6  12 24.0410 257.472   5
   9  -6 -12 806.343 437.499   1
   9  -6 -11 1788.39 534.321   7
  -9  -6  11 1676.59 457.266   2
   9   6 -11 2409.64 626.143  10
   9  -6 -11 2151.58 536.597  10
  -9   6  11 684.250 362.777   5
  -9  -6  11 1612.11 521.150   9
  -9   6  11 1496.99 431.198   9
   9  -6 -11 1226.63 433.808   1
  -9  -6  10 3236.56 669.280   2
   9  -6 -10 2534.57 609.289   7
   9   6 -10 2795.46 600.370  10
   9  -6 -10 3118.72 609.189  10
  -9   6  10 2731.49 617.224   5
  -9  -6  10 3200.84 657.971   9
  -9   6  10 3465.16 599.946   9
   9  -6 -10 3094.62 625.553   1
   9  -6  -9 1218.34 428.360   1
  -9  -6   9 1578.20 456.241   2
   9  -6  -9 1353.03 409.545   7
   9   6  -9 1141.55 398.137  10
   9  -6  -9 1493.56 439.154  10
  -9  -6   9 1710.23 478.201   9
  -9   6   9 1523.49 422.071   9
   9  -6  -8 1146.53 414.923   1
  -9  -6   8 1907.78 501.614   2
   9   6  -8 1742.16 445.786  10
   9  -6  -8 923.105 338.621  10
  -9  -6   8 1188.07 424.276   9
  -9   6   8 499.267 290.914   9
  -9  -6   7 1963.49 514.103   2
   9  -6  -7 2137.95 487.828   1
   9   6  -7 2083.85 455.469  10
   9  -6  -7 2326.10 513.750  10
  -9  -6   7 2397.76 497.872   9
  -9   6   7 1363.23 404.825   9
  -9  -6   6 5864.97 774.549   2
   9   6  -6 6542.53 721.814  10
   9  -6  -6 5365.11 714.964   1
   9  -6  -6 5721.95 757.933  10
  -9  -6   6 6091.43 700.925   9
  -9   6   6 6028.53 779.278   9
  -9  -6   5 2605.74 549.827   2
   9   6  -5 3697.76 524.913  10
   9  -6  -5 2905.33 526.192  10
   9   6  -5 1891.88 490.135   3
   9  -6  -5 2922.14 550.238   1
  -9  -6   5 3322.63 500.801   9
  -9   6   5 2583.84 563.683   9
   9   6  -5 3082.52 512.359   8
  -9  -6   4 1273.90 461.627   2
   9  -6  -4 1368.36 413.917  10
   9   6  -4 568.542 334.736   3
   9  -6  -4 1562.30 456.020   1
  -9   6   4 1001.06 408.804   9
   9   6  -4 885.032 374.885   8
  -9  -6   3 243.362 222.025   2
   9   6  -3 525.350 280.288   3
  -9   6   3 796.615 374.948   9
   9   6  -3 397.215 288.134   8
   9  -6  -3 785.090 355.194   1
   9  -6  -2 4174.17 677.561   1
  -9  -6   2 3141.72 557.685   2
   9   6  -2 3516.76 594.685   3
  -9   6   2 4245.50 735.911   9
   9   6  -2 4349.89 679.962   8
  -9  -6   2 3787.64 658.924   4
   9  -6  -1 884.932 373.034   8
   9  -6  -1 1004.71 373.010   1
   9   6  -1 535.581 284.922   3
   9   6  -1 294.754 279.563   8
  -9  -6   1 431.706 421.384   4
   9  -6   0 1165.31 439.877   8
  -9   6   0 1229.67 406.468   4
   9   6   0 2464.54 499.054   3
   9  -6   0 1665.53 508.160   1
   9   6   0 1299.99 488.966   8
  -9  -6   0 1221.44 455.290   4
   9  -6   1 6029.49 904.997   8
  -9   6  -1 5334.34 761.320   4
   9  -6   1 6174.35 860.201   1
   9   6   1 5732.39 866.937   8
  -9  -6  -1 6198.54 897.833   4
   9  -6   2 97.3487 314.803   8
  -9   6  -2-74.0324 228.261   4
   9   6   2 197.761 368.962   8
   9  -6   2 190.960 337.844   1
  -9  -6  -2 1082.34 471.779   4
  -9   6  -3 2101.79 578.948   4
   9  -6   3 2353.68 526.143   1
  -9  -7  11 8399.04 1062.39   2
   9  -7 -11 9316.91 1140.72   7
   9  -7 -11 9856.36 1159.09   1
  -9   7  11 7318.98 962.720   5
   9  -7 -10 572.292 400.371   1
  -9  -7  10 1007.67 379.573   2
   9  -7 -10 1074.24 453.860   7
   9   7 -10 713.255 408.477  10
  -9  -7  10 204.422 310.951   9
   9  -7  -9 8457.56 1007.60   7
   9   7  -9 9217.64 982.947  10
   9  -7  -9 9756.38 988.286  10
   9  -7  -9 10412.3 1103.54   1
  -9  -7   9 8787.22 983.859   9
  -9   7   9 10469.6 1006.81   9
  -9  -7   9 11109.8 1158.56   2
  -9  -7   8 6203.50 864.614   2
   9  -7  -8 6873.90 863.752   1
   9  -7  -8 6791.36 817.265  10
   9   7  -8 5743.19 759.181  10
  -9   7   8 6503.69 800.070   9
  -9  -7   8 5230.37 715.537   9
   9   7  -7 25909.8 1533.53  10
   9  -7  -7 24028.7 1582.10  10
   9   7  -7 26288.2 1819.71   3
   9  -7  -7 26473.9 1711.56   1
  -9  -7   7 23390.9 1479.28   9
  -9   7   7 27547.9 1687.37   9
  -9  -7   7 26700.8 1768.65   2
  -9  -7   6 83.5878 263.304   2
   9  -7  -6 471.180 354.188   1
   9  -7  -6 756.457 304.259  10
   9   7  -6 154.842 364.275   3
  -9   7   6-7.85715 274.573   9
   9  -7  -5 15018.4 1254.26  10
   9   7  -5 13852.2 1271.25   3
   9  -7  -5 15814.2 1287.65   1
  -9   7   5 14636.1 1264.83   9
   9   7  -5 15414.5 1213.96   8
  -9  -7   5 14379.3 1254.37   2
  -9  -7   4 875.499 375.656   2
   9  -7  -4 1317.33 424.595  10
   9   7  -4 907.969 355.895   3
   9  -7  -4 433.841 363.361   1
  -9   7   4 997.834 374.975   9
   9   7  -4 916.147 380.903   8
   9   7  -3 13840.2 1238.32   3
  -9   7   3 15647.3 1355.37   9
   9  -7  -3 12451.2 1168.67   1
   9   7  -3 14562.0 1233.14   8
  -9  -7   3 14015.5 1220.15   2
   9  -7  -2-125.669 277.908   1
  -9  -7   2 4.52368 225.844   2
   9   7  -2-35.6426 223.953   3
  -9   7   2 250.317 330.715   9
   9   7  -2 14.3753 235.138   8
  -9  -7   2 11.8780 269.833   4
   9   7  -1 16222.8 1315.96   3
   9  -7  -1 18903.6 1497.69   1
  -9  -7   1 20601.2 1582.10   4
   9   7  -1 19189.7 1503.58   8
  -9  -7   1 17732.7 1354.77   2
   9  -7   0 1001.93 484.233   1
   9   7   0 597.415 359.438   8
  -9  -7   0 180.012 313.624   4
   9  -7   1 2520.19 679.145   8
   9  -7   1 1864.56 556.636   1
   9   7   1 1318.84 506.097   8
  -9  -7  -1 1294.97 491.626   4
  -9   7  -2-102.421 248.900   4
   9  -7   2 470.342 356.066   1
   9   8 -10 2688.29 604.940  10
  -9  -8  10 3288.46 643.447   9
  -9  -8   9 115.656 290.774   2
   9  -8  -9 369.492 430.656   1
   9  -8  -9-384.170 385.686   7
   9   8  -9 241.396 267.813  10
   9   8  -9 529.349 455.221   3
  -9  -8   9 385.952 253.634   9
  -9  -8   8 729.592 418.797   2
   9  -8  -8 167.115 270.790   1
   9  -8  -8 90.1268 256.149  10
   9   8  -8-88.9655 287.305   3
  -9   8   8 231.001 364.460   9
  -9  -8   7 919.729 403.759   2
   9  -8  -7 670.598 379.632   1
   9  -8  -7 516.839 309.964  10
   9   8  -7 1684.14 530.979   3
  -9   8   7 845.946 358.582   9
  -9  -8   6 63.6574 322.643   2
   9  -8  -6 770.190 382.192  10
   9  -8  -6-226.595 326.539   1
   9   8  -6 492.064 354.929   3
  -9   8   6-32.3256 224.743   9
  -9  -8   5 2094.57 539.505   2
   9  -8  -5 2100.82 525.918  10
   9   8  -5 2535.70 613.714   3
   9  -8  -5 2786.83 623.865   1
  -9   8   5 1930.85 487.671   9
  -9  -8   4 3609.38 670.148   2
   9  -8  -4 3327.79 674.552  10
   9   8  -4 3042.92 658.260   3
   9  -8  -4 3613.27 664.690   1
  -9   8   4 3810.24 695.397   9
   9   8  -4 4072.27 688.499   8
   9   8  -3 9137.42 1063.84   3
  -9   8   3 10668.3 1166.42   9
   9  -8  -3 10615.1 1159.61   1
   9   8  -3 10060.6 1070.81   8
  -9  -8   3 8917.04 1018.73   2
   9  -8  -2 1054.92 491.600   1
  -9  -8   2 1107.92 437.912   2
   9   8  -2 1316.72 460.620   3
  -9   8   2 1690.23 545.463   9
   9   8  -2 813.958 381.798   8
  -9  -8   2 1408.58 517.698   4
  -9  -8   1-288.544 340.670   2
   9  -8  -1 765.896 409.148   1
   9   8  -1 641.197 390.869   3
   9   8  -1 316.548 354.748   8
  -9  -8   1 986.732 461.897   4
   9  -8   0 957.274 469.192   1
   9   8   0-26.7163 263.109   8
  -9  -8   0 741.267 433.603   4
   9  -8   1 1126.76 483.021   1
   9  -9  -8 4589.98 830.212   1
   9  -9  -7 7940.53 1083.67   1
  -9  -9   6 5211.70 845.025   2
   9  -9  -6 2918.65 594.100  10
   9  -9  -6 3480.79 721.571   1
   9   9  -6 3623.10 731.933   3
  -9   9   6 3861.98 696.037   9
  -9  -9   5 1156.10 440.595   2
   9  -9  -5 958.979 494.212  10
   9   9  -5 316.752 267.861   3
   9  -9  -5 518.097 352.396   1
  -9   9   5 695.226 329.259   9
  -9  -9   4 162.894 255.167   2
   9  -9  -4-289.337 263.697  10
   9   9  -4 112.650 289.416   3
  -9   9   4 195.186 321.452   9
   9  -9  -4-493.410 406.099   1
  -9  -9   3 691.298 391.318   2
   9   9  -3 1205.94 415.294   3
  -9   9   3 252.445 307.109   9
   9   9  -3 1011.52 499.701   8
   9  -9  -3 642.967 377.535   1
   9  -9  -2 696.890 488.127   1
  -9  -9   2 684.439 350.343   2
   9   9  -2 566.840 415.001   3
  -9  -9   2 615.525 381.449   4
  -9   9   2 1927.79 605.470   9
   9   9  -2 1279.16 488.663   8
   9  -9  -1 9485.49 1203.58   1
   9   9  -1 10954.2 1183.63   3
   9 -10  -4 1200.58 442.118  10
  -9  10   4 651.502 301.684   9
  -9  10   3 2208.14 635.391   9
  10   0 -13 1440.80 541.248  10
 -10   0  13 265.669 353.346   9
  10   0 -12 1865.78 541.111  10
 -10   0  12 1899.61 504.152   9
  10   0 -11 376.516 341.351  10
 -10   0  11-81.6995 278.534   9
  10   0 -10 5786.96 770.573  10
 -10   0  10 5372.05 746.946   9
  10   0  -9 16.2431 237.127  10
 -10   0   9 427.869 320.441   9
  10   0  -8 1077.10 389.843  10
 -10   0   8 859.521 319.837   9
  10   0  -7 27.2653 316.705  10
 -10   0   7 109.886 258.998   9
  10   0  -6 24219.4 1485.22  10
 -10   0   6 22265.5 1431.46   9
 -10   0   6 23889.3 1228.82   4
  10   0  -5 341.217 221.890  10
 -10   0   5-22.4416 244.460   9
  10   0  -5 133.929 207.578   8
 -10   0   5 106.593 189.673   4
  10   0  -4 2173.00 446.568  10
 -10   0   4 1856.08 444.829   9
  10   0  -4 1797.03 360.369   8
 -10   0   4 1800.33 365.827   4
 -10   0   3 331.920 281.595   4
  10   0  -3-58.0091 177.673  10
 -10   0   3-67.6431 176.823   9
  10   0  -3 219.794 270.990   8
  10   0  -2 44652.1 2081.08  10
 -10   0   2 45140.5 2113.07   9
 -10   0   2 45929.5 2090.84   4
  10   0  -2 47712.3 2129.39   8
 -10   0   1 60.2048 184.302   4
 -10   0   1 134.844 212.241   9
 -10   0   0 36519.8 1955.10   9
 -10   0   0 35224.7 1936.29   4
  10   0   0 37472.3 2023.07   8
 -10   0  -1 323.470 246.241   4
 -10   0  -1-226.964 225.818   9
  10   0   1 241.542 229.004   8
 -10   0  -2 323.892 350.411   4
 -10   0  -2-122.253 226.974   9
  10   0   2-72.4390 324.186   8
 -10   0  -3 406.023 341.534   4
 -10   0  -3 294.779 407.915   9
  10   0   3-135.274 283.324   8
  10  -1 -13 210.630 339.542  10
 -10   1  13 1064.75 419.333   9
  10   1 -12 12186.9 1210.71  10
  10  -1 -12 13402.0 1250.05  10
 -10  -1  12 11276.7 1184.84   9
 -10   1  12 13528.4 1256.68   9
  10   1 -11 860.638 309.458  10
  10  -1 -11 1091.71 390.103  10
 -10  -1  11 313.022 329.056   9
 -10   1  11 1244.04 429.466   9
  10   1 -10 20026.6 1461.38  10
  10  -1 -10 19084.6 1426.56  10
 -10  -1  10 18697.6 1420.58   9
 -10   1  10 18469.5 1397.13   9
  10   1  -9 3013.29 569.628  10
  10  -1  -9 3291.65 591.563  10
 -10  -1   9 3226.11 599.145   9
 -10   1   9 3868.23 650.297   9
  10   1  -8 356.562 264.487  10
  10  -1  -8 800.869 320.977  10
 -10  -1   8 1083.59 392.911   9
 -10   1   8 549.387 312.068   9
  10   1  -7 813.588 304.122  10
  10  -1  -7 1154.77 348.844  10
 -10  -1   7 1352.49 396.620   9
 -10   1   7 928.991 356.304   9
 -10  -1   7 1141.00 333.985   4
  10   1  -6 13908.4 1093.47  10
  10  -1  -6 13532.8 1110.81  10
 -10  -1   6 12751.9 1059.86   9
 -10   1   6 14496.4 1150.70   9
 -10  -1   6 13431.8 959.126   4
 -10   1   5 1221.75 321.663   4
  10   1  -5 1142.50 342.412  10
  10  -1  -5 924.506 318.589  10
 -10  -1   5 1454.04 389.978   9
 -10   1   5 642.122 320.337   9
  10   1  -5 2076.57 398.883   8
  10  -1  -5 1217.17 304.417   8
 -10  -1   5 1293.04 318.002   4
  10   1  -4 8861.46 859.038  10
  10  -1  -4 8006.36 864.163  10
 -10  -1   4 9986.64 916.921   9
 -10   1   4 7729.15 844.643   9
 -10  -1   4 9343.93 844.132   4
 -10   1   4 7920.52 732.265   4
  10   1  -4 8941.89 796.332   8
  10  -1  -4 8068.56 751.686   8
 -10   1   3 1385.64 364.684   4
  10   1  -3 1395.39 419.139  10
  10  -1  -3 1355.46 355.031  10
 -10  -1   3 1577.02 418.406   9
 -10   1   3 1123.37 368.673   9
  10   1  -3 1250.15 361.848   8
  10  -1  -3 2065.65 439.717   8
 -10  -1   3 720.102 284.226   4
 -10  -1   2 327.221 308.700   4
 -10   1   2 729.336 316.035   4
  10   1  -2 1055.19 360.184  10
  10  -1  -2 1297.49 351.742  10
 -10  -1   2 736.467 313.165   9
 -10   1   2 1171.84 393.289   9
  10   1  -2 500.341 350.501   8
  10  -1  -2 1090.08 367.627   8
 -10  -1   1-23.2244 191.422   4
 -10   1   1 657.622 323.826   4
  10   1  -1 673.815 341.916  10
 -10  -1   1-36.3593 172.925   9
 -10   1   1 124.836 268.241   9
  10   1  -1-151.905 252.286   8
  10   1   0 19855.9 1344.07  10
 -10  -1   0 19031.5 1338.81   9
 -10   1   0 19266.1 1427.64   9
 -10  -1   0 15827.2 1314.07   4
  10   1   0 19663.9 1455.64   8
 -10   1   0 16172.8 1270.34   4
  10  -1   0 19053.4 1414.17   8
 -10  -1  -1 741.710 361.386   4
 -10   1  -1 579.729 362.387   4
 -10  -1  -1 1232.06 436.170   9
 -10   1  -1 663.209 364.331   9
  10   1   1 823.596 417.050   8
  10  -1   1-231.842 255.505   8
 -10  -1  -2-59.0105 310.996   4
 -10   1  -2 1309.69 469.952   4
  10   1   2 640.445 392.989   8
  10  -1   2 386.520 359.030   8
 -10  -1  -3 191.770 314.357   4
 -10   1  -3 371.183 347.082   4
  10   1   3 343.651 392.672   8
  10  -1   3 99.9799 323.728   8
  10  -2 -13 3.84137 311.050  10
 -10   2  13 486.828 310.896   9
  10   2 -12 1788.15 518.071  10
  10  -2 -12 2224.39 548.092  10
 -10  -2  12 2491.19 564.792   9
 -10   2  12 2461.67 541.735   9
  10   2 -11 10617.2 1109.16  10
  10  -2 -11 9623.09 1053.98  10
 -10  -2  11 11108.0 1129.20   9
 -10   2  11 11266.5 1127.97   9
  10   2 -10 904.449 414.250  10
  10  -2 -10 591.352 300.360  10
 -10  -2  10 65.0555 213.935   9
 -10   2  10-223.175 216.934   9
  10   2  -9 3787.11 648.102  10
  10  -2  -9 4133.26 671.953  10
 -10  -2   9 4381.29 690.890   9
 -10   2   9 3612.31 611.688   9
  10   2  -8 607.687 320.447  10
  10  -2  -8 447.869 356.860  10
 -10  -2   8-18.2780 207.150   9
 -10   2   8 674.973 335.565   9
  10   2  -7 7653.63 843.864  10
  10  -2  -7 8718.67 907.099  10
 -10  -2   7 7666.40 833.983   9
 -10   2   7 9079.20 928.129   9
  10   2  -6 5519.33 695.677  10
  10  -2  -6 4253.03 659.802  10
 -10  -2   6 5504.44 681.379   9
 -10   2   6 4606.41 674.865   9
 -10  -2   6 5689.10 667.677   4
  10   2  -6 5079.27 554.731   8
  10   2  -5 17332.0 1222.39  10
  10  -2  -5 19847.3 1368.94  10
 -10  -2   5 19330.6 1283.67   9
 -10   2   5 16204.2 1262.92   9
 -10  -2   5 21359.1 1306.26   4
  10   2  -5 19587.5 1149.27   8
  10  -2  -5 22321.0 1171.75   8
 -10   2   4 404.335 241.012   4
  10   2  -4 586.347 282.569  10
  10  -2  -4 138.245 191.040  10
 -10  -2   4 767.305 318.490   9
 -10   2   4 415.210 322.718   9
  10   2  -4 29.6879 191.968   8
 -10  -2   4 232.301 228.047   4
  10  -2  -4 534.092 277.050   8
 -10   2   3 2429.73 428.568   4
  10   2  -3 1868.80 425.105  10
  10  -2  -3 2615.48 494.823  10
  10   2  -3 1886.59 378.085   3
 -10  -2   3 2073.68 439.248   9
 -10   2   3 2159.27 485.786   9
  10   2  -3 1500.48 386.464   8
 -10  -2   3 1642.49 430.733   4
  10  -2  -3 1781.38 425.266   8
 -10   2   2 2332.11 465.627   4
  10   2  -2 2408.81 446.309  10
 -10  -2   2 3144.40 538.907   9
 -10   2   2 2986.71 618.715   9
  10   2  -2 2666.43 524.901   8
  10  -2  -2 2845.21 528.107   8
 -10  -2   2 2733.50 551.117   4
 -10  -2   1 4254.67 697.273   4
 -10   2   1 2627.30 527.180   4
  10   2  -1 3438.31 544.767  10
 -10  -2   1 4754.67 632.168   9
 -10   2   1 3194.65 593.204   9
  10   2  -1 2406.03 499.916   8
  10  -2  -1 3520.88 642.751   8
 -10  -2   0 562.846 346.003   4
 -10   2   0 335.410 214.567   4
  10   2   0 288.936 245.145  10
 -10  -2   0 393.605 235.740   9
 -10   2   0 829.106 388.962   9
  10   2   0 759.322 351.743   8
  10  -2   0 510.388 323.080   8
 -10  -2  -1 6027.01 861.574   4
 -10   2  -1 5434.47 802.026   4
  10  -2   1 6092.45 892.236   8
 -10  -2  -2 1750.85 480.370   4
 -10   2  -2 1333.36 497.027   4
  10   2   2 2082.15 592.701   8
  10  -2   2 1867.06 547.252   8
 -10  -2  -3 2590.27 659.293   4
 -10   2  -3 2010.07 557.501   4
  10  -2   3 2561.37 677.666   8
  10  -3 -13 1837.26 512.366  10
 -10   3  13 382.665 330.524   9
  10   3 -12 1542.36 513.817  10
  10  -3 -12 1502.51 426.310  10
 -10  -3  12 1639.84 530.621   9
 -10   3  12 1104.58 413.190   9
  10   3 -11 332.185 329.621  10
  10  -3 -11-80.2512 251.571  10
 -10  -3  11 790.291 407.852   9
 -10   3  11 111.886 376.246   9
  10   3 -10 3088.09 604.044  10
  10  -3 -10 2676.80 578.441  10
 -10  -3  10 2521.56 538.999   9
 -10   3  10 3065.96 604.904   9
  10  -3  -9 6802.35 838.114  10
  10   3  -9 5792.73 783.034  10
 -10  -3   9 7159.74 843.242   9
 -10   3   9 5670.87 767.132   9
  10   3  -8 3398.02 574.791  10
  10  -3  -8 3169.17 607.519  10
 -10  -3   8 3025.03 531.128   9
 -10   3   8 4162.96 653.000   9
  10   3  -7 1604.47 465.127  10
  10  -3  -7 689.429 329.410  10
 -10  -3   7 793.239 368.394   9
 -10   3   7 665.578 339.571   9
  10   3  -6 3492.96 554.145  10
  10  -3  -6 3090.69 572.750  10
 -10  -3   6 2988.25 530.627   9
 -10   3   6 2829.01 546.006   9
  10   3  -6 3010.45 437.326   8
  10   3  -5 29.5814 186.260  10
  10  -3  -5 279.390 251.175  10
 -10  -3   5 293.525 230.464   9
 -10   3   5 202.769 303.849   9
  10   3  -5 415.561 246.973   8
 -10  -3   5 651.349 315.014   4
  10   3  -4 2767.73 491.305  10
  10  -3  -4 2257.38 507.046  10
 -10  -3   4 1858.79 401.294   9
 -10   3   4 2355.51 511.234   9
  10   3  -4 2461.86 469.672   8
 -10  -3   4 1886.57 422.659   4
  10  -3  -4 2374.81 426.348   8
 -10   3   3 363.715 214.979   4
  10   3  -3 730.720 265.751  10
  10   3  -3 948.360 320.607   3
 -10  -3   3 999.844 317.911   9
 -10   3   3 669.519 380.481   9
  10   3  -3 543.749 287.483   8
 -10  -3   3 556.309 333.112   4
  10  -3  -3 990.797 380.653   8
 -10   3   2 395.259 206.848   4
  10   3  -2 724.462 271.217  10
  10   3  -2 442.218 222.846   3
 -10  -3   2 409.456 260.630   9
 -10   3   2 1091.44 395.390   9
  10   3  -2 1060.48 376.036   8
 -10  -3   2 876.856 375.263   4
  10  -3  -2 713.587 315.673   8
 -10   3   1 309.054 273.445   4
  10   3  -1 491.707 271.829  10
 -10  -3   1 256.932 239.262   9
 -10   3   1 137.905 375.158   9
  10   3  -1-73.2857 250.724   8
  10  -3  -1-91.3235 278.304   8
 -10  -3   1 136.082 236.902   4
 -10  -3   0 184.302 214.587   4
 -10   3   0-210.582 258.586   4
  10  -3   0 209.191 286.432   8
 -10  -3  -1 472.106 226.920   4
 -10   3  -1 286.795 244.567   4
  10   3   1 565.711 355.968   8
  10  -3   1 720.447 364.631   8
 -10  -3  -2 317.204 388.000   4
 -10   3  -2-151.092 251.918   4
  10   3   2-201.272 271.593   8
  10  -3   2 61.2397 409.298   8
 -10   3  -3 643.622 286.507   4
  10   4 -12 2323.74 584.036  10
  10  -4 -12 3310.98 683.043  10
 -10  -4  12 2980.72 671.531   9
 -10   4  12 3173.39 624.349   9
  10   4 -11 3503.19 676.068  10
  10  -4 -11 2551.90 552.750  10
 -10  -4  11 2518.97 577.131   9
 -10   4  11 3151.54 634.496   9
 -10  -4  10 1216.55 437.906   2
  10   4 -10 1728.43 489.139  10
  10  -4 -10 1238.64 405.593  10
 -10  -4  10 916.518 375.654   9
 -10   4  10 1486.09 454.955   9
 -10  -4   9 489.199 339.725   2
  10   4  -9 383.465 325.045  10
  10  -4  -9 578.010 375.507  10
 -10  -4   9 449.062 298.819   9
 -10   4   9 453.918 363.611   9
 -10  -4   8 1182.74 395.159   2
  10   4  -8 1987.26 497.924  10
  10  -4  -8 1599.58 424.425  10
 -10  -4   8 1367.23 395.351   9
 -10   4   8 1416.29 429.623   9
 -10  -4   7 1688.03 486.492   2
  10   4  -7 1771.89 428.071  10
  10  -4  -7 2483.81 541.853  10
 -10  -4   7 2321.87 461.945   9
 -10   4   7 2538.57 541.665   9
  10   4  -6 12371.0 1034.55  10
  10  -4  -6 10381.3 1013.40  10
 -10  -4   6 10014.8 921.221   9
 -10   4   6 10033.5 1020.84   9
  10   4  -6 10559.5 862.427   8
  10   4  -5 11022.5 947.921  10
  10  -4  -5 9486.48 987.166  10
 -10  -4   5 9240.49 864.657   9
 -10   4   5 10581.1 1050.06   9
  10   4  -5 10329.6 896.824   8
  10   4  -4 7661.91 783.311  10
  10  -4  -4 8587.10 968.444  10
  10   4  -4 9657.93 917.304   3
 -10  -4   4 8624.67 825.958   9
 -10   4   4 8750.91 955.897   9
 -10  -4   4 8562.91 912.715   4
  10   4  -4 7976.80 830.128   8
  10  -4  -4 8826.25 832.988   8
  10   4  -3 322.045 248.179  10
  10   4  -3-96.6159 195.490   3
 -10  -4   3 141.555 213.129   9
 -10   4   3 448.162 331.500   9
  10   4  -3 130.785 259.276   8
 -10  -4   3 133.196 275.316   4
  10  -4  -3-27.3230 272.843   8
  10   4  -2 10982.0 952.308   3
 -10   4   2 12220.6 1185.88   9
 -10  -4   2 10829.3 1084.21   4
  10   4  -2 10221.5 1008.22   8
  10  -4  -2 10469.5 999.564   8
 -10   4   2 10606.7 926.516   4
 -10   4   1-89.1484 203.093   4
 -10   4   1 215.067 341.217   9
  10   4  -1 100.569 311.975   8
 -10  -4   1 353.275 282.102   4
  10  -4  -1 854.969 413.501   8
 -10   4   0 3601.31 611.953   4
  10   4   0 4304.09 767.635   8
  10  -4   0 5149.82 805.424   8
 -10  -4   0 5334.19 822.070   4
 -10  -4  -1 2580.62 615.080   4
 -10   4  -1 1661.15 503.553   4
  10   4   1 2110.33 561.352   8
  10  -4   1 3434.25 712.954   8
 -10  -4  -2 2778.02 652.426   4
 -10   4  -2 2289.49 573.928   4
  10   4   2 3089.75 712.032   8
  10  -4   2 3029.48 675.216   8
  10  -5 -12 7180.86 959.919   7
  10  -5 -12 9083.19 1029.11  10
 -10  -5  12 8362.29 1044.69   2
 -10   5  12 8112.76 978.851   9
  10  -5 -11 3117.92 692.392   7
 -10  -5  11 3552.05 682.075   2
  10   5 -11 2084.35 620.889  10
  10  -5 -11 2877.71 634.655  10
 -10  -5  11 2842.57 659.264   9
 -10   5  11 2279.28 527.537   9
  10  -5 -10 24956.8 1634.44   7
  10   5 -10 25629.7 1728.38  10
  10  -5 -10 23293.3 1610.88  10
 -10  -5  10 23882.1 1672.05   9
 -10   5  10 23551.7 1616.77   9
 -10  -5  10 23575.6 1706.04   2
  10  -5  -9 722.271 358.126   1
  10  -5  -9 268.383 235.525   7
 -10  -5   9 943.651 397.311   2
  10   5  -9 587.482 324.857  10
  10  -5  -9 396.673 344.136  10
 -10  -5   9 591.672 329.751   9
 -10   5   9 757.768 361.259   9
  10  -5  -8 2436.33 489.580   1
  10  -5  -8 2191.99 483.787   7
 -10  -5   8 1740.65 511.739   2
  10   5  -8 1528.10 430.134  10
  10  -5  -8 2260.13 526.759  10
 -10  -5   8 3169.23 581.497   9
 -10   5   8 3018.78 589.798   9
 -10  -5   7 186.983 224.219   2
  10  -5  -7 31.0647 239.464   1
  10   5  -7 217.396 268.211  10
  10  -5  -7 275.019 199.893  10
 -10  -5   7 225.852 202.667   9
 -10   5   7-193.925 236.144   9
  10   5  -6 12964.1 1066.93  10
  10  -5  -6 13763.9 1194.35  10
  10  -5  -6 15356.9 1138.09   1
 -10  -5   6 14740.8 1118.30   9
 -10   5   6 13935.9 1222.93   9
  10   5  -6 13035.6 1012.99   8
 -10  -5   6 11965.5 1131.48   2
 -10  -5   5 387.454 330.021   2
  10   5  -5 259.008 282.355  10
  10  -5  -5 496.449 339.741  10
  10   5  -5 373.572 292.685   3
  10  -5  -5 293.216 292.538   1
 -10  -5   5 184.462 226.850   9
 -10   5   5 374.217 297.070   9
  10   5  -5 445.051 257.219   8
  10   5  -4 13351.6 1014.90  10
  10  -5  -4 13072.5 1204.35  10
  10   5  -4 10811.5 1041.73   3
 -10  -5   4 13703.0 1026.06   9
 -10   5   4 13429.1 1217.11   9
  10  -5  -4 13837.2 1118.28   1
 -10  -5   4 12980.5 1158.95   4
  10   5  -4 12934.1 1088.95   8
  10  -5  -4 12641.9 1012.61   8
  10   5  -3 877.736 302.244   3
 -10   5   3 1503.49 481.575   9
  10   5  -3 777.408 362.686   8
 -10  -5   3 1184.76 448.329   4
  10  -5  -3 1650.51 431.924   8
  10   5  -2 2083.87 462.269   3
 -10   5   2 1491.24 510.405   9
  10   5  -2 1661.54 511.618   8
 -10  -5   2 2594.82 601.097   4
  10  -5  -2 2372.74 519.886   8
  10   5  -1 477.267 283.537   3
 -10   5   1 673.509 330.963   9
  10   5  -1 330.780 296.078   8
 -10  -5   1 98.1860 348.523   4
  10  -5  -1 1239.97 459.780   8
 -10  -5   0 9743.35 1120.63   4
  10   5   0 11969.4 1219.29   8
  10  -5   0 11318.5 1168.12   8
 -10   5   0 7770.41 927.688   4
 -10   5  -1-338.878 288.044   4
  10   5   1 525.925 426.144   8
  10  -5   1 754.948 503.099   8
 -10  -5  -1 651.234 450.099   4
 -10   5  -2 3.15820 298.573   4
  10  -6 -11 1470.23 461.052   7
 -10  -6  11 1389.72 493.151   2
  10   6 -11 2409.90 569.346  10
  10  -6 -11 810.212 343.181  10
 -10   6  11 696.041 383.456   5
 -10  -6  11 1323.77 450.586   9
 -10   6  11 1293.97 419.723   9
  10  -6 -10 3311.32 640.377   1
  10  -6 -10 4064.38 726.127   7
 -10  -6  10 2798.07 604.954   2
  10   6 -10 3730.44 663.614  10
  10  -6 -10 3477.91 635.872  10
 -10  -6  10 2779.39 619.441   9
 -10   6  10 2658.11 567.507   9
  10  -6  -9 2384.89 549.061   1
 -10  -6   9 2958.49 650.019   2
  10  -6  -9 3413.96 630.036   7
  10   6  -9 2766.87 588.542  10
  10  -6  -9 3887.15 668.858  10
 -10  -6   9 3340.29 633.816   9
 -10   6   9 3402.34 610.039   9
 -10  -6   8 345.576 350.304   2
  10  -6  -8 692.299 338.475   7
  10  -6  -8 1540.61 451.225   1
  10   6  -8 681.676 366.354  10
  10  -6  -8 515.426 370.879  10
 -10  -6   8 758.495 345.610   9
 -10   6   8 483.325 367.276   9
 -10  -6   7 2266.97 565.152   2
  10   6  -7 1398.10 392.137  10
  10  -6  -7 1399.35 429.252   1
  10  -6  -7 1775.16 498.280  10
 -10  -6   7 1749.80 442.050   9
 -10   6   7 994.370 383.470   9
  10   6  -6 8550.56 865.594  10
  10  -6  -6 9009.76 1001.50  10
  10   6  -6 6829.98 915.289   3
 -10  -6   6 7103.67 778.011   9
  10  -6  -6 8112.53 898.220   1
 -10   6   6 8080.18 961.614   9
  10   6  -6 8424.70 872.720   8
 -10  -6   6 8810.59 1000.23   2
 -10  -6   5 564.775 294.930   2
  10  -6  -5 1427.49 461.435  10
  10   6  -5 1532.88 505.138   3
  10  -6  -5 1269.99 432.787   1
 -10   6   5 1827.65 511.088   9
  10   6  -5 483.672 262.351   8
 -10  -6   4-210.039 277.793   2
  10  -6  -4 754.904 405.422  10
  10   6  -4 329.926 278.859   3
  10   6  -4 289.671 311.984   8
  10  -6  -4 575.935 334.227   1
  10  -6  -3 5630.32 758.316   8
  10  -6  -3 4953.93 750.844   1
 -10  -6   3 4187.73 680.087   2
  10   6  -3 5050.77 731.236   3
 -10   6   3 6144.10 891.396   9
  10   6  -3 5081.32 747.423   8
 -10  -6   3 6075.91 859.101   4
  10   6  -2 12197.0 1110.35   3
 -10   6   2 15102.9 1391.40   9
  10  -6  -2 15193.0 1291.33   1
 -10  -6   2 12784.1 1261.98   4
  10   6  -2 11931.9 1170.12   8
  10  -6  -2 13723.3 1225.20   8
  10  -6  -1 4379.60 762.537   8
  10   6  -1 4666.73 687.351   3
 -10   6   1 3825.25 735.811   9
  10   6  -1 5111.35 793.780   8
 -10  -6   1 4192.67 767.440   4
 -10  -6   0 11920.9 1267.97   4
  10   6   0 10499.5 1154.97   8
  10  -6   0 12074.0 1239.41   8
  10  -6   1 1089.31 526.656   8
 -10   6  -2 295.930 290.375   4
  10  -7 -10 610.267 444.206   1
  10  -7 -10 57.3744 256.234   7
  10   7 -10-9.06225 287.287  10
  10  -7 -10 176.846 226.446  10
 -10  -7  10 530.136 350.797   9
 -10   7  10 302.278 300.571   9
 -10  -7   9 2242.17 598.911   2
  10  -7  -9 2100.63 526.560   1
  10  -7  -9 1168.55 422.964   7
  10   7  -9 1179.01 405.514  10
  10  -7  -9 1763.51 454.524  10
 -10  -7   9 1988.40 508.452   9
 -10   7   9 1141.96 370.837   9
 -10  -7   8 7323.47 975.771   2
  10   7  -8 6795.97 830.773  10
  10  -7  -8 6832.25 902.388   1
  10  -7  -8 6379.40 837.964  10
 -10  -7   8 6825.65 854.289   9
 -10   7   8 6887.42 879.320   9
 -10  -7   7 73.8346 237.127   2
  10  -7  -7 93.4750 281.492  10
  10  -7  -7 309.807 356.024   1
  10   7  -7 0.81914 262.521   3
 -10   7   7 372.213 337.398   9
 -10  -7   6 4434.70 784.691   2
  10  -7  -6 4811.68 748.049  10
  10   7  -6 4047.79 734.962   3
  10  -7  -6 4506.55 737.340   1
 -10   7   6 3701.16 691.335   9
 -10  -7   5 2614.50 596.336   2
  10  -7  -5 2848.76 596.068  10
  10   7  -5 1670.32 494.496   3
  10  -7  -5 2053.47 528.093   1
 -10   7   5 2504.31 624.067   9
  10   7  -5 1574.25 402.162   8
 -10  -7   4 163.759 241.076   2
  10  -7  -4 328.833 319.111  10
  10   7  -4 612.930 352.355   3
 -10   7   4 234.353 365.446   9
  10   7  -4 938.226 345.862   8
  10  -7  -4 243.241 387.067   1
  10  -7  -3 384.798 369.585   8
  10  -7  -3 866.152 470.948   1
 -10  -7   3 183.438 262.482   2
  10   7  -3 163.216 268.402   3
 -10   7   3 130.032 250.506   9
  10   7  -3 672.419 363.001   8
 -10  -7   3 582.219 384.617   4
  10  -7  -2 7289.18 939.385   8
  10  -7  -2 5503.90 846.329   1
 -10   7   2 9288.83 1120.54   9
  10   7  -2 6181.67 854.503   3
  10   7  -2 5607.44 842.016   8
 -10  -7   2 7572.44 1000.21   4
  10  -7  -1 950.885 465.602   8
  10   7  -1 164.581 240.339   3
  10  -7  -1 509.983 294.498   1
 -10   7   1 802.646 449.583   9
  10   7  -1 820.418 437.591   8
 -10  -7   1 618.013 411.431   4
  10  -7   0 4281.40 805.830   8
  10  -8  -9 1343.91 493.830   7
  10  -8  -9 1300.01 531.894   1
  10  -8  -8-309.721 265.635   1
  10  -8  -8 497.877 337.518  10
 -10   8   8-82.0110 307.881   9
 -10  -8   7 845.546 373.197   2
  10  -8  -7 374.314 298.755  10
  10  -8  -7 751.777 461.396   1
  10   8  -7 792.745 474.132   3
 -10   8   7 695.055 373.902   9
 -10  -8   6-83.1763 249.222   2
  10  -8  -6-18.3875 240.573  10
  10   8  -6 630.912 400.235   3
  10  -8  -6-142.279 320.719   1
 -10   8   6 163.499 259.557   9
 -10  -8   5 4259.75 799.954   2
  10  -8  -5 5609.82 852.848  10
  10   8  -5 4527.55 789.468   3
  10  -8  -5 3709.65 743.122   1
 -10   8   5 4826.51 806.164   9
 -10  -8   4 6195.59 913.737   2
  10  -8  -4 6944.99 975.501  10
  10   8  -4 6321.83 901.617   3
 -10   8   4 7327.46 979.239   9
  10   8  -4 7635.24 951.173   8
  10  -8  -4 8083.70 1044.65   1
  10  -8  -3 1762.74 566.578   1
 -10  -8   3 2051.90 532.182   2
  10   8  -3 1003.85 406.806   3
 -10   8   3 882.017 409.983   9
  10   8  -3 2043.72 555.972   8
 -10  -8   3 951.995 496.581   4
 -10  -8   2 358.656 300.514   2
  10  -8  -2 11.0222 310.322   1
  10   8  -2 288.311 245.253   3
 -10   8   2 102.325 275.375   9
  10   8  -2 764.040 410.099   8
  10  -8  -1 1151.76 542.554   8
  10  -8  -1 1166.68 460.672   1
  10   8  -1 425.044 274.676   3
  10  -9  -6 6547.04 951.781  10
  10  -9  -6 5985.08 930.665   1
 -10   9   6 6775.91 927.904   9
  10  -9  -5 45.4795 307.071  10
 -10   9   5-151.444 255.090   9
  10  -9  -5 447.391 324.238   1
  10  -9  -4 4050.77 754.027  10
 -10   9   4 3902.43 789.347   9
  10  -9  -3 816.926 495.488   1
  11   0 -12 481.599 398.489  10
 -11   0  12-83.5758 260.719   9
  11   0 -11-184.712 243.265  10
 -11   0  11-16.5151 218.211   9
  11   0 -10 18903.0 1487.52  10
 -11   0  10 18648.9 1463.02   9
  11   0  -9 441.676 319.044  10
 -11   0   9 459.074 330.954   9
  11   0  -8 10890.3 1088.53  10
 -11   0   8 11092.2 1074.35   9
  11   0  -7 967.432 324.530  10
 -11   0   7 291.233 365.577   9
  11   0  -6 875.221 378.257  10
 -11   0   6 827.084 392.524   9
  11   0  -5 362.783 356.973  10
 -11   0   5 376.052 272.242   9
  11   0  -5-138.645 166.604   8
 -11   0   5 501.401 286.024   4
  11   0  -4 11761.4 1086.72  10
 -11   0   4 12836.9 1140.59   9
 -11   0   4 13010.9 1050.33   4
  11   0  -4 12296.5 1014.44   8
 -11   0   3-229.084 222.102   4
  11   0  -3-44.4495 282.003  10
 -11   0   3 327.212 211.718   9
  11   0  -3 606.499 301.567   8
 -11   0   2 1042.95 341.514   4
  11   0  -2 827.126 369.712  10
 -11   0   2 1408.02 453.705   9
  11   0  -2 596.208 323.323   8
 -11   0   1 415.018 341.622   4
  11   0  -1 422.896 320.001  10
 -11   0   1-122.319 228.994   9
  11   0  -1 220.509 374.841   8
 -11   0   0 105.248 248.414   4
 -11   0   0 346.971 349.078   9
  11   0   0 525.483 399.353   8
 -11   0  -1-293.979 347.243   4
 -11   0  -1 166.686 294.258   9
  11   0   1 262.789 328.885   8
 -11   0  -2 3487.69 669.591   9
  11   1 -12 504.596 373.666  10
  11  -1 -12 528.618 353.515  10
 -11  -1  12-4.80078 267.230   9
 -11   1  12 354.542 352.269   9
  11   1 -11 1698.62 520.843  10
  11  -1 -11 391.987 372.021  10
 -11  -1  11 1189.09 463.240   9
 -11   1  11 1522.04 531.462   9
  11   1 -10 7778.83 965.030  10
  11  -1 -10 7367.74 949.132  10
 -11  -1  10 7658.88 944.017   9
 -11   1  10 7765.52 961.145   9
  11   1  -9 6985.24 902.797  10
  11  -1  -9 6109.35 826.382  10
 -11  -1   9 6828.12 878.492   9
 -11   1   9 6688.11 870.409   9
  11   1  -8 1244.25 409.022  10
  11  -1  -8 1140.77 436.817  10
 -11  -1   8 615.266 357.796   9
 -11   1   8 1103.38 406.822   9
  11   1  -7 1018.55 396.593  10
  11  -1  -7 1883.64 505.301  10
 -11  -1   7 1066.38 382.674   9
 -11   1   7 570.621 310.462   9
  11   1  -6 244.266 256.473  10
  11  -1  -6 518.461 313.046  10
 -11  -1   6 148.323 248.785   9
 -11   1   6 137.064 238.719   9
 -11  -1   6 140.284 197.204   4
  11   1  -5 122.449 303.113  10
  11  -1  -5 620.859 336.541  10
 -11  -1   5 326.428 351.620   9
 -11   1   5-257.024 307.008   9
  11   1  -5 73.5291 164.957   8
 -11  -1   5 53.2464 243.237   4
 -11   1   4 1245.42 373.947   4
  11   1  -4 1518.88 428.837  10
  11  -1  -4 1132.37 404.817  10
 -11  -1   4 2375.04 509.514   9
 -11   1   4 2124.16 522.370   9
  11   1  -4 1698.30 424.886   8
  11  -1  -4 1887.55 460.742   8
 -11  -1   4 908.525 309.835   4
  11   1  -3 6969.40 821.150  10
  11  -1  -3 9578.79 978.688  10
 -11  -1   3 7585.69 849.138   9
 -11   1   3 7512.35 905.625   9
 -11  -1   3 7805.09 889.181   4
 -11   1   3 7936.20 825.529   4
  11   1  -3 8514.47 872.443   8
  11  -1  -3 8763.43 902.967   8
 -11  -1   2 1385.25 441.101   4
 -11   1   2 923.825 350.881   4
  11   1  -2 821.389 331.580  10
  11  -1  -2 1792.85 483.256  10
 -11  -1   2 1317.60 423.501   9
 -11   1   2 1353.84 465.011   9
  11   1  -2 961.588 387.461   8
  11  -1  -2 1272.12 456.101   8
 -11  -1   1 64.4933 225.209   4
 -11   1   1-48.1830 209.290   4
  11   1  -1 148.801 251.316  10
 -11  -1   1-4.37144 236.241   9
 -11   1   1 457.034 387.391   9
  11   1  -1 149.483 291.443   8
  11  -1  -1 378.737 274.068   8
 -11  -1   0 1273.88 426.082   4
 -11   1   0 1450.84 440.936   4
  11   1   0 1272.89 411.246  10
 -11  -1   0 1592.47 444.104   9
 -11   1   0 1135.57 429.271   9
  11   1   0 2483.12 603.030   8
  11  -1   0 1130.51 455.449   8
 -11  -1  -1 508.740 312.419   4
 -11   1  -1 654.844 327.282   4
 -11   1  -1 330.909 223.284   9
  11   1   1-372.854 333.814   8
  11  -1   1 894.103 468.949   8
 -11   1  -2 844.450 442.425   9
  11   2 -12 565.604 341.683  10
  11  -2 -12 809.774 413.974  10
 -11  -2  12 8.13263 255.121   9
  11   2 -11 14960.5 1359.70  10
  11  -2 -11 14188.8 1314.81  10
 -11  -2  11 14868.6 1359.45   9
 -11   2  11 15034.8 1366.28   9
  11   2 -10 4705.73 786.686  10
  11  -2 -10 4509.95 730.395  10
 -11  -2  10 4667.28 753.238   9
 -11   2  10 4419.81 722.319   9
  11   2  -9 8278.72 954.617  10
  11  -2  -9 7202.94 918.576  10
 -11  -2   9 7190.04 881.787   9
 -11   2   9 7202.24 889.925   9
  11   2  -8 577.038 371.103  10
  11  -2  -8 1259.12 446.724  10
 -11  -2   8 1219.02 395.297   9
 -11   2   8 1026.14 434.299   9
  11   2  -7 2853.28 528.543  10
  11  -2  -7 3404.14 635.377  10
 -11  -2   7 3482.13 592.235   9
 -11   2   7 2969.20 586.243   9
 -11  -2   7 2714.77 490.159   4
  11   2  -6-219.621 193.029  10
  11  -2  -6 750.840 406.944  10
 -11  -2   6 308.738 250.376   9
 -11   2   6 716.810 342.529   9
 -11  -2   6 50.2565 236.981   4
  11   2  -5 45464.3 2170.06  10
  11  -2  -5 47457.0 2323.90  10
 -11  -2   5 50243.7 2264.83   9
 -11   2   5 50303.4 2405.57   9
 -11  -2   5 47974.3 2185.31   4
  11   2  -5 49598.1 2057.43   8
  11   2  -4 3953.67 615.375  10
  11  -2  -4 3387.75 617.099  10
 -11  -2   4 3439.16 563.330   9
 -11   2   4 4147.38 669.705   9
  11   2  -4 4514.96 619.937   8
  11  -2  -4 3597.89 570.143   8
 -11  -2   4 3401.11 605.754   4
  11   2  -3 14980.4 1178.07  10
  11  -2  -3 13589.8 1201.61  10
 -11  -2   3 14536.7 1160.25   9
 -11   2   3 14995.2 1284.40   9
 -11  -2   3 13278.3 1181.30   4
  11   2  -3 10844.7 1028.90   8
 -11   2   3 13123.2 1040.25   4
  11  -2  -3 14786.3 1164.01   8
 -11   2   2-39.6028 223.817   4
  11   2  -2-66.6763 173.493  10
  11  -2  -2 149.468 225.235  10
 -11  -2   2-370.137 287.440   9
 -11   2   2-88.6933 210.112   9
  11   2  -2 674.952 378.171   8
  11  -2  -2 479.976 315.325   8
 -11  -2   2 189.488 306.604   4
 -11  -2   1 6201.99 863.415   4
  11   2  -1 6904.92 801.252  10
 -11  -2   1 8084.93 877.524   9
 -11   2   1 7489.84 962.898   9
 -11   2   1 6812.58 836.973   4
  11   2  -1 6604.02 875.536   8
  11  -2  -1 6441.45 882.410   8
 -11  -2   0 607.259 430.283   4
 -11   2   0 493.761 302.963   4
 -11   2   0 330.669 393.983   9
  11   2   0 319.669 396.998   8
  11  -2   0 371.763 394.810   8
 -11   2  -1 18123.8 1555.14   9
 -11  -2  -1 18133.9 1542.58   4
  11   2   1 18683.8 1569.69   8
  11  -2   1 17875.7 1524.26   8
 -11   2  -1 16357.1 1424.61   4
 -11   2  -2 282.261 311.591   9
  11  -3 -12-126.461 268.313  10
 -11   3  12 629.763 390.042   9
  11   3 -11 2121.57 562.642  10
  11  -3 -11 1926.74 539.648  10
 -11  -3  11 2239.12 579.704   9
 -11   3  11 3091.98 645.298   9
  11   3 -10 245.528 280.140  10
  11  -3 -10 62.2949 252.485  10
 -11  -3  10 43.4644 231.172   9
 -11   3  10 664.560 404.181   9
  11   3  -9 21378.7 1551.99  10
  11  -3  -9 21662.1 1575.34  10
 -11  -3   9 22601.0 1583.58   9
 -11   3   9 20383.5 1519.66   9
  11   3  -8 191.603 305.352  10
  11  -3  -8 808.296 381.361  10
 -11  -3   8 28.7070 295.828   9
 -11   3   8 406.053 322.302   9
  11   3  -7 272.332 334.983  10
  11  -3  -7 267.989 266.700  10
 -11  -3   7 174.353 326.576   9
 -11   3   7 141.792 311.138   9
 -11  -3   7 81.4462 196.007   4
  11   3  -6 184.713 224.629  10
  11  -3  -6 1013.44 403.463  10
 -11  -3   6 683.542 323.225   9
 -11   3   6 72.1048 254.936   9
 -11  -3   6 896.389 380.562   4
  11   3  -5 317.959 264.287  10
  11  -3  -5 146.222 324.997  10
 -11  -3   5 628.455 317.409   9
 -11   3   5 471.612 351.146   9
  11   3  -5 81.6061 224.139   8
 -11  -3   5 511.199 294.924   4
  11   3  -4 520.822 285.455  10
  11  -3  -4 81.8141 303.461  10
  11   3  -4-36.1204 237.528   3
 -11  -3   4 391.848 307.866   9
 -11   3   4 491.932 305.145   9
  11   3  -4 688.370 340.077   8
 -11  -3   4 28.2937 258.556   4
  11  -3  -4 566.412 380.795   8
  11   3  -3 5413.37 709.229  10
  11  -3  -3 4904.93 783.290  10
 -11  -3   3 5269.30 689.191   9
 -11   3   3 5598.37 861.034   9
  11   3  -3 4300.01 692.998   8
 -11  -3   3 3652.50 634.851   4
  11  -3  -3 3535.20 584.415   8
 -11   3   2 438.935 278.866   4
  11   3  -2 397.401 285.313  10
 -11  -3   2 136.930 312.004   9
 -11   3   2 382.105 367.422   9
  11   3  -2 30.7410 283.360   8
  11  -3  -2 41.4065 254.705   8
 -11  -3   2-122.991 314.147   4
 -11  -3   1 3970.64 705.057   4
 -11   3   1 4214.14 695.553   4
 -11   3   1 3294.74 706.227   9
  11   3  -1 4211.40 731.202   8
  11  -3  -1 3183.70 619.623   8
 -11  -3   0 1315.84 505.638   4
 -11   3   0 843.108 411.014   4
 -11   3   0 440.451 388.672   9
  11   3   0 1147.29 461.737   8
  11  -3   0 566.231 381.317   8
 -11  -3  -1-62.1490 257.837   4
 -11   3  -1 215.222 304.948   4
 -11   3  -1 885.079 420.238   9
  11   3   1 520.341 434.157   8
  11  -3   1 523.732 424.865   8
  11   4 -11 2847.76 635.982  10
  11  -4 -11 2430.53 611.965  10
 -11  -4  11 3863.52 743.343   9
 -11   4  11 3107.45 628.673   9
  11   4 -10 7994.31 954.967  10
  11  -4 -10 7254.73 945.940  10
 -11  -4  10 6541.99 933.804   9
 -11   4  10 6868.32 913.924   9
  11   4  -9 980.540 387.532  10
  11  -4  -9 1313.61 447.419  10
 -11  -4   9 840.814 383.507   9
 -11   4   9 972.653 391.418   9
  11   4  -8 7530.61 908.112  10
  11  -4  -8 9665.38 1058.93  10
 -11  -4   8 10451.9 1052.16   9
 -11   4   8 9925.19 1060.71   9
  11   4  -7 543.935 347.338  10
  11  -4  -7 1037.63 428.146  10
 -11  -4   7 942.066 415.784   9
 -11   4   7 360.705 317.884   9
  11   4  -6 3985.79 625.077  10
  11  -4  -6 4180.33 713.582  10
 -11  -4   6 4262.47 664.125   9
 -11   4   6 3651.76 672.611   9
 -11  -4   6 3596.18 642.586   4
  11   4  -5 16492.1 1224.66  10
  11  -4  -5 15208.1 1330.97  10
  11   4  -5 16411.7 1280.04   3
 -11  -4   5 17891.1 1275.73   9
 -11   4   5 14238.7 1328.05   9
 -11  -4   5 17264.9 1352.91   4
  11   4  -5 17125.7 1230.83   8
  11   4  -4 5791.03 713.705  10
  11   4  -4 6187.35 787.414   3
  11  -4  -4 5314.19 794.881  10
 -11  -4   4 6645.98 772.338   9
 -11   4   4 5054.36 804.362   9
  11   4  -4 6368.04 795.053   8
 -11  -4   4 6337.18 860.630   4
  11  -4  -3 1180.48 446.220  10
  11   4  -3 428.734 296.767   3
 -11   4   3 1300.79 480.509   9
  11   4  -3 1004.27 388.755   8
 -11  -4   3 252.237 284.871   4
  11  -4  -3 316.436 324.987   8
 -11   4   2 2075.13 558.005   9
  11   4  -2 1891.47 538.285   8
 -11  -4   2 2016.40 532.250   4
  11  -4  -2 1345.19 461.135   8
 -11   4   1 2715.14 640.292   9
  11   4  -1 832.084 398.912   8
  11  -4  -1 488.155 331.169   8
 -11  -4   1 2282.21 588.467   4
 -11  -4   0 968.204 441.912   4
 -11   4   0 548.154 301.948   4
 -11   4   0 1023.91 505.700   9
  11   4   0 1032.45 412.409   8
  11  -4   0 1304.26 493.446   8
 -11   4  -1 5286.22 810.613   4
  11   5 -11-63.6592 301.853  10
  11  -5 -11 322.937 413.071  10
 -11  -5  11 284.167 328.798   9
 -11   5  11 131.649 312.643   9
  11   5 -10 2428.84 576.379  10
  11  -5 -10 1905.71 491.405  10
 -11  -5  10 3526.99 662.917   9
 -11   5  10 2300.29 549.023   9
 -11  -5   9 21.7413 281.966   2
  11   5  -9 498.094 319.923  10
  11  -5  -9 702.780 365.439  10
 -11  -5   9-200.756 236.028   9
 -11   5   9 213.671 236.406   9
 -11  -5   8 556.667 281.036   2
  11   5  -8 1078.65 383.299  10
  11  -5  -8 1246.77 458.357  10
 -11  -5   8 1249.71 434.746   9
 -11   5   8 1222.50 437.397   9
  11   5  -7 7911.31 883.294  10
  11  -5  -7 7457.20 941.361  10
 -11  -5   7 8237.70 914.010   9
 -11   5   7 8383.44 1012.58   9
  11   5  -6 1757.52 459.865  10
  11  -5  -6 1984.56 540.937  10
 -11  -5   6 1727.40 456.756   9
 -11   5   6 1459.07 491.185   9
  11   5  -6 1473.00 421.673   8
  11  -5  -5 489.647 367.352  10
  11   5  -5 27.6113 292.060   3
 -11  -5   5 419.853 294.985   9
 -11   5   5 457.799 409.897   9
  11   5  -5 360.798 278.703   8
 -11  -5   5 100.307 277.952   4
  11  -5  -4 408.719 336.879  10
  11   5  -4 1291.96 409.045   3
 -11   5   4 2023.44 568.763   9
  11   5  -4 1132.30 417.707   8
 -11  -5   4 1598.32 485.736   4
 -11   5   3 8376.72 1051.83   9
  11   5  -3 5442.61 728.255   3
  11   5  -3 5136.02 783.121   8
 -11  -5   3 6267.91 873.309   4
  11  -5  -3 6720.72 838.715   8
 -11   5   2 492.037 330.363   9
  11   5  -2 858.766 473.337   8
 -11  -5   2-38.1531 227.493   4
  11  -5  -2 377.433 259.174   8
 -11   5   1-282.393 249.980   9
  11   5  -1 616.521 317.119   8
  11  -5  -1 776.025 389.560   8
  11   5   0 2665.95 673.365   8
  11  -5   0 2698.44 667.208   8
  11   6 -10 6215.47 912.924  10
  11  -6 -10 6612.08 907.165  10
 -11  -6  10 7704.95 985.452   9
 -11   6  10 6516.59 901.821   9
  11   6  -9 8152.34 973.800  10
  11  -6  -9 9060.55 1054.27  10
 -11  -6   9 8461.76 982.521   9
 -11   6   9 6601.48 908.743   9
 -11  -6   9 8818.47 1084.87   2
 -11  -6   8 1885.75 568.927   2
  11   6  -8 1668.83 447.147  10
  11  -6  -8 1021.45 345.378  10
 -11  -6   8 1132.15 432.976   9
 -11   6   8 926.025 430.505   9
 -11  -6   7 4339.40 738.782   2
  11   6  -7 2590.09 502.655  10
  11   6  -7 3840.58 736.884   3
  11  -6  -7 3307.28 665.418  10
 -11  -6   7 3441.81 576.922   9
 -11   6   7 2537.62 546.010   9
 -11  -6   6 156.059 269.702   2
  11  -6  -6 113.934 296.421  10
  11   6  -6 536.585 313.145   3
 -11   6   6-379.848 340.106   9
  11   6  -6 867.273 430.852   8
  11  -6  -5 350.566 354.149  10
  11   6  -5 737.359 390.483   3
 -11   6   5 771.281 365.573   9
 -11  -6   5 716.119 390.934   4
  11   6  -5 532.882 317.851   8
  11  -6  -4 4548.64 794.268  10
  11   6  -4 3058.61 601.345   3
 -11   6   4 4592.40 816.070   9
  11   6  -4 3453.79 677.240   8
 -11  -6   4 3484.88 667.328   4
  11   6  -3 6821.58 889.462   3
 -11   6   3 7802.64 1026.88   9
  11  -6  -3 8501.81 957.332   8
  11   6  -3 6821.73 904.105   8
 -11  -6   3 8386.80 1051.77   4
 -11   6   2 1376.88 545.536   9
  11   6  -2 477.266 462.964   8
 -11  -6   2 841.511 453.256   4
  11  -6  -2 187.201 313.561   8
  11   6  -1 9479.28 1122.05   8
  11  -6  -1 9627.45 1111.08   8
  11   7  -9 5297.20 785.148  10
  11  -7  -9 6839.45 930.141  10
 -11  -7   9 5388.86 792.574   9
 -11   7   9 7343.76 971.792   9
  11  -7  -8 902.605 412.294  10
 -11   7   8 1633.88 488.659   9
 -11  -7   7 477.444 401.036   2
  11  -7  -7 518.188 368.350  10
  11   7  -7 1151.53 506.251   3
 -11   7   7-35.7397 306.492   9
 -11  -7   6-214.006 252.431   2
  11  -7  -6 247.970 368.181  10
  11   7  -6 785.550 423.331   3
 -11   7   6 108.320 255.563   9
 -11  -7   5 208.109 290.274   2
  11  -7  -5 272.402 390.509  10
  11   7  -5 212.514 327.341   3
 -11   7   5 593.782 416.093   9
  11   7  -5-59.8873 318.837   8
 -11  -7   4 214.732 274.742   2
  11  -7  -4 1118.92 529.544  10
  11   7  -4 40.9480 247.953   3
 -11   7   4 351.558 320.469   9
  11   7  -4 276.614 269.368   8
 -11  -7   4 108.238 335.718   4
  11   7  -3 1636.01 473.567   3
 -11   7   3 2109.14 578.016   9
  11   7  -3 1680.44 506.253   8
 -11  -7   3 1517.77 560.837   4
  11  -7  -2 252.863 347.694   8
  11   7  -2 459.606 360.216   3
  11   8  -5 21937.3 1666.07   8
  12   0 -11 462.183 407.175  10
 -12   0  11-21.2848 245.933   9
  12   0 -10 33646.0 2091.34  10
 -12   0  10 31367.7 2006.79   9
  12   0  -9 714.705 363.837  10
 -12   0   9 82.9709 325.543   9
  12   0  -8 34504.9 2048.29  10
 -12   0   8 36835.8 2099.99   9
  12   0  -7 152.166 322.098  10
 -12   0   7-103.230 251.496   9
  12   0  -6 23.1821 221.395  10
 -12   0   6 375.487 292.053   9
  12   0  -5 62.7051 239.258  10
 -12   0   5 202.150 247.033   9
  12   0  -4 22664.9 1595.99  10
 -12   0   4 23413.2 1633.85   9
 -12   0   4 24532.5 1540.78   4
  12   0  -4 25456.1 1555.13   8
 -12   0   3 300.878 355.000   4
  12   0  -3-113.417 345.032  10
 -12   0   3 349.224 300.591   9
  12   0  -3 246.670 260.369   8
  12   0  -2 13438.0 1229.34  10
 -12   0   2 11157.9 1134.52   9
 -12   0   2 12229.7 1153.89   4
  12   0  -2 12856.6 1229.11   8
 -12   0   1-388.870 344.392   4
  12   0  -1-72.6010 312.565  10
 -12   0   1 44.9278 312.124   9
  12   0  -1 378.142 429.960   8
 -12   0   0 660.040 395.129   4
  12   0   0 347.815 269.022  10
 -12   0   0-18.9232 245.123   9
  12   0   0 64.1429 292.705   8
  12   1 -11 139.923 333.511  10
  12  -1 -11 547.045 439.066  10
 -12  -1  11 1221.72 550.337   9
 -12   1  11 50.0086 242.686   9
  12   1 -10 4123.11 742.866  10
  12  -1 -10 3171.64 676.976  10
 -12  -1  10 2906.28 639.448   9
 -12   1  10 3632.40 719.667   9
  12   1  -9 6000.77 872.798  10
  12  -1  -9 5279.54 841.686  10
 -12  -1   9 4506.17 758.088   9
 -12   1   9 5814.17 838.316   9
  12   1  -8 4713.65 743.557  10
  12  -1  -8 4012.10 704.681  10
 -12  -1   8 4156.73 713.845   9
 -12   1   8 3868.12 699.357   9
  12   1  -7 2377.78 587.624  10
  12  -1  -7 2504.28 568.376  10
 -12  -1   7 1812.00 493.797   9
 -12   1   7 794.348 349.486   9
  12   1  -6 2089.14 538.492  10
  12  -1  -6 1596.03 495.877  10
 -12  -1   6 1358.36 446.235   9
 -12   1   6 1085.65 421.410   9
  12   1  -5 1576.56 471.524  10
  12  -1  -5 2084.64 536.353  10
 -12  -1   5 1456.36 409.633   9
 -12   1   5 1118.42 394.375   9
 -12  -1   5 1452.10 403.405   4
 -12  -1   4 5932.15 773.711   4
  12   1  -4 7416.15 894.892  10
  12  -1  -4 6496.63 863.808  10
 -12  -1   4 6870.66 870.911   9
 -12   1   4 6625.37 896.063   9
  12   1  -4 6235.14 772.749   8
  12  -1  -4 6190.78 749.867   8
 -12  -1   3 2193.08 525.064   4
 -12   1   3 1759.31 418.400   4
  12   1  -3 2798.34 582.018  10
  12  -1  -3 3911.60 693.567  10
 -12  -1   3 2293.57 515.310   9
 -12   1   3 2769.09 602.494   9
  12   1  -3 2433.83 526.903   8
  12  -1  -3 2351.04 529.317   8
 -12  -1   2 1795.77 515.276   4
 -12   1   2 645.277 374.985   4
  12   1  -2 1158.53 384.097  10
  12  -1  -2 1423.53 475.967  10
 -12  -1   2 1919.94 471.618   9
 -12   1   2 1510.03 518.679   9
  12   1  -2 1268.54 502.309   8
  12  -1  -2 1444.01 477.903   8
 -12  -1   1 977.113 396.308   4
 -12   1   1 1203.99 435.951   4
  12   1  -1 656.321 330.171  10
  12  -1  -1 948.097 431.245  10
 -12  -1   1 1074.57 340.905   9
 -12   1   1 1288.22 468.586   9
  12   1  -1 1598.55 559.538   8
  12  -1  -1 1781.69 523.711   8
 -12  -1   0 5295.62 854.087   4
 -12   1   0 5235.59 834.100   4
 -12   1   0 4607.35 791.210   9
  12   1   0 5660.52 897.047   8
  12  -1   0 5123.62 821.089   8
  12   2 -11 562.954 417.336  10
  12  -2 -11 415.135 394.260  10
 -12  -2  11 355.076 336.635   9
 -12   2  11 65.1128 233.333   9
  12   2 -10 372.666 386.040  10
  12  -2 -10 12.0045 278.985  10
 -12  -2  10 56.3614 336.527   9
 -12   2  10 534.310 414.837   9
  12   2  -9 8552.35 1029.91  10
  12  -2  -9 6142.60 900.809  10
 -12  -2   9 8191.29 973.805   9
 -12   2   9 6962.60 946.022   9
  12   2  -8 992.678 413.509  10
  12  -2  -8 1574.47 461.837  10
 -12  -2   8 1068.68 386.382   9
 -12   2   8 1591.28 473.301   9
  12   2  -7 8646.31 994.662  10
  12  -2  -7 8592.99 1018.41  10
 -12  -2   7 6889.85 879.217   9
 -12   2   7 6572.77 894.650   9
  12   2  -6 1394.32 437.187  10
  12  -2  -6 1052.88 475.156  10
 -12  -2   6 1248.15 405.611   9
 -12   2   6 572.323 375.606   9
 -12  -2   6 619.922 351.559   4
  12   2  -5 108.785 284.888  10
  12  -2  -5 250.380 361.518  10
 -12  -2   5-55.2290 237.004   9
 -12   2   5 740.708 373.615   9
 -12  -2   5 73.4240 262.112   4
  12   2  -4 6178.91 789.537  10
  12  -2  -4 7646.62 941.008  10
 -12  -2   4 6582.31 817.797   9
 -12   2   4 7352.64 954.216   9
  12   2  -4 6597.16 809.814   8
 -12  -2   4 6358.42 862.046   4
 -12  -2   3 1775.94 520.826   4
  12   2  -3 2436.01 568.701  10
  12  -2  -3 1172.34 458.274  10
 -12  -2   3 2056.67 471.914   9
 -12   2   3 1407.42 475.685   9
  12   2  -3 1671.65 451.618   8
  12  -2  -3 2354.81 530.382   8
 -12  -2   2 458.057 328.306   4
 -12   2   2 291.017 251.683   4
  12   2  -2 424.627 306.573  10
  12  -2  -2 162.618 252.488  10
 -12  -2   2 177.991 335.678   9
 -12   2   2 370.384 359.839   9
  12   2  -2 127.193 397.388   8
  12  -2  -2-389.717 350.657   8
 -12  -2   1 325.551 384.137   4
 -12   2   1 607.933 346.548   4
 -12   2   1 452.516 392.505   9
  12   2  -1-73.7899 373.494   8
  12  -2  -1 626.512 376.854   8
 -12   2   0 794.533 434.862   4
 -12   2   0 602.170 378.908   9
  12  -2   0 953.539 471.614   8
  12  -3 -11 392.804 303.631  10
 -12   3  11-135.609 271.582   9
  12   3 -10 15.7674 239.692  10
  12  -3 -10 161.866 324.636  10
 -12  -3  10 50.9865 232.772   9
 -12   3  10-83.0171 284.375   9
  12   3  -9 8999.24 1058.94  10
  12  -3  -9 10269.0 1145.49  10
 -12  -3   9 9442.65 1077.42   9
 -12   3   9 9931.81 1117.28   9
  12   3  -8 498.581 250.956  10
  12  -3  -8 1046.42 456.356  10
 -12  -3   8 545.404 357.459   9
 -12   3   8 967.648 399.781   9
  12   3  -7 193.490 285.130  10
  12  -3  -7 746.032 404.039  10
 -12  -3   7 285.455 236.232   9
 -12   3   7 176.621 312.514   9
 -12  -3   7 159.099 264.908   4
  12   3  -6 379.753 311.471  10
  12  -3  -6 58.4379 312.745  10
 -12  -3   6 683.973 319.166   9
 -12   3   6 240.536 274.924   9
 -12  -3   6 554.210 317.471   4
  12   3  -5 267.858 348.170  10
  12   3  -5 923.177 407.544   3
  12  -3  -5 710.081 364.607  10
 -12  -3   5 1329.10 443.058   9
 -12   3   5 298.148 324.001   9
  12   3  -5 409.750 303.731   8
 -12  -3   5-92.5480 240.179   4
  12   3  -4 3032.48 575.671  10
  12  -3  -4 2994.33 631.325  10
 -12  -3   4 2322.30 487.370   9
 -12   3   4 3296.04 657.745   9
  12   3  -4 3151.24 581.718   8
 -12  -3   4 3189.61 634.386   4
  12  -3  -3 4509.80 790.758  10
 -12  -3   3 5058.41 729.219   9
 -12   3   3 5047.80 836.146   9
  12   3  -3 5152.84 781.946   8
  12  -3  -3 4475.02 697.440   8
 -12  -3   3 5651.04 843.297   4
 -12  -3   2 2510.85 586.383   4
  12  -3  -2 1475.20 548.838  10
 -12   3   2 1915.98 681.522   9
  12   3  -2 2340.54 587.700   8
  12  -3  -2 3185.30 653.850   8
 -12  -3   1 2585.41 649.914   4
 -12   3   1 3155.15 755.043   9
  12   3  -1 1510.80 531.396   8
  12  -3  -1 3414.30 672.479   8
 -12   3   0 154.940 236.007   4
  12   4 -10 5670.06 865.464  10
  12  -4 -10 7140.50 988.639  10
 -12  -4  10 5630.34 873.514   9
 -12   4  10 7937.56 1011.59   9
  12   4  -9 4307.86 751.162  10
  12  -4  -9 5282.04 851.923  10
 -12  -4   9 4001.48 737.782   9
 -12   4   9 5055.80 826.941   9
  12   4  -8 11525.4 1163.88  10
  12  -4  -8 11972.6 1244.49  10
 -12  -4   8 10698.3 1114.32   9
 -12   4   8 9644.79 1134.15   9
 -12  -4   8 10942.4 1103.80   4
  12   4  -7 2438.59 538.682  10
  12  -4  -7 2544.44 651.032  10
 -12  -4   7 2485.13 520.560   9
 -12   4   7 3005.74 661.949   9
 -12  -4   7 1810.15 521.428   4
  12   4  -6 3818.78 656.228  10
  12  -4  -6 3404.31 683.106  10
 -12  -4   6 4187.14 671.000   9
 -12   4   6 4128.01 767.384   9
 -12  -4   6 3708.78 684.732   4
  12   4  -5 2732.51 547.667  10
  12  -4  -5 2154.83 559.839  10
  12   4  -5 2465.56 538.696   3
 -12  -4   5 2573.10 525.310   9
 -12   4   5 2194.95 644.319   9
  12   4  -5 2890.35 579.646   8
 -12  -4   5 2657.11 562.097   4
  12  -4  -4 14954.2 1397.99  10
 -12   4   4 13877.6 1365.54   9
 -12  -4   4 13628.2 1291.77   4
  12   4  -4 12548.5 1163.70   8
  12  -4  -3 1469.89 496.182  10
 -12   4   3 1173.69 490.169   9
  12   4  -3 384.422 306.289   8
  12  -4  -3 443.691 386.076   8
 -12  -4   3 705.675 367.126   4
 -12   4   2 8330.64 1088.87   9
  12   4  -2 5961.25 882.988   8
  12  -4  -2 6216.36 867.136   8
 -12  -4   2 7225.01 995.963   4
  12  -4  -1-27.2875 291.877   8
  12   5 -10 1665.65 505.773  10
 -12  -5  10 1255.88 509.506   9
  12   5  -9-255.929 318.852  10
  12  -5  -9 35.8427 255.427  10
 -12  -5   9 47.5105 240.176   9
 -12   5   9-225.308 244.767   9
  12   5  -8 1766.73 506.507  10
  12  -5  -8 1815.74 555.573  10
 -12  -5   8 1784.73 489.361   9
 -12   5   8 2532.40 606.737   9
  12   5  -7 491.742 301.535  10
  12  -5  -7 100.364 308.087  10
 -12  -5   7 617.666 319.779   9
 -12   5   7 360.071 376.251   9
 -12  -5   7 195.236 309.831   4
  12  -5  -6 2823.40 645.059  10
  12   5  -6 1386.69 416.768   3
 -12   5   6 1253.57 432.279   9
 -12  -5   6 1806.08 514.076   4
  12  -5  -5 1280.68 563.996  10
  12   5  -5 866.093 382.615   3
 -12   5   5 1033.38 453.016   9
  12   5  -5 538.240 342.152   8
 -12  -5   5 1325.64 509.055   4
  12  -5  -4 6029.96 928.960  10
 -12   5   4 6328.94 946.687   9
  12   5  -4 4601.68 747.249   8
 -12  -5   4 6212.85 873.185   4
  12  -5  -3 221.969 260.082  10
 -12   5   3 352.214 347.162   9
  12   5  -3 19.2602 340.039   8
 -12  -5   3 563.390 378.894   4
  12   5  -2 386.024 317.851   8
  12  -5  -2 1090.18 494.957   8
  12   6  -9 724.165 355.559  10
 -12  -6   9 691.310 342.294   9
  12  -6  -7 1872.29 557.686  10
  12   6  -7 1349.88 438.361   3
 -12   6   7 1898.05 587.237   9
  12  -6  -6 426.341 447.387  10
  12   6  -6 266.803 397.265   3
 -12   6   6 331.233 277.564   9
 -12  -6   6 139.753 255.462   4
  12   6  -5 2028.59 559.575   3
  12   6  -5 1476.53 473.039   8
 -12  -6   5 1671.35 521.449   4
  12   6  -4 9809.96 1062.42   3
  12   6  -4 10100.1 1116.80   8
  12   6  -3 40.1621 363.512   8
  12  -6  -2 1080.73 439.382   8
  12   7  -5 3207.82 651.947   8
  13   0  -9 390.033 385.946  10
 -13   0   9 396.813 343.985   9
  13   0  -8 819.353 464.771  10
 -13   0   8 36.2355 246.421   9
  13   0  -7-15.8636 269.780  10
 -13   0   7 479.811 345.008   9
  13   0  -6 2261.97 565.454  10
 -13   0   6 2088.22 546.050   9
  13   0  -5 125.781 255.642  10
 -13   0   5 515.901 364.880   9
  13   0  -4 3225.10 638.579  10
 -13   0   4 3535.98 687.695   9
  13   0  -3 169.102 272.191  10
 -13   0   3 174.023 259.283   9
  13   0  -3 340.417 302.031   8
 -13   0   2 431.609 334.745   4
  13   0  -2 940.010 421.879  10
 -13   0   2 426.683 273.895   9
  13   0  -2 587.136 326.037   8
 -13  -1  10 83.0524 291.133   9
  13  -1  -9 8583.93 1078.01  10
  13   1  -9 7336.69 1015.82  10
 -13  -1   9 8908.68 1086.15   9
 -13   1   9 7603.67 1009.80   9
  13   1  -8 5855.84 866.700  10
  13  -1  -8 5581.03 861.366  10
 -13  -1   8 3796.09 753.440   9
 -13   1   8 6820.61 962.352   9
  13   1  -7 1076.40 480.133  10
  13  -1  -7 496.158 314.225  10
 -13  -1   7 905.083 483.944   9
 -13   1   7 1257.37 505.753   9
  13   1  -6 2583.73 632.627  10
  13  -1  -6 3074.46 653.927  10
 -13  -1   6 4745.27 753.659   9
 -13   1   6 3046.19 643.996   9
  13   1  -5 233.833 346.016  10
  13  -1  -5 782.842 466.573  10
 -13  -1   5 686.225 448.044   9
 -13   1   5 581.412 362.873   9
 -13  -1   4 1155.42 397.340   4
  13   1  -4 1763.93 472.581  10
  13  -1  -4 1841.67 581.701  10
 -13  -1   4 1322.23 478.067   9
 -13   1   4 1568.07 538.649   9
  13   1  -3 9189.81 1048.06  10
  13  -1  -3 9309.94 1082.86  10
 -13  -1   3 10718.5 1147.01   9
 -13   1   3 9505.67 1107.75   9
 -13  -1   3 8042.69 990.494   4
  13   1  -3 9828.28 1076.71   8
  13  -1  -3 8169.33 974.014   8
 -13  -1   2 1576.12 480.033   4
  13   1  -2 1793.51 505.233  10
  13  -1  -2 2127.64 583.537  10
 -13  -1   2 4123.61 723.243   9
 -13   1   2 3326.78 685.529   9
  13   1  -2 3129.80 671.633   8
  13  -1  -2 3130.90 677.577   8
  13   2  -9 5462.18 858.231  10
  13  -2  -9 5711.95 902.467  10
 -13  -2   9 6677.41 970.085   9
 -13   2   9 6965.00 988.259   9
  13   2  -8 367.777 339.316  10
  13  -2  -8 434.169 403.234  10
 -13  -2   8 654.888 369.689   9
 -13   2   8 199.955 363.225   9
  13   2  -7 21680.5 1631.58  10
  13  -2  -7 23605.2 1755.85  10
 -13  -2   7 21926.6 1643.99   9
 -13   2   7 23628.6 1780.11   9
  13   2  -6 696.733 377.646  10
  13  -2  -6 596.726 446.882  10
 -13  -2   6 922.737 381.877   9
 -13   2   6 356.418 403.207   9
  13   2  -5 145.272 308.004  10
  13  -2  -5 98.9685 327.744  10
 -13  -2   5 38.1021 317.111   9
 -13   2   5 242.519 328.982   9
 -13  -2   4 971.479 349.697   4
  13   2  -4 922.677 417.851  10
  13  -2  -4 1769.47 547.699  10
 -13  -2   4 1519.70 514.588   9
 -13   2   4 1793.91 524.197   9
  13   2  -4 1829.78 480.450   8
 -13  -2   3 1531.33 505.843   4
  13   2  -3 1282.25 432.244  10
  13  -2  -3 739.019 355.726  10
 -13  -2   3 800.573 377.081   9
 -13   2   3 2030.18 590.993   9
  13   2  -3 880.253 382.577   8
  13  -2  -3 790.211 332.952   8
  13   2  -2-476.008 441.155   8
  13  -2  -2 716.433 380.006   8
  13   3  -9 11723.8 1240.76  10
 -13  -3   9 12863.1 1277.88   9
  13   3  -8 1248.62 387.037  10
  13  -3  -8 2681.02 654.009  10
 -13  -3   8 2703.33 573.485   9
 -13   3   8 3638.37 763.520   9
  13   3  -7 431.661 304.864  10
  13  -3  -7 989.689 457.306  10
 -13  -3   7 246.268 336.208   9
 -13   3   7 263.718 397.086   9
  13   3  -6 262.056 227.466  10
  13  -3  -6 842.190 492.465  10
 -13  -3   6 765.182 413.982   9
 -13   3   6 1192.34 465.110   9
 -13  -3   6 526.380 389.301   4
  13   3  -5 786.477 365.880  10
  13  -3  -5 645.694 328.860  10
 -13  -3   5 757.581 406.056   9
 -13   3   5 508.286 351.425   9
 -13  -3   5 1177.16 472.246   4
  13  -3  -4 844.224 476.817  10
 -13   3   4 1181.08 505.032   9
  13   3  -4 691.575 368.511   8
 -13  -3   4 508.796 271.735   4
 -13  -3   3 21229.3 1691.29   4
  13   3  -3 16900.2 1458.96   8
  13  -3  -2 5.59966 325.905   8
  13   4  -9 2442.80 633.797  10
 -13  -4   9 1600.74 550.668   9
  13   4  -8 711.908 402.991  10
 -13  -4   8 97.4405 263.668   9
  13   4  -7 7668.21 974.221  10
 -13  -4   7 8204.10 990.554   9
 -13  -4   7 6430.32 902.369   4
  13   4  -6 628.501 366.556  10
 -13  -4   6 109.157 226.236   9
 -13  -4   6-181.348 314.696   4
 -13  -4   5 1513.66 496.879   4
  13   4  -4 863.771 447.778   8
 -13  -4   4 652.561 384.565   4
  13   4  -3 1774.70 563.844   8
  13   5  -8 7611.81 983.285  10
 -13  -5   8 8874.74 1050.32   9
  13   5  -7 1363.48 497.731   3
 -13  -5   7 2188.79 584.797   4
  13   5  -6 1978.05 472.508   3
 -13  -5   6 1915.62 525.030   4
  13   5  -4 1222.28 480.829   8
  14   2  -6 939.969 443.014  10
 -14  -2   6 1610.26 532.301   9
  14   2  -5-86.4083 354.315  10
 -14  -2   5 573.160 406.966   9
  14   3  -6 1890.70 507.554  10
 -14  -3   6 2642.23 658.280   9
   0   0   0    0.00    0.00   0
TITL 8344-2_full in P2(1)/c
REM P2(1)/c (#14 in standard setting)
CELL 0.71073   9.519939   8.670002   9.547147  90.0000 119.1575  90.0000
ZERR    4.00   0.000326   0.000172   0.000324   0.0000   0.0046   0.0000
LATT  1
SYMM -x, y+1/2,-z+1/2
SFAC O Na Al P Zn
UNIT 32.00 4.00 4.00 8.00 4.00
TREF
HKLF 4
END
;
_shelx_hkl_checksum              92276
_shelx_res_file
;
TITL shelxt_a.res in P2(1)/c
    shelx.res
    created by SHELXL-2016/6 at 13:24:24 on 23-Nov-2018
CELL  0.71073   9.5199   8.6700   9.5471   90.000  119.158   90.000
ZERR     4.00   0.0003   0.0002   0.0003    0.000    0.005    0.000
LATT   1
SYMM  - X, 1/2 + Y, 1/2 - Z
SFAC  O    P    NA   ZN   AL
UNIT  32 8 4 4 4
MERG   2
FMAP   2
PLAN   20
EADP NA1 NA2
EXYZ ZN1 AL1
EADP ZN1 AL1
EXYZ AL2 ZN2
EADP AL2 ZN2
SIZE 0.106x0.083x0.066
ACTA
OMIT -3 60
BOND
LIST   6
L.S.  10
WGHT    0.019000    1.000000
FVAR       2.76062
ZN1   4    0.096509    0.642745    0.762962    10.94000    0.01090    0.01047 =
         0.01171    0.00124    0.00658   -0.00007
AL1   5    0.096509    0.642745    0.762962    10.06000    0.01090    0.01047 =
         0.01171    0.00124    0.00658   -0.00007
P1    2    0.218700    0.328756    0.916192    11.00000    0.00885    0.00854 =
         0.00867   -0.00015    0.00453   -0.00015
P2    2    0.285633    0.664724    0.567119    11.00000    0.01026    0.00908 =
         0.00894   -0.00036    0.00522   -0.00075
AL2   5    0.414081    0.355121    0.731665    10.94000    0.01107    0.00989 =
         0.01099   -0.00032    0.00610   -0.00056
ZN2   4    0.414081    0.355121    0.731665    10.06000    0.01107    0.00989 =
         0.01099   -0.00032    0.00610   -0.00056
NA1   3    0.198569    0.510175    0.194444    10.92000    0.03258    0.01618 =
         0.02439   -0.00461    0.02041   -0.00592
NA2   3    0.273542    0.494101    0.259170    10.08000    0.03258    0.01618 =
         0.02439   -0.00461    0.02041   -0.00592
O1    1    0.130563    0.187043    0.820556    11.00000    0.01289    0.01174 =
         0.01675   -0.00578    0.00667   -0.00353
O2    1    0.106581    0.464308    0.892108    11.00000    0.01528    0.01095 =
         0.01566    0.00123    0.00736    0.00317
O3    1    0.380665    0.808286    0.664438    11.00000    0.01117    0.01073 =
         0.01429   -0.00244    0.00543   -0.00102
O4    1    0.401706    0.525629    0.629781    11.00000    0.01791    0.01168 =
         0.01609    0.00193    0.00843    0.00167
O5    1    0.305490    0.293667    1.097839    11.00000    0.01774    0.01374 =
         0.01147    0.00160    0.00633    0.00191
O6    1    0.235098    0.689192    0.391431    11.00000    0.01878    0.01574 =
         0.01026    0.00154    0.00672    0.00305
O7    1    0.345821    0.377264    0.869636    11.00000    0.01736    0.02116 =
         0.01713   -0.00476    0.01274   -0.00584
O8    1    0.140437    0.641965    0.589067    11.00000    0.01527    0.03270 =
         0.01791   -0.00426    0.01103   -0.00631
HKLF 4
REM  shelxt_a.res in P2(1)/c
REM R1 =  0.0366 for    1805 Fo > 4sig(Fo)  and  0.0436 for all    2010 data
REM    121 parameters refined using      0 restraints
END
WGHT      0.0197      1.1178
REM Highest difference peak  0.532,  deepest hole -0.571,  1-sigma level  0.116
Q1    1   0.3553  0.5966  0.6182  11.00000  0.05    0.53
Q2    1   0.1429  0.7006  0.3348  11.00000  0.05    0.51
Q3    1   0.3459  0.2394  1.1622  11.00000  0.05    0.49
Q4    1   0.3033  0.3390  0.8979  11.00000  0.05    0.47
Q5    1   0.1800  0.4836  0.8831  11.00000  0.05    0.44
Q6    1   0.1438  0.2646  0.8617  11.00000  0.05    0.43
Q7    1   0.2242  0.6383  0.5923  11.00000  0.05    0.41
Q8    1   0.3598  0.3646  0.8050  11.00000  0.05    0.41
Q9    1   0.0040  0.6564  0.7418  11.00000  0.05    0.40
Q10   1   0.2084  0.7772  0.3128  11.00000  0.05    0.39
Q11   1   0.2192  0.7576  0.4172  11.00000  0.05    0.39
Q12   1   0.1241  0.4428  0.6353  11.00000  0.05    0.38
Q13   1   0.3559  0.2789  0.8697  11.00000  0.05    0.38
Q14   1   0.2992  0.6795  0.4612  11.00000  0.05    0.37
Q15   1   0.4691  0.7795  0.7208  11.00000  0.05    0.37
Q16   1   0.1636  0.4037  0.9271  11.00000  0.05    0.36
Q17   1   0.1763  0.6413  0.4076  11.00000  0.05    0.36
Q18   1   0.0810  0.5130  0.8319  11.00000  0.05    0.36
Q19   1   0.0824  0.7111  0.6266  11.00000  0.05    0.35
Q20   1   0.4177  0.8456  0.5216  11.00000  0.05    0.35
;
_shelx_res_checksum              61712
loop_
_space_group_symop_operation_xyz
'x, y, z'
'-x, y+1/2, -z+1/2'
'-x, -y, -z'
'x, -y-1/2, z-1/2'
loop_
_atom_site_type_symbol
_atom_site_label
_atom_site_fract_x
_atom_site_fract_y
_atom_site_fract_z
_atom_site_U_iso_or_equiv
_atom_site_adp_type
_atom_site_calc_flag
_atom_site_occupancy
Zn Zn1 0.09651(4) 0.64275(4) 0.76296(4) 0.01057(9) Uani d 0.94
Al Al1 0.09651(4) 0.64275(4) 0.76296(4) 0.01057(9) Uani d 0.06
P P1 0.21870(9) 0.32876(8) 0.91619(8) 0.00857(14) Uani d 1
P P2 0.28563(9) 0.66472(8) 0.56712(8) 0.00920(15) Uani d 1
Al Al2 0.41408(9) 0.35512(9) 0.73167(9) 0.01034(16) Uani d 0.94
Zn Zn2 0.41408(9) 0.35512(9) 0.73167(9) 0.01034(16) Uani d 0.06
Na Na1 0.1986(2) 0.51018(17) 0.19444(19) 0.0216(3) Uani d 0.92
Na Na2 0.274(2) 0.494(2) 0.259(2) 0.0216(3) Uani d 0.08
O O1 0.1306(2) 0.1870(2) 0.8206(3) 0.0140(4) Uani d 1
O O2 0.1066(2) 0.4643(2) 0.8921(2) 0.0140(4) Uani d 1
O O3 0.3807(2) 0.8083(2) 0.6644(2) 0.0124(4) Uani d 1
O O4 0.4017(3) 0.5256(2) 0.6298(2) 0.0152(4) Uani d 1
O O5 0.3055(3) 0.2937(2) 1.0978(2) 0.0146(4) Uani d 1
O O6 0.2351(3) 0.6892(2) 0.3914(2) 0.0151(4) Uani d 1
O O7 0.3458(3) 0.3773(3) 0.8696(3) 0.0167(4) Uani d 1
O O8 0.1404(3) 0.6420(3) 0.5891(3) 0.0207(5) Uani d 1
loop_
_atom_site_aniso_label
_atom_site_aniso_U_11
_atom_site_aniso_U_22
_atom_site_aniso_U_33
_atom_site_aniso_U_12
_atom_site_aniso_U_13
_atom_site_aniso_U_23
Zn1 0.01090(17) 0.01047(17) 0.01171(17) -0.00007(13) 0.00658(14) 0.00124(13)
Al1 0.01090(17) 0.01047(17) 0.01171(17) -0.00007(13) 0.00658(14) 0.00124(13)
P1 0.0089(3) 0.0085(3) 0.0087(3) -0.0001(2) 0.0045(3) -0.0001(2)
P2 0.0103(3) 0.0091(3) 0.0089(3) -0.0008(3) 0.0052(3) -0.0004(3)
Al2 0.0111(4) 0.0099(4) 0.0110(4) -0.0006(3) 0.0061(3) -0.0003(3)
Zn2 0.0111(4) 0.0099(4) 0.0110(4) -0.0006(3) 0.0061(3) -0.0003(3)
Na1 0.0326(9) 0.0162(7) 0.0244(8) -0.0059(7) 0.0204(7) -0.0046(6)
Na2 0.0326(9) 0.0162(7) 0.0244(8) -0.0059(7) 0.0204(7) -0.0046(6)
O1 0.0129(10) 0.0117(10) 0.0167(10) -0.0035(8) 0.0067(9) -0.0058(8)
O2 0.0153(10) 0.0110(10) 0.0157(10) 0.0032(8) 0.0074(9) 0.0012(8)
O3 0.0112(10) 0.0107(9) 0.0143(10) -0.0010(7) 0.0054(8) -0.0024(8)
O4 0.0179(11) 0.0117(10) 0.0161(10) 0.0017(8) 0.0084(9) 0.0019(8)
O5 0.0177(11) 0.0137(10) 0.0115(10) 0.0019(8) 0.0063(9) 0.0016(8)
O6 0.0188(11) 0.0157(10) 0.0103(10) 0.0031(8) 0.0067(9) 0.0015(8)
O7 0.0174(11) 0.0212(11) 0.0171(10) -0.0058(9) 0.0127(9) -0.0048(9)
O8 0.0153(11) 0.0327(13) 0.0179(11) -0.0063(10) 0.0110(10) -0.0043(10)
loop_
_atom_type_symbol
_atom_type_description
_atom_type_scat_dispersion_real
_atom_type_scat_dispersion_imag
_atom_type_scat_source
O O 0.0106 0.0060 'International Tables Vol C Tables 4.2.6.8 and 6.1.1.4'
P P 0.1023 0.0942 'International Tables Vol C Tables 4.2.6.8 and 6.1.1.4'
Na Na 0.0362 0.0249 'International Tables Vol C Tables 4.2.6.8 and 6.1.1.4'
Zn Zn 0.2839 1.4301 'International Tables Vol C Tables 4.2.6.8 and 6.1.1.4'
Al Al 0.0645 0.0514 'International Tables Vol C Tables 4.2.6.8 and 6.1.1.4'
loop_
_geom_angle_atom_site_label_1
_geom_angle_atom_site_label_2
_geom_angle_atom_site_label_3
_geom_angle_site_symmetry_1
_geom_angle_site_symmetry_3
_geom_angle
O8 Zn1 O1 . 2_556 108.46(9)
O8 Zn1 O6 . 4_576 100.55(9)
O1 Zn1 O6 2_556 4_576 112.79(9)
O8 Zn1 O2 . . 125.84(10)
O1 Zn1 O2 2_556 . 96.80(9)
O6 Zn1 O2 4_576 . 112.69(9)
O8 Zn1 Na1 . 3_566 131.93(7)
O1 Zn1 Na1 2_556 3_566 44.58(7)
O6 Zn1 Na1 4_576 3_566 125.33(7)
O2 Zn1 Na1 . 3_566 52.22(7)
O8 Zn1 Na1 . 4_576 67.74(8)
O1 Zn1 Na1 2_556 4_576 96.53(7)
O6 Zn1 Na1 4_576 4_576 43.37(7)
O2 Zn1 Na1 . 4_576 155.94(7)
Na1 Zn1 Na1 3_566 4_576 137.29(4)
O8 Zn1 Na2 . 4_576 71.9(3)
O1 Zn1 Na2 2_556 4_576 104.9(3)
O6 Zn1 Na2 4_576 4_576 33.9(3)
O2 Zn1 Na2 . 4_576 145.6(3)
Na1 Zn1 Na2 3_566 4_576 141.9(3)
Na1 Zn1 Na2 4_576 4_576 10.7(3)
O8 Zn1 Na2 . 3_566 124.7(3)
O1 Zn1 Na2 2_556 3_566 35.5(3)
O6 Zn1 Na2 4_576 3_566 128.5(3)
O2 Zn1 Na2 . 3_566 61.6(3)
Na1 Zn1 Na2 3_566 3_566 10.2(3)
Na1 Zn1 Na2 4_576 3_566 130.8(3)
Na2 Zn1 Na2 4_576 3_566 137.4(4)
O1 P1 O2 . . 113.05(12)
O1 P1 O7 . . 109.27(12)
O2 P1 O7 . . 109.68(12)
O1 P1 O5 . . 110.65(12)
O2 P1 O5 . . 105.83(12)
O7 P1 O5 . . 108.22(12)
O1 P1 Na1 . 1_556 131.63(9)
O2 P1 Na1 . 1_556 54.68(9)
O7 P1 Na1 . 1_556 118.93(9)
O5 P1 Na1 . 1_556 51.32(9)
O1 P1 Na2 . 4_566 37.9(4)
O2 P1 Na2 . 4_566 146.0(4)
O7 P1 Na2 . 4_566 77.4(3)
O5 P1 Na2 . 4_566 103.0(3)
Na1 P1 Na2 1_556 4_566 151.6(3)
O1 P1 Na2 . 1_556 135.0(3)
O2 P1 Na2 . 1_556 65.5(4)
O7 P1 Na2 . 1_556 113.1(3)
O5 P1 Na2 . 1_556 41.3(3)
Na1 P1 Na2 1_556 1_556 11.6(3)
Na2 P1 Na2 4_566 1_556 144.0(5)
O8 P2 O6 . . 110.69(13)
O8 P2 O4 . . 112.01(13)
O6 P2 O4 . . 108.58(12)
O8 P2 O3 . . 109.14(12)
O6 P2 O3 . . 109.13(12)
O4 P2 O3 . . 107.19(12)
O8 P2 Na2 . . 115.9(4)
O6 P2 Na2 . . 37.8(4)
O4 P2 Na2 . . 72.4(4)
O3 P2 Na2 . . 131.4(3)
O8 P2 Na1 . 4_576 69.64(10)
O6 P2 Na1 . 4_576 106.49(9)
O4 P2 Na1 . 4_576 141.00(9)
O3 P2 Na1 . 4_576 43.89(8)
Na2 P2 Na1 . 4_576 144.3(4)
O7 Al2 O4 . . 112.36(11)
O7 Al2 O3 . 2_646 108.74(11)
O4 Al2 O3 . 2_646 105.42(10)
O7 Al2 O5 . 4_565 109.12(11)
O4 Al2 O5 . 4_565 111.21(11)
O3 Al2 O5 2_646 4_565 109.90(10)
O7 Al2 Na2 . 3_666 128.1(3)
O4 Al2 Na2 . 3_666 58.6(4)
O3 Al2 Na2 2_646 3_666 46.9(4)
O5 Al2 Na2 4_565 3_666 121.9(3)
O7 Al2 Na2 . 4_566 74.4(3)
O4 Al2 Na2 . 4_566 152.2(4)
O3 Al2 Na2 2_646 4_566 97.1(3)
O5 Al2 Na2 4_565 4_566 44.0(3)
Na2 Al2 Na2 3_666 4_566 139.5(5)
O7 Al2 Na1 . 3_666 122.77(8)
O4 Al2 Na1 . 3_666 67.52(8)
O3 Al2 Na1 2_646 3_666 37.90(7)
O5 Al2 Na1 4_565 3_666 124.46(8)
Na2 Al2 Na1 3_666 3_666 9.7(4)
Na2 Al2 Na1 4_566 3_666 133.2(3)
Na2 Na1 O6 . . 74.4(16)
Na2 Na1 O1 . 4_565 79.5(16)
O6 Na1 O1 . 4_565 92.35(9)
Na2 Na1 O3 . 4_575 75.8(16)
O6 Na1 O3 . 4_575 80.28(8)
O1 Na1 O3 4_565 4_575 155.32(11)
Na2 Na1 O5 . 1_554 75.6(16)
O6 Na1 O5 . 1_554 149.91(11)
O1 Na1 O5 4_565 1_554 84.65(8)
O3 Na1 O5 4_575 1_554 90.04(8)
Na2 Na1 O2 . 1_554 126.9(16)
O6 Na1 O2 . 1_554 146.40(10)
O1 Na1 O2 4_565 1_554 115.31(9)
O3 Na1 O2 4_575 1_554 81.04(8)
O5 Na1 O2 1_554 1_554 57.16(7)
Na2 Na1 O2 . 3_566 143.3(16)
O6 Na1 O2 . 3_566 84.53(8)
O1 Na1 O2 4_565 3_566 71.53(8)
O3 Na1 O2 4_575 3_566 130.31(9)
O5 Na1 O2 1_554 3_566 122.23(9)
O2 Na1 O2 1_554 3_566 86.61(8)
Na2 Na1 P1 . 1_554 101.0(15)
O6 Na1 P1 . 1_554 163.73(8)
O1 Na1 P1 4_565 1_554 102.23(7)
O3 Na1 P1 4_575 1_554 83.46(6)
O5 Na1 P1 1_554 1_554 28.65(5)
O2 Na1 P1 1_554 1_554 28.57(5)
O2 Na1 P1 3_566 1_554 106.77(7)
Na2 Na1 Zn1 . 3_566 112.2(16)
O6 Na1 Zn1 . 3_566 88.25(7)
O1 Na1 Zn1 4_565 3_566 35.37(5)
O3 Na1 Zn1 4_575 3_566 163.84(8)
O5 Na1 Zn1 1_554 3_566 105.41(7)
O2 Na1 Zn1 1_554 3_566 103.17(7)
O2 Na1 Zn1 3_566 3_566 36.16(5)
P1 Na1 Zn1 1_554 3_566 107.81(5)
Na2 Na1 Zn1 . 4_575 106.2(16)
O6 Na1 Zn1 . 4_575 35.02(6)
O1 Na1 Zn1 4_565 4_575 112.15(7)
O3 Na1 Zn1 4_575 4_575 74.56(6)
O5 Na1 Zn1 1_554 4_575 163.20(7)
O2 Na1 Zn1 1_554 4_575 112.54(7)
O2 Na1 Zn1 3_566 4_575 66.37(6)
P1 Na1 Zn1 1_554 4_575 139.15(5)
Zn1 Na1 Zn1 3_566 4_575 89.51(4)
Na2 Na1 P2 . 4_575 99.5(16)
O6 Na1 P2 . 4_575 76.41(6)
O1 Na1 P2 4_565 4_575 168.49(8)
O3 Na1 P2 4_575 4_575 25.96(5)
O5 Na1 P2 1_554 4_575 106.30(7)
O2 Na1 P2 1_554 4_575 74.57(6)
O2 Na1 P2 3_566 4_575 104.41(7)
P1 Na1 P2 1_554 4_575 89.24(4)
Zn1 Na1 P2 3_566 4_575 139.63(5)
Zn1 Na1 P2 4_575 4_575 56.92(3)
Na2 Na1 Al2 . 3_666 51.6(16)
O6 Na1 Al2 . 3_666 83.67(7)
O1 Na1 Al2 4_565 3_666 130.27(8)
O3 Na1 Al2 4_575 3_666 25.99(5)
O5 Na1 Al2 1_554 3_666 75.80(6)
O2 Na1 Al2 1_554 3_666 91.49(6)
O2 Na1 Al2 3_566 3_666 155.55(7)
P1 Na1 Al2 1_554 3_666 81.41(4)
Zn1 Na1 Al2 3_566 3_666 163.34(6)
Zn1 Na1 Al2 4_575 3_666 92.15(4)
P2 Na1 Al2 4_575 3_666 51.89(3)
Na1 Na2 O6 . . 88.3(16)
Na1 Na2 O1 . 4_565 83.5(16)
O6 Na2 O1 . 4_565 95.2(7)
Na1 Na2 O3 . 4_575 87.8(16)
O6 Na2 O3 . 4_575 83.6(6)
O1 Na2 O3 4_565 4_575 171.3(10)
Na1 Na2 O5 . 1_554 88.4(16)
O6 Na2 O5 . 1_554 175.8(10)
O1 Na2 O5 4_565 1_554 86.9(6)
O3 Na2 O5 4_575 1_554 93.7(6)
Na1 Na2 O4 . 3_666 146.5(19)
O6 Na2 O4 . 3_666 107.0(7)
O1 Na2 O4 4_565 3_666 123.2(8)
O3 Na2 O4 4_575 3_666 65.3(5)
O5 Na2 O4 1_554 3_666 74.7(5)
Na1 Na2 Al2 . 3_666 118.7(17)
O6 Na2 Al2 . 3_666 94.6(6)
O1 Na2 Al2 4_565 3_666 156.0(8)
O3 Na2 Al2 4_575 3_666 32.5(3)
O5 Na2 Al2 1_554 3_666 84.7(5)
O4 Na2 Al2 3_666 3_666 32.8(2)
Na1 Na2 P2 . . 106.4(17)
O6 Na2 P2 . . 24.5(2)
O1 Na2 P2 4_565 . 81.2(5)
O3 Na2 P2 4_575 . 100.6(6)
O5 Na2 P2 1_554 . 159.7(8)
O4 Na2 P2 3_666 . 98.2(6)
Al2 Na2 P2 3_666 . 99.6(5)
Na1 Na2 P1 . 4_565 104.5(17)
O6 Na2 P1 . 4_565 106.0(6)
O1 Na2 P1 4_565 4_565 23.6(2)
O3 Na2 P1 4_575 4_565 164.3(8)
O5 Na2 P1 1_554 4_565 77.3(5)
O4 Na2 P1 3_666 4_565 99.7(6)
Al2 Na2 P1 3_666 4_565 132.5(7)
P2 Na2 P1 . 4_565 85.4(4)
Na1 Na2 Al2 . 4_565 112.7(17)
O6 Na2 Al2 . 4_565 154.2(8)
O1 Na2 Al2 4_565 4_565 73.6(5)
O3 Na2 Al2 4_575 4_565 110.9(6)
O5 Na2 Al2 1_554 4_565 30.0(2)
O4 Na2 Al2 3_666 4_565 63.8(4)
Al2 Na2 Al2 3_666 4_565 88.3(5)
P2 Na2 Al2 . 4_565 129.8(6)
P1 Na2 Al2 4_565 4_565 55.7(3)
Na1 Na2 P1 . 1_554 67.4(15)
O6 Na2 P1 . 1_554 151.1(8)
O1 Na2 P1 4_565 1_554 97.1(6)
O3 Na2 P1 4_575 1_554 80.2(5)
O5 Na2 P1 1_554 1_554 24.7(2)
O4 Na2 P1 3_666 1_554 87.8(5)
Al2 Na2 P1 3_666 1_554 84.4(4)
P2 Na2 P1 . 1_554 173.8(7)
P1 Na2 P1 4_565 1_554 95.5(5)
Al2 Na2 P1 4_565 1_554 54.7(3)
Na1 Na2 Zn1 . 4_575 63.1(15)
O6 Na2 Zn1 . 4_575 29.0(3)
O1 Na2 Zn1 4_565 4_575 104.7(6)
O3 Na2 Zn1 4_575 4_575 70.3(5)
O5 Na2 Zn1 1_554 4_575 146.9(8)
O4 Na2 Zn1 3_666 4_575 119.9(6)
Al2 Na2 Zn1 3_666 4_575 94.4(5)
P2 Na2 Zn1 . 4_575 53.0(3)
P1 Na2 Zn1 4_565 4_575 123.8(5)
Al2 Na2 Zn1 4_565 4_575 175.7(7)
P1 Na2 Zn1 1_554 4_575 122.2(6)
P1 O1 Zn1 . 2_546 125.84(12)
P1 O1 Na2 . 4_566 118.5(5)
Zn1 O1 Na2 2_546 4_566 115.6(5)
P1 O1 Na1 . 4_566 133.34(13)
Zn1 O1 Na1 2_546 4_566 100.05(9)
Na2 O1 Na1 4_566 4_566 17.0(5)
P1 O2 Zn1 . . 121.37(12)
P1 O2 Na1 . 1_556 96.75(10)
Zn1 O2 Na1 . 1_556 117.73(10)
P1 O2 Na1 . 3_566 134.43(12)
Zn1 O2 Na1 . 3_566 91.62(8)
Na1 O2 Na1 1_556 3_566 93.39(8)
P2 O3 Al2 . 2_656 133.43(13)
P2 O3 Na2 . 4_576 124.8(5)
Al2 O3 Na2 2_656 4_576 100.6(5)
P2 O3 Na1 . 4_576 110.14(11)
Al2 O3 Na1 2_656 4_576 116.11(10)
Na2 O3 Na1 4_576 4_576 16.4(5)
P2 O4 Al2 . . 136.01(14)
P2 O4 Na2 . 3_666 131.1(4)
Al2 O4 Na2 . 3_666 88.5(4)
P1 O5 Al2 . 4_566 139.94(14)
P1 O5 Na2 . 1_556 113.9(5)
Al2 O5 Na2 4_566 1_556 105.9(5)
P1 O5 Na1 . 1_556 100.02(11)
Al2 O5 Na1 4_566 1_556 118.81(10)
Na2 O5 Na1 1_556 1_556 16.0(5)
P2 O6 Zn1 . 4_575 123.60(12)
P2 O6 Na2 . . 117.7(5)
Zn1 O6 Na2 4_575 . 117.1(5)
P2 O6 Na1 . . 129.88(13)
Zn1 O6 Na1 4_575 . 101.61(10)
Na2 O6 Na1 . . 17.3(5)
P1 O7 Al2 . . 145.65(15)
P2 O8 Zn1 . . 136.70(14)
loop_
_geom_bond_atom_site_label_1
_geom_bond_atom_site_label_2
_geom_bond_site_symmetry_2
_geom_bond_distance
_geom_bond_publ_flag
Zn1 O8 . 1.899(2) y
Zn1 O1 2_556 1.943(2) y
Zn1 O6 4_576 1.947(2) y
Zn1 O2 . 1.951(2) y
Zn1 Na1 3_566 3.3056(15) n
Zn1 Na1 4_576 3.3236(15) n
Zn1 Na2 4_576 3.580(19) n
Zn1 Na2 3_566 3.625(19) n
P1 O1 . 1.517(2) y
P1 O2 . 1.528(2) y
P1 O7 . 1.537(2) y
P1 O5 . 1.545(2) y
P1 Na1 1_556 3.1724(16) n
P1 Na2 4_566 3.334(19) n
P1 Na2 1_556 3.374(18) n
P2 O8 . 1.509(2) y
P2 O6 . 1.518(2) y
P2 O4 . 1.546(2) y
P2 O3 . 1.553(2) y
P2 Na2 . 3.243(18) n
P2 Na1 4_576 3.3303(16) n
Al2 O7 . 1.740(2) y
Al2 O4 . 1.742(2) y
Al2 O3 2_646 1.754(2) y
Al2 O5 4_565 1.754(2) y
Al2 Na2 3_666 3.210(19) n
Al2 Na2 4_566 3.372(19) n
Al2 Na1 3_666 3.5951(17) n
Na1 Na2 . 0.69(2) n
Na1 O6 . 2.330(3) y
Na1 O1 4_565 2.356(2) y
Na1 O3 4_575 2.459(2) y
Na1 O5 1_554 2.515(3) y
Na1 O2 1_554 2.606(3) y
Na1 O2 3_566 2.614(3) y
Na2 O6 . 2.245(18) y
Na2 O1 4_565 2.332(18) y
Na2 O3 4_575 2.386(18) y
Na2 O5 1_554 2.437(18) y
Na2 O4 3_666 2.74(2) y
