#------------------------------------------------------------------------------
#$Date: 2020-02-27 07:51:45 +0200 (Thu, 27 Feb 2020) $
#$Revision: 248485 $
#$URL: file:///home/coder/svn-repositories/cod/cif/2/02/19/2021990.cif $
#------------------------------------------------------------------------------
#
# This file is available in the Crystallography Open Database (COD),
# http://www.crystallography.net/. The original data for this entry
# were provided by IUCr Journals, http://journals.iucr.org/.
#
# The file may be used within the scientific community so long as
# proper attribution is given to the journal article from which the
# data were obtained.
#
data_2021990
loop_
_publ_author_name
'Kiriukhina, Galina V.'
'Yakubovich, Olga V.'
'Shvanskaya, Larisa V.'
'Kochetkova, Ekaterina M.'
'Dimitrova, Olga V.'
'Volkov, Anatoliy S.'
'Simonov, Sergey V.'
_publ_section_title
;
 Novel K/Mn phosphate hydrates, K~2~Mn~3~(H~2~O)~2~[P~2~O~7~]~2~ and
 KMn(H~2~O)~2~[Al~2~(PO~4~)~3~]: hydrothermal synthesis and crystal
 chemistry
;
_journal_coeditor_code           FN3331
_journal_issue                   3
_journal_name_full               'Acta Crystallographica Section C'
_journal_page_first
;
;
_journal_paper_doi               10.1107/S2053229620002466
_journal_volume                  76
_journal_year                    2020
_chemical_formula_iupac          'K2 [Mn3 (P2 O7)2 (H2 O)2]'
_chemical_formula_moiety         'H4 K2 Mn3 O16 P4'
_chemical_formula_sum            'H4 K2 Mn3 O16 P4'
_chemical_formula_weight         626.93
_chemical_name_common            'Potassium manganese pyrophosphate hydrate'
_chemical_name_systematic
'Dipotassium trimanganese dipyrophosphate dihydrate'
_space_group_crystal_system      monoclinic
_space_group_IT_number           14
_space_group_name_Hall           '-P 2ybc'
_space_group_name_H-M_alt        'P 1 21/c 1'
_atom_sites_solution_hydrogens   difmap
_atom_sites_solution_primary     direct
_atom_sites_solution_secondary   difmap
_audit_creation_method           SHELXL-2016/6
_cell_angle_alpha                90
_cell_angle_beta                 98.9240(10)
_cell_angle_gamma                90
_cell_formula_units_Z            2
_cell_length_a                   9.19440(10)
_cell_length_b                   8.31340(10)
_cell_length_c                   9.3798(2)
_cell_measurement_reflns_used    6532
_cell_measurement_temperature    293(2)
_cell_measurement_theta_max      32.2460
_cell_measurement_theta_min      3.2920
_cell_volume                     708.282(19)
_computing_cell_refinement
;
CrysAlis PRO (Agilent, 2014)
;
_computing_data_collection
;
CrysAlis PRO (Agilent, 2014)
;
_computing_data_reduction
;
CrysAlis PRO (Agilent, 2014)
;
_computing_molecular_graphics
;
DIAMOND (Brandenburg, 2006)
;
_computing_publication_material
;
WinGX (Farrugia, 2012) and
<i>International Tables for Crystallography</i> (2004)
;
_computing_structure_refinement
;
SHELXL2016 (Sheldrick, 2015b)
;
_computing_structure_solution
;
SHELXT (Sheldrick, 2015a)
;
_diffrn_ambient_temperature      293(2)
_diffrn_detector_area_resol_mean 16.0630
_diffrn_measured_fraction_theta_full 0.999
_diffrn_measured_fraction_theta_max 1.000
_diffrn_measurement_device_type  'Agilent Xcalibur Sapphire3'
_diffrn_measurement_method       \w
_diffrn_radiation_type           MoK\a
_diffrn_radiation_wavelength     0.71073
_diffrn_reflns_av_R_equivalents  0.0430
_diffrn_reflns_av_unetI/netI     0.0269
_diffrn_reflns_limit_h_max       12
_diffrn_reflns_limit_h_min       -12
_diffrn_reflns_limit_k_max       11
_diffrn_reflns_limit_k_min       -11
_diffrn_reflns_limit_l_max       13
_diffrn_reflns_limit_l_min       -13
_diffrn_reflns_number            13181
_diffrn_reflns_theta_full        25.242
_diffrn_reflns_theta_max         29.994
_diffrn_reflns_theta_min         3.292
_diffrn_source                   'Enhance (Mo) X-ray Source'
_exptl_absorpt_coefficient_mu    3.762
_exptl_absorpt_correction_T_max  0.787
_exptl_absorpt_correction_T_min  0.703
_exptl_absorpt_correction_type   gaussian
_exptl_absorpt_process_details
;
(CrysAlis PRO; Agilent, 2014)
;
_exptl_crystal_colour            'light pink'
_exptl_crystal_density_diffrn    2.940
_exptl_crystal_description       cube
_exptl_crystal_F_000             610
_exptl_crystal_size_max          0.141
_exptl_crystal_size_mid          0.093
_exptl_crystal_size_min          0.076
_refine_diff_density_max         0.411
_refine_diff_density_min         -0.454
_refine_ls_extinction_coef       0.0026(5)
_refine_ls_extinction_expression Fc^*^=kFc[1+0.001xFc^2^\l^3^/sin(2\q)]^-1/4^
_refine_ls_extinction_method
;
SHELXL2016 (Sheldrick, 2015b)
;
_refine_ls_goodness_of_fit_ref   1.075
_refine_ls_hydrogen_treatment    refall
_refine_ls_matrix_type           full
_refine_ls_number_parameters     124
_refine_ls_number_reflns         2062
_refine_ls_number_restraints     0
_refine_ls_restrained_S_all      1.075
_refine_ls_R_factor_all          0.0271
_refine_ls_R_factor_gt           0.0233
_refine_ls_shift/su_max          0.001
_refine_ls_shift/su_mean         0.000
_refine_ls_structure_factor_coef Fsqd
_refine_ls_weighting_details
'w=1/[\s^2^(Fo^2^)+(0.0160P)^2^+0.6000P] where P=(Fo^2^+2Fc^2^)/3'
_refine_ls_weighting_scheme      calc
_refine_ls_wR_factor_gt          0.0497
_refine_ls_wR_factor_ref         0.0511
_reflns_number_gt                1878
_reflns_number_total             2062
_reflns_threshold_expression     'I > 2\s(I)'
_cod_data_source_file            fn3331sup1.cif
_cod_data_source_block           I
_cod_original_sg_symbol_H-M      'P 21/c'
_cod_database_code               2021990
_shelx_space_group_comment
;
The symmetry employed for this shelxl refinement is uniquely defined
by the following loop, which should always be used as a source of
symmetry information in preference to the above space-group names.
They are only intended as comments.
;
_shelx_estimated_absorpt_t_min   0.619
_shelx_estimated_absorpt_t_max   0.763
_shelx_hkl_file
;
   0   0  -2 37540.8 1012.56   2
   0   0   2 35502.0 1273.34   9
   0   0  -2 39466.8 1324.53   9
   0   0  -2 38361.9 1354.02   4
   0   0   2 40839.0 1255.69  10
   0   0   2 35000.4 1294.74   4
   0   0  -2 34031.0 1188.32  10
   0   0   2 38783.7 1000.43   2
   0   0  -3 210.634 107.478   2
   0   0   3 231.265 186.394   9
   0   0   3 264.343 230.271   4
   0   0  -3 348.256 152.003  10
   0   0   3 21.9471 70.5365   2
   0   0  -4 376925. 7603.03   2
   0   0   4 352592. 8475.19   4
   0   0  -4 369237. 8792.21   8
   0   0   4 356918. 8456.25   9
   0   0  -4 357314. 8191.61  10
   0   0   5-71.7692 210.702   9
   0   0  -5 160.739 187.042  10
   0   0  -5-58.7794 336.512   8
   0   0  -5 91.7449 141.021   2
   0   0   5 65.3371 195.776   4
   0   0   6 293068. 7842.24   9
   0   0  -6 297408. 8285.77   8
   0   0   6 292119. 7846.74   4
   0   0  -6 297855. 6519.79   2
   0   0  -6 294781. 7483.04  10
   0   0  -7 66.4339 239.142  10
   0   0   7 432.906 429.921   5
   0   0   7 125.349 290.167   4
   0   0   7 75.5448 237.571   9
   0   0  -7 263.199 382.680   8
   0   0   8 400750. 10705.8   9
   0   0   8 393495. 10476.2   5
   0   0  -8 404537. 10174.8  10
   0   0  -8 390591. 11293.3   8
   0   0   8 398907. 10693.4   4
   0   0   9-168.680 320.512   9
   0   0  -9 329.439 274.713  10
   0   0   9 551.382 352.423   4
   0   0  -9 87.1933 483.511   8
   0   0   9 224.290 378.734   5
   0   0 -10 95373.2 5177.55   8
   0   0  10 97722.6 4525.33   5
   0   0 -10 99719.2 4295.57  10
   0   0  10 101805. 4775.79   4
   0   0  10 103100. 4804.79   9
   0   0 -11 626.763 639.603   8
   0   0  11-191.867 393.461   9
   0   0  11 619.384 506.949   5
   0   0  11 58.4070 338.855   4
   0   0 -11-106.371 600.228   3
   0   0 -12 12817.2 2047.11   3
   0   0  12 11119.4 1678.08   9
   0   0  12 10536.9 1602.28   4
   0   0 -12 15687.3 2296.21   8
   0   0 -13-834.978 620.547   3
   0   0 -13 864.679 959.665   8
   0   1   1 1282.62 227.986   1
   0  -1   1 1700.61 198.562  10
   0   1  -1 1765.09 238.798   3
   0   1  -1 2035.91 229.967   9
   0  -1   1 1973.32 181.601   4
   0   1  -1 2148.49 252.693   7
   0  -1   1 1901.84 250.568   3
   0   1  -1 2255.90 183.496   4
   0  -1   1 1455.87 195.911   9
   0  -1   1 1796.76 233.828   7
   0  -1  -1 2091.01 289.603   1
   0   1  -1 2156.47 215.797  10
   0   1   1 1980.55 304.490   8
   0  -1  -1 1947.49 303.796   8
   0   1   2 17220.8 925.132   9
   0   1  -2 19900.3 909.349   9
   0   1  -2 17461.3 943.120   3
   0   1   2 19619.6 868.448   2
   0   1  -2 19929.1 807.381   4
   0   1  -2 16528.4 749.038  10
   0  -1   2 19694.7 808.287  10
   0   1   2 17401.6 903.929   1
   0  -1   2 18043.1 772.718   4
   0   1   2 17580.1 981.622   4
   0  -1  -2 16726.5 891.257  10
   0  -1   2 17894.3 865.747   9
   0  -1   2 18198.4 958.421   7
   0  -1  -2 15968.9 950.940   8
   0   1   2 17673.3 625.331   5
   0   1  -3 2588.88 466.130   3
   0  -1  -3 1859.13 333.289  10
   0  -1  -3 2557.03 467.341   8
   0   1   3 1632.21 273.092   2
   0   1   3 2073.05 412.446   4
   0  -1   3 1416.12 288.577   9
   0   1   3 2106.49 277.617   5
   0  -1   3 1936.65 403.564   7
   0  -1   3 2103.01 328.721   4
   0   1  -3 2084.59 289.498  10
   0   1   3 2068.41 392.070   9
   0   1   4 101375. 2922.26   5
   0   1   4 104285. 3502.11   4
   0  -1   4 104583. 3144.32   4
   0   1  -4 111476. 2559.28   2
   0   1  -4 98888.5 2967.46  10
   0  -1  -4 96957.7 3216.71  10
   0  -1  -4 101658. 3531.91   8
   0   1   4 110712. 3487.23   9
   0  -1   4 102408. 3211.54   9
   0   1  -5 2210.03 390.164  10
   0  -1  -5 3517.15 681.415   8
   0  -1  -5 2705.29 492.117  10
   0   1  -5 2815.94 287.267   2
   0  -1   5 2830.64 497.057   9
   0   1   5 2531.33 544.087   4
   0  -1   5 3804.57 559.988   4
   0   1   5 2054.82 392.260   5
   0   1   5 2752.98 541.731   9
   0   1   6 6511.28 933.143   4
   0   1  -6 6383.27 737.867  10
   0   1   6 7473.90 810.886   5
   0  -1  -6 7920.77 897.718  10
   0   1   6 8075.64 989.915   9
   0  -1  -6 6397.52 962.656   8
   0  -1   6 6773.80 825.554   4
   0   1  -6 7549.23 484.806   2
   0  -1   6 7364.21 880.010   9
   0  -1   7 3204.30 652.376   9
   0   1  -7 2910.04 712.994   3
   0  -1  -7 2372.71 552.107  10
   0   1  -7 3697.06 602.877  10
   0  -1  -7 2873.37 811.218   8
   0  -1   7 3077.60 629.361   4
   0   1   7 3589.52 762.562   4
   0   1  -7 2953.11 296.657   2
   0   1   7 2764.41 609.495   5
   0   1   7 3647.17 749.425   9
   0  -1   8 109469. 4461.38   9
   0  -1  -8 114542. 4381.86  10
   0   1   8 117141. 4238.76   5
   0  -1   8 109467. 4358.26   4
   0   1  -8 101800. 4752.09   3
   0  -1  -8 107671. 4917.13   8
   0   1   8 111211. 4737.67   4
   0   1   8 115167. 4679.62   9
   0   1  -8 116785. 4125.12  10
   0   1  -8 110692. 4941.44   8
   0  -1   8 111711. 4673.07   5
   0  -1   9 113.628 384.790   9
   0   1   9 360.781 329.619   5
   0  -1   9 413.194 362.905   4
   0  -1   9 847.429 534.928   5
   0  -1  -9 435.529 226.583  10
   0  -1  -9 706.553 635.991   8
   0   1   9 429.540 424.006   4
   0   1  -9 297.661 252.269  10
   0   1   9 596.175 413.272   9
   0   1  -9 628.347 525.216   3
   0   1  -9 1347.59 589.249   8
   0   1  10-288.112 425.461   4
   0   1 -10 100.222 401.460   3
   0  -1  10 378.623 436.228   5
   0  -1  10 47.4361 391.521   9
   0  -1 -10 896.218 858.949   8
   0   1 -10-71.7235 488.085   8
   0   1  10-345.243 385.477   9
   0  -1  10 504.411 431.883   4
   0  -1  11 7991.43 1300.09   4
   0   1  11 6728.40 1240.68   9
   0   1 -11 6816.15 1450.62   8
   0  -1 -11 7793.23 1577.01   8
   0   1 -11 4005.51 1091.72   3
   0  -1  11 6224.48 1200.23   5
   0   1  11 5307.90 1153.28   4
   0  -1  11 6849.66 1252.22   9
   0  -1  12 9340.43 1551.35   9
   0   1 -12 9055.66 1782.40   8
   0   1  12 10893.5 1698.15   4
   0  -1  12 9265.90 1575.93   5
   0   1 -12 9225.81 1709.37   3
   0  -1 -12 14404.1 2249.62   8
   0   1 -13 6475.11 1585.11   3
   0  -1 -13 2711.54 1142.81   8
   0   1  13 2540.78 945.526   4
   0  -1 -13 2463.55 1035.99   3
   0   1 -13 3695.81 1273.64   8
   0  -2   0 513.362 241.292   7
   0  -2   0 182.389 188.807   8
   0   2  -1 10781.9 684.043  10
   0  -2   1 9799.46 695.918   7
   0  -2  -1 10877.9 891.827   8
   0  -2   1 10123.3 700.605   9
   0   2  -1 10928.8 759.907   3
   0   2   1 11875.7 855.959   1
   0   2  -2 67473.1 2117.19  10
   0  -2  -2 66164.6 2677.06   8
   0  -2   2 71040.3 2277.75   9
   0   2   2 71934.9 2414.33   1
   0   2  -2 77049.4 1993.81   4
   0  -2   2 69068.0 2339.52   7
   0   2  -2 68385.4 2373.36   3
   0   2  -3 25782.0 1209.34  10
   0  -2   3 27309.1 1366.10   9
   0  -2   3 29291.6 1194.93   4
   0   2   3 27097.9 1421.71   1
   0   2  -3 29445.7 1550.05   3
   0   2   3 27613.8 1583.99   4
   0  -2   3 28063.8 1510.17   7
   0  -2  -3 28591.5 1682.97   8
   0  -2   4 1976.57 341.691   4
   0   2   4 1569.91 404.302   1
   0  -2   4 1274.22 458.274   7
   0   2   4 1528.54 238.787   5
   0   2  -4 1190.95 376.057   3
   0   2  -4 1788.69 317.156  10
   0  -2  -4 1328.62 455.636   8
   0   2   4 1099.17 372.616   4
   0   2   5 22628.1 1597.41   9
   0   2   5 19447.9 1011.76   5
   0   2  -5 19902.8 1535.61   3
   0   2  -5 19146.3 1171.57  10
   0  -2   5 19721.7 1225.89   4
   0  -2   5 19464.5 1348.54   9
   0  -2  -5 18986.3 1564.33   8
   0   2   5 20375.5 1606.03   4
   0  -2   5 22271.1 1621.98   7
   0   2   6 6906.30 1001.86   4
   0   2   6 6409.79 650.173   5
   0   2  -6 6592.36 502.496   2
   0   2  -6 6248.15 960.788   3
   0   2   6 6618.13 947.925   9
   0   2  -6 4562.66 624.777  10
   0  -2   6 5543.03 714.607   4
   0  -2   6 5543.20 775.532   9
   0  -2  -6 6740.32 968.183   8
   0   2  -7 5759.66 1026.03   3
   0  -2   7 6919.64 880.313   4
   0   2   7 7341.91 779.067   5
   0  -2   7 6027.96 897.614   9
   0   2  -7 7248.83 826.240  10
   0   2  -7 6639.40 477.490   2
   0   2   7 6000.21 1020.14   4
   0   2   7 5769.50 954.586   9
   0  -2  -7 4544.20 938.797   8
   0   2  -8 806.010 344.350  10
   0   2   8 727.227 347.263   5
   0  -2   8 849.134 424.025   4
   0  -2   8 1057.66 544.985   9
   0   2  -8 397.747 443.586   3
   0   2   8 810.019 455.853   4
   0   2   8 675.315 476.408   9
   0  -2  -8 327.012 569.571   8
   0   2  -9 7795.28 977.373  10
   0  -2  -9 6912.81 1344.26   8
   0   2   9 9884.89 1377.09   9
   0   2   9 7663.19 1278.44   4
   0  -2   9 7791.71 1131.53   9
   0   2  -9 7324.35 1337.38   3
   0  -2   9 6858.84 1013.96   4
   0  -2   9 8540.57 1339.60   5
   0   2  10 1436.44 633.047   4
   0  -2 -10 1179.79 656.661   8
   0  -2  10 2688.36 679.395   4
   0  -2  10 2292.67 673.670   9
   0   2 -10 3061.91 947.826   3
   0  -2  10 1825.33 751.223   5
   0   2 -10 2541.35 965.316   8
   0  -2  11 2169.08 887.974   5
   0   2  11 1313.81 736.840   4
   0  -2  11 655.081 395.777   9
   0  -2 -11 937.187 735.734   8
   0   2 -11 3667.70 1120.58   3
   0   2 -11 2094.29 815.883   8
   0  -2 -12 19830.5 2680.65   8
   0   2 -12 23270.0 2736.38   3
   0   2 -12 19391.5 2529.83   8
   0  -2  12 15659.1 2108.69   5
   0   2  12 20927.8 2496.71   4
   0   2 -13 1165.40 847.144   8
   0   2 -13 1413.57 912.345   3
   0  -2 -13 483.133 965.241   8
   0   2  13 808.580 748.544   4
   0   3   0 239.309 294.780   1
   0  -3   0 586.286 322.565   7
   0  -3   0-227.046 314.648   8
   0   3   1 126507. 3762.33   1
   0  -3   1 118304. 3576.63   7
   0  -3  -1 125954. 3972.54   8
   0   3  -1 126059. 3728.03   1
   0  -3   2 166082. 4558.33   7
   0  -3   2 157197. 4456.98   9
   0   3  -2 170810. 4666.02   3
   0   3  -2 160071. 4314.43  10
   0  -3  -2 165533. 5151.10   8
   0   3   2 151063. 4719.84   1
   0   3  -3 192175. 5500.11   3
   0   3   3 203921. 5488.01   1
   0  -3  -3 178132. 6024.98   8
   0   3  -3 191235. 5008.97  10
   0  -3   3 198310. 5432.79   7
   0  -3   3 194656. 5260.61   9
   0  -3   4-60.6448 201.965   9
   0   3  -4 378.382 368.101   3
   0   3  -4 85.9030 139.776  10
   0   3   4 128.415 272.434   1
   0   3   4 336.901 267.283   4
   0  -3   4 170.530 287.729   7
   0  -3   4 6.00722 129.969   4
   0  -3  -4 1051.08 702.789   8
   0  -3   5 361923. 8108.78   4
   0   3   5 334494. 8794.01   1
   0   3   5 343552. 9440.47   4
   0  -3  -5 342705. 9723.33   8
   0  -3   5 341389. 9087.24   7
   0   3  -5 340008. 8197.37  10
   0  -3   5 337797. 8635.26   9
   0   3  -5 337352. 9155.33   3
   0   3   6 967.919 550.757   4
   0  -3   6 1089.18 354.795   4
   0  -3  -6 1451.70 722.536   8
   0   3  -6 599.462 289.080  10
   0  -3   6 610.498 255.003   9
   0   3  -6 789.681 473.240   3
   0  -3   6 870.253 447.891   7
   0   3   7 380.289 534.966   4
   0   3  -7 1133.54 368.795  10
   0  -3   7 942.809 411.903   9
   0  -3   7 788.666 376.819   4
   0  -3  -7 1004.64 702.071   8
   0   3  -7 1289.18 645.816   3
   0   3   8 1913.50 687.092   4
   0   3  -8 3741.55 943.579   3
   0  -3   8 1906.03 584.295   9
   0  -3   8 1647.16 477.926   4
   0  -3  -8 2038.25 839.062   8
   0   3  -8 1397.34 422.543  10
   0   3  -9 143916. 6267.64   3
   0   3   9 145407. 6395.62   4
   0  -3   9 153040. 5269.42   4
   0  -3  -9 146646. 6732.40   8
   0  -3   9 147837. 5647.04   9
   0   3  10 27520.5 2676.96   4
   0  -3 -10 26170.4 2862.90   8
   0  -3  10 27544.7 2668.46   5
   0  -3  10 25391.3 2223.90   9
   0   3 -10 22009.1 2416.45   3
   0   3 -11 19613.7 2464.47   3
   0  -3 -11 21299.9 2712.18   8
   0   3  11 22193.0 2524.77   4
   0  -3  11 20721.8 2378.35   5
   0  -3  11 20990.2 2151.94   9
   0   3 -11 23080.2 2645.22   8
   0   3 -12 886.572 792.848   3
   0   3  12-107.566 543.890   4
   0  -3  12 698.975 773.309   5
   0  -3 -12-395.502 883.279   8
   0   3 -12-396.667 754.381   8
   0  -3  13 25822.0 2889.03   5
   0   3  13 28138.6 3129.49   4
   0   4   0 21753.3 1439.28   1
   0  -4   0 24747.3 1626.30   8
   0  -4   0 24368.9 1505.53   7
   0   4   1 156491. 4796.00   1
   0  -4  -1 155973. 5024.70   8
   0  -4  -1 145928. 4699.57   7
   0  -4   1 152512. 4618.76   7
   0   4  -1 165058. 3700.13   6
   0   4  -1 151585. 4690.08   1
   0  -4   2 743.538 331.278   7
   0  -4  -2 338.080 438.210   8
   0  -4   2 1260.81 359.384   9
   0   4  -2 325.987 267.049   3
   0   4   2 403.966 502.206   1
   0   4  -2 1035.43 325.333  10
   0  -4   3 123581. 4214.54   7
   0   4   3 127722. 4437.99   1
   0   4  -3 124965. 3989.04  10
   0  -4   3 126603. 4174.44   9
   0   4  -3 128261. 4357.35   3
   0  -4  -3 122674. 4857.07   8
   0   4   4 14308.3 1324.05   1
   0   4  -4 14341.3 1142.31  10
   0  -4   4 14802.4 1363.55   7
   0   4   4 15001.9 1460.57   4
   0  -4   4 14339.7 1255.40   9
   0   4  -4 15466.9 1418.59   3
   0  -4  -4 17325.7 1903.23   8
   0  -4   5 43044.3 2564.46   7
   0   4   5 45476.8 2791.83   4
   0  -4  -5 48249.4 3267.81   8
   0   4   5 48014.2 2576.35   1
   0  -4   5 47046.6 2469.09   9
   0   4  -5 49090.7 2270.97  10
   0   4  -5 46709.8 2701.47   3
   0   4  -6 12951.8 1145.71  10
   0   4   6 12048.7 1524.27   4
   0   4  -6 10184.9 1340.28   3
   0  -4  -6 12791.9 1907.80   8
   0  -4   6 12157.2 1446.81   7
   0  -4   6 14555.9 1382.17   9
   0   4   6 13045.5 1362.04   1
   0  -4   6 14273.9 1093.18   4
   0   4  -7 3866.66 938.933   3
   0   4  -7 4364.63 704.873  10
   0  -4   7 3978.47 980.055   7
   0  -4  -7 4072.80 1119.10   8
   0  -4   7 4728.74 673.429   4
   0   4   7 3072.64 845.193   4
   0  -4   7 3342.95 733.807   9
   0  -4   8 31846.6 2288.56   9
   0   4   8 29174.6 2631.91   4
   0  -4  -8 33442.6 3120.05   8
   0   4  -8 34005.1 2722.84   3
   0   4  -8 32193.1 1989.05  10
   0  -4   9-30.8459 342.718   9
   0   4   9 1001.21 707.574   4
   0   4  -9 1205.82 733.091   3
   0  -4  -9 683.366 745.930   8
   0  -4  10 1272.75 514.459   9
   0  -4  10 174.049 559.166   5
   0   4 -10 588.541 609.620   3
   0   4  10 224.646 599.993   4
   0  -4 -11 2263.28 1225.26   8
   0  -4  11 2111.35 945.597   5
   0   4  11 1300.10 826.319   4
   0   4 -11 2344.12 944.814   3
   0  -4  12 495.462 849.816   5
   0   4 -12 76.5085 752.716   8
   0   4 -12-298.861 538.561   3
   0   4  12 111.031 486.041   4
   0  -4 -12 1555.32 1299.41   8
   0  -4  13 1154.47 777.292   5
   0   5   0 240.874 391.431   1
   0  -5   0 555.603 422.365   7
   0  -5   0-560.032 509.888   8
   0  -5  -1 106060. 4074.52   7
   0   5  -1 110628. 4084.23   1
   0   5   1 119719. 4268.13   1
   0  -5   1 111278. 4022.82   7
   0  -5  -1 111720. 4383.60   8
   0   5  -1 112535. 2776.40   6
   0   5  -2 1968.07 581.331   1
   0  -5   2 1811.45 526.242   7
   0   5  -2 2120.96 488.808  10
   0  -5   2 2186.65 566.805   9
   0  -5  -2 2356.11 760.198   8
   0   5   2 2089.83 728.857   1
   0   5  -3 200470. 5885.40  10
   0   5   3 185022. 6277.31   1
   0  -5  -3 198255. 6785.99   8
   0  -5   3 205987. 6187.56   7
   0  -5   3 208528. 6172.92   9
   0  -5  -3 200804. 4619.25   6
   0   5  -3 200495. 6285.71   3
   0  -5  -3 193640. 4166.76   5
   0  -5   4 16122.3 1447.90   9
   0  -5  -4 16402.0 1926.87   8
   0   5  -4 16530.1 1342.29  10
   0   5   4 17280.9 1588.13   1
   0   5  -4 16215.8 1571.41   3
   0  -5   4 15272.3 1472.77   7
   0   5  -5 7575.72 934.551  10
   0  -5  -5 6877.36 1572.95   8
   0  -5   5 7082.07 1094.14   7
   0   5   5 7169.44 1066.62   1
   0   5  -5 7312.73 1139.05   3
   0   5   5 6333.35 1122.06   4
   0  -5   5 6612.33 957.453   9
   0   5   6 334.835 449.658   4
   0   5   6 67.9548 311.022   1
   0  -5   6 773.704 432.346   7
   0  -5  -6 1661.97 1184.19   8
   0   5  -6 1270.93 666.830   3
   0   5  -6 905.537 334.661  10
   0  -5   6 1021.77 460.482   9
   0   5   7 138897. 6079.07   4
   0   5  -7 139075. 4721.08  10
   0   5  -7 121852. 5505.66   3
   0  -5  -7 125886. 6502.83   8
   0  -5   7 131941. 5138.72   9
   0  -5   7 137439. 5670.50   7
   0   5   7 135612. 5402.20   1
   0   5  -8 15625.6 1930.17   3
   0  -5   8 17261.0 1722.83   9
   0  -5  -8 19145.0 2654.17   8
   0  -5   8 15416.3 1849.46   7
   0   5   8 18719.9 2173.89   4
   0   5   9 5806.74 1364.80   4
   0  -5  -9 8735.11 1984.28   8
   0  -5   9 6524.25 1100.54   9
   0   5  -9 5286.25 1190.65   3
   0  -5  10 120.009 484.056   5
   0  -5  10 47.0779 390.108   9
   0   5  10 741.822 882.907   4
   0   5 -10-87.2557 481.786   3
   0  -5  11 22261.2 2712.31   5
   0   5  11 18670.2 2526.75   4
   0  -5 -11 27935.4 3616.11   8
   0   5 -11 23761.0 2791.41   3
   0   5  12 310.595 548.402   4
   0   5 -12 1269.30 737.352   3
   0  -5 -12 2723.77 1904.30   8
   0  -5  12 916.703 619.281   5
   0  -6   0 47473.6 2660.23   7
   0   6   0 47486.5 2694.23   1
   0  -6  -1 10867.1 1266.80   7
   0  -6  -1 11912.2 1400.77   8
   0  -6   1 12311.0 1307.19   7
   0   6  -1 9676.54 1168.10  10
   0   6  -1 11175.0 1283.59   1
   0   6   1 11029.6 1326.21   1
   0  -6  -2 34636.2 2396.25   7
   0  -6   2 31684.4 2167.83   9
   0   6  -2 31325.3 2111.91  10
   0  -6   2 35359.7 2259.92   7
   0   6   2 33944.6 2476.47   1
   0   6  -2 29447.6 2164.89   1
   0  -6  -2 31146.6 2434.84   8
   0  -6   3 58068.1 3013.92   7
   0   6   3 51181.9 3156.46   1
   0   6  -3 49917.9 2964.90   1
   0  -6  -3 57337.9 3414.29   8
   0   6  -3 56574.5 2858.22  10
   0  -6   3 51204.4 2873.05   9
   0  -6  -3 54664.3 1643.71   5
   0  -6   4 5642.45 956.457   9
   0  -6   4 5976.07 1026.25   7
   0   6  -4 7422.64 1216.13   3
   0   6  -4 6543.79 944.078  10
   0  -6  -4 4475.97 1075.78   8
   0   6   4 5201.66 939.808   1
   0   6  -5 18616.2 1596.85  10
   0  -6   5 17834.7 1760.64   7
   0   6   5 17806.5 1717.10   1
   0   6   5 18665.0 1976.07   4
   0   6  -5 19482.8 1946.85   3
   0  -6  -5 14577.9 2021.07   8
   0  -6   5 19679.7 1788.22   9
   0  -6  -6 76958.5 4747.57   8
   0  -6   6 85219.5 3990.56   9
   0   6  -6 78749.0 3547.81  10
   0   6  -6 76303.4 4151.31   3
   0   6   6 75422.8 4325.48   4
   0   6   6 77127.2 3870.06   1
   0  -6   6 75334.1 4016.02   7
   0  -6  -7 4257.29 1416.70   8
   0   6   7 6869.58 1387.18   4
   0  -6   7 6276.97 1066.65   9
   0   6  -7 5107.12 831.031  10
   0   6  -7 5396.11 1132.13   3
   0   6   7 5514.68 1087.21   1
   0  -6   7 6473.53 1222.03   7
   0  -6   8 8817.40 1291.78   9
   0  -6  -8 10478.7 2111.84   8
   0  -6   8 11878.9 1697.02   7
   0   6   8 10410.5 1709.70   4
   0   6  -8 10310.0 1616.26   3
   0  -6  -9 1659.42 1131.00   8
   0   6   9 1318.87 768.624   4
   0   6  -9 1766.43 745.907   3
   0  -6   9 747.523 697.964   7
   0  -6   9 709.080 458.359   9
   0   6 -10 14962.4 2199.65   3
   0   6  10 17772.6 2445.60   4
   0  -6  10 19335.3 2571.60   5
   0  -6  11 27360.3 3171.83   5
   0  -6 -11 34451.6 4114.78   8
   0   6 -11 34479.8 3445.35   3
   0   6  11 34432.2 3520.86   4
   0  -7   0 409.267 530.047   7
   0   7   0-256.249 536.143   1
   0   7  -1 45498.3 2870.32   1
   0   7   1 42802.9 2877.34   1
   0   7  -1 43874.0 2788.78  10
   0  -7  -1 46533.9 2896.64   7
   0  -7   1 43445.1 2748.29   7
   0  -7  -1 44570.8 3028.29   8
   0  -7   2 1616.76 578.972   9
   0  -7  -2 1054.50 587.991   7
   0  -7  -2 1651.76 809.853   8
   0  -7   2 1764.77 667.604   7
   0   7   2 2783.42 1010.76   1
   0   7  -2 829.918 574.605   1
   0   7  -2 1032.73 523.527  10
   0  -7  -3 37972.0 2780.42   7
   0   7   3 30295.8 2645.47   1
   0  -7   3 33118.3 2448.95   9
   0  -7  -3 39506.2 3015.97   8
   0   7  -3 29104.0 2407.03   1
   0   7  -3 31516.4 2280.65  10
   0  -7   3 34898.9 2507.53   7
   0  -7   4 12728.7 1492.24   9
   0   7  -4 8595.43 1183.03  10
   0   7  -4 9908.68 1460.40   1
   0   7   4 9629.53 1440.48   4
   0   7   4 8915.57 1395.64   1
   0  -7  -4 11022.1 1660.24   8
   0  -7   4 10581.7 1371.47   7
   0  -7  -5 51545.0 3736.38   8
   0  -7   5 50408.0 3237.44   7
   0   7  -5 48764.8 3337.30   3
   0   7   5 53816.3 3557.85   4
   0  -7   5 49509.8 3131.74   9
   0   7   5 55711.1 3321.36   1
   0   7  -5 48573.2 3384.17   1
   0   7  -5 55720.3 3072.12  10
   0   7   6 42023.8 3294.49   4
   0   7  -6 44487.9 2744.02  10
   0   7   6 45500.6 3006.61   1
   0  -7   6 46094.0 3034.29   9
   0   7  -6 44399.3 3265.62   3
   0  -7  -6 36815.7 3328.66   8
   0  -7   6 42452.8 3101.97   7
   0  -7  -7 21432.9 2700.11   8
   0   7   7 21596.9 2143.32   1
   0   7   7 19081.5 2295.57   4
   0  -7   7 21436.2 2254.39   7
   0  -7   7 20787.7 2064.73   9
   0   7  -7 19275.2 2220.10   3
   0  -7   8 1263.13 615.562   7
   0  -7   8 852.418 531.419   9
   0   7   8 17.5683 385.387   4
   0   7  -8 1563.88 725.822   3
   0  -7  -8 335.501 859.854   8
   0  -7  -9 5042.51 1748.46   8
   0  -7   9 5657.64 1181.23   9
   0  -7   9 4417.73 1199.88   7
   0   7  -9 2837.53 991.365   3
   0   7   9 4610.33 1290.56   4
   0  -7   9 6019.29 1455.69   5
   0   7 -10 2408.63 1029.64   3
   0   7  10 2252.86 918.990   4
   0  -7 -10 1235.78 1115.40   8
   0  -7  10 3889.84 1197.94   5
   0   7 -11 2031.05 907.720   3
   0  -8   0 17801.4 1877.27   7
   0   8   0 16753.7 1897.01   1
   0   8   1 24699.8 2357.92   1
   0  -8  -1 21952.3 2131.21   7
   0   8  -1 26300.1 2344.11   1
   0  -8   1 26073.7 2274.97   7
   0   8  -1 24402.7 2212.57  10
   0  -8  -2 224931. 8293.59   8
   0   8   2 205362. 7957.20   1
   0  -8   2 218677. 7572.50   7
   0  -8   2 224653. 7792.08   9
   0   8  -2 214822. 7589.41  10
   0   8  -2 225685. 7889.35   1
   0  -8  -2 230666. 7951.25   7
   0  -8  -3 3400.99 990.828   7
   0   8  -3 3653.29 825.835  10
   0  -8   3 4592.73 971.446   9
   0   8  -3 5829.78 1176.61   1
   0  -8   3 4132.08 928.867   7
   0   8   3 5289.04 1270.50   1
   0  -8  -3 5848.52 1293.51   8
   0  -8   4 12855.7 1645.41   7
   0   8   4 12494.5 1722.64   1
   0  -8  -4 12790.8 1898.22   8
   0   8  -4 12854.4 1581.14  10
   0  -8   4 13521.1 1689.12   9
   0   8  -4 13110.0 1817.94   1
   0   8   4 14802.7 1863.09   4
   0  -8  -4 14990.7 1974.11   7
   0  -8   5 653.744 456.007   7
   0  -8  -5-336.956 584.191   8
   0   8   5-49.8884 568.399   4
   0   8  -5-274.992 696.390   1
   0  -8   5 587.752 574.042   9
   0   8  -5 68.2620 248.950  10
   0   8   5 779.141 686.802   1
   0   8  -6 76913.9 4738.75   1
   0  -8  -6 75056.6 4965.13   8
   0  -8   6 87243.6 4707.36   7
   0  -8   6 74342.9 4249.92   9
   0   8   6 86333.6 4478.33   1
   0   8   6 82726.6 4984.62   4
   0   8  -6 73808.0 3952.06  10
   0   8  -7 1774.30 887.928   3
   0  -8   7 1893.84 766.281   9
   0  -8   7 1515.57 680.256   7
   0   8  -7 1161.79 832.748   1
   0   8   7 773.326 789.605   4
   0  -8  -7 1497.56 1100.47   8
   0   8   7 730.713 570.078   1
   0   8  -8 44168.8 3731.45   3
   0  -8   8 42635.4 3462.07   7
   0  -8  -8 46384.2 4182.34   8
   0  -8   8 44940.2 3907.21   5
   0   8   8 49224.8 4045.38   4
   0  -8   8 41792.5 3239.96   9
   0  -8   9 5681.70 1520.28   5
   0  -8  -9 7001.51 1967.30   8
   0   8   9 8900.85 1868.06   4
   0  -8   9 7898.85 1579.03   7
   0   8  -9 8846.61 1752.64   3
   0   8 -10 8704.79 1876.69   3
   0   9   0 337.128 588.255  10
   0   9   0 137.544 680.434   1
   0  -9   0 649.617 610.404   7
   0   9   1 40230.5 3241.99   1
   0  -9   1 38646.1 2945.61   7
   0  -9  -1 45287.9 3276.51   7
   0   9  -1 39630.6 3075.72  10
   0   9  -1 40923.0 3196.80   1
   0  -9   1 39569.5 3111.10   9
   0   9   2 792.277 746.277   1
   0   9  -2 200.041 542.690   1
   0  -9   2 256.396 470.079   7
   0  -9  -2 830.400 723.528   7
   0   9  -2 664.599 511.090  10
   0  -9  -2 259.067 460.645   8
   0  -9   2 1878.66 724.544   9
   0   9   3 50583.8 3834.37   1
   0   9  -3 55405.5 3835.84   1
   0  -9   3 55817.2 3692.01   9
   0  -9  -3 57827.5 3860.58   7
   0  -9   3 54034.8 3561.87   7
   0  -9  -3 49011.4 3780.80   8
   0   9  -3 51125.9 3457.99  10
   0   9   3 54496.7 3677.72   4
   0   9  -4 1323.09 587.401  10
   0  -9  -4 1473.28 853.418   8
   0   9   4 183.377 490.122   4
   0   9  -4 1372.48 786.365   1
   0  -9  -4 1156.08 809.309   7
   0  -9   4 510.057 487.463   7
   0  -9   4 1204.19 570.497   9
   0   9   4 803.400 630.602   1
   0   9  -5 2248.44 954.885   1
   0   9   5 1703.34 885.093   4
   0   9   5 3523.51 1050.03   1
   0  -9  -5 3783.70 1239.31   7
   0  -9   5 2079.67 747.093   7
   0   9  -5 2551.43 753.915  10
   0  -9  -5 2296.53 1073.49   8
   0  -9   5 1340.78 614.438   9
   0   9   6 23495.9 2701.79   4
   0  -9   6 23023.6 2406.29   9
   0  -9   6 25028.4 2556.10   7
   0  -9  -6 24803.9 2924.56   8
   0  -9  -6 18795.4 2441.54   7
   0   9   6 21846.8 2278.35   1
   0   9  -6 15507.2 2186.52   1
   0  -9   7 45402.7 3492.90   9
   0   9   7 43645.5 3826.53   4
   0   9  -7 41360.1 3718.40   1
   0  -9  -7 43403.2 4008.70   8
   0  -9   7 45910.9 3918.34   5
   0  -9   7 51508.2 3864.47   7
   0  -9  -8 11878.0 2299.14   8
   0  -9   8 13805.7 2274.70   5
   0   9  -8 17726.5 2538.12   1
   0   9   8 13206.4 2159.89   4
   0  -9   8 12274.6 1963.70   7
   0  -9   9 5870.21 1462.20   7
   0  10   0 3948.63 1088.75  10
   0 -10   0 4359.91 1067.45   7
   0  10   0 5128.25 1352.20   1
   0 -10   1 1602.39 777.749   9
   0  10  -1 2550.11 1071.98   1
   0 -10  -1 2916.25 993.923   7
   0  10  -1 2496.85 897.456  10
   0 -10   1 1799.62 801.013   7
   0  10   1 540.193 478.298  10
   0  10   1 2794.11 1105.60   1
   0 -10  -2 5420.79 1316.15   7
   0  10   2 6323.95 1536.02   1
   0 -10   2 7997.69 1443.97   9
   0 -10   2 7927.07 1447.19   7
   0  10   2 6485.08 1324.96   4
   0 -10   2 6416.18 1225.00   5
   0  10  -2 6736.73 1472.76   1
   0  10  -2 8318.63 1458.54  10
   0 -10  -3 7392.40 1598.22   8
   0 -10   3 9016.02 1517.25   5
   0 -10  -3 9273.26 1727.40   7
   0 -10   3 8615.92 1474.49   7
   0  10  -3 8818.45 1627.95   1
   0  10  -3 11271.4 1713.00  10
   0  10   3 7854.19 1636.37   1
   0 -10   3 8541.98 1559.75   9
   0  10   3 8987.70 1582.36   4
   0 -10   4 3288.02 946.845   9
   0 -10   4 2380.47 874.452   5
   0 -10  -4 2739.10 968.940   7
   0  10   4 2003.21 1037.00   1
   0 -10  -4 1401.97 958.686   8
   0 -10   4 2164.10 850.316   7
   0  10   4 4095.82 1170.47   4
   0  10  -4 2652.14 1067.02   1
   0  10  -4 2959.65 902.721  10
   0  10  -5 12457.9 2010.01   1
   0 -10   5 12682.7 1905.91   7
   0 -10   5 12034.1 1985.15   5
   0 -10  -5 16034.4 2258.01   7
   0  10  -5 17129.6 2069.85  10
   0  10   5 12004.8 1944.41   4
   0 -10  -5 16041.5 2357.81   8
   0 -10   5 14400.3 1998.39   9
   0  10   6 1080.69 846.301   4
   0  10  -6 2009.81 1050.47   1
   0 -10   6-840.212 624.263   7
   0 -10  -6 1883.60 1123.85   7
   0 -10   6 305.638 557.213   9
   0 -10  -6 204.085 636.083   8
   0 -10   6-106.010 569.396   5
   0 -10   7 2339.30 858.919   9
   0 -10   7 755.398 750.607   7
   0 -10  -7 3002.97 1444.11   8
   0  10   7 1487.35 905.550   4
   0 -10  -7 1726.26 1135.20   7
   0  10  -7 1117.57 973.483   1
   0 -10   7-219.474 866.527   5
   0 -10   8 9743.29 1830.48   7
   0  11   0 53.3471 552.662  10
   0 -11   0 290.329 479.338   7
   0 -11   0 1156.37 787.991   9
   0  11   0 499.970 907.152   1
   0  11   1 7171.22 1498.89  10
   0 -11  -1 6353.36 1446.50   7
   0  11  -1 5693.72 1373.69  10
   0 -11   1 9491.03 1757.17   9
   0  11   1 4898.60 1593.54   1
   0 -11   1 6890.66 1433.95   7
   0  11  -1 6658.56 1597.96   1
   0  11  -2-717.963 561.927  10
   0 -11   2-370.086 523.533   7
   0 -11   2-31.4527 344.404   9
   0  11   2 827.840 630.437  10
   0 -11  -2-171.781 659.656   7
   0  11  -2-174.075 910.953   1
   0  11   3 46581.9 3769.55   4
   0 -11   3 51806.2 4043.15   9
   0 -11   3 45652.6 3594.64   5
   0 -11   3 54035.6 3975.45   7
   0 -11  -3 53863.8 4155.71   7
   0  11  -3 49371.7 4137.66   1
   0  11  -3 48191.7 3814.24  10
   0 -11   4 805.323 775.720   7
   0 -11  -4-213.227 643.631   8
   0  11  -4 452.088 518.036  10
   0 -11   4 617.960 628.838   9
   0  11  -4 351.948 731.207   1
   0 -11  -4 504.944 739.943   7
   0  11   4 789.989 558.660   4
   0 -11   4 644.548 575.705   5
   0  11  -5 7444.21 1649.84   1
   0 -11   5 6209.30 1403.26   9
   0  11   5 6687.84 1495.66   4
   0 -11   5 6242.33 1424.68   7
   0 -11  -5 7530.89 1729.18   7
   0 -11   5 5156.35 1409.99   5
   0 -11  -5 5846.15 1629.48   8
   0 -11   6 3314.29 1052.79   9
   0 -11  -6 3588.66 1220.29   7
   0 -11   6 3548.03 1182.10   7
   0 -11   6 3316.53 1208.63   5
   0  11  -6 4140.20 1363.16   1
   0  11   6 4908.88 1364.86   4
   0 -12   0 7215.49 1547.00   7
   0  12   0 4564.61 1354.83  10
   0 -12   0 5625.38 1435.98   9
   0 -12  -1 24146.8 2802.96   7
   0 -12  -1 25448.6 3062.05   9
   0 -12   1 23135.5 2874.28   9
   0  12  -1 22654.0 2813.26  10
   0 -12   1 24559.8 2794.26   7
   0  12   1 28186.4 3209.06  10
   0 -12   2 7426.18 1576.99   7
   0 -12   2 9391.51 1869.33   9
   0  12  -2 6203.70 1596.82   1
   0  12  -2 7437.21 1621.51  10
   0 -12  -2 9908.77 1845.24   7
   0  12  -3 12234.0 2007.03  10
   0 -12   3 8632.44 1742.29   9
   0 -12  -3 12426.5 2132.50   7
   0 -12   3 11540.9 1945.94   7
   0  12  -3 9241.68 1986.83   1
   0 -12   4 278.339 578.055   7
   1   0 -13 1605.87 964.864   3
   1   0 -13 1710.24 929.171   8
  -1   0  13 103.945 363.022   4
   1   0 -12 768.564 748.601   3
  -1   0  12-110.361 424.322   4
   1   0 -12 827.881 612.470   8
  -1   0  11 503.600 391.578   4
  -1   0  11 557.338 614.383   5
   1   0 -11-135.626 477.801   8
  -1   0  11 1472.52 681.647   9
  -1   0  10 54852.3 3223.05   9
   1   0 -10 56496.9 3852.48   8
  -1   0  10 55879.9 3473.89   4
  -1   0  10 60428.4 3442.40   5
   1   0  -9 200.019 506.516   8
  -1   0   9-205.251 382.508   5
  -1   0   9 175.593 339.388   9
  -1   0   9-38.9921 338.002   4
  -1   0   8 85880.3 3967.58   4
   1   0  -8 91112.9 2989.33   2
  -1   0   8 88196.0 3859.57   5
   1   0  -8 86333.0 4273.79   8
   1   0  -8 87890.0 3387.43  10
  -1   0   8 94810.0 3870.16   9
   1   0  -7 254.004 215.336  10
   1   0  -7-70.5834 158.229   2
  -1   0   7 372.525 447.102   5
  -1   0   7-222.585 255.807   4
   1   0  -7 574.888 468.293   8
  -1   0   7-94.5024 238.137   9
   1   0  -6 89626.8 3827.50   8
  -1   0   6 97575.4 3593.64   5
   1   0  -6 94740.5 2936.56   2
   1   0  -6 90939.2 3082.74  10
  -1   0   6 97428.2 3444.67   9
  -1   0   6 98180.2 3758.48   4
  -1   0   5 335.829 314.841   5
   1   0  -5 43.0373 309.734   8
   1   0  -5 136.193 142.111   2
  -1   0   5 432.115 319.905   4
  -1   0   5 3.73894 204.582   9
   1   0  -5 124.711 157.024  10
   1   0  -4 185.814 224.124   8
   1   0  -4 445.260 172.039  10
   1   0  -4 240.867 141.315   2
  -1   0   4 305.693 179.596   9
  -1   0   4 317.084 230.243   4
  -1   0   4 458.949 271.065   5
  -1   0   3-78.7977 225.654   5
  -1   0   3 486.211 254.783   4
   1   0  -3-197.651 235.084   8
   1   0  -3 113.935 96.8837  10
  -1   0   3 322.938 168.339   9
   1   0  -3 80.3042 148.663   2
   1   0  -3 318.449 162.115   9
  -1   0   3 89.7929 99.1400  10
  -1   0   2 67362.1 2093.12   5
   1   0  -2 79302.1 1876.78   9
   1   0  -2 76284.5 2172.31   5
  -1   0   2 66388.0 2144.00   4
   1   0  -2 74640.5 2036.62   2
  -1   0   2 66989.5 2110.00   7
  -1   0   2 72429.1 1844.02   9
  -1   0   2 76490.6 1748.89  10
   1   0  -1 80.4295 95.0449   6
   1   0  -1 94.3929 69.9548   7
   1   0  -1 88.8652 91.5568   4
   1   0   1 554.137 146.660   9
  -1   0  -1 749.626 177.497   1
   1   0   1 476.328 148.144   1
  -1   0  -1 464.081 145.269   3
  -1   0  -1 125.696 109.998   9
  -1   0  -1 383.080 141.254  10
   1   0   1 536.956 143.944  10
  -1   0  -2 54719.7 1833.75  10
   1   0   2 54511.7 1860.17   9
   1   0   3 68.3917 163.855   4
   1   0   3 419.395 242.553   9
  -1   0  -3 264.126 221.928  10
   1   0   4 147.398 201.448   4
   1   0   4 39.8399 199.148   9
  -1   0  -4 43.4854 210.005   8
  -1   0  -4 177.505 158.324  10
  -1   0  -5-93.0528 266.125   8
   1   0   5 616.613 342.430   9
   1   0   5-175.807 249.865   4
  -1   0  -5 325.663 274.125  10
   1   0   6 14004.5 1352.15   9
   1   0   6 15363.0 1296.43   4
  -1   0  -6 14853.4 1414.62   8
  -1   0  -6 15508.7 1295.46  10
   1   0   7 80.2496 268.742   4
  -1   0  -7 75.3665 236.132  10
  -1   0  -7-196.696 358.933   8
   1   0   7 19.7756 308.173   9
   1   0   8 45487.8 2682.56   4
  -1   0  -8 43357.6 2576.42  10
   1   0   8 44667.4 2806.51   9
  -1   0  -8 44127.6 2964.69   8
   1   0   9-60.7319 319.689   4
  -1   0  -9 263.045 319.955  10
  -1   0  -9 91.4259 368.177   8
  -1   0  -9 206.478 582.835   3
   1   0   9 106.231 359.965   9
   1   0   9-301.101 343.790   5
  -1   0 -10 43787.3 2879.22  10
  -1   0 -10 45915.9 3454.62   3
   1   0  10 50988.3 3204.43   4
   1   0  10 49473.0 3316.81   9
  -1   0 -10 49939.2 3655.24   8
   1   0  10 48075.2 3042.72   5
   1   0  11-169.736 386.235   9
   1   0  11-677.756 482.290   4
  -1   0 -11 291.644 609.434   3
  -1   0 -11 134.032 472.305   8
  -1   0 -12 1334.86 911.635   3
  -1   0 -12 972.231 770.212   8
   1   0  12 1142.73 723.673   9
  -1   0 -13 579.998 730.470   3
   1   0  13 500.422 504.257   9
  -1   0 -13-369.317 519.212   8
  -1   1  14-681.523 657.910   4
   1   1 -13 1106.61 809.166   3
   1  -1 -13 1187.90 783.721   3
   1   1 -13 1935.61 1048.07   8
  -1   1  13 1313.24 834.679   4
   1  -1 -13 908.101 730.002   8
   1  -1 -12 992.083 936.935   8
   1   1 -12 56.8208 535.670   3
  -1   1  12 1331.01 654.706   4
  -1  -1  12 349.946 362.628   4
  -1  -1  12 1255.60 784.587   5
  -1  -1  11 2613.75 828.779   4
  -1  -1  11 3362.70 842.731   9
   1   1 -11 2414.47 969.122   3
  -1   1  11 2690.69 821.357   4
   1   1 -11 4403.12 1172.07   8
  -1  -1  11 4476.79 1090.73   5
   1  -1 -11 1334.84 875.435   8
   1   1 -10 4955.47 1216.85   8
   1   1 -10 4605.07 1100.76   3
  -1  -1  10 4164.20 910.044   9
  -1  -1  10 6278.53 1076.82   4
   1  -1 -10 8234.18 1480.88   8
  -1   1  10 4090.49 899.686   9
  -1   1  10 6215.62 1204.25   4
  -1   1  10 5882.37 994.102   5
  -1  -1  10 6648.64 1229.81   5
  -1   1   9 29.8183 324.334   9
   1   1  -9-6.93916 188.443  10
   1  -1  -9-46.4755 581.539   8
   1   1  -9-151.483 489.964   3
  -1  -1   9 131.450 286.881   9
   1   1  -9 881.517 524.834   8
  -1   1   9 1006.87 514.281   5
  -1  -1   9 67.8456 269.909   4
  -1  -1   9 728.798 496.684   5
  -1   1   9 196.280 449.547   4
  -1   1   8 38210.9 2413.80   9
  -1  -1   8 37314.4 2278.10   9
   1   1  -8 40278.5 1688.75   2
  -1  -1   8 39215.6 2443.75   4
   1  -1  -8 37556.6 2765.55   8
   1   1  -8 38746.3 1983.86  10
  -1  -1   8 43317.7 2726.11   5
  -1   1   8 39710.4 2280.91   5
   1   1  -8 39283.7 2783.09   8
  -1   1   8 37795.8 2612.91   4
   1   1  -7 3878.63 504.721   2
   1  -1  -7 3571.69 792.391   8
  -1   1   7 4015.79 718.270   9
  -1  -1   7 3569.23 768.549   5
   1  -1  -7 3287.61 533.384   2
  -1   1   7 3752.05 797.569   4
  -1  -1   7 2770.16 587.382   9
  -1  -1   7 2907.72 656.984   4
   1   1  -7 3461.13 528.367  10
  -1   1   7 3641.10 673.106   5
   1  -1  -6 3457.49 518.386   2
  -1  -1   6 3392.74 702.606   5
   1   1  -6 2975.50 447.007  10
  -1   1   6 3190.91 556.515   5
   1   1  -6 3195.33 430.590   2
  -1   1   6 2876.80 601.810   9
  -1  -1   6 3497.39 641.249   4
  -1  -1   6 3277.76 550.278   9
   1  -1  -6 4328.93 809.000   8
  -1   1   6 3245.59 684.778   4
  -1   1   5 17893.6 1392.62   4
  -1  -1   5 19368.9 1324.30   4
  -1  -1   5 17590.1 1142.88   9
  -1   1   5 17113.1 1144.55   5
  -1  -1   5 17395.3 1366.05   5
   1   1  -5 19176.8 1034.19   2
   1   1  -5 18223.6 961.491  10
  -1   1   5 19076.4 1296.57   9
   1  -1  -5 20336.4 1182.07   2
   1  -1  -5 18942.7 1473.61   8
  -1   1   4 6008.65 582.550   5
   1  -1  -4 7776.60 834.902   8
  -1   1   4 8462.05 761.950   9
   1   1  -4 6473.36 471.109  10
  -1  -1   4 6764.32 478.753  10
  -1  -1   4 6978.49 698.477   4
  -1  -1   4 6949.40 799.892   5
   1  -1  -4 7021.02 649.824   2
  -1  -1   4 6420.35 578.537   9
  -1  -1   4 6443.67 767.363   7
  -1   1   4 7506.86 817.590   4
   1   1  -3 6859.22 388.436  10
   1  -1  -3 6639.02 582.185   2
   1  -1  -3 6665.19 699.694   8
  -1  -1   3 7595.62 746.297   5
  -1  -1   3 7388.30 720.468   7
  -1  -1   3 7020.03 632.286   4
  -1  -1   3 6871.28 391.248  10
  -1   1   3 6344.51 682.464   4
   1   1  -3 7489.34 533.911   9
  -1  -1   3 7364.11 517.030   9
  -1   1   2 6781.80 606.649   4
   1   1  -2 8748.79 449.773   9
  -1  -1   2 6535.75 617.326   5
   1  -1  -2 8758.74 530.973   5
  -1  -1   2 8399.44 608.223   4
   1  -1  -2 8094.22 500.975   1
   1  -1  -2 7778.72 587.107   2
  -1  -1   2 7037.87 627.978   7
  -1  -1   2 7300.75 414.640   9
   1  -1  -2 7368.34 634.914   8
   1  -1  -1 129602. 3092.20   4
  -1  -1   1 127264. 2786.28   3
   1   1  -1 128918. 2800.38   3
   1   1  -1 131289. 3046.78   6
  -1  -1   1 116348. 3006.99   4
   1  -1  -1 113711. 3198.70   8
  -1  -1   1 115539. 3090.30   5
   1  -1  -1 118754. 3069.81   2
  -1   1   1 118493. 2863.81   6
  -1   1   1 132703. 3251.59   8
  -1  -1   1 119758. 3083.29   7
   1   1  -1 127770. 3088.75   4
  -1   1   1 123749. 3117.23   2
  -1   1   1 117674. 3016.67   4
   1   1  -1 133690. 3180.15   5
  -1  -1   1 117405. 2989.32   6
   1  -1  -1 128866. 2906.33   6
   1   1  -1 133627. 3164.91   7
   1  -1   0 5423.60 415.566   9
   1   1   0 5822.29 390.941   8
   1  -1   0 6389.74 452.242  10
   1  -1   0 5337.46 394.161   8
  -1  -1   0 5694.12 391.797  10
  -1  -1   0 6442.73 492.313   1
  -1  -1   0 6217.74 467.272   7
  -1   1   0 5956.85 420.433   2
   1  -1   0 5522.65 406.814   2
  -1  -1   0 6127.10 386.537   8
  -1   1   0 5652.09 305.965   4
  -1  -1   0 6141.99 392.847   9
  -1   1   0 6317.03 444.251  10
   1   1   0 6817.91 399.763   5
   1  -1   0 6058.59 316.832   4
   1   1   0 5817.61 400.570  10
   1   1   0 5944.77 475.092   1
  -1   1   0 6051.75 423.280   8
  -1   1  -1 178048. 4312.42   3
   1  -1   1 172567. 3977.79   7
   1  -1   1 181814. 3966.70   2
   1  -1   1 173628. 4283.84   9
   1   1   1 173194. 4274.80   9
  -1   1  -1 191709. 4377.94   9
   1   1   1 190220. 4371.93  10
   1  -1   1 194732. 4339.47  10
  -1  -1  -1 171853. 4554.26   1
  -1  -1  -1 195747. 4390.67   9
  -1   1  -1 193891. 4033.00   7
  -1  -1  -1 168831. 4267.42  10
   1  -1   1 191991. 4372.95   3
  -1   1  -1 188369. 3975.89   2
  -1   1  -1 173097. 4246.33  10
  -1  -1  -1 171630. 4268.75   8
   1   1   1 180298. 4507.94   1
   1   1   1 197270. 4270.85   8
  -1  -1  -2 209390. 5154.40   8
  -1   1  -2 225980. 4455.89   2
   1   1   2 212258. 5279.48   1
   1  -1   2 215696. 4558.59   4
  -1  -1  -2 209254. 5225.11  10
   1  -1   2 207282. 5003.70   7
  -1   1  -2 223474. 5314.60   3
   1   1   2 213583. 5267.28   9
   1  -1   2 212792. 5204.90   9
  -1   1  -2 208916. 5074.41  10
   1  -1   3 67346.0 2011.02   4
  -1   1  -3 63876.4 2264.13  10
   1   1   3 71145.3 2540.02   1
  -1  -1  -3 68738.4 2456.86   8
   1   1   3 66522.6 2485.02   9
  -1  -1  -3 67480.3 2440.13  10
   1  -1   3 67113.7 2420.50   9
  -1   1  -3 68568.7 2535.57   3
   1   1   4 2009.45 474.176   4
   1  -1   4 1695.54 400.969   9
  -1  -1  -4 1827.56 416.191  10
   1  -1   4 2124.91 360.551   4
   1   1   4 2092.68 292.045   2
  -1   1  -4 2052.30 502.094   3
  -1   1  -4 1351.40 339.182  10
   1   1   4 1377.44 396.521   9
  -1  -1  -4 1494.10 422.709   8
   1   1   5 109233. 3940.48   9
  -1  -1  -5 114008. 3862.55  10
   1  -1   5 106696. 3433.64   4
  -1   1  -5 108005. 4008.34   3
   1  -1   5 112374. 3870.57   9
  -1  -1  -5 108741. 3988.03   8
  -1   1  -5 103934. 3558.79  10
   1   1   5 107582. 3888.37   4
   1   1   6 54699.2 2818.63   9
   1  -1   6 60458.2 2848.57   9
  -1   1  -6 57690.1 2579.36  10
  -1   1  -6 52234.4 2865.56   3
  -1  -1  -6 58217.5 2970.30   8
   1   1   6 55774.3 2819.96   4
   1  -1   6 57196.6 2500.64   4
  -1  -1  -6 61178.8 2816.26  10
  -1   1  -7 113266. 4113.13  10
   1   1   7 109159. 4478.91   9
   1  -1   7 111423. 4023.91   4
  -1  -1  -7 106657. 4230.80  10
   1   1   7 109787. 4429.26   4
  -1  -1  -7 111912. 4663.74   8
  -1   1  -7 104315. 4539.09   3
   1  -1   7 109724. 4368.37   9
  -1   1  -8 12458.3 1565.38   3
  -1  -1  -8 15832.0 1544.63  10
  -1  -1  -8 14357.3 1691.04   8
   1   1   8 16328.8 1400.70   5
   1   1   8 15713.4 1647.60   4
  -1   1  -8 16970.9 1510.21  10
   1  -1   8 15394.4 1429.12   4
  -1   1  -8 13280.8 1629.21   8
   1  -1   8 17730.8 1701.23   9
   1   1   8 16889.6 1710.26   9
   1  -1   9 12422.5 1534.39   9
  -1   1  -9 8588.40 1412.97   3
  -1   1  -9 10461.0 1531.41   8
  -1  -1  -9 14874.6 1842.71   8
  -1   1  -9 13999.0 1450.06  10
   1   1   9 13139.7 1581.78   4
   1   1   9 14483.7 1688.72   9
  -1  -1  -9 13039.9 1494.65  10
   1   1   9 13143.8 1371.86   5
   1  -1   9 14653.8 1501.65   4
   1   1  10 40505.7 3061.10   9
  -1   1 -10 37428.4 3143.31   3
   1  -1  10 38422.0 2927.55   9
   1  -1  10 40009.8 2923.16   5
  -1   1 -10 44977.1 2811.61  10
   1  -1  10 39518.3 2686.62   4
  -1  -1 -10 41155.0 3326.77   8
   1   1  10 40182.6 2997.47   4
  -1   1 -10 38379.3 3187.63   8
  -1  -1 -10 43504.2 2918.27  10
   1  -1  11 991.701 532.469   5
  -1   1 -11 1587.99 821.115   3
   1  -1  11 3454.80 1145.25   9
   1   1  11 2455.49 826.588   4
  -1  -1 -11 3066.35 1149.74   8
  -1   1 -11 3199.16 1067.59   8
  -1  -1 -11 1998.20 644.854  10
   1   1  11 2290.31 881.084   9
  -1  -1 -12 29333.0 3227.20   8
   1   1  12 29728.9 2893.49   9
  -1  -1 -12 36352.0 3463.75   3
   1  -1  12 37885.9 3175.33   9
  -1   1 -12 32595.3 3321.10   3
  -1   1 -12 27222.8 3052.66   8
   1   1  12 32890.8 2987.23   4
  -1  -1 -13 477.175 594.533   3
  -1  -1 -13-856.443 1042.06   8
   1  -1  13 146.584 389.355   9
  -1   1 -13 1342.56 813.876   3
   1   1  13 309.267 626.698   9
  -1   1 -13 1048.11 835.262   8
  -1   2  13 10362.5 1870.42   4
  -1  -2  13 9367.65 1697.51   5
   1   2 -13 12882.9 2208.22   8
   1  -2 -13 13999.7 2483.18   8
   1   2 -13 11086.9 1966.43   3
  -1  -2  12-361.587 483.912   5
   1   2 -12 858.076 726.371   3
   1  -2 -12 527.154 850.397   8
  -1   2  12-555.016 552.682   4
   1   2 -12-990.799 683.867   8
   1  -2 -11 17887.1 2346.93   8
   1   2 -11 22798.6 2559.35   8
   1   2 -11 19852.7 2348.46   3
  -1   2  11 18856.8 2238.54   4
  -1  -2  11 22128.8 2358.04   5
  -1  -2  11 19778.2 2002.54   4
   1  -2 -10 14952.1 2074.08   8
  -1   2  10 18304.0 2110.48   4
   1   2 -10 17342.6 2046.74   3
  -1  -2  10 18654.8 2059.14   5
  -1  -2  10 19549.6 1864.90   4
  -1  -2  10 18487.9 1781.65   9
   1   2 -10 15303.8 1999.51   8
  -1   2   9 6843.29 1216.30   4
   1  -2  -9 4337.05 1081.34   8
  -1  -2   9 5030.64 1076.26   5
   1   2  -9 6879.45 1217.73   3
  -1  -2   9 5561.49 944.504   4
  -1  -2   9 5732.56 931.344   9
  -1   2   8 5306.71 1026.42   4
   1  -2  -8 1695.57 659.962   8
   1   2  -8 5317.14 690.545  10
  -1  -2   8 3189.34 665.612   9
   1   2  -8 4454.49 945.648   3
  -1  -2   8 5248.89 894.562   4
  -1  -2   8 3242.84 867.314   5
   1  -2  -7 208545. 7264.15   8
  -1  -2   7 220874. 7194.05   5
  -1   2   7 213502. 7163.99   4
   1   2  -7 227258. 5754.98  10
   1   2  -7 202720. 6879.75   3
   1   2  -7 226441. 5546.51   2
  -1  -2   7 224862. 6331.57   9
  -1  -2   7 219111. 6511.26   4
  -1  -2   6 59039.2 2624.85   4
  -1  -2   6 54223.2 2901.39   7
  -1  -2   6 53323.3 2915.33   5
  -1   2   6 58115.5 3017.74   4
   1  -2  -6 58533.4 3106.59   8
  -1  -2   6 57679.4 2466.33   9
   1   2  -6 59650.2 2119.98  10
   1   2  -6 55741.1 2854.74   3
  -1   2   5 21731.9 1642.53   4
   1  -2  -5 23030.0 1736.40   8
   1   2  -5 21032.5 1063.73  10
  -1  -2   5 21490.2 1292.63   9
  -1  -2   5 20441.4 1574.90   7
   1   2  -5 21972.1 1558.06   3
  -1  -2   5 23868.2 1462.23   4
   1  -2  -5 21774.6 1403.46   2
   1   2  -4 2161.99 297.397  10
  -1   2   4 2257.13 563.804   4
  -1  -2   4 1497.92 441.569   7
   1  -2  -4 2305.81 436.763   2
  -1  -2   4 2110.76 362.101   9
   1  -2  -4 1175.59 430.563   8
  -1  -2   4 1787.37 274.185  10
  -1  -2   4 2364.84 421.012   4
   1   2  -4 1159.27 341.223   3
  -1  -2   3 225242. 5552.71   4
   1  -2  -3 237177. 5054.48   5
  -1  -2   3 220845. 5286.34   9
   1   2  -3 232026. 5707.56   3
  -1   2   3 227381. 5402.44   1
   1  -2  -3 216450. 6136.23   8
  -1  -2   3 228189. 5899.72   7
  -1   2   3 219547. 5934.88   4
   1  -2  -3 225340. 5751.16   2
   1   2  -3 218278. 4988.27  10
   1   2  -2 847877. 16758.7   3
  -1   2   2 807794. 16999.3   4
   1  -2  -2 848872. 16726.1   1
  -1   2   2 865284. 16534.0   1
  -1  -2   2 817872. 16471.0   9
   1   2  -2 806260. 16261.0  10
   1  -2  -2 842460. 17058.1   2
  -1  -2   2 835600. 17029.5   7
   1  -2  -2 785406. 17509.5   8
  -1  -2   1 4539.05 419.326   6
   1   2  -1 5892.30 462.371   6
   1  -2  -1 4973.48 654.952   8
  -1   2   1 3962.51 309.656   6
   1  -2  -1 4532.98 538.197   2
  -1  -2   1 5043.34 458.940   3
   1   2  -1 4776.52 446.903   3
  -1   2   1 5763.02 481.168   1
  -1  -2   1 3753.99 470.711   5
   1  -2  -1 5407.79 422.384   1
  -1  -2   1 4210.92 510.878   7
   1   2  -1 5364.70 574.120   1
  -1   2   1 4912.54 502.000   4
   1  -2   0 1638.57 271.480   7
  -1   2   0 1749.41 331.957  10
  -1   2   0 1827.27 256.597   4
  -1   2   0 1868.08 265.913   1
  -1  -2   0 1773.99 356.185   8
  -1  -2   0 1668.18 400.340   7
  -1  -2   0 2115.14 296.589   5
   1   2   0 1631.46 425.311   1
   1  -2   0 1720.71 374.889   8
  -1   2  -1 409190. 8971.29   3
   1  -2   1 384833. 8427.77   7
   1   2   1 404177. 9265.82   1
  -1  -2  -1 380457. 9002.60   8
   1   2   1 452620. 8125.14   5
  -1   2  -1 436100. 8533.10   7
   1  -2   1 391708. 8861.08   9
  -1   2  -1 388765. 8781.95  10
  -1   2  -2 227785. 5105.80   2
  -1   2  -2 212010. 5366.78  10
  -1  -2  -2 211744. 5548.11  10
   1  -2   2 225975. 5548.72   9
  -1  -2  -2 213311. 5809.32   8
   1   2   2 220531. 5825.48   1
   1  -2   2 214215. 5248.75   7
  -1   2  -2 219528. 5651.92   3
   1   2   3 73875.2 2814.86   1
  -1   2  -3 73922.3 2590.03  10
  -1  -2  -3 75736.7 2807.50  10
  -1  -2  -3 72133.6 2890.81   8
   1  -2   3 74668.3 2744.29   9
   1   2   3 76975.6 2874.24   9
   1  -2   3 71363.8 2621.91   7
  -1   2  -3 78303.9 2038.39   4
  -1   2  -3 77734.1 2899.79   3
   1  -2   3 77739.2 2004.93   4
  -1  -2  -4 268022. 7239.22  10
   1  -2   4 273423. 7151.92   7
  -1   2  -4 271708. 6884.72  10
   1  -2   4 281105. 7210.77   9
  -1   2  -4 284332. 5973.31   2
   1  -2   4 279461. 6288.83   4
   1   2   4 273861. 7292.02   1
   1   2   4 291062. 7474.41   9
  -1  -2  -4 270243. 7439.09   8
  -1   2  -4 280722. 7472.85   3
  -1   2  -5 9041.89 903.457  10
   1   2   5 8228.67 1044.99   4
   1  -2   5 10316.0 803.695   4
  -1   2  -5 7967.85 424.764   2
   1  -2   5 8782.32 963.131   9
  -1  -2  -5 7601.12 1009.04   8
   1   2   5 8448.67 1022.76   9
  -1  -2  -5 10436.5 1083.87  10
  -1   2  -5 12086.9 1252.98   3
  -1   2  -6 4202.49 859.237   3
   1   2   6 3835.13 506.469   5
   1  -2   6 3796.84 566.294   4
   1  -2   6 4901.59 809.576   9
   1   2   6 4011.30 766.009   9
  -1  -2  -6 4312.27 761.613  10
  -1   2  -6 4712.15 710.651  10
  -1  -2  -6 4051.99 861.296   8
   1   2   6 4348.06 844.338   4
   1   2   7 124608. 3818.24   5
  -1   2  -7 115693. 4942.86   3
  -1  -2  -7 123693. 5167.94   8
   1  -2   7 122613. 4688.25   9
   1   2   7 124911. 4960.87   9
   1   2   7 114320. 4861.66   4
   1  -2   7 127771. 4157.51   4
  -1  -2  -7 123321. 4788.31  10
  -1   2  -7 119677. 4313.46  10
  -1   2  -8 89422.6 4535.65   3
  -1  -2  -8 90603.1 4634.01   8
  -1   2  -8 98791.2 3971.47  10
  -1  -2  -8 104685. 4463.67  10
   1   2   8 107040. 3593.28   5
   1   2   8 94032.1 4480.50   9
   1  -2   8 104033. 3876.56   4
   1  -2   8 91341.4 4205.66   9
   1   2   8 87816.6 4396.18   4
   1   2   9 2908.67 791.544   4
   1   2   9 3526.33 949.916   9
  -1  -2  -9 3134.76 946.255   8
   1  -2   9 3352.48 725.215   4
   1  -2   9 2579.55 713.033   9
  -1   2  -9 4052.60 997.303   3
  -1   2  -9 3414.68 691.612  10
  -1  -2  -9 3292.95 841.446  10
   1   2  10 1679.26 671.809   9
   1   2  10 1989.51 846.789   4
  -1  -2 -10 973.729 669.374   8
   1  -2  10 1857.54 695.943   9
  -1   2 -10 2741.47 944.268   3
  -1   2 -10 4345.22 1145.55   8
  -1   2 -11 32275.1 3163.50   3
   1   2  11 42438.6 3327.89   9
   1   2  11 41572.1 3333.26   4
  -1   2 -11 37651.5 3381.23   8
  -1  -2 -11 42514.2 3690.13   8
   1  -2  11 40654.0 3150.86   9
   1  -2  11 37620.4 3109.61   5
   1  -2  12 33060.0 3078.37   5
  -1   2 -12 38704.4 3620.40   8
   1   2  12 33454.0 3176.43   4
  -1   2 -12 42506.6 3794.16   3
  -1  -2 -12 39396.9 3796.88   8
   1  -2  12 37425.3 3155.83   9
   1   2  13 16.5520 435.674   4
  -1  -2 -13-573.740 1171.58   8
   1   3 -13 16448.9 2486.05   3
  -1   3  13 19089.7 2583.32   4
  -1  -3  13 13090.9 2123.49   5
   1   3 -12 1517.36 747.079   8
   1  -3 -12 4326.77 1624.37   8
  -1  -3  12 3601.27 1152.73   5
  -1   3  12 2580.85 938.159   4
   1   3 -12 2944.79 1047.48   3
  -1  -3  11 13834.0 1996.55   5
   1  -3 -11 10699.6 1990.96   8
   1   3 -11 10146.8 1745.37   3
  -1   3  11 11550.2 1829.19   4
   1   3 -11 7663.07 1509.74   8
   1   3 -10 24031.5 2489.13   3
  -1   3  10 31914.1 2873.03   4
  -1  -3  10 29731.9 2280.43   4
  -1  -3  10 32514.2 2870.20   5
  -1  -3  10 29757.7 2289.15   9
   1  -3 -10 29071.9 3002.43   8
  -1   3   9 65132.2 4021.87   4
  -1  -3   9 69993.0 3443.84   4
   1  -3  -9 70451.7 4451.59   8
  -1  -3   9 69041.1 3386.30   9
   1   3  -9 61204.9 3794.22   3
  -1  -3   9 65741.1 4007.22   5
  -1   3   8 18239.1 1971.41   4
   1   3  -8 20569.7 2014.44   3
  -1  -3   8 23007.2 1739.75   9
   1  -3  -8 21546.9 2314.48   8
  -1  -3   8 22368.5 1742.91   4
  -1  -3   8 22524.4 2176.17   5
   1   3  -7 12524.5 1449.68   3
  -1   3   7 13537.3 1608.84   4
   1   3  -7 14785.2 1059.57  10
  -1  -3   7 11701.5 1176.53   4
   1  -3  -7 13346.1 1736.16   8
  -1  -3   7 12315.1 1206.88   9
  -1  -3   7 11949.8 1513.55   5
  -1  -3   7 13688.6 1560.77   7
  -1  -3   6 184801. 5361.46   4
  -1   3   6 175040. 6150.27   4
   1   3  -6 175853. 4694.83  10
  -1  -3   6 174801. 6034.35   7
  -1  -3   6 173213. 5216.57   9
   1  -3  -6 181972. 6542.08   8
   1   3  -6 182142. 5972.14   3
   1   3  -5 270522. 6564.52  10
  -1  -3   5 277238. 7918.44   7
   1   3  -5 289088. 7811.48   3
  -1  -3   5 293192. 7222.20   4
  -1  -3   5 286351. 7123.87   9
   1  -3  -5 288535. 8518.90   8
  -1   3   5 262076. 7925.61   4
   1  -3  -4 35648.4 2393.97   8
  -1   3   4 35044.1 2096.15   4
   1   3  -4 35467.3 1955.54   3
   1  -3  -4 37069.3 1268.16   5
  -1  -3   4 39276.4 1795.61   4
  -1   3   4 36529.2 1781.72   1
   1   3  -4 36134.3 1507.40  10
  -1  -3   4 35779.7 2053.65   7
  -1  -3   4 35769.2 1713.88   9
   1   3  -3 330824. 7853.22   3
   1   3  -3 314347. 7191.28  10
  -1   3   3 326625. 7565.11   1
   1  -3  -3 301424. 8670.90   8
  -1  -3   3 329876. 7504.66   9
  -1  -3   3 312841. 8011.13   7
  -1   3   3 308123. 8109.76   4
  -1   3   2 76.0854 191.317   4
   1   3  -2 257.436 150.396  10
  -1  -3   2 317.029 258.895   7
  -1  -3   2-7.82671 179.714   9
   1  -3  -2 354.860 154.847   6
   1   3  -2 293.906 231.912   3
   1  -3  -2 52.7396 317.604   8
  -1   3   2 630.653 368.303   1
  -1   3   1 8434.21 395.518   6
   1   3  -1 9578.63 602.476   6
  -1   3   1 7852.16 691.434   1
  -1  -3   1 8137.28 805.881   7
   1  -3  -1 8740.93 915.329   8
   1   3  -1 8205.48 843.992   1
  -1  -3   0 257332. 6667.60   7
  -1  -3   0 273234. 6641.60   8
  -1   3   0 287498. 6305.57   1
   1  -3   0 262310. 6214.19   7
  -1  -3   0 257132. 5600.83   6
  -1  -3   0 264903. 6172.58   5
   1   3   0 284102. 6804.06   1
  -1   3   0 260286. 6579.85  10
   1  -3   0 262198. 6664.41   8
  -1  -3  -1 408569. 9502.72   8
   1  -3   1 389210. 8829.60   7
   1  -3   1 404226. 9330.57   9
  -1  -3  -1 403181. 8345.98   5
   1   3   1 414006. 9678.49   1
  -1   3  -1 395404. 9192.72  10
  -1   3  -2 27287.4 887.717   4
  -1  -3  -2 26823.9 1747.72   8
   1  -3   2 28338.8 1571.48   9
  -1   3  -2 29241.1 1680.02   3
  -1   3  -2 27238.8 1489.31  10
   1  -3   2 26024.3 1378.43   7
   1   3   2 26816.2 1784.65   1
  -1  -3  -3 330034. 9304.99   8
   1   3   3 366603. 9059.97   1
  -1   3  -3 362782. 7309.96   4
   1  -3   3 353072. 8719.75   9
   1  -3   3 346311. 8461.20   7
  -1   3  -3 346843. 8447.56  10
  -1   3  -3 343862. 8866.56   3
   1  -3   4 108452. 2820.43   4
  -1   3  -4 107189. 4036.38   3
  -1   3  -4 110035. 2860.12   4
   1  -3   4 105838. 3834.76   9
  -1   3  -4 105810. 3616.69  10
   1  -3   4 105041. 3758.07   7
  -1  -3  -4 103746. 4300.17   8
   1   3   4 114591. 4055.56   1
   1   3   5 239922. 6974.04   1
   1  -3   5 231177. 6772.90   7
   1  -3   5 223213. 6681.71   9
   1  -3   5 239315. 5627.27   4
  -1  -3  -5 236238. 7458.59   8
  -1   3  -5 233006. 6398.54  10
  -1   3  -5 227489. 7067.42   3
   1  -3   6 58246.8 2967.96   9
  -1   3  -6 55346.7 3154.32   3
  -1  -3  -6 59444.6 3415.97   8
  -1   3  -6 58809.5 2690.84  10
  -1   3  -6 56061.4 1825.55   2
   1   3   6 64007.8 3377.12   4
   1   3   6 60919.6 1763.38   5
   1  -3   6 62619.5 2305.43   4
   1  -3   7 20761.2 1787.95   9
   1   3   7 20564.4 1984.34   4
  -1  -3  -7 20584.2 2117.10   8
  -1   3  -7 18699.4 1908.36   3
  -1   3  -7 19521.3 1553.15  10
   1  -3   7 20812.9 1376.86   4
  -1   3  -8 13271.1 1699.11   3
   1  -3   8 12671.7 1466.93   9
  -1  -3  -8 11911.7 1741.74   8
   1   3   8 14193.8 1734.11   4
   1  -3   8 16079.0 1287.02   4
  -1   3  -8 12836.7 1310.07  10
   1  -3   9 60514.0 3543.89   9
  -1   3  -9 56746.8 3848.22   3
  -1   3  -9 67102.7 3306.90  10
  -1  -3  -9 68394.6 4371.13   8
   1   3   9 68315.4 4128.12   4
  -1  -3 -10 1242.93 975.487   8
   1  -3  10 246.092 379.908   9
   1   3  10-158.266 383.644   4
  -1   3 -10 377.268 426.572   3
  -1   3 -11 74948.4 4857.42   8
  -1   3 -11 63390.2 4569.37   3
   1  -3  11 72672.5 4309.14   9
   1   3  11 72271.0 4701.15   4
   1  -3  11 67181.3 4480.71   5
  -1  -3 -11 68466.9 4969.82   8
   1  -3  12 772.771 469.913   9
  -1   3 -12 144.977 634.462   3
  -1  -3 -12 631.240 932.091   8
   1  -3  12 708.915 528.612   5
  -1   3 -12 272.602 461.190   8
   1   3  12 607.933 460.286   4
   1   3  13 10652.6 1937.91   4
   1  -3  13 11194.5 2026.34   5
  -1  -4  13 45591.2 4083.19   5
   1  -4 -12 2278.57 1672.34   8
  -1   4  12 3052.45 1119.67   4
   1   4 -12 1080.85 715.613   8
   1   4 -12 1659.85 748.830   3
  -1  -4  12 2120.36 1055.86   5
  -1  -4  11 2189.00 955.503   5
   1  -4 -11 2023.46 1070.12   8
   1   4 -11 1147.07 702.821   3
  -1   4  11 3012.40 1057.83   4
   1  -4 -10 238.226 705.207   8
   1   4 -10 728.894 638.899   3
  -1   4  10-53.9492 396.961   4
  -1  -4  10 362.137 704.066   5
   1   4  -9 38388.0 3022.67   3
  -1   4   9 41763.0 3316.16   4
   1  -4  -9 32880.6 3298.68   8
  -1  -4   9 40231.0 3214.38   5
  -1  -4   9 37799.2 2478.62   9
   1   4  -8 785.719 502.241   3
  -1  -4   8-276.617 567.012   5
  -1  -4   8 860.374 593.915   7
  -1  -4   8 1357.31 500.310   9
  -1  -4   8 724.300 371.616   4
   1  -4  -8-50.3572 680.660   8
  -1   4   8 1597.42 634.654   4
  -1  -4   7 11248.8 1192.76   9
  -1  -4   7 13038.0 1655.84   5
   1   4  -7 13248.7 1047.33  10
  -1  -4   7 12445.0 1210.73   4
  -1   4   7 10632.3 1486.85   4
   1  -4  -7 11712.9 1927.70   8
  -1  -4   7 12382.9 1543.82   7
   1   4  -7 12332.3 1494.84   3
  -1  -4   6 15313.1 1297.30   9
  -1  -4   6 10635.8 1373.61   7
   1   4  -6 10440.2 1279.83   3
   1  -4  -6 13726.6 1875.97   8
   1   4  -6 11560.5 962.971  10
  -1  -4   6 12677.7 1151.81   4
  -1   4   6 12411.6 1515.53   4
   1   4  -5 13457.1 1373.60   3
   1   4  -5 12821.2 987.928  10
  -1  -4   5 14975.5 1485.67   7
   1  -4  -5 12573.3 1790.66   8
  -1  -4   5 14839.0 1216.91   9
  -1   4   5 11775.0 1373.25   4
  -1   4   5 12729.8 1182.72   1
   1   4  -4 19470.4 1528.85   3
  -1  -4   4 20143.8 1393.14   9
   1  -4  -4 19485.4 787.736   5
   1   4  -4 20602.7 1250.47  10
   1  -4  -4 19183.3 1940.80   8
  -1  -4   4 19580.9 1607.56   7
  -1   4   4 20957.9 1424.80   1
  -1   4   4 20206.5 1705.41   4
  -1   4   3 29675.0 1724.89   1
  -1  -4   3 28327.8 1607.24   9
  -1   4   3 28398.5 1854.23   4
   1   4  -3 25729.5 1461.80  10
   1   4  -3 29531.7 1772.10   3
   1  -4  -3 27041.8 2110.71   8
  -1  -4   3 24166.3 1707.55   7
   1  -4  -2 779.455 477.663   8
  -1   4   2 1976.27 559.310   1
  -1  -4   2 1309.95 358.064   9
   1   4  -2 1979.27 533.387   3
  -1   4   2 1421.24 402.769   4
  -1  -4   2 1459.57 447.307   7
   1   4  -2 1721.79 532.652   1
   1  -4  -1 54727.7 2356.32   7
  -1   4   1 58007.3 2333.27   1
  -1  -4   1 55381.9 2519.45   7
   1   4  -1 56104.3 2574.64   1
   1  -4  -1 53156.3 2627.91   8
  -1   4   0 86989.5 3227.93  10
  -1  -4   0 87370.6 3262.92   8
  -1   4   0 83175.0 2893.63   1
   1  -4   0 77762.6 2823.00   7
  -1  -4   0 86146.0 3252.29   7
  -1  -4   0 77951.1 2052.24   6
   1  -4   0 87918.1 3311.06   8
  -1  -4   0 80190.6 2731.79   5
   1   4   0 81046.8 3222.14   1
   1  -4   1 50762.7 2158.75   7
  -1  -4  -1 52075.8 1824.37   5
   1  -4   1 55772.4 2502.17   9
   1   4   1 59168.0 2738.88   1
  -1   4  -1 56243.7 2339.92   1
  -1  -4  -1 56106.2 2603.96   8
  -1   4  -1 50695.9 2364.33  10
  -1  -4  -1 50383.8 2512.68   7
  -1   4  -2 129485. 4252.68  10
  -1  -4  -2 139870. 4775.32   8
   1  -4   2 131780. 4381.02   9
   1   4   2 131327. 4818.07   1
   1  -4   2 130823. 4074.44   7
  -1   4  -2 128633. 4464.33   3
   1   4   3 1306.49 594.680   1
   1  -4   3 184.833 284.944   9
  -1   4  -3 152.849 105.094   4
   1  -4   3 135.935 257.325   7
  -1  -4  -3 832.462 647.063   8
  -1   4  -3 55.3287 221.531  10
  -1   4  -3 237.149 414.557   3
  -1   4  -4 1442.24 546.048   3
   1   4   4 2491.27 699.823   1
  -1   4  -4 966.182 380.165  10
   1  -4   4 825.343 376.400   9
   1  -4   4 801.501 362.358   7
  -1   4  -4 831.242 187.536   4
  -1  -4  -4 2322.44 1029.30   8
  -1   4  -5 36.8711 443.088   3
  -1   4  -5 640.825 326.265  10
   1  -4   5 528.357 317.011   9
   1  -4   5 452.491 350.352   7
   1   4   5 1098.65 447.902   1
   1  -4   6 19880.3 1758.34   7
  -1   4  -6 19223.6 1535.19  10
   1   4   6 19885.6 1799.03   1
   1  -4   6 19044.1 1684.25   9
  -1  -4  -6 20145.3 2234.44   8
   1   4   6 17616.0 1843.72   4
  -1   4  -6 18125.0 1845.36   3
   1   4   7 12779.2 1668.36   4
  -1   4  -7 12357.4 1265.50  10
  -1   4  -7 12297.7 1590.54   3
   1  -4   7 11284.3 1367.56   9
  -1  -4  -7 13565.4 1893.44   8
   1  -4   8 29667.2 2341.42   9
  -1  -4  -8 28230.5 2891.54   8
   1   4   8 30057.5 2662.35   4
  -1   4  -8 32855.4 2175.41  10
  -1   4  -8 27952.2 2546.72   3
   1  -4   9 2350.07 733.631   9
  -1  -4  -9 4605.88 1419.18   8
  -1   4  -9 2253.39 845.472   3
   1   4   9 2414.52 964.740   4
  -1   4 -10 6498.79 1403.49   3
   1  -4  10 5265.14 1122.72   9
  -1  -4 -10 3792.22 1276.21   8
   1   4  10 6293.09 1356.72   4
   1  -4  11 467.486 516.902   9
  -1   4 -11 389.686 662.041   3
   1  -4  11-103.790 709.099   5
   1   4  11 840.645 663.957   4
   1   4  12 802.815 543.959   4
  -1  -4 -12 660.312 1213.70   8
  -1   4 -12 1304.76 753.473   8
  -1   4 -12 1758.31 791.113   3
   1  -4  12 1045.85 1010.85   5
   1   5 -12 17269.9 2483.41   3
   1  -5 -12 22146.2 3441.22   8
  -1   5  12 16184.2 2481.08   4
  -1  -5  12 22074.2 2846.22   5
   1   5 -11 25499.0 2835.09   3
   1  -5 -11 31358.9 3872.88   8
  -1   5  11 26515.2 2994.66   4
  -1  -5  11 22269.5 2724.69   5
  -1   5  10 57214.0 4231.68   4
   1   5 -10 47970.8 3737.36   3
  -1  -5  10 52497.8 4013.80   5
   1  -5 -10 48732.4 4554.31   8
   1   5  -9-16.1925 462.283   3
  -1   5   9 720.137 490.926   4
  -1  -5   9 1221.20 733.501   7
   1  -5  -9 1859.65 1366.73   8
  -1  -5   9 214.715 320.682   9
  -1  -5   9 90.3047 592.006   5
  -1   5   8 45993.6 3458.65   4
  -1  -5   8 46063.7 3260.71   7
   1   5  -8 39146.8 2976.29   3
  -1  -5   8 47889.0 2765.60   9
  -1  -5   8 39418.8 3200.95   5
   1  -5  -8 46379.7 4026.13   8
  -1   5   7 103451. 5121.15   4
   1   5  -7 101231. 4765.64   3
  -1  -5   7 109351. 5034.95   7
   1  -5  -7 97604.5 5658.50   8
  -1  -5   7 106551. 4258.80   9
  -1  -5   7 107224. 5228.39   5
   1   5  -7 107343. 3752.85  10
   1  -5  -6 89022.3 5138.77   8
  -1   5   6 96065.4 3992.94   1
  -1   5   6 96995.0 4683.79   4
  -1  -5   6 96049.4 3871.26   9
  -1  -5   6 98542.7 4508.70   7
   1   5  -6 88488.5 4188.08   3
   1   5  -6 95946.6 3454.76  10
  -1  -5   5 72.5288 228.942   9
   1   5  -5 247.560 300.486  10
   1   5  -5 99.1943 383.727   3
  -1  -5   5 516.954 534.352   7
  -1   5   5 886.939 629.959   4
  -1   5   5 924.893 525.598   1
   1  -5  -4 46094.4 3139.44   8
   1   5  -4 43983.8 2185.10  10
  -1  -5   4 44108.0 2611.23   7
  -1   5   4 48329.1 2464.27   1
  -1   5   4 39193.3 2577.10   4
  -1  -5   4 44445.1 2354.24   9
   1   5  -4 44912.7 2541.60   3
  -1   5   3 10777.0 1237.54   1
   1   5  -3 12665.1 1261.77   3
   1  -5  -3 13400.5 1623.44   8
  -1  -5   3 11465.0 1127.91   9
   1  -5  -3 10411.1 636.513   6
  -1   5   3 10644.1 1236.67   4
  -1  -5   3 12786.2 1299.75   7
   1   5  -3 11086.6 1044.10  10
   1   5  -3 11842.9 1320.33   1
   1   5  -2 191331. 5658.56  10
  -1   5   2 184073. 5822.25   1
   1  -5  -2 196050. 6473.15   8
   1   5  -2 189815. 6131.21   1
  -1  -5   2 204754. 6117.00   7
  -1   5   1 1763.36 564.887   1
   1  -5  -1 2130.60 600.876   7
   1  -5  -1 2322.46 695.514   8
  -1  -5   1 1783.63 620.263   7
   1   5  -1 2336.46 655.635   1
  -1  -5   0 15116.2 1398.50   7
  -1  -5   0 16123.1 1177.75   5
  -1   5   0 16255.0 1303.19   1
   1   5   0 17034.5 1518.04   1
  -1   5   0 15171.6 1377.99  10
  -1  -5   0 16289.3 1455.01   8
   1  -5   0 15507.5 1267.87   7
  -1   5  -1 61704.5 2905.80  10
   1   5   1 62943.4 3202.79   1
  -1  -5  -1 65236.2 3113.83   8
   1  -5   1 65579.3 2745.29   7
   1  -5   1 62735.9 2982.09   9
  -1  -5  -1 63945.6 2279.57   5
  -1  -5  -1 58104.9 2984.83   7
  -1   5  -1 63204.4 2806.22   1
  -1   5  -2 360528. 9506.67  10
   1  -5   2 369522. 9286.87   7
   1  -5   2 369706. 9691.55   9
  -1  -5  -2 377368. 7938.63   5
   1   5   2 348763. 10147.4   1
  -1  -5  -2 393150. 10230.0   8
  -1   5  -3 13460.0 1471.55   3
   1  -5   3 13105.0 1340.53   9
   1   5   3 15382.9 1648.27   1
  -1   5  -3 12689.2 1238.35  10
  -1  -5  -3 11377.4 1448.22   8
   1  -5   3 14997.0 1322.13   7
   1   5   4 17853.8 1706.60   1
   1  -5   4 19899.2 1628.39   7
  -1   5  -4 18471.8 1544.04  10
  -1   5  -4 19640.3 1798.47   3
  -1  -5  -4 18833.7 2048.50   8
   1  -5   4 20546.5 1715.13   9
   1   5   5 2064.32 717.646   1
   1  -5   5 2335.45 634.376   9
  -1   5  -5 2101.62 537.854  10
  -1  -5  -5 2127.34 994.822   8
   1  -5   5 2662.93 706.844   7
  -1   5  -5 3089.66 815.689   3
  -1   5  -6 52669.0 3297.99   3
  -1   5  -6 53499.0 2824.28  10
   1   5   6 52853.1 3158.74   1
  -1  -5  -6 54071.9 3900.07   8
   1  -5   6 52201.9 3073.13   7
   1  -5   6 55440.5 3127.59   9
   1   5   6 55965.8 3494.03   4
   1  -5   7 15725.9 1759.50   7
   1   5   7 15780.8 1911.48   4
  -1  -5  -7 14818.1 2240.51   8
   1   5   7 12504.5 1580.43   1
  -1   5  -7 17364.7 1957.36   3
  -1   5  -7 15610.4 1497.30  10
   1  -5   7 15166.6 1647.68   9
  -1   5  -8 3946.69 1056.49   3
  -1   5  -8 3795.56 748.194  10
   1   5   8 2943.86 992.744   4
  -1  -5  -8 4653.29 1460.30   8
   1  -5   8 2549.10 763.777   9
  -1   5  -9 6683.53 1399.82   3
  -1  -5  -9 9719.59 2029.77   8
   1  -5   9 6775.82 1261.99   9
   1   5   9 8295.25 1587.57   4
  -1   5 -10 22541.3 2679.55   3
  -1  -5 -10 19728.8 2973.40   8
   1   5  10 22841.4 2687.30   4
   1  -5  10 19300.0 2137.02   9
  -1  -5 -11 2458.24 1737.02   8
   1  -5  11-1554.40 851.777   5
   1  -5  11 655.467 475.322   9
   1   5  11 955.280 744.641   4
  -1   5 -11-102.426 514.458   3
  -1  -5 -12 4497.01 1705.60   8
   1   5  12 4234.14 1281.73   4
   1  -5  12 854.884 773.671   5
   1   6 -12 16517.5 2436.37   3
  -1  -6  11-449.925 888.762   5
  -1   6  11 13.2613 595.648   4
   1  -6 -11 45.4276 986.401   8
   1   6 -10 222.556 452.321   3
  -1  -6  10 1006.09 681.988   5
   1  -6 -10 1375.65 1361.68   8
  -1   6  10 541.389 553.458   4
  -1  -6   9 13481.2 2092.21   5
   1  -6  -9 13336.8 2573.89   8
  -1   6   9 13597.4 2060.18   4
  -1  -6   9 14930.0 2026.75   7
   1   6  -9 15119.7 2025.25   3
  -1  -6   8 42507.5 3278.37   7
  -1  -6   8 42144.9 3456.77   5
   1   6  -8 44441.9 3321.27   3
  -1   6   8 46339.7 3603.62   4
  -1  -6   8 43350.1 2786.42   9
   1  -6  -8 46373.0 4107.85   8
  -1   6   7 1173.40 689.563   4
  -1  -6   7 853.917 407.835   9
   1   6  -7 1131.33 570.642   3
  -1  -6   7 941.417 541.479   7
  -1  -6   7 1482.93 720.280   5
   1  -6  -7 2585.92 1115.60   8
  -1   6   7 468.287 328.639   1
  -1  -6   6 21501.2 1830.77   9
  -1  -6   6 23651.7 2192.36   7
  -1   6   6 22838.0 2270.24   4
   1   6  -6 21411.6 1619.70  10
   1  -6  -6 22119.5 2570.69   8
  -1   6   6 20197.7 1784.67   1
   1   6  -6 21459.7 2044.62   3
  -1   6   5 20466.3 1707.69   1
  -1  -6   5 19983.6 1709.29   9
   1   6  -5 21212.3 1939.78   3
   1  -6  -5 18961.4 2253.01   8
  -1  -6   5 19869.5 1899.46   7
   1   6  -5 21191.6 1613.69  10
  -1   6   5 19447.9 1987.67   4
  -1  -6   4 162519. 5559.54   9
   1   6  -4 156236. 6057.92   1
  -1   6   4 166594. 6142.40   4
   1   6  -4 159695. 5304.68  10
  -1   6   4 160526. 5545.53   1
  -1  -6   4 164167. 5981.63   7
   1   6  -4 165339. 5874.11   3
   1  -6  -4 156207. 6462.75   8
  -1  -6   3 6877.57 985.563   9
  -1   6   3 7038.09 1090.78   4
   1   6  -3 6780.28 1110.12   1
   1  -6  -3 5812.36 1157.12   8
  -1  -6   3 7704.90 1108.04   7
   1   6  -3 7286.80 985.132  10
  -1   6   3 7709.20 1238.39   1
  -1   6   2 23955.2 1943.29   1
  -1  -6   2 23707.8 1804.72   9
   1   6  -2 24598.2 1796.39  10
   1  -6  -2 24864.0 2198.16   8
   1   6  -2 23042.8 1946.14   1
   1  -6  -2 22557.4 1868.45   7
  -1  -6   2 22362.8 1861.01   7
   1   6  -1 180873. 6220.84   1
   1  -6  -1 183983. 6440.59   8
  -1   6   1 186412. 5911.09   1
  -1  -6   1 177097. 6071.90   7
   1  -6  -1 187836. 5948.34   7
   1  -6   0 161281. 5337.49   7
  -1   6   0 161378. 5685.17  10
   1   6   0 161595. 5798.46   1
  -1  -6   0 156728. 5671.94   7
  -1  -6   0 166310. 5003.62   5
  -1   6   0 165719. 5423.18   1
  -1  -6  -1 12476.9 990.831   5
   1   6   1 11980.9 1515.44   1
  -1   6  -1 12537.5 1358.08   1
  -1   6  -1 12970.4 1372.34  10
  -1  -6  -1 12430.9 1481.40   7
   1  -6   1 10493.1 1264.48   9
   1  -6   1 11517.4 1214.37   7
  -1  -6  -1 11476.6 1384.47   8
   1  -6   2 82037.2 3785.79   9
  -1  -6  -2 84334.3 2547.24   5
   1   6   2 75429.8 4062.39   1
  -1   6  -2 79218.9 3624.92  10
  -1   6  -2 77585.1 3613.30   1
  -1  -6  -2 85056.8 4092.18   8
  -1  -6  -2 78049.0 3871.28   7
   1  -6   2 79072.9 3455.08   7
   1  -6   3 14779.3 1438.25   7
  -1   6  -3 11970.3 1318.86  10
  -1  -6  -3 12980.8 1648.20   8
   1   6   3 13144.8 1802.18   1
   1  -6   3 13465.0 1502.99   9
  -1  -6  -4 115562. 5305.31   8
  -1   6  -4 111050. 4499.17  10
   1   6   4 113912. 5016.63   1
  -1   6  -4 105587. 4832.17   3
   1  -6   4 119726. 4849.56   9
   1  -6   4 120200. 4664.22   7
   1   6   5 81350.6 4076.43   1
   1  -6   5 83496.3 4028.50   9
   1  -6   5 75118.7 3790.85   7
  -1  -6  -5 80662.0 4577.32   8
  -1   6  -5 78708.9 3698.46  10
  -1   6  -5 73774.6 4047.97   3
  -1   6  -6 103410. 4406.41  10
   1   6   6 104975. 5216.71   4
  -1  -6  -6 103839. 5564.37   8
   1  -6   6 98296.2 4604.78   9
  -1   6  -6 96434.6 4876.67   3
   1   6   6 102937. 4794.76   1
   1  -6   6 110602. 4856.62   7
  -1   6  -7 2020.50 857.982   3
   1  -6   7 3691.71 959.663   7
   1  -6   7 3520.65 860.549   9
   1   6   7 3429.31 1027.90   4
  -1   6  -7 4366.65 851.602  10
  -1  -6  -7 6740.72 1716.45   8
   1   6   7 3418.65 924.358   1
   1   6   8 9737.29 1674.25   4
   1  -6   8 9175.94 1416.80   9
  -1  -6  -8 11195.9 2089.32   8
  -1   6  -8 7569.00 1467.59   3
   1  -6   8 8404.91 1487.82   7
   1   6   9 38196.9 3439.27   4
   1  -6   9 41222.1 3100.65   9
  -1   6  -9 30521.3 3032.62   3
  -1  -6  -9 37280.1 3888.95   8
  -1  -6 -10 64000.0 5353.75   8
   1  -6  10 58231.7 3894.98   9
   1   6  10 64884.2 4741.70   4
  -1   6 -10 57706.4 4399.35   3
  -1   6 -11 1210.89 803.397   3
   1   6  11 27.0293 641.737   4
   1  -6  11 201.364 552.466   5
  -1  -6 -11 1075.94 1522.66   8
   1   7 -11 865.287 716.167   3
  -1   7  10 3231.17 1262.61   4
   1   7 -10 2149.29 934.382   3
  -1  -7  10 5232.74 1468.76   5
  -1  -7  10 3592.54 1102.41   7
   1  -7 -10 2742.99 1502.98   8
  -1  -7   9 6636.89 1569.98   5
  -1  -7   9 9254.43 1649.23   7
  -1   7   9 9649.30 1786.85   4
   1   7  -9 8176.23 1545.30   3
  -1  -7   8 17509.6 2353.20   5
   1   7  -8 12442.1 1842.85   3
  -1   7   8 15160.2 2158.26   4
  -1  -7   8 11698.9 1495.75   9
   1  -7  -8 15411.5 2483.00   8
  -1  -7   8 12346.8 1798.55   7
   1   7  -7 5723.62 1206.07   3
  -1   7   7 5122.62 1016.14   1
  -1  -7   7 7892.53 1505.64   5
   1  -7  -7 5050.85 1431.03   8
  -1  -7   7 7598.03 1449.56   7
  -1  -7   7 7349.57 1156.30   9
  -1   7   7 6783.53 1372.02   4
  -1  -7   6 2026.63 858.784   5
  -1   7   6 2271.59 775.851   4
   1   7  -6 2812.78 893.888   3
   1  -7  -6 4060.35 1296.72   8
  -1  -7   6 1786.16 603.463   9
  -1   7   6 1972.82 631.455   1
   1   7  -6 2466.00 884.772   1
   1   7  -6 3581.40 718.744  10
  -1  -7   6 1407.47 669.862   7
  -1  -7   5 205.426 366.477   7
   1   7  -5 402.923 684.642   1
  -1  -7   5 618.611 419.385   9
  -1   7   5 1297.99 564.860   1
   1  -7  -5 1314.88 1008.84   8
  -1   7   5 2489.12 844.979   4
   1   7  -5 785.811 534.744   3
   1   7  -5 408.437 249.813  10
   1  -7  -4 12957.3 1827.17   8
  -1  -7   4 12821.1 1463.08   9
   1   7  -4 12455.3 1361.11  10
  -1   7   4 14274.7 1623.80   1
   1   7  -4 12574.1 1657.06   1
  -1   7   4 17582.2 1889.53   4
  -1  -7   4 14127.9 1657.40   7
   1   7  -3 3432.67 718.676  10
  -1   7   3 3668.65 860.726   4
   1  -7  -3 4411.65 1035.08   7
   1   7  -3 4063.96 951.141   1
   1  -7  -3 3914.17 1019.07   8
  -1  -7   3 3845.34 807.483   9
  -1   7   3 3657.59 1038.38   1
  -1  -7   3 2748.18 773.692   7
  -1   7   2 2100.33 676.189   4
   1   7  -2 1587.57 828.695   1
  -1   7   2 1767.30 788.012   1
   1  -7  -2 1300.95 624.885   7
   1   7  -2 529.734 399.896  10
  -1  -7   2 1467.77 607.572   9
  -1  -7   2 1357.97 689.776   7
   1  -7  -2 1060.94 652.104   8
  -1  -7   1 311.152 533.194   7
  -1   7   1 371.048 577.708   1
   1   7  -1 564.956 593.172   1
   1  -7  -1 639.877 426.668   7
   1  -7  -1-294.953 526.764   8
  -1  -7   1 167.780 441.602   5
   1  -7   0 1465.99 600.910   7
  -1  -7   0 1290.04 487.693   5
  -1   7   0 1227.03 567.731   1
  -1  -7   0 621.212 600.633   7
  -1   7   0 1625.55 593.814  10
   1   7   0 1862.14 838.967   1
   1  -7   1 100292. 4216.20   7
   1  -7   1 99113.1 4558.26   9
  -1   7  -1 103710. 4600.25  10
  -1   7  -1 98344.4 4326.89   1
  -1  -7  -1 100130. 4700.76   8
   1   7   1 101139. 4821.44   1
  -1  -7  -1 104021. 3624.08   5
  -1  -7  -1 106100. 4743.15   7
   1   7   2 6602.44 1449.60   1
   1  -7   2 4152.31 829.356   7
  -1   7  -2 4919.09 928.008  10
  -1   7  -2 5164.23 1015.02   1
  -1  -7  -2 5814.72 1167.18   7
   1  -7   2 5016.82 991.574   9
  -1  -7  -2 4225.81 943.925   8
  -1   7  -3 34236.8 2556.72   1
   1   7   3 30456.8 2729.91   1
   1  -7   3 36552.5 2629.52   9
  -1   7  -3 32754.7 2408.49  10
  -1  -7  -3 32424.2 2657.32   7
   1  -7   3 32818.0 2332.57   7
  -1  -7  -3 29466.4 2626.43   8
   1  -7   4 68.7269 342.029   9
   1  -7   4 262.751 333.793   7
  -1  -7  -4 1163.15 666.255   8
  -1   7  -4 38.7589 271.477  10
   1   7   4-270.012 632.336   1
  -1   7  -4 933.862 596.825   1
   1   7   5 25385.5 2339.19   1
  -1   7  -5 22602.9 2005.45  10
  -1  -7  -5 21408.4 2399.93   8
   1  -7   5 23538.0 2104.69   7
  -1   7  -5 21742.1 2268.20   3
   1  -7   5 19756.6 2033.65   9
  -1   7  -6 635.147 570.420   3
   1  -7   6 704.674 485.108   7
  -1  -7  -6 888.631 906.342   8
   1   7   6 888.932 583.892   1
   1  -7   6 755.174 494.527   9
  -1   7  -6 513.685 368.561  10
   1   7   6 1253.21 739.416   4
   1   7   7-63.7183 421.944   1
  -1  -7  -7-102.685 824.275   8
   1   7   7 586.611 658.906   4
   1  -7   7 838.474 564.214   9
   1  -7   7 244.478 351.550   7
  -1   7  -7 233.940 416.495  10
  -1   7  -7 745.152 591.190   3
   1  -7   8 3034.78 981.351   7
   1   7   8 1741.37 704.766   1
   1  -7   8 1988.51 645.479   9
  -1  -7  -8 1749.37 1198.13   8
  -1   7  -8 2360.90 895.591   3
   1   7   8 3959.15 1241.00   4
  -1  -7  -9 15627.3 2650.23   8
   1   7   9 14638.8 2222.15   4
   1  -7   9 12574.3 1797.42   9
  -1   7  -9 16651.1 2279.61   3
   1  -7  10 3605.15 986.513   9
  -1   7 -10 3879.34 1232.76   3
  -1  -7 -10 4924.59 1571.36   8
   1   7  10 3367.10 1215.90   4
  -1  -8  10 103.799 568.602   7
   1   8 -10 100.307 507.545   3
   1  -8  -9 4812.85 1631.03   8
   1   8  -9 2096.77 938.419   3
   1   8  -9 4442.37 1322.63   1
  -1   8   9 4884.45 1379.65   4
  -1  -8   9 4394.97 1225.22   7
  -1  -8   9 6011.71 1627.55   5
  -1   8   8 29346.3 3087.73   4
   1  -8  -8 27779.7 3264.28   8
   1   8  -8 23819.8 2766.60   1
  -1  -8   8 23307.7 2651.14   7
  -1  -8   8 27085.0 2976.01   5
   1   8  -8 20286.8 2455.39   3
   1  -8  -7-274.142 841.454   8
  -1  -8   7 1064.87 527.850   9
   1   8  -7-213.127 694.268   1
  -1  -8   7 1758.08 1012.63   5
  -1  -8   7 676.966 568.760   7
   1   8  -7 377.707 630.449   3
  -1   8   7 28.1962 479.587   4
  -1  -8   6 11909.2 1768.34   7
  -1  -8   6 13997.4 1688.03   9
   1  -8  -6 11074.7 1957.74   8
  -1   8   6 12992.5 1879.24   4
  -1   8   6 12093.7 1536.27   1
   1   8  -6 9459.46 1666.97   1
  -1  -8   6 11619.8 1780.59   5
  -1  -8   5 106.545 281.868   9
   1   8  -5-266.993 473.021   1
  -1   8   5 690.624 605.251   1
   1   8  -5 128.789 277.135  10
  -1  -8   5 805.361 604.645   7
  -1  -8   5 90.8960 537.318   5
  -1   8   5 538.797 503.003   4
  -1   8   4 29348.3 2569.94   4
   1   8  -4 25348.7 2144.30  10
  -1   8   4 25817.1 2301.52   1
   1  -8  -4 24233.7 2591.06   8
  -1  -8   4 25455.8 2252.62   9
  -1  -8   4 25934.8 2424.44   5
   1  -8  -4 25158.9 2424.62   7
   1   8  -4 25292.1 2494.37   1
  -1  -8   4 23170.1 2268.19   7
  -1   8   3 318.511 446.028   4
  -1   8   3 1027.76 857.176   1
   1  -8  -3-499.684 484.848   8
  -1  -8   3 409.282 562.811   5
  -1  -8   3 60.5894 464.690   7
   1   8  -3 229.264 348.311  10
   1  -8  -3 946.464 656.632   7
   1   8  -3 916.360 760.360   1
  -1  -8   3 29.3087 377.351   9
   1  -8  -2 43370.8 3279.67   8
  -1   8   2 47703.2 3235.48   1
  -1  -8   2 43306.9 3047.18   7
   1   8  -2 41901.7 3158.76   1
  -1  -8   2 47244.4 2989.29   5
  -1  -8   2 43042.9 2969.04   9
   1  -8  -2 45615.7 3046.49   7
  -1   8   2 44042.5 2937.74   4
   1   8  -2 47670.1 3044.04  10
  -1  -8   1 33449.3 2651.73   7
   1   8  -1 27948.5 2531.79   1
   1  -8  -1 34316.0 2540.66   7
  -1   8   1 30063.1 2593.54  10
  -1  -8   1 33848.9 2349.46   5
  -1   8   1 35577.6 2693.28   1
   1  -8   0 5954.31 1081.30   7
  -1   8   0 7494.52 1242.16   1
  -1  -8   0 6526.01 1240.92   7
  -1   8   0 5901.26 1133.31  10
  -1  -8   0 6020.38 916.937   5
   1   8   0 5015.76 1135.88   1
  -1  -8  -1 3868.40 972.405   7
   1  -8   1 4860.28 1060.97   9
  -1   8  -1 3901.35 918.650   1
  -1   8  -1 5375.15 1084.89  10
   1   8   1 3783.69 1217.80   1
   1  -8   1 3277.85 813.674   7
   1   8   2 16234.4 2185.45   1
  -1  -8  -2 18273.1 2101.17   8
   1  -8   2 18121.7 1972.16   9
  -1   8  -2 19632.7 2027.41   1
  -1  -8  -2 20026.7 2144.22   7
  -1   8  -2 19800.5 2000.43  10
   1  -8   2 21098.8 1939.73   7
  -1   8  -3 82.3227 488.193   1
   1   8   3 1738.33 1063.66   1
   1  -8   3 675.494 527.953   7
  -1  -8  -3 202.664 682.906   7
  -1   8  -3 1887.10 711.386  10
  -1  -8  -3 114.015 625.420   8
   1  -8   3 928.439 597.013   9
  -1   8  -4 17227.7 1857.07  10
  -1   8  -4 17948.7 2050.68   1
   1  -8   4 18571.7 1920.81   7
   1   8   4 17377.7 2072.05   1
   1  -8   4 18636.1 2043.39   9
  -1  -8  -4 21011.8 2384.30   8
  -1  -8  -4 22236.5 2456.11   7
  -1   8  -5 11357.0 1539.81  10
  -1   8  -5 14739.4 1936.93   1
  -1  -8  -5 13385.5 2004.00   8
   1  -8   5 11224.7 1605.17   9
   1   8   5 17209.5 2046.69   1
   1  -8   5 17122.6 1908.64   7
  -1   8  -6 19724.9 2025.67  10
  -1   8  -6 20042.4 2311.16   1
   1   8   6 18624.5 2126.88   1
  -1  -8  -6 20438.4 2544.55   8
   1  -8   6 15793.0 1942.31   9
   1   8   6 18366.2 2308.91   4
   1  -8   6 20251.7 2159.04   7
   1   8   7 13612.5 1857.57   1
   1   8   7 19524.1 2496.14   4
   1  -8   7 16364.0 2030.79   9
  -1   8  -7 17279.4 2282.89   3
   1  -8   7 15422.5 1986.51   7
  -1  -8  -7 19370.0 2672.41   8
   1   8   8 11068.6 1941.75   4
  -1   8  -8 12976.3 2049.22   3
   1   8   8 10167.9 1682.27   1
  -1  -8  -8 10123.4 2041.87   8
   1  -8   8 11572.5 1797.89   7
   1  -8   8 7459.71 1443.31   9
   1   8   9 10790.8 1966.46   4
   1  -8   9 9508.95 1735.92   7
  -1  -8  -9 13378.3 2445.46   8
  -1   8  -9 10209.2 1924.22   3
   1  -8   9 12467.2 1874.26   9
  -1  -9   9 1046.25 786.949   7
   1  -9  -8 1765.21 1260.40   8
  -1   9   8 1588.32 824.510   4
  -1  -9   8 4021.44 1217.43   7
  -1  -9   8 2490.92 960.596   5
   1   9  -8 1419.89 942.494   1
  -1  -9   7 3498.12 1066.32   7
  -1  -9   7 5432.77 1420.76   5
  -1   9   7 3646.62 1127.84   4
   1   9  -7 4130.72 1183.13   1
  -1  -9   6 46223.8 3367.94   9
  -1   9   6 47734.1 3814.41   4
   1  -9  -6 56590.7 4425.32   8
   1   9  -6 44754.5 3795.64   1
   1  -9  -6 48539.8 3803.50   7
  -1  -9   6 50415.6 3947.30   5
  -1  -9   6 46441.8 3636.97   7
   1   9  -5 806.062 532.792  10
  -1  -9   5 1216.53 676.154   7
   1   9  -5 2001.00 928.667   1
  -1  -9   5 1675.63 804.934   5
  -1   9   5 1917.75 824.701   4
   1  -9  -5 1292.19 822.231   7
   1  -9  -5 1940.57 1103.69   8
  -1  -9   5 2534.28 811.820   9
   1   9  -4 1682.31 902.953   1
  -1  -9   4 470.151 417.954   7
   1  -9  -4-318.734 559.557   8
   1   9  -4-272.311 449.450  10
  -1  -9   4 122.661 390.406   9
  -1   9   4 735.935 559.855   4
  -1   9   4 39.4126 592.214   1
   1  -9  -4 111.400 493.653   7
  -1  -9   4 163.187 511.022   5
  -1   9   3 3659.18 970.216   4
   1  -9  -3 2147.88 964.916   8
  -1  -9   3 2824.75 877.671   5
   1   9  -3 4699.78 1015.35  10
  -1  -9   3 2771.55 833.900   9
  -1  -9   3 3140.40 901.474   7
  -1   9   3 4541.07 1221.34   1
   1  -9  -3 2977.42 930.538   7
   1   9  -3 4241.11 1188.48   1
   1  -9  -2 13851.5 1777.97   7
   1   9  -2 12545.4 1690.07  10
   1   9  -2 12317.9 1813.67   1
  -1   9   2 12381.5 1826.19   1
  -1  -9   2 14850.3 1737.89   5
   1  -9  -2 14911.6 2011.32   8
  -1  -9   2 14654.8 1826.60   9
  -1   9   2 15430.3 1795.90   4
  -1  -9   2 16555.5 1978.67   7
   1   9  -1 86.5312 384.692  10
   1  -9  -1 453.523 602.562   7
   1   9  -1-505.109 784.067   1
  -1   9   1 167.003 386.843   4
  -1  -9   1 1024.03 722.504   7
  -1  -9   1 550.716 512.518   5
  -1   9   1 880.805 567.887  10
  -1   9   1 700.242 848.949   1
  -1   9   0 25565.5 2436.41   1
   1  -9   0 27315.6 2395.34   7
  -1  -9   0 27838.0 2598.84   7
   1  -9   0 28496.3 2666.81   9
   1   9   0 28992.0 2816.76   1
  -1   9   0 24849.3 2479.45  10
   1  -9   1 17283.3 1857.61   7
  -1  -9  -1 14198.7 1907.60   7
   1   9   1 17077.2 2285.02   1
  -1   9  -1 13106.9 1823.08  10
   1  -9   1 19876.0 2197.97   9
  -1   9  -1 18611.1 2072.65   1
  -1  -9  -2 14625.5 2005.94   8
   1   9   2 10724.8 1959.14   1
   1  -9   2 11934.9 1710.54   9
   1  -9   2 15249.3 1775.33   7
  -1  -9  -2 10680.7 1688.57   7
  -1   9  -2 12640.0 1792.96   1
  -1   9  -2 14392.8 1831.23  10
  -1  -9  -3 11929.7 1851.87   7
  -1  -9  -3 10881.8 1816.64   8
   1  -9   3 7987.34 1400.18   9
  -1   9  -3 12662.4 1691.12  10
   1  -9   3 10020.3 1460.82   7
  -1   9  -3 10711.6 1692.69   1
   1   9   3 13967.2 2084.84   1
  -1   9  -4 13965.3 1962.84   1
   1  -9   4 17165.9 1960.26   7
   1  -9   4 15064.5 1945.72   9
  -1  -9  -4 15011.8 2078.11   7
  -1   9  -4 13661.1 1785.27  10
   1   9   4 20239.3 2384.88   1
  -1  -9  -4 14223.2 2066.33   8
   1  -9   5 4228.05 1065.80   7
   1  -9   5 4510.01 1129.39   9
   1   9   5 5245.87 1265.88   4
  -1  -9  -5 4359.66 1319.51   7
   1   9   5 4353.30 1214.11   1
  -1  -9  -5 4577.29 1370.91   8
  -1   9  -5 2645.81 827.538  10
  -1   9  -5 3694.45 1125.23   1
   1   9   6 2036.07 955.832   4
  -1  -9  -6 2134.21 1143.28   7
  -1  -9  -6 2347.10 1097.17   8
  -1   9  -6 1689.50 701.802  10
   1  -9   6 1159.68 614.545   7
   1   9   6 1542.71 815.647   1
  -1   9  -6 1253.86 929.582   1
   1  -9   6 1248.43 730.142   9
   1  -9   7 225.545 478.759   7
  -1   9  -7 100.996 670.585   1
  -1  -9  -7 2098.40 1290.53   8
   1   9   7-507.315 549.345   1
   1   9   7 1286.98 931.255   4
   1  -9   7 761.459 536.417   9
   1  -9   8 22831.0 2591.00   9
   1   9   8 24624.6 3049.87   4
  -1  -9  -8 22054.6 2953.04   8
  -1   9  -8 21782.5 2779.21   1
   1  -9   8 19824.2 2442.27   7
   1  -9   9 4335.65 1228.46   7
  -1 -10   8 9591.70 1857.16   7
   1 -10  -8 7544.97 1757.82   7
   1 -10  -7 2167.70 1055.58   8
  -1 -10   7 2409.11 1147.43   7
   1 -10  -7 2098.86 1261.02   7
  -1 -10   7-456.018 739.677   5
  -1  10   7 121.968 522.733   4
   1  10  -7 2162.38 1089.34   1
  -1 -10   6 17894.9 2200.23   9
  -1  10   6 17423.9 2383.36   4
   1 -10  -6 15707.4 2440.64   8
  -1 -10   6 18528.3 2427.92   7
   1 -10  -6 15234.4 2295.66   7
  -1 -10   6 16889.4 2407.91   5
   1  10  -6 16286.3 2396.94   1
   1 -10  -5 26007.4 2825.23   7
  -1 -10   5 26792.6 2878.75   5
  -1 -10   5 30888.2 2847.23   9
   1  10  -5 24558.6 2894.67   1
  -1  10   5 31265.0 3097.56   4
   1 -10  -5 29097.9 3187.28   8
  -1 -10   5 33253.4 3119.51   7
  -1 -10   4 11095.8 1825.11   7
  -1 -10   4 10312.4 1708.58   5
  -1 -10   4 14034.8 1940.32   9
   1  10  -4 8333.07 1720.99   1
   1  10  -4 10096.7 1590.55  10
  -1  10   4 10850.8 1712.84   4
   1 -10  -4 9128.50 1662.56   7
   1 -10  -4 11977.1 2015.10   8
  -1 -10   3 6473.11 1299.83   5
  -1 -10   3 6296.58 1347.68   7
   1 -10  -3 6450.88 1573.37   8
  -1  10   3 6057.35 1278.50   4
  -1 -10   3 4786.65 1173.01   9
   1  10  -3 6111.93 1237.48  10
   1 -10  -3 4915.51 1220.25   7
   1  10  -3 6639.82 1475.18   1
  -1  10   2 6087.20 1220.89   4
  -1  10   2 4790.05 1254.61  10
   1  10  -2 7617.51 1411.86  10
   1 -10  -2 7883.92 1423.15   7
  -1 -10   2 7366.98 1450.74   9
  -1 -10   2 4346.78 999.644   5
  -1  10   2 8119.45 1701.40   1
  -1 -10   2 7362.24 1417.75   7
   1  10  -2 7811.51 1602.01   1
  -1 -10   1 31643.1 2947.46   9
   1  10  -1 37926.7 3197.64  10
  -1  10   1 31324.0 3002.73   1
   1 -10  -1 36610.7 2988.76   7
  -1 -10   1 37156.0 3154.94   7
   1  10  -1 28394.4 2996.31   1
  -1  10   1 40591.5 3433.08  10
  -1 -10   0 27659.5 2741.15   7
   1  10   0 22570.9 2715.65   1
  -1  10   0 21355.9 2406.11   1
  -1  10   0 22381.8 2518.24  10
   1  10   0 22365.7 2467.13  10
   1 -10   0 22053.8 2536.22   9
   1 -10   0 23347.7 2363.21   7
  -1 -10  -1 252.812 506.219   7
  -1  10  -1 481.110 509.135  10
   1 -10   1 345.804 490.595   9
   1 -10   1 2198.06 792.590   7
  -1  10  -1 1599.80 785.615   1
   1  10   1 1081.95 1078.80   1
  -1  10  -2 10297.8 1756.90   1
  -1 -10  -2 9706.88 1714.33   7
  -1  10  -2 11286.5 1736.00  10
   1 -10   2 11351.4 1652.61   7
   1 -10   2 9163.98 1633.26   9
   1  10   2 9719.88 1948.95   1
  -1  10  -3 2468.51 1060.18   1
  -1 -10  -3 2596.86 1019.87   7
   1 -10   3 1496.43 626.913   7
   1  10   3 1684.79 1021.45   1
  -1  10  -3 1668.94 749.956  10
  -1 -10  -3 1787.39 821.100   8
   1 -10   3 1639.63 831.430   9
   1 -10   4-66.7821 334.796   7
  -1  10  -4 318.787 359.059  10
  -1  10  -4-306.499 564.722   1
   1  10   4-26.2382 600.216   4
   1 -10   4 203.349 502.818   9
  -1 -10  -4 1404.68 803.898   7
   1  10   4-645.059 799.935   1
  -1 -10  -4-28.4978 593.732   8
   1  10   5 7490.41 1599.27   4
   1  10   5 8895.84 1698.36   1
   1 -10   5 6000.01 1324.96   9
  -1  10  -5 6718.27 1331.15  10
  -1 -10  -5 7901.77 1634.22   7
  -1  10  -5 10638.9 1882.03   1
  -1 -10  -5 10123.9 1989.34   8
   1 -10   5 5110.89 1188.33   7
   1  10   6 14309.6 2243.82   4
   1 -10   6 13679.1 1992.50   7
  -1 -10  -6 18520.7 2620.20   7
  -1  10  -6 18428.8 2495.14   1
   1 -10   6 17475.3 2293.68   9
  -1 -10  -6 13781.1 2294.07   8
   1  10   7 1369.84 812.076   4
  -1 -10  -7 349.629 852.279   8
  -1  10  -7 1787.69 1066.96   1
   1 -10   7-895.928 633.917   9
  -1 -10  -7 1139.65 1071.46   7
   1 -10   7 1485.16 812.321   7
  -1 -11   6 3684.60 1197.02   7
   1 -11  -6 6301.77 1540.41   7
  -1  11   6 4718.36 1346.09   4
  -1 -11   6 4330.20 1374.19   5
   1 -11  -5 21629.1 2914.53   8
  -1 -11   5 22585.3 2729.79   5
   1 -11  -5 23504.6 2819.88   7
   1  11  -5 20680.2 2787.23   1
  -1 -11   5 18730.3 2352.12   9
  -1  11   5 24112.5 2819.76   4
  -1 -11   5 27484.5 2965.65   7
  -1  11   4 9465.14 1882.85  10
  -1 -11   4 8953.71 1625.93   9
  -1 -11   4 8633.77 1658.17   5
   1 -11  -4 9629.08 1974.94   8
   1 -11  -4 10209.4 1782.50   7
   1  11  -4 14828.0 2373.24   1
  -1 -11   4 7467.22 1560.87   7
  -1  11   4 6649.17 1456.70   4
   1 -11  -3 53562.6 4001.67   7
   1  11  -3 37160.1 3696.64   1
  -1 -11   3 58074.8 4175.95   9
   1  11  -3 55309.4 4032.27  10
  -1  11   3 55351.1 4407.40  10
  -1 -11   3 43027.2 3719.51   7
  -1 -11   2 10129.1 1766.37   9
  -1  11   2 12068.5 1996.49  10
  -1 -11   2 9781.19 1763.32   7
   1  11  -2 10460.9 1767.89  10
   1  11  -2 11917.7 2131.53   1
   1 -11  -2 9948.19 1682.70   7
  -1 -11   1 19525.4 2442.74   9
   1  11  -1 18236.5 2361.34  10
   1 -11  -1 21588.3 2679.43   9
  -1 -11   1 25370.6 2753.91   7
  -1  11   1 20125.4 2556.72  10
   1  11  -1 21839.2 2867.85   1
  -1 -11   0 18024.0 2375.14   7
   1 -11   0 21408.0 2637.73   9
   1 -11   0 16496.2 2088.50   7
  -1  11   0 18630.1 2443.60  10
   1  11   0 20068.5 2779.98   1
   1  11   0 18433.1 2409.08  10
  -1 -11  -1 46043.0 3847.84   7
   1 -11   1 44863.0 3820.84   9
  -1  11  -1 52933.3 4074.09   1
  -1  11  -1 47224.6 3898.30  10
   1  11   1 49936.9 4402.47   1
   1  11   1 51898.2 4116.64  10
   1 -11   1 52859.1 3776.12   7
  -1  11  -2 3553.40 1094.19  10
   1  11   2 5470.91 1626.48   1
  -1 -11  -2 5389.74 1506.33   7
  -1  11  -2 3534.00 1210.93   1
   1 -11   2 4803.09 1249.47   9
   1 -11   2 4935.04 1228.23   7
  -1 -11  -3 49480.9 4086.87   7
  -1  11  -3 51272.4 4018.80  10
   1  11   3 49567.9 4328.47   1
  -1  11  -3 52394.0 4152.59   1
   1  11   3 45752.5 3819.70   4
   1 -11   3 51030.3 4081.08   9
   1 -11   3 51838.4 3789.48   7
  -1  11  -4 37454.2 3558.58   1
  -1 -11  -4 32425.2 3454.45   8
   1 -11   4 33575.6 3295.80   9
  -1  11  -4 30059.6 3018.99  10
   1  11   4 36484.6 3476.18   4
  -1 -11  -4 33555.4 3443.19   7
  -1 -11  -5 47752.1 4271.50   8
  -1  11  -5 42717.2 3930.15   1
   1 -11   5 46143.2 3923.90   9
   1  11   5 47817.3 4143.04   4
  -1 -11  -5 48604.4 4210.28   7
   1 -11   6 19641.8 2552.95   9
  -1  11  -6 14551.2 2420.99   1
  -1 -12   4 267.693 429.676   9
  -1 -12   3 5145.66 1384.38   7
   1  12  -3 8648.08 1994.90   1
  -1 -12   3 5766.00 1401.21   9
  -1 -12   2 3760.74 1166.01   7
  -1 -12   2 3728.55 1262.63   9
   1  12  -2 3954.67 1585.39   1
   1  12  -2 4415.92 1242.52  10
   1  12  -1 22782.9 2816.96  10
   1  12  -1 25620.6 3267.84   1
  -1 -12   1 28735.6 3139.39   9
  -1 -12   1 23645.6 2844.37   7
  -1  12   0-801.941 653.109  10
  -1 -12   0-103.707 697.817   7
  -1 -12   0-694.089 615.918   9
   1  12   0 1185.07 1286.26   1
   1  12   0 1781.15 938.390  10
   1  12   1 7537.73 1939.73   1
   1  12   1 10270.1 1930.14  10
   1 -12   1 10568.1 1993.95   9
  -1  12  -1 8948.58 1790.72  10
  -1 -12  -1 6878.52 1574.56   7
  -1 -12  -2 5792.83 1522.42   7
  -1  12  -2 5613.50 1483.04  10
  -1  12  -3 5992.01 1497.59  10
  -1  12  -4 3854.22 1212.52  10
  -2   0  14 1178.20 770.670   4
   2   0 -13 1053.10 732.233   3
  -2   0  13 579.246 551.255   4
   2   0 -13 922.284 898.107   8
  -2   0  12 792.126 638.681   4
   2   0 -12 2159.61 1082.83   8
  -2   0  11-29.4549 416.620   4
   2   0 -11 151.732 533.777   8
  -2   0  11 503.431 483.396   5
  -2   0  10 42.9862 488.040   5
  -2   0  10 1101.65 485.148   9
  -2   0  10 372.072 476.720   4
   2   0 -10-215.748 487.229   8
  -2   0   9 188.444 356.196   4
  -2   0   9-87.2285 338.128   5
  -2   0   9 760.606 397.454   9
   2   0  -9 652.131 500.306   8
   2   0  -8 159.112 179.342   2
   2   0  -8-115.708 391.947   8
  -2   0   8 812.433 640.599   5
  -2   0   8 14.4408 255.876   9
  -2   0   8 680.103 449.491   4
  -2   0   7 6.18109 326.326   4
  -2   0   7-134.167 230.997   9
   2   0  -7-171.592 471.038   8
   2   0  -7 424.536 251.987   2
  -2   0   7 442.181 466.064   5
   2   0  -6 1040.12 326.151   2
  -2   0   6 1539.46 547.534   5
   2   0  -6 548.453 353.936   8
  -2   0   6 910.032 324.384   9
  -2   0   6 925.228 490.617   4
  -2   0   5 551.039 245.068   9
   2   0  -5 132.283 182.067   2
   2   0  -5-354.117 353.929   8
  -2   0   5 154.671 297.309   4
  -2   0   5 145.212 306.888   5
  -2   0   4 86938.1 2527.70   9
  -2   0   4 94806.8 2341.09  10
  -2   0   4 88226.1 3187.14   4
   2   0  -4 88627.7 2901.37   2
  -2   0   4 85215.8 3023.67   5
   2   0  -4 86782.8 3118.21   8
  -2   0   3 265.943 100.477  10
   2   0  -3-48.0138 229.391   8
  -2   0   3 138.636 201.112   4
   2   0  -3 45.9861 158.543   2
  -2   0   3 120.879 248.841   6
   2   0  -3 193.180 103.734   9
  -2   0   3-24.1221 204.123   7
  -2   0   2 55123.4 2033.97   6
   2   0  -2 57746.6 1988.93   2
  -2   0   2 57790.7 1886.72   7
  -2   0   2 59690.6 1500.04  10
  -2   0   2 57493.7 2062.55   4
   2   0  -2 55326.7 1806.30   8
  -2   0   1 33.6702 115.500   1
  -2   0   1 373.378 174.564   7
   2   0  -1 553.915 146.869  10
  -2   0   1 386.042 111.432   9
   2   0  -1 145.578 94.1657   8
   2   0  -1 343.444 141.280   7
  -2   0   1 161.078 110.695  10
   2   0  -1 41.9595 63.3632   9
  -2   0   1 27.0914 139.973   4
   2   0  -1-4.54038 140.860   1
  -2   0   0 7132.79 413.776   7
  -2   0   0 6496.50 497.212  10
   2   0   0 7625.41 544.850   1
   2   0   0 7786.77 425.625   3
  -2   0   0 7474.51 427.909   3
  -2   0   0 8205.89 590.146   1
   2   0   0 6570.46 454.054   9
  -2   0   0 7143.68 478.345   9
   2   0   0 8872.12 577.012  10
   2   0   0 7584.01 528.411   4
   2   0   1-18.0876 151.788   9
  -2   0  -1 87.3433 161.004  10
   2   0   1 302.567 139.389   3
  -2   0  -1 62.1748 147.229   3
   2   0   1 32.0192 173.578   1
  -2   0  -2 669686. 14042.7  10
   2   0   2 656202. 14006.6   9
  -2   0  -2 694778. 13903.8   3
   2   0   2 685432. 14053.9   1
   2   0   3 171.765 193.244   9
  -2   0  -3 197.725 232.334  10
  -2   0  -3 201.711 212.180   3
  -2   0  -4 24636.6 1541.73  10
  -2   0  -4 25400.6 1518.20   8
   2   0   4 24319.2 1575.46   9
   2   0   5 64.2179 244.178   9
  -2   0  -5 237.701 317.634  10
   2   0   5 93.5031 201.423   4
  -2   0  -5-100.005 262.540   8
  -2   0  -6 451696. 11464.6  10
   2   0   6 468330. 11800.7   9
   2   0   6 473074. 11243.1   4
  -2   0  -6 465959. 11745.0   8
  -2   0  -7-147.933 308.240  10
   2   0   7-204.367 344.907   9
  -2   0  -7 233.693 388.536   8
  -2   0  -7 437.154 438.998   3
   2   0   7 480.480 361.307   4
  -2   0  -8 2726.00 683.785  10
   2   0   8 2233.55 738.075   9
  -2   0  -8 1538.10 662.298   8
   2   0   8 2586.57 654.531   4
  -2   0  -8 3397.70 902.206   3
   2   0   9-600.521 395.836   4
   2   0   9 63.6869 308.452   9
  -2   0  -9 545.023 483.741  10
  -2   0  -9-126.892 376.479   8
  -2   0  -9-72.9135 437.456   3
  -2   0 -10 111163. 5733.46   3
  -2   0 -10 113867. 5144.79  10
   2   0  10 117989. 5168.12   4
  -2   0 -10 119630. 5892.42   8
   2   0  10 115504. 5585.16   9
  -2   0 -11 281.734 630.410   3
   2   0  11 1659.85 806.369   9
   2   0  11 990.555 642.009   4
  -2   0 -11-758.013 528.750  10
  -2   0 -11 446.386 658.557   8
   2   0  12 40.5006 425.221   9
  -2   0 -12 24.5896 541.337   8
   2   0  13-363.881 498.094   9
  -2   0 -13 201.654 738.461   8
  -2   1  14 4660.56 1252.89   4
   2   1 -13 1457.62 938.235   8
   2  -1 -13 2073.57 944.426   8
  -2  -1  13 1505.86 749.520   4
   2   1 -13 1749.63 915.740   3
  -2   1  13 3168.39 1088.78   4
   2  -1 -12 34147.4 3449.48   8
  -2  -1  12 33366.7 2947.79   5
   2   1 -12 39650.8 3601.73   8
   2   1 -12 32448.0 3188.82   3
  -2  -1  12 34752.2 2992.19   4
  -2   1  12 39063.4 3335.26   4
  -2  -1  11 59285.8 3771.70   5
   2  -1 -11 51602.3 4009.17   8
   2   1 -11 54378.9 4037.95   8
   2   1 -11 53555.7 3827.66   3
  -2  -1  11 59702.5 3748.12   4
  -2   1  11 54337.7 3779.91   4
   2  -1 -10 37682.8 3176.19   8
  -2  -1  10 41693.2 2591.33   9
   2   1 -10 40594.0 3126.99   3
  -2  -1  10 42872.1 3044.24   5
  -2   1  10 42457.0 3151.31   4
   2   1 -10 39452.9 3191.41   8
  -2  -1  10 38430.1 2823.19   4
  -2  -1   9 11530.8 1459.14   4
  -2  -1   9 12780.4 1306.41   9
  -2   1   9 14220.5 1684.02   4
  -2  -1   9 12974.4 1581.90   5
   2   1  -9 11409.3 1604.01   8
   2  -1  -9 13449.0 1248.31   2
   2  -1  -9 13961.6 1794.98   8
  -2  -1   8 102477. 4374.19   4
   2   1  -8 109547. 3625.02   2
   2  -1  -8 106053. 3834.94   2
  -2  -1   8 96073.6 4398.89   5
   2  -1  -8 102372. 4770.06   8
  -2   1   8 96735.5 4500.80   4
  -2   1   8 100221. 4029.49   5
   2   1  -8 97891.7 4629.65   8
  -2  -1   8 108384. 3887.85   9
  -2   1   7 89503.5 4021.79   4
   2   1  -7 95380.5 3239.15   2
  -2  -1   7 89946.7 3256.75   9
  -2   1   7 84491.4 3462.97   5
  -2  -1   7 87406.9 3902.78   5
  -2  -1   7 90411.9 3831.36   4
   2  -1  -7 89200.9 3361.36   2
   2  -1  -7 92980.5 4203.28   8
   2   1  -6 132352. 3990.42   2
  -2  -1   6 128378. 4518.83   4
   2  -1  -6 127591. 4763.87   8
  -2   1   6 129381. 4725.46   4
  -2  -1   6 135393. 3912.34   9
   2  -1  -6 126392. 4103.45   2
  -2  -1   6 127706. 3229.83  10
  -2  -1   6 127917. 4646.88   5
   2  -1  -5 71878.0 3088.63   8
   2  -1  -5 74466.4 2768.58   2
  -2   1   5 72965.3 3127.06   4
  -2  -1   5 71031.7 2366.62   9
   2   1  -5 72341.3 2609.38   2
  -2  -1   5 76300.1 3041.70   4
  -2  -1   5 71089.3 3063.17   7
  -2  -1   5 74441.9 3103.30   5
  -2  -1   5 73651.2 1899.19  10
   2  -1  -4 220826. 6144.55   8
  -2   1   4 226833. 6269.77   4
  -2  -1   4 225765. 6089.02   4
  -2  -1   4 229885. 5189.78   9
   2   1  -4 240762. 5213.91   9
  -2  -1   4 224699. 6222.88   5
   2  -1  -4 229542. 5913.04   2
  -2  -1   4 226644. 6188.26   7
  -2  -1   3 65872.0 2519.82   5
   2  -1  -3 67767.3 2412.49   2
  -2  -1   3 65403.0 2527.61   6
  -2  -1   3 67837.5 1700.29   9
   2   1  -3 72645.6 1729.12   9
  -2  -1   3 65517.9 2488.34   7
  -2   1   3 65840.2 2427.02   6
   2  -1  -3 67234.3 2461.25   8
  -2   1   3 65502.6 2514.65   4
  -2  -1   3 64833.6 2445.52   4
  -2  -1   2 834826. 17391.2   5
  -2  -1   2 838572. 17319.3   6
  -2   1   2 846753. 16923.6  10
  -2  -1   2 841207. 17355.6   4
   2  -1  -2 865623. 17336.3   2
  -2   1   2 841678. 17329.6   4
  -2   1   2 842026. 17177.4   6
   2  -1  -2 830129. 17240.5   8
  -2  -1   2 853292. 17246.8   7
  -2  -1   1 43218.2 1315.51  10
   2   1  -1 47540.2 1665.47   1
  -2   1   1 41271.3 1533.47   4
  -2  -1   1 40374.0 1591.44   6
  -2  -1   1 49314.8 1205.51   9
   2  -1  -1 42144.5 1628.03   2
   2  -1  -1 38405.2 1565.31   8
   2   1  -1 47442.7 1350.54  10
   2  -1  -1 41046.0 1453.63   9
  -2   1   1 41372.5 1522.18  10
  -2   1   1 48127.7 1602.40   8
  -2  -1   1 41060.9 1557.16   7
   2  -1  -1 46875.1 1208.01   7
  -2   1   0 19295.1 983.655  10
  -2  -1   0 16952.4 931.569   7
   2  -1   0 21355.6 833.595   4
  -2  -1   0 17822.8 687.438   8
   2   1   0 20934.8 954.174  10
  -2  -1   0 21145.5 883.026   9
   2   1   0 18512.0 1116.18   1
   2  -1   0 20293.6 969.143   2
  -2   1   0 17551.7 771.991   4
   2   1   0 20023.0 776.683   8
  -2  -1   0 19272.7 916.247  10
   2   1   0 18744.7 838.511   9
  -2   1   0 18561.6 708.175   1
   2  -1   0 17052.5 907.343   9
  -2   1   0 20337.6 852.555   8
  -2   1  -1 193311. 4899.33  10
  -2   1  -1 197588. 4835.30   3
   2   1   1 185804. 4778.96   9
   2  -1   1 206218. 4235.55   4
   2  -1   1 189327. 4871.57   9
  -2   1  -1 201096. 4540.17   2
  -2  -1  -1 189377. 4869.01  10
   2   1   1 213705. 4499.28   8
  -2  -1  -1 185542. 4564.78   8
  -2   1  -1 209539. 4288.97   7
   2  -1   1 191968. 4521.53   2
   2   1   1 188950. 5105.56   1
  -2   1  -2 506459. 10975.2   3
   2   1   2 490144. 10964.0   9
  -2  -1  -2 489469. 10573.1   8
   2  -1   2 491549. 10982.5   9
  -2   1  -2 517388. 10101.0   2
  -2  -1  -2 503571. 11010.8  10
  -2   1  -2 498062. 10919.9  10
   2  -1   2 504650. 10079.8   2
   2   1   2 507696. 11088.6   1
   2  -1   3 569.810 110.451   2
  -2   1  -3 681.907 314.641   3
   2   1   3 262.514 198.904   1
  -2  -1  -3 782.647 308.812   8
  -2  -1  -3 727.094 294.729  10
   2   1   3 295.501 282.186   9
   2  -1   3 419.965 222.167   9
  -2   1  -3 611.701 268.608  10
   2  -1   4 128543. 4342.64   9
   2   1   4 136852. 4490.06   9
  -2  -1  -4 138927. 4295.00   8
   2  -1   4 135745. 3699.08   4
  -2   1  -4 134406. 4267.95  10
  -2   1  -4 139571. 4494.57   3
  -2  -1  -4 140947. 4436.01  10
  -2   1  -5 106669. 4134.83   3
   2   1   5 110649. 2908.91   2
   2   1   5 108191. 4162.71   9
  -2  -1  -5 113526. 4103.95  10
   2  -1   5 107835. 4052.34   9
   2  -1   5 115014. 3492.21   4
  -2  -1  -5 110808. 4062.43   8
  -2   1  -5 113890. 3986.78  10
   2   1   6 66905.6 1989.73   2
   2   1   6 73405.9 3460.86   9
   2   1   6 72883.8 3300.90   4
  -2   1  -6 76033.4 3247.32  10
  -2  -1  -6 72319.7 3323.81  10
   2  -1   6 69188.4 3302.20   9
  -2  -1  -6 78888.1 3483.74   8
  -2   1  -6 69569.5 3430.96   3
   2  -1   6 75192.1 2886.70   4
   2  -1   7 51420.1 2957.55   9
   2   1   7 48983.5 2824.74   4
  -2   1  -7 51015.9 2767.15  10
   2  -1   7 50596.2 2468.31   4
   2   1   7 50887.3 3018.10   9
  -2  -1  -7 44368.8 2829.34   8
  -2   1  -7 46759.0 2959.76   3
  -2  -1  -7 48357.3 2819.10  10
   2  -1   8 21031.5 1977.58   9
  -2  -1  -8 23471.6 2016.88  10
  -2   1  -8 19304.2 1961.20   8
   2   1   8 20145.2 1871.40   4
  -2   1  -8 16496.1 1859.24   3
   2  -1   8 21826.0 1694.95   4
  -2   1  -8 20003.4 1790.28  10
  -2  -1  -8 25751.0 2261.29   8
   2   1   8 23859.8 2130.00   9
  -2   1  -9 1864.75 732.768   3
  -2   1  -9 2990.01 723.239  10
   2   1   9 2218.97 736.968   9
  -2  -1  -9 3627.47 960.026   8
  -2  -1  -9 3825.88 917.187  10
   2  -1   9 2570.75 753.057   9
   2   1   9 3246.52 837.524   4
   2  -1   9 3604.31 750.780   4
  -2   1  -9 2858.36 876.469   8
  -2   1 -10 743.213 721.692   8
  -2   1 -10 566.055 670.460   3
  -2  -1 -10 511.189 472.865  10
  -2   1 -10 791.356 405.930  10
   2   1  10 146.053 396.359   9
   2  -1  10 622.401 567.741   9
   2   1  10 1256.73 591.773   4
  -2  -1 -10 2230.22 894.305   3
  -2  -1 -10 1431.26 731.285   8
  -2  -1 -11 9714.48 1745.09   3
  -2   1 -11 7241.44 1520.98   3
  -2  -1 -11 9680.12 1499.50  10
  -2   1 -11 6376.19 1485.77   8
   2  -1  11 8470.94 1525.37   9
   2   1  11 8437.92 1494.47   9
   2   1  11 7931.62 1396.15   4
  -2  -1 -11 10121.5 1769.55   8
   2  -1  12 46878.6 3741.68   9
   2   1  12 42846.8 3665.80   9
   2   1  12 54264.2 3870.05   4
  -2  -1 -12 49641.8 4225.74   8
  -2  -1 -12 53182.6 4236.03   3
  -2   1 -12 55427.2 4393.97   3
  -2   1 -12 60065.5 4513.32   8
   2   1  13 4534.06 1259.90   9
   2  -1  13 3775.08 1132.42   9
  -2   2  13 55424.3 4353.84   4
   2   2 -13 50754.9 4219.21   3
   2   2 -13 57503.5 4639.01   8
   2  -2 -13 59903.2 4979.20   8
  -2  -2  13 52551.2 4054.60   5
  -2   2  12 16690.9 2276.94   4
  -2  -2  12 18352.8 2302.45   5
   2   2 -12 16349.1 2251.93   3
  -2  -2  12 18517.4 2108.29   4
   2  -2 -12 18859.3 2640.00   8
   2   2 -12 16155.4 2288.34   8
   2   2 -11 1017.92 674.369   3
  -2  -2  11 1350.03 756.400   5
   2   2 -11 930.738 688.442   8
  -2  -2  11 1224.05 547.490   4
   2  -2 -11 175.297 640.447   8
  -2   2  11 1468.24 676.487   4
  -2  -2  10 48406.7 3133.26   4
   2   2 -10 43394.2 3234.94   3
  -2  -2  10 48552.7 3438.73   5
   2   2 -10 52221.3 3689.69   8
   2  -2 -10 47464.1 3676.71   8
  -2   2  10 50457.6 3562.32   4
  -2  -2   9 803.370 656.750   5
  -2  -2   9 348.071 281.169   9
   2  -2  -9 887.402 586.109   8
  -2  -2   9 633.426 431.410   4
   2   2  -9 322.312 474.869   3
  -2   2   9 70.6960 385.049   4
  -2  -2   8 5270.67 1045.59   5
  -2  -2   8 5463.52 780.367   9
  -2  -2   8 4944.58 878.336   4
   2   2  -8 4941.63 684.475   2
   2  -2  -8 4562.30 779.411   2
   2  -2  -8 4286.66 1010.84   8
   2   2  -8 5674.98 1013.51   3
  -2   2   8 4236.05 948.522   4
   2   2  -7 150970. 4526.55   2
   2  -2  -7 150698. 4958.70   2
  -2  -2   7 142723. 5553.15   5
  -2  -2   7 152070. 4588.03   9
   2   2  -7 138985. 5233.30   3
   2   2  -7 150936. 3783.42  10
  -2   2   7 142353. 5561.54   4
   2  -2  -7 158999. 5900.23   8
  -2  -2   7 145145. 5132.55   4
  -2  -2   7 146861. 5570.30   7
   2  -2  -6 63095.4 2810.04   2
  -2  -2   6 65190.4 2434.76   9
   2   2  -6 64689.9 1870.00  10
  -2  -2   6 63708.3 3212.30   5
  -2  -2   6 67842.7 2997.42   4
   2  -2  -6 61874.8 3239.26   8
  -2   2   6 62983.4 3208.23   4
  -2  -2   6 61105.3 1827.96  10
   2   2  -6 64318.2 2985.34   3
  -2  -2   6 64941.7 3204.96   7
   2   2  -5 180596. 5267.09   3
  -2   2   5 163197. 5506.21   4
  -2  -2   5 181975. 4511.14   9
  -2  -2   5 173980. 5570.79   7
  -2  -2   5 175680. 5266.22   4
   2   2  -5 174371. 3846.85  10
  -2  -2   5 167308. 5579.02   5
   2  -2  -5 174781. 5208.05   2
   2  -2  -5 175889. 5720.26   8
   2  -2  -4 4513.72 643.736   2
  -2  -2   4 4625.01 716.243   7
  -2  -2   4 5789.74 843.573   5
   2   2  -4 4531.19 629.252   3
   2   2  -4 4270.99 273.016  10
  -2  -2   4 4774.09 667.971   4
  -2  -2   4 4614.38 444.411   9
   2  -2  -4 4062.33 669.380   8
  -2   2   4 5996.69 796.940   4
   2   2  -3 16017.1 988.710   3
   2  -2  -3 16311.5 888.947   1
  -2  -2   3 16101.8 1243.04   5
  -2  -2   3 16038.9 751.840   9
  -2   2   3 14610.7 1148.70   4
   2  -2  -3 15627.0 1143.64   2
   2  -2  -3 17169.5 1345.90   8
  -2  -2   3 15160.8 1144.05   7
   2   2  -3 14986.5 592.813  10
  -2  -2   3 17961.8 1175.46   4
   2   2  -2 49907.4 2104.72   1
   2  -2  -2 51736.6 2102.44   2
   2   2  -2 51660.3 1714.15   3
  -2   2   2 48877.0 1811.83   6
  -2  -2   2 48089.7 1952.92   6
   2  -2  -2 46806.6 2251.84   8
   2  -2  -2 55182.5 1501.35   1
  -2   2   2 50032.9 2043.63   4
   2   2  -2 55168.9 1571.88  10
  -2  -2   2 49443.8 2131.02   5
  -2   2   2 53916.7 1409.73   1
  -2  -2   2 50088.1 2070.17   7
   2  -2  -1 1733.87 371.780   2
  -2   2   1 722.941 228.657   4
  -2  -2   1 979.289 176.608   3
   2   2  -1 1038.75 430.318   1
  -2  -2   1 1595.38 424.940   7
   2  -2  -1 540.845 319.987   8
  -2  -2   1 1076.23 281.444   6
  -2   2   1 745.092 143.900   1
  -2   2   1 1208.58 328.131  10
  -2  -2   1 806.932 307.575   5
   2   2  -1 1022.53 217.290  10
   2  -2   0 27003.0 871.561   7
  -2   2   0 25835.5 1334.35  10
  -2  -2   0 25352.4 1378.57   7
   2   2   0 27812.5 1541.93   1
   2  -2   0 28261.5 1022.62   4
   2  -2   0 28122.5 1334.34   2
   2  -2   0 26541.7 1266.78   8
  -2  -2   0 27443.4 1204.08   8
  -2   2   0 26337.6 1005.27   4
   2  -2   0 27003.7 1352.06   9
  -2  -2   0 27332.7 1271.10  10
   2  -2   1 223482. 5290.89   2
   2  -2   1 215929. 5586.04   9
  -2   2  -1 212931. 5614.57   3
   2   2   1 209548. 6010.40   1
   2   2   1 217077. 5462.61   9
  -2  -2  -1 217608. 5452.45   8
  -2  -2  -1 221546. 5549.64  10
  -2   2  -1 234975. 4866.31   7
  -2   2  -1 213588. 5554.01  10
   2  -2   1 211672. 4815.75   7
  -2   2  -2 66051.4 2583.75   3
   2   2   2 67266.4 2566.61   9
  -2   2  -2 68602.2 2533.03  10
   2   2   2 63915.8 2735.52   1
   2  -2   2 64766.3 2110.42   7
  -2  -2  -2 68252.2 2589.88  10
  -2  -2  -2 65668.6 2606.44   8
   2  -2   2 66452.5 2567.78   9
  -2   2  -3 304685. 7934.55   3
  -2  -2  -3 304897. 7848.90   8
  -2  -2  -3 301688. 7867.80  10
   2   2   3 317949. 8059.39   1
  -2   2  -3 323794. 6740.62   2
   2  -2   3 317433. 7914.24   9
   2  -2   3 308633. 6357.28   4
  -2   2  -3 306031. 7689.70  10
   2   2   3 310120. 7916.64   9
  -2   2  -4 3400.35 581.327  10
  -2   2  -4 3613.80 297.189   2
  -2  -2  -4 4183.81 716.167  10
  -2  -2  -4 3596.31 657.842   8
   2  -2   4 3998.42 388.656   4
   2   2   4 4017.37 723.585   1
   2   2   4 3485.56 642.931   9
   2  -2   4 3494.35 638.802   9
  -2   2  -4 4522.18 773.605   3
  -2   2  -5 56215.1 2885.31   3
   2  -2   5 52470.6 2675.09   9
  -2   2  -5 55503.3 2582.08  10
  -2  -2  -5 50481.7 2663.72   8
   2   2   5 48514.0 2691.47   9
   2  -2   5 51303.4 1914.08   4
   2   2   5 51791.8 2733.26   1
  -2  -2  -5 50235.5 2669.64  10
   2  -2   6 6918.64 1004.67   9
  -2   2  -6 5248.62 960.247   3
  -2  -2  -6 6253.41 956.140  10
  -2  -2  -6 6019.86 987.580   8
   2   2   6 6623.53 1041.69   9
   2   2   6 7230.02 1071.93   4
   2  -2   6 5988.75 667.354   4
  -2   2  -6 7313.24 937.169  10
   2   2   7 20218.1 1918.68   9
  -2   2  -7 23882.2 1836.94  10
   2  -2   7 24937.0 2020.73   9
   2   2   7 23529.5 2055.85   4
   2  -2   7 24824.1 1527.85   4
  -2  -2  -7 20270.6 1839.63  10
  -2  -2  -7 17296.5 1821.42   8
  -2   2  -7 19775.5 1936.95   3
   2  -2   8 197.680 416.275   9
  -2  -2  -8 889.466 496.314  10
   2   2   8-54.7649 348.671   9
  -2   2  -8 790.495 461.792  10
   2  -2   8 143.108 198.163   4
  -2   2  -8-249.170 454.574   3
  -2  -2  -8-134.465 594.090   8
   2   2   8 315.155 435.497   4
  -2   2  -9 22703.6 2371.16   3
   2  -2   9 27895.0 2407.26   9
  -2   2  -9 24214.7 2053.61  10
  -2  -2  -9 23284.8 2198.35  10
   2   2   9 24104.3 2341.85   9
   2   2   9 27567.5 2462.01   4
  -2  -2  -9 21831.7 2305.16   8
   2   2  10 1318.00 628.553   9
  -2   2 -10 1437.04 563.000  10
  -2  -2 -10 2145.89 772.411  10
  -2  -2 -10 1967.41 765.438   8
  -2   2 -10 2088.67 844.934   8
   2  -2  10 1406.69 635.030   9
  -2   2 -10 2244.21 940.684   3
   2   2  10 1405.29 710.301   4
  -2  -2 -11 35822.8 2994.62  10
  -2  -2 -11 28918.5 3095.16   8
  -2   2 -11 36773.9 3415.43   3
   2   2  11 29327.5 2814.46   4
   2   2  11 30534.5 2932.06   9
   2  -2  11 36151.5 3084.23   9
  -2   2 -11 40106.2 3477.16   8
  -2  -2 -12 859.537 618.913   3
   2   2  12 769.787 666.134   9
  -2   2 -12-15.6345 415.236   3
  -2  -2 -12-839.912 1005.74   8
  -2   2 -12 577.252 854.174   8
   2  -2  12 358.355 445.285   9
   2  -2  12 765.514 671.963   5
   2   2  12 15.0980 399.981   4
   2  -2  13 24159.2 2778.99   9
   2   3 -13 2060.67 942.050   3
  -2  -3  13 1572.54 860.288   5
  -2   3  13-238.866 526.560   4
   2   3 -12 9709.34 1750.67   3
   2  -3 -12 15647.6 2576.92   8
   2   3 -12 12890.2 2056.35   8
  -2  -3  12 13776.9 2102.49   5
  -2   3  12 12794.2 2046.54   4
  -2  -3  11 3151.06 1102.34   5
  -2  -3  11 1627.46 614.157   4
  -2   3  11 1685.91 827.875   4
   2  -3 -11 3203.61 1341.67   8
   2   3 -11 1617.05 803.240   3
   2   3 -11 2602.03 922.434   8
   2   3 -10 20108.7 2204.01   3
  -2   3  10 18399.4 2220.89   4
  -2  -3  10 21341.5 2004.94   4
  -2  -3  10 19063.5 2249.83   5
   2  -3 -10 20727.0 2510.66   8
  -2  -3   9 11587.4 1716.80   5
  -2  -3   9 11212.0 1378.22   4
   2   3  -9 12938.6 1638.47   3
  -2  -3   9 10561.1 1176.11   9
   2  -3  -9 11723.3 1809.33   8
  -2   3   9 11675.2 1704.32   4
   2   3  -8 35249.2 2577.12   3
   2  -3  -8 32334.1 2866.53   8
  -2  -3   8 36886.0 2406.22   4
   2   3  -8 38003.7 1999.28   2
  -2  -3   8 35596.5 2806.22   5
  -2   3   8 34844.7 2772.59   4
  -2  -3   8 41510.2 2944.42   7
  -2  -3   8 37932.6 2112.95   9
  -2  -3   7 2224.11 749.382   7
   2   3  -7 2218.25 322.915  10
  -2  -3   7 2239.36 504.540   9
  -2  -3   7 2167.82 564.998   4
  -2  -3   7 2838.77 810.019   5
   2   3  -7 1557.91 545.141   3
   2  -3  -7 1295.81 861.014   8
  -2   3   7 3389.68 897.687   4
   2  -3  -6 20166.2 2012.29   8
   2   3  -6 22421.9 1731.09   3
   2   3  -6 23024.7 1027.32  10
  -2  -3   6 22287.7 1350.31   9
  -2  -3   6 20629.2 1853.75   5
  -2  -3   6 24322.1 1728.51   4
   2  -3  -6 21900.5 1684.43   2
  -2   3   6 22388.1 1933.09   4
  -2  -3   6 24302.2 1970.97   7
  -2  -3   5-210.245 350.323   7
   2  -3  -5 357.272 270.766   2
   2   3  -5 165.289 102.395  10
  -2  -3   5 359.275 201.404   9
   2  -3  -5 416.994 653.483   8
  -2  -3   5 125.298 252.809   4
  -2   3   5 709.222 465.824   4
  -2  -3   5 707.832 502.882   5
   2   3  -5 422.544 327.329   3
  -2  -3   4 5259.18 546.107   9
  -2  -3   4 3264.46 684.007   7
   2   3  -4 4013.55 391.720  10
   2  -3  -4 4490.25 713.693   2
  -2  -3   4 3714.42 616.320   4
  -2  -3   4 4247.45 799.849   5
   2   3  -4 4206.39 656.967   3
   2  -3  -4 4387.80 946.980   8
  -2   3   4 2789.54 612.418   4
   2  -3  -3 56015.3 2533.80   2
  -2  -3   3 55363.3 2519.28   7
   2  -3  -3 52836.3 2840.90   8
  -2  -3   3 54351.5 1945.63   9
   2   3  -3 53477.5 1786.40  10
  -2   3   3 55602.2 2514.27   4
   2   3  -3 55317.3 2202.49   3
  -2  -3   3 53648.4 2573.57   5
  -2   3   3 58346.3 1920.97   1
   2   3  -2 10687.1 788.133   3
  -2  -3   2 9148.08 794.041   6
  -2  -3   2 8020.37 869.437   5
   2   3  -2 9380.97 967.144   1
  -2   3   2 8617.62 640.261   6
   2  -3  -2 10979.8 665.487   1
  -2   3   2 8730.91 839.870   4
  -2   3   2 9655.07 694.518   1
   2  -3  -2 10643.2 1115.85   8
   2  -3  -2 10663.2 1003.31   2
  -2  -3   2 8291.12 891.170   7
  -2   3   1 616.530 298.513  10
   2   3  -1 956.661 350.908   1
  -2  -3   1 1276.99 354.733   5
  -2   3   1 480.602 198.485   6
  -2   3   1 484.341 194.177   1
  -2  -3   1 905.649 396.116   7
   2  -3  -1 528.303 220.943   2
  -2  -3   1 928.852 281.556   6
   2  -3  -1 885.700 401.160   8
  -2   3   1 453.681 226.675   4
   2  -3   0 25653.4 1494.88   9
  -2  -3   0 25734.3 1558.58   7
   2  -3   0 21847.6 1037.08   7
  -2  -3   0 25392.8 1255.16   5
   2   3   0 24194.3 1567.04   1
  -2  -3   0 21957.5 1308.94   8
   2  -3   0 23592.8 1412.60   8
  -2   3   0 22886.2 1038.50   4
  -2   3   0 24028.7 1442.15  10
   2  -3   1 34377.7 1818.50   9
   2   3   1 35033.2 2101.73   1
  -2   3  -1 34306.9 1791.38  10
  -2   3  -1 32920.7 1009.35   4
  -2  -3  -1 35236.5 1778.87   8
   2  -3   1 34270.9 1373.61   7
  -2   3  -2 31430.7 1869.30   3
  -2  -3  -2 33601.5 1865.51  10
   2  -3   2 30102.4 1773.53   9
  -2  -3  -2 33496.7 1962.07   8
   2  -3   2 31766.5 1462.71   7
   2   3   2 35348.9 1183.93   5
  -2   3  -2 31325.6 1756.88  10
   2   3   2 31962.4 2107.37   1
   2  -3   3 35401.2 2011.45   9
  -2   3  -3 33648.9 1899.79  10
   2   3   3 34459.7 1075.62   5
  -2   3  -3 34875.2 2077.19   3
  -2  -3  -3 33547.2 2006.63  10
  -2  -3  -3 34544.4 2207.84   8
   2   3   3 33590.0 2099.64   1
   2  -3   3 33662.0 1687.32   7
   2  -3   4 12532.3 512.763   4
  -2   3  -4 12228.7 1294.24   3
   2  -3   4 13250.8 1142.32   7
  -2   3  -4 12458.6 1166.07  10
   2  -3   4 14087.6 1315.68   9
  -2  -3  -4 15097.5 1516.92   8
   2   3   4 14515.2 1391.84   1
  -2  -3  -4 11216.4 1202.89  10
   2   3   4 13760.4 1328.69   9
  -2   3  -5 59628.1 3176.31   3
  -2  -3  -5 61286.8 3338.03   8
  -2   3  -5 62616.6 2899.96  10
   2  -3   5 57746.6 2992.71   9
   2  -3   5 67579.9 1932.68   4
  -2   3  -5 58907.9 1899.71   2
  -2  -3  -5 65630.1 3219.53  10
   2   3   5 58907.1 3126.66   1
   2   3   5 57815.2 3094.62   9
  -2   3  -6 1404.83 552.742  10
   2   3   6 685.070 476.215   1
   2   3   6 1265.37 606.950   9
   2  -3   6 587.473 193.758   4
  -2   3  -6 1037.48 488.404   3
  -2  -3  -6 1070.84 510.396  10
   2  -3   6 1470.42 507.726   9
  -2  -3  -6 791.354 749.433   8
   2   3   7 1511.07 570.495   4
   2   3   7 1888.01 677.806   9
   2  -3   7 537.535 467.586   9
  -2   3  -7 610.824 513.279   3
  -2  -3  -7 1546.42 559.249  10
  -2   3  -7 755.839 339.582  10
  -2  -3  -7 566.928 507.583   8
   2  -3   8 17742.2 1839.16   9
  -2  -3  -8 18496.5 2158.74   8
   2   3   8 13254.6 1700.18   4
   2   3   8 15954.8 1855.83   9
  -2   3  -8 17709.5 1689.27  10
  -2   3  -8 17566.4 1989.50   3
  -2  -3  -8 14412.8 1728.32  10
  -2   3  -9 12624.2 1850.51   3
  -2  -3  -9 11717.0 1599.73  10
   2  -3   9 12002.8 1599.78   9
  -2   3  -9 13284.8 1503.97  10
   2   3   9 13629.4 1820.42   4
  -2  -3  -9 10707.3 1794.41   8
   2   3   9 13146.4 1785.21   9
  -2   3 -10 6085.99 1080.33  10
   2  -3  10 5301.62 1127.07   9
  -2   3 -10 8776.03 1640.68   3
  -2  -3 -10 9340.88 1834.29   8
   2   3  10 4808.73 1156.62   4
  -2  -3 -11 37476.1 3703.37   8
  -2   3 -11 32362.1 3311.77   3
   2   3  11 39323.7 3414.42   4
  -2   3 -11 35529.8 3362.10   8
   2  -3  11 33939.1 3043.94   9
  -2   3 -12 13699.0 2274.60   3
   2  -3  12 11960.0 1911.70   9
  -2  -3 -12 7372.84 1888.77   8
   2   3  12 11432.2 1931.62   4
   2  -3  12 11819.2 1937.20   5
  -2   3 -12 8101.21 1689.20   8
   2  -3  13 1262.83 920.072   5
   2   3  13-25.8070 471.272   4
  -2  -4  13 2801.25 1323.36   5
   2   4 -13 663.650 520.342   3
  -2  -4  12 55.7041 486.160   5
   2  -4 -12 1609.11 1096.99   8
   2   4 -12-462.267 694.523   3
  -2   4  12 360.374 516.768   4
   2   4 -12-507.216 586.121   8
   2   4 -11 6607.99 1410.60   3
  -2  -4  11 5430.41 1336.26   5
  -2   4  11 3818.43 1154.05   4
   2  -4 -11 8646.92 1965.16   8
   2   4 -10 2567.78 921.106   3
  -2  -4  10 2410.92 920.802   5
   2  -4 -10 3731.86 1478.84   8
  -2   4  10 3172.76 1025.00   4
  -2  -4   9 6496.95 1022.26   4
  -2  -4   9 5976.94 1348.92   5
  -2  -4   9 5444.83 1241.10   7
   2  -4  -9 5988.50 1551.69   8
  -2   4   9 3987.19 1050.22   4
   2   4  -9 6146.97 1211.66   3
  -2  -4   8 52749.1 3611.96   5
  -2  -4   8 65719.0 3296.80   4
   2   4  -8 61937.3 3610.08   3
   2  -4  -8 62383.3 4357.30   8
  -2  -4   8 63945.5 3804.81   7
  -2   4   8 59272.3 3822.90   4
  -2  -4   8 61414.8 2861.23   9
  -2  -4   7 6381.72 1151.66   7
  -2  -4   7 6248.82 1189.68   5
  -2  -4   7 6752.22 826.550   9
   2   4  -7 7964.52 1162.32   3
   2  -4  -7 7865.63 1617.29   8
  -2   4   7 8673.17 1375.33   4
  -2  -4   7 6646.41 977.615   4
  -2  -4   6 8810.72 1256.04   7
  -2  -4   6 6241.02 892.352   4
   2   4  -6 5906.16 572.462  10
  -2  -4   6 5320.98 1111.77   5
   2   4  -6 6005.40 962.195   3
   2  -4  -6 7531.55 1652.49   8
  -2  -4   6 5403.43 714.260   9
  -2   4   6 6719.77 1128.06   4
  -2  -4   5 3229.33 838.035   5
  -2  -4   5 3217.71 529.510   9
   2   4  -5 2962.68 679.273   3
   2  -4  -5 4143.10 1176.37   8
   2   4  -5 2410.03 378.961  10
  -2  -4   5 3545.73 801.448   7
  -2   4   5 2188.80 639.887   4
   2   4  -4 67175.3 2355.88  10
  -2  -4   4 66765.3 3293.47   5
  -2   4   4 67933.1 3256.49   4
  -2  -4   4 64476.0 2527.92   9
   2  -4  -4 61897.5 3585.69   8
   2   4  -4 68786.7 2918.51   3
  -2   4   4 73661.0 2608.71   1
  -2  -4   4 69096.9 3213.93   7
   2   4  -3 9755.98 951.148   3
  -2  -4   3 10520.8 897.108   9
  -2   4   3 10887.5 1126.49   4
   2  -4  -3 10306.2 1316.30   8
  -2  -4   3 10185.9 1162.46   5
  -2   4   3 10559.4 844.635   1
   2   4  -3 8473.07 768.159  10
   2   4  -3 10255.1 1163.40   1
  -2  -4   3 9811.36 1114.40   7
  -2  -4   2 19655.5 1519.89   7
   2   4  -2 19466.5 1559.73   1
  -2  -4   2 18877.7 1440.51   5
  -2   4   2 20226.4 1405.42   4
  -2   4   2 17630.5 1204.76   1
   2  -4  -2 20849.8 1679.71   8
  -2  -4   1 1024.62 487.313   7
  -2  -4   1 659.254 248.742   6
  -2   4   1 594.157 171.251   6
  -2   4   1 988.549 330.679   1
   2  -4  -1 617.704 426.967   8
   2   4  -1 1196.63 564.320   1
   2  -4  -1 994.254 378.066   7
  -2   4   1 334.619 260.245  10
  -2  -4   1 1366.43 422.532   5
  -2   4   1 403.132 214.627   4
  -2  -4   0 271371. 7518.04   7
  -2  -4   0 269493. 6307.25   6
  -2   4   0 285850. 6735.78   1
  -2  -4   0 279579. 6763.70   5
  -2   4   0 282889. 7465.90  10
   2   4   0 275645. 7700.67   1
   2  -4   0 275801. 6646.79   7
  -2   4   0 278214. 6510.90   4
   2  -4   0 284495. 7501.59   9
  -2  -4   0 275661. 7272.79   8
   2  -4   0 272912. 7418.23   8
  -2   4  -1 2715.31 322.170   4
  -2  -4  -1 3021.67 642.583   8
   2  -4   1 3317.82 640.842   9
   2   4   1 3755.03 926.896   1
  -2   4  -1 2888.87 594.304  10
  -2  -4  -1 3637.19 769.267   7
   2  -4   1 2846.58 466.632   7
  -2   4  -2 116735. 4333.66   3
   2   4   2 110810. 4670.98   1
   2  -4   2 123796. 4313.15   9
  -2   4  -2 115722. 4129.74  10
  -2  -4  -2 123446. 4406.22   8
   2  -4   2 116013. 3646.64   7
  -2   4  -3 71569.8 3120.49  10
  -2   4  -3 69762.9 3281.85   3
   2   4   3 77858.3 3653.40   1
   2  -4   3 73361.4 3263.15   9
   2  -4   3 72174.1 2838.43   7
  -2  -4  -3 69339.6 3436.30   8
   2  -4   4 85709.2 3333.66   7
  -2   4  -4 74434.8 3601.53   3
  -2   4  -4 79930.5 3417.71  10
   2  -4   4 83762.1 3662.61   9
   2   4   4 85526.4 3855.87   1
  -2  -4  -4 72421.7 3869.81   8
  -2  -4  -5 99682.6 4839.78   8
   2  -4   5 103116. 4332.27   9
  -2   4  -5 96280.0 4399.44   3
  -2   4  -5 97765.6 4008.16  10
   2   4   5 108467. 4539.03   1
   2  -4   5 112698. 4188.13   7
  -2   4  -6 45767.0 3020.80   3
   2  -4   6 50233.0 2979.92   9
  -2   4  -6 46436.1 2674.07  10
  -2  -4  -6 52587.2 3532.20   8
   2   4   6 54809.1 3205.42   1
   2   4   7 155048. 6343.98   4
  -2  -4  -7 144210. 6598.50   8
   2  -4   7 152028. 5899.01   9
  -2   4  -7 154799. 5562.62  10
  -2   4  -7 153396. 6289.66   3
   2   4   7 150503. 6112.67   1
  -2   4  -8 53537.0 3674.62   3
   2  -4   8 49703.1 3270.75   9
  -2   4  -8 57049.2 3181.87  10
   2   4   8 56153.9 3725.97   4
  -2  -4  -8 57220.2 4085.65   8
  -2   4  -9 9589.95 1652.28   3
   2  -4   9 6189.52 1180.04   9
  -2   4  -9 7708.66 1189.25  10
  -2  -4  -9 10708.0 1954.42   8
   2   4   9 6681.29 1387.81   4
  -2   4 -10 24858.6 2796.24   3
   2  -4  10 30115.7 2712.89   9
  -2  -4 -10 26033.8 3126.02   8
   2   4  10 28168.5 2884.65   4
   2   4  11 23471.6 2772.02   4
   2  -4  11 20230.9 2371.29   9
  -2  -4 -11 23012.9 3146.63   8
  -2   4 -11 25785.0 2935.53   3
  -2   4 -12 12680.0 2212.18   3
   2  -4  12 12055.2 2138.65   5
   2  -4  12 14119.1 2054.99   9
  -2   4 -12 10062.3 1905.44   8
   2   4  12 13261.9 2134.96   4
  -2  -4 -12 13905.9 2696.04   8
   2   5 -12 30401.0 3201.51   3
  -2  -5  12 35364.5 3561.99   5
  -2   5  12 36111.8 3711.33   4
   2  -5 -12 34533.9 4297.10   8
   2   5 -11 2039.10 868.603   3
  -2  -5  11 5501.17 1386.99   5
  -2   5  11 2349.21 1038.17   4
   2  -5 -11 2689.77 1604.60   8
   2   5 -10 1569.56 721.905   3
  -2  -5  10 2077.36 818.362   5
  -2   5  10 2190.38 1002.75   4
  -2  -5   9 653.162 639.723   7
  -2  -5   9-115.754 473.388   5
   2   5  -9 34.1888 495.567   3
  -2   5   9 311.508 672.708   4
   2   5  -8 21378.1 2116.82   3
  -2   5   8 20639.3 2276.00   4
  -2  -5   8 21006.1 2321.04   5
  -2  -5   8 20532.6 1662.80   9
   2  -5  -8 26209.0 3023.23   8
  -2  -5   8 20407.0 2166.77   7
   2  -5  -7 39466.7 3506.88   8
  -2  -5   7 46235.6 2449.21   9
  -2  -5   7 41855.7 3152.95   5
  -2   5   7 39252.8 3054.64   4
   2   5  -7 44273.0 2923.87   3
  -2  -5   7 47375.2 3208.33   7
   2   5  -6 483.055 420.098   3
   2   5  -6 465.007 223.662  10
  -2  -5   6 1124.78 441.026   9
  -2  -5   6 46.4360 461.634   5
   2  -5  -6 1454.27 1105.83   8
  -2  -5   6 872.479 611.702   7
  -2   5   6 141.624 361.969   4
  -2  -5   5 11981.1 1533.85   5
  -2  -5   5 11188.3 1400.32   7
   2   5  -5 12065.9 996.889  10
  -2   5   5 10692.1 1416.27   4
  -2  -5   5 12523.6 1157.55   9
   2  -5  -5 12115.3 1840.44   8
   2   5  -5 13113.1 1356.02   3
  -2   5   5 12050.1 1132.08   1
   2   5  -4 68454.3 3568.02   1
  -2   5   4 76690.9 2926.76   1
  -2  -5   4 71438.4 3627.75   5
   2   5  -4 70366.9 2765.05  10
   2  -5  -4 70006.6 3916.23   8
  -2  -5   4 74217.6 3022.33   9
  -2   5   4 66677.5 3464.17   4
   2   5  -4 76347.4 3289.49   3
  -2  -5   4 70781.1 3505.19   7
  -2   5   3 27881.2 1982.78   4
   2   5  -3 27546.2 1790.52   3
  -2  -5   3 28661.6 1754.05   9
  -2  -5   3 26840.9 2015.90   5
  -2   5   3 29742.7 1773.06   1
   2  -5  -3 25587.9 2157.93   8
   2   5  -3 27894.4 2114.77   1
   2   5  -3 24487.1 1567.40  10
  -2  -5   3 28015.7 2056.29   7
  -2  -5   2 10950.9 1257.29   7
  -2  -5   2 11391.6 1195.80   5
  -2   5   2 9994.47 1065.72   1
   2   5  -2 11151.2 1286.87   1
  -2   5   2 9642.48 1057.21   4
   2  -5  -2 10280.0 1323.92   8
  -2  -5   1 278839. 7928.43   7
  -2   5   1 273251. 5779.76   6
   2  -5  -1 282996. 7240.15   7
  -2  -5   1 281353. 7425.58   5
  -2   5   1 271155. 7082.01   1
  -2  -5   1 283096. 6527.31   6
  -2   5   1 284442. 7281.54   4
   2   5  -1 270595. 7982.70   1
   2  -5  -1 280866. 8093.42   8
  -2   5   1 277045. 7914.89  10
   2  -5   0 62604.3 2548.74   7
  -2  -5   0 57385.9 2977.02   7
  -2   5   0 62314.8 2560.66   1
  -2  -5   0 58524.5 1951.99   6
   2  -5   0 61764.3 3007.42   9
  -2  -5   0 61970.0 2479.39   5
  -2   5   0 55412.1 2872.71  10
  -2   5   0 57171.7 2317.42   4
   2   5   0 61879.3 3151.12   1
  -2  -5  -1 24839.1 1933.64   7
  -2  -5  -1 19706.9 1633.15   8
  -2   5  -1 19495.0 1426.96   1
  -2  -5  -1 20460.7 1189.34   5
   2  -5   1 20063.1 1349.71   7
   2  -5   1 18523.8 1604.87   9
   2   5   1 19486.0 1895.36   1
  -2   5  -1 20361.2 1642.68  10
  -2   5  -1 18555.5 1057.66   4
   2   5   2 4755.39 1242.11   1
  -2  -5  -2 4894.66 1031.68   7
  -2   5  -2 3882.98 360.183   4
  -2  -5  -2 6386.47 1076.85   8
   2  -5   2 4402.87 794.096   9
   2  -5   2 4055.56 676.800   7
  -2   5  -2 4292.04 760.240  10
  -2   5  -3 72725.7 3615.11   3
   2  -5   3 72427.2 3496.55   9
   2   5   3 75352.2 3912.11   1
  -2   5  -3 74617.8 3400.29  10
  -2  -5  -3 73155.0 3688.45   8
   2  -5   3 75553.9 3090.28   7
  -2   5  -4 69816.1 3353.60  10
   2   5   4 70025.1 3691.44   1
   2  -5   4 71917.3 3553.48   9
  -2  -5  -4 72716.2 3885.58   8
  -2   5  -4 73044.0 3726.66   3
   2  -5   4 71651.3 3213.16   7
   2  -5   5 4453.94 826.215   7
  -2   5  -5 3428.55 903.538   3
   2   5   5 3571.86 947.835   1
  -2   5  -5 3480.20 737.332  10
  -2  -5  -5 4873.74 1269.56   8
   2  -5   5 3624.66 808.150   9
   2  -5   6 23412.2 2113.39   9
  -2   5  -6 22091.5 1875.54  10
  -2   5  -6 23875.7 2255.55   3
   2   5   6 23474.6 2160.06   1
  -2  -5  -6 26302.5 2637.55   8
   2  -5   6 27335.4 2132.79   7
   2   5   7 47200.6 3419.21   4
  -2   5  -7 44731.2 3297.82   3
  -2  -5  -7 40004.8 3506.92   8
  -2   5  -7 45212.0 2806.15  10
   2  -5   7 42964.6 3002.69   9
   2   5   7 40235.5 2998.01   1
   2  -5   8 19166.0 2048.33   9
  -2   5  -8 21888.9 2364.62   3
  -2   5  -8 16859.9 1736.91  10
   2   5   8 16406.3 2117.08   4
  -2  -5  -8 17579.5 2477.19   8
  -2   5  -9 22438.8 2578.87   3
  -2   5  -9 26367.9 2248.61  10
  -2  -5  -9 25397.8 3110.11   8
   2   5   9 26589.4 2799.20   4
   2  -5   9 30082.9 2650.06   9
  -2   5 -10 38265.4 3533.40   3
   2  -5  10 38221.2 3161.15   9
   2   5  10 40353.9 3579.02   4
  -2  -5 -10 46096.4 4406.37   8
  -2   5 -11 1773.66 785.675   3
   2  -5  11 3759.50 1029.34   9
  -2  -5 -11 3796.98 1862.48   8
   2   5  11 3229.50 1068.21   4
   2   6 -12 5691.11 1563.89   3
   2  -6 -11 10312.6 2518.15   8
  -2  -6  11 11303.6 2042.98   5
  -2   6  11 9085.13 1869.91   4
   2   6 -11 7111.32 1510.66   3
  -2  -6  10 5350.89 1313.95   7
  -2  -6  10 6472.34 1546.90   5
   2   6 -10 5533.35 1254.41   3
   2  -6 -10 10713.0 2460.75   8
  -2   6  10 8499.29 1658.25   4
  -2  -6   9 69454.9 4470.73   7
   2   6  -9 67888.1 4252.19   3
  -2  -6   9 68529.6 4691.95   5
  -2   6   9 62148.4 4452.48   4
   2  -6  -9 67969.5 5254.90   8
  -2  -6   8 3385.32 1017.19   7
   2   6  -8 3518.44 963.726   3
  -2  -6   8 3150.09 1115.23   5
   2  -6  -8 4144.64 1566.21   8
  -2   6   8 3832.42 1100.97   4
  -2  -6   7 6548.98 1242.08   7
  -2  -6   7 5696.47 1229.74   5
  -2   6   7 8077.67 1429.78   4
  -2  -6   7 6738.21 994.035   9
   2   6  -7 5436.06 1061.84   3
   2  -6  -7 6021.14 1671.11   8
  -2  -6   6 579.024 484.559   7
  -2  -6   6 978.045 415.854   9
  -2   6   6 93.6404 272.156   1
   2   6  -6 154.029 337.932   3
  -2  -6   6 817.164 812.150   5
   2  -6  -6-156.692 791.491   8
   2   6  -6 377.365 588.849   1
  -2   6   6 457.022 513.387   4
  -2  -6   5 224863. 6727.26   9
  -2   6   5 227079. 7774.96   4
  -2  -6   5 213567. 7775.27   5
   2   6  -5 224289. 6320.91  10
   2   6  -5 227148. 7252.85   3
   2  -6  -5 205298. 8106.83   8
   2   6  -5 214528. 7740.73   1
  -2   6   5 218543. 6522.05   1
  -2  -6   5 233310. 7745.96   7
  -2   6   4 77791.1 3908.22   4
   2   6  -4 77488.9 3221.56  10
   2   6  -4 77809.3 4039.09   1
  -2  -6   4 75664.7 3374.37   9
   2  -6  -4 71138.2 4130.83   8
  -2   6   4 79063.3 3285.42   1
   2   6  -4 81476.0 3675.83   3
  -2  -6   4 73093.1 3888.88   5
  -2  -6   4 75489.1 3864.79   7
   2  -6  -3 12312.7 1659.32   8
   2   6  -3 12634.2 1233.08  10
  -2  -6   3 14667.6 1376.66   9
  -2  -6   3 11023.0 1373.93   5
  -2   6   3 11773.8 1311.71   1
  -2  -6   3 10764.2 1393.62   7
  -2   6   3 12186.5 1393.41   4
   2   6  -3 11751.7 1515.70   1
  -2  -6   2 707.953 543.313   7
   2  -6  -2 1422.73 724.135   8
   2  -6  -2 1199.27 623.906   7
   2   6  -2 1859.24 911.306   1
  -2  -6   2 741.138 514.230   5
  -2   6   2 664.888 392.263   4
  -2   6   2 2377.27 752.476   1
   2  -6  -1 187864. 5731.24   7
  -2  -6   1 185575. 6375.08   7
  -2   6   1 182973. 6322.91  10
  -2  -6   1 180805. 5728.99   5
   2   6  -1 183562. 6467.57   1
  -2   6   1 188774. 5680.29   1
  -2   6   1 179255. 5605.41   4
   2  -6  -1 180987. 6425.20   8
  -2   6   0 79.0865 208.292   4
   2  -6   0 485.535 353.284   7
  -2   6   0 563.702 423.064   1
  -2  -6   0 495.291 352.650   5
   2  -6   0 568.190 425.154   9
  -2   6   0 90.5062 318.331  10
  -2   6   0 246.218 94.6705   6
  -2  -6   0-57.6416 523.552   7
   2   6   0 989.686 754.887   1
  -2  -6  -1 24262.7 2091.13   7
  -2  -6  -1 26838.7 1098.45   6
  -2   6  -1 29556.0 2164.31  10
  -2   6  -1 25369.1 1810.93   1
  -2  -6  -1 27744.6 2145.46   8
  -2  -6  -1 27253.0 1525.63   5
   2   6   1 27190.3 2379.22   1
  -2   6  -1 26434.1 1449.52   4
   2  -6   1 25144.3 2019.70   9
   2  -6   1 26380.1 1741.57   7
  -2   6  -2 1735.65 300.222   4
   2  -6   2 805.974 449.325   9
   2   6   2 2025.61 1060.07   1
  -2   6  -2 1707.42 597.842  10
   2  -6   2 1815.50 552.851   7
  -2  -6  -2 3159.67 1001.28   7
  -2  -6  -2 2148.29 779.659   8
  -2   6  -2 2213.57 707.277   1
  -2   6  -3 128644. 5057.67  10
   2  -6   3 131338. 5236.90   9
   2   6   3 125720. 5671.92   1
  -2  -6  -3 128540. 5437.66   8
   2  -6   3 133592. 4699.07   7
  -2   6  -4 12895.4 1457.81  10
  -2   6  -4 12769.0 1629.26   3
   2  -6   4 13213.8 1552.53   9
  -2  -6  -4 13912.2 1753.61   8
   2   6   4 16751.1 1891.01   1
   2  -6   4 13700.0 1400.43   7
  -2   6  -5 30935.7 2333.71  10
  -2  -6  -5 34527.2 2944.49   8
   2  -6   5 35845.6 2656.26   9
  -2   6  -5 32702.0 2654.56   3
   2   6   5 30575.2 2565.32   1
   2  -6   5 37775.4 2483.64   7
  -2   6  -6 96.3322 358.477  10
   2  -6   6 1098.26 570.714   7
  -2  -6  -6 1777.32 1051.11   8
  -2   6  -6-52.4784 463.505   3
   2  -6   6 1464.53 665.283   9
   2   6   6-551.663 520.082   1
  -2   6  -7 27453.1 2646.40   3
  -2  -6  -7 31596.4 3171.39   8
  -2   6  -7 28252.7 2308.06  10
   2  -6   7 26701.5 2438.00   9
   2   6   7 28651.3 2591.13   1
   2  -6   7 30610.4 2485.73   7
   2   6   7 28242.3 2745.17   4
   2   6   8 593.345 562.179   4
  -2  -6  -8 2419.75 1330.24   8
  -2   6  -8 751.141 691.294   3
  -2   6  -8 1036.41 429.611  10
   2   6   8 444.613 457.512   1
   2  -6   8 2158.40 836.895   9
   2  -6   9 2832.49 880.021   9
  -2  -6  -9 5191.35 1641.41   8
  -2   6  -9 2972.11 1081.57   3
   2   6   9 2167.43 951.791   4
  -2  -6 -10 810.104 1237.30   8
   2  -6  10 1.99163 366.746   9
  -2   6 -10-667.196 757.628   3
   2   6  10 708.025 681.731   4
  -2   6 -11 7635.11 1752.27   3
   2  -6  11 9065.75 1626.08   9
   2   6  11 12584.0 2163.68   4
   2   7 -11-1313.84 775.485   3
  -2  -7  10 10640.4 1925.87   7
  -2  -7  10 10042.0 1969.23   5
   2   7 -10 5859.98 1382.03   3
   2  -7 -10 9594.37 2291.26   8
  -2   7  10 7653.33 1663.98   4
  -2   7   9 58914.1 4465.04   4
  -2  -7   9 59862.5 4511.51   5
   2  -7  -9 54588.6 4742.01   8
   2   7  -9 49409.5 3762.77   3
  -2  -7   9 59714.0 4272.64   7
  -2  -7   8 2130.65 841.245   7
   2   7  -8 19.4036 668.799   1
   2   7  -8 338.817 476.758   3
  -2  -7   8 1083.79 739.596   5
  -2   7   8 958.288 577.874   4
  -2  -7   7 2166.17 867.682   7
  -2   7   7 2547.14 874.745   4
   2   7  -7 2128.12 801.540   3
   2   7  -7 1079.75 787.420   1
  -2  -7   7 1353.17 847.968   5
   2  -7  -7 2540.95 1220.83   8
  -2  -7   6 4117.33 1117.23   5
   2   7  -6 4852.73 1055.13   3
   2  -7  -6 5214.29 1335.30   8
  -2  -7   6 4377.48 1055.45   7
  -2   7   6 5998.49 955.662   1
  -2  -7   6 6674.10 1036.89   9
  -2   7   6 5013.12 1138.15   4
   2   7  -6 4947.63 1240.85   1
  -2  -7   5 61267.5 3240.65   9
  -2   7   5 69345.8 4008.19   4
   2  -7  -5 61921.8 4125.52   8
   2   7  -5 63265.0 3075.60  10
  -2   7   5 66208.8 3205.86   1
   2   7  -5 61251.2 3891.34   1
  -2  -7   5 60796.8 3867.97   5
  -2  -7   5 59381.5 3700.80   7
   2   7  -4 17172.9 1557.19  10
  -2   7   4 17721.7 1596.10   1
   2   7  -4 14911.5 1851.14   1
   2  -7  -4 18002.4 2135.25   8
  -2   7   4 15392.2 1757.93   4
  -2  -7   4 17610.7 1663.53   9
  -2  -7   4 14031.7 1729.03   5
  -2  -7   4 13040.1 1679.30   7
  -2  -7   3 709.209 462.221   7
  -2   7   3 1554.96 680.120   1
   2   7  -3 763.311 451.688  10
  -2  -7   3 330.108 353.798   9
   2  -7  -3 1486.78 724.204   7
   2  -7  -3 1749.51 808.900   8
   2   7  -3 941.671 728.134   1
  -2  -7   3 913.568 467.321   5
  -2   7   3 259.980 396.503   4
  -2   7   2 753.219 415.703   4
  -2  -7   2 1839.02 765.075   7
   2   7  -2 1258.66 777.245   1
  -2   7   2 1734.25 760.156   1
   2  -7  -2 1942.22 670.059   7
  -2  -7   2 1063.29 535.963   5
  -2   7   2 667.182 452.291  10
   2  -7  -2 665.083 496.261   8
  -2   7   1 7223.59 1016.04   4
  -2  -7   1 7144.90 1022.11   5
  -2  -7   1 8073.00 1263.79   7
   2   7  -1 6019.74 1176.15   1
  -2   7   1 8629.41 1216.60   1
   2  -7  -1 5805.80 1154.65   8
  -2   7   1 6211.50 1114.25  10
   2  -7  -1 7014.94 1082.99   7
   2   7   0 66325.0 3940.67   1
   2  -7   0 73924.2 3354.86   7
  -2   7   0 70530.3 3809.97  10
  -2   7   0 71095.9 3379.03   1
  -2   7   0 72068.7 3105.01   4
  -2  -7   0 77747.6 3240.31   5
   2  -7   0 73487.1 3917.31   9
  -2  -7   0 74298.2 3933.15   7
   2  -7   1 29729.2 2024.71   7
  -2  -7  -1 26383.8 2308.33   7
   2   7   1 27038.3 2518.66   1
  -2   7  -1 28140.5 2100.16   1
  -2   7  -1 25862.2 2203.35  10
   2  -7   1 27349.6 2285.90   9
  -2  -7  -1 29108.1 1688.61   5
  -2   7  -1 28739.5 1679.46   4
  -2  -7  -1 29644.2 2399.82   8
  -2   7  -2 7829.83 1156.65   1
   2  -7   2 9959.27 1395.48   9
   2   7   2 7584.67 1548.09   1
  -2  -7  -2 7354.94 1336.09   7
  -2   7  -2 9056.60 1297.29  10
  -2  -7  -2 7941.11 1316.32   8
   2  -7   2 7965.91 1077.09   7
   2  -7   3 5823.69 954.493   7
  -2   7  -3 3061.92 819.213   1
   2   7   3 4547.60 1236.59   1
   2  -7   3 3262.18 892.346   9
  -2  -7  -3 4671.53 1240.04   7
  -2   7  -3 2389.45 752.589  10
  -2  -7  -3 3496.59 920.595   8
   2   7   4 16285.2 1983.78   1
   2  -7   4 13548.7 1670.04   9
  -2   7  -4 12316.2 1545.63  10
  -2  -7  -4 12766.7 1791.80   8
   2  -7   4 15296.1 1569.61   7
   2  -7   5 469.322 455.333   7
  -2   7  -5 1614.53 817.140   3
   2  -7   5 738.180 508.819   9
  -2   7  -5 1157.80 547.068  10
  -2  -7  -5 955.730 875.891   8
   2   7   5 414.181 554.972   1
   2  -7   6-65.3682 315.452   7
  -2   7  -6 308.972 625.777   3
  -2   7  -6 938.806 525.032  10
   2  -7   6 561.533 583.001   9
  -2  -7  -6 151.351 650.676   8
   2   7   6 110.512 413.947   1
   2   7   7 2436.07 999.582   4
   2  -7   7 413.719 561.803   7
  -2   7  -7 748.881 444.843  10
   2   7   7 1437.41 736.254   1
   2  -7   7 1259.47 593.461   9
  -2  -7  -7 2164.16 1013.88   8
  -2   7  -7 1145.21 857.186   3
   2   7   8 101.558 647.447   4
  -2   7  -8 520.854 464.408  10
  -2   7  -8-85.5660 681.146   3
   2  -7   8 1007.89 585.089   9
   2   7   8 375.566 557.448   1
  -2  -7  -8 121.080 881.381   8
   2  -7   9 9764.80 1679.48   9
  -2   7  -9 10634.4 1918.40   3
  -2  -7  -9 9611.49 2106.99   8
   2   7   9 8306.29 1705.21   4
   2  -7  10 1346.04 703.944   9
  -2  -7 -10 3294.98 1562.30   8
  -2   7 -10 1118.34 727.156   3
   2   7  10 2977.89 1072.07   4
  -2  -8  10 9735.90 1841.41   7
   2   8 -10 12792.1 2037.46   3
   2   8  -9 27116.3 2824.75   3
   2   8  -9 25242.7 2984.55   1
  -2  -8   9 20270.4 2749.60   5
  -2  -8   9 24601.9 2814.64   7
   2  -8  -9 27121.3 3384.23   8
  -2   8   9 26946.8 3080.85   4
  -2  -8   8 17510.5 2286.34   7
  -2   8   8 18219.5 2475.52   4
   2  -8  -8 18787.1 2774.48   8
  -2  -8   8 17898.5 2494.68   5
   2   8  -8 20041.5 2345.63   3
   2   8  -8 19988.2 2605.53   1
  -2   8   7 27347.2 2872.67   4
   2   8  -7 27659.1 2954.48   1
  -2  -8   7 24045.2 2730.68   5
   2  -8  -7 23378.8 2952.44   8
  -2  -8   7 23798.8 2607.89   7
   2   8  -6 9680.74 1712.28   1
  -2  -8   6 13006.3 1866.93   7
  -2  -8   6 13783.0 1608.63   9
  -2  -8   6 11080.7 1790.05   5
   2  -8  -6 13611.7 2209.82   8
  -2   8   6 13598.8 1924.97   4
   2   8  -5 47784.7 3661.23   1
  -2  -8   5 51068.1 3596.65   7
  -2  -8   5 48290.7 3567.69   5
  -2  -8   5 58293.3 3327.43   9
   2  -8  -5 51065.8 3938.30   8
  -2   8   5 48239.9 3527.44   4
  -2  -8   4 11046.9 1434.58   9
   2  -8  -4 10120.0 1491.40   7
  -2   8   4 7588.03 1104.11   1
   2   8  -4 7494.47 1433.02   1
   2   8  -4 8130.68 1166.31  10
  -2  -8   4 9293.90 1528.64   7
  -2  -8   4 6234.15 1224.74   5
   2  -8  -4 8206.25 1554.30   8
  -2   8   4 7301.63 1278.26   4
   2  -8  -3 28811.9 2367.87   7
  -2   8   3 28546.4 2410.75   1
   2   8  -3 27491.2 2632.33   1
   2   8  -3 29547.7 2319.10  10
  -2  -8   3 26996.6 2369.11   5
   2  -8  -3 29360.8 2731.84   8
  -2   8   3 27655.5 2371.36   4
  -2  -8   3 28465.9 2315.71   9
  -2  -8   3 28755.0 2548.85   7
  -2  -8   2 36946.0 2878.20   7
   2  -8  -2 34561.3 2550.77   7
   2   8  -2 33819.8 2891.33   1
  -2   8   2 33706.6 2579.05   1
  -2   8   2 36103.7 2914.68  10
  -2  -8   2 36812.9 2625.88   5
   2  -8  -2 37739.1 3078.32   8
  -2   8   2 42855.4 2781.03   4
   2   8  -2 36338.7 2638.72  10
  -2  -8   1 96192.8 4847.71   7
   2  -8  -1 104644. 4495.64   7
  -2   8   1 101110. 4529.39   1
   2   8  -1 94178.3 5015.48   1
  -2   8   1 97505.5 4236.81   4
  -2   8   1 100474. 4992.73  10
  -2  -8   1 103356. 4370.16   5
  -2   8   0 478.266 336.909   4
  -2  -8   0 453.840 458.583   7
  -2   8   0 781.730 557.058   1
  -2   8   0 882.667 447.755  10
   2   8   0 523.693 818.873   1
  -2  -8   0 754.925 417.825   5
   2  -8   0 847.560 541.883   9
   2  -8   0 232.206 382.158   7
   2  -8   1 38766.0 2530.92   7
  -2  -8  -1 34763.3 2883.72   7
  -2   8  -1 40463.2 2962.60  10
   2   8   1 29784.2 2893.26   1
   2  -8   1 33588.0 2766.95   9
  -2   8  -1 37133.1 2612.17   1
  -2  -8  -2-513.201 678.282   8
   2   8   2 1794.15 1170.55   1
  -2  -8  -2 448.318 492.303   7
  -2   8  -2 1706.64 639.181  10
   2  -8   2 1154.66 571.422   7
   2  -8   2 2106.86 791.448   9
  -2   8  -2 647.452 603.616   1
  -2  -8  -3 18618.8 2190.30   7
   2  -8   3 18956.1 2098.23   9
  -2   8  -3 20437.5 2089.10   1
  -2   8  -3 16177.7 1882.72  10
  -2  -8  -3 19127.4 2192.71   8
   2   8   3 16445.4 2216.72   1
   2  -8   3 18764.9 1809.57   7
  -2  -8  -4 107462. 5653.08   7
   2   8   4 106512. 5640.15   1
  -2  -8  -4 100114. 5430.17   8
   2  -8   4 113732. 5499.16   9
  -2   8  -4 113891. 5328.57   1
  -2   8  -4 110175. 5232.96  10
   2  -8   4 118111. 4982.54   7
  -2  -8  -5 41886.4 3453.52   7
  -2   8  -5 37127.8 3034.84   1
  -2  -8  -5 34412.9 3193.31   8
   2   8   5 35033.6 3084.04   1
   2  -8   5 40256.3 3165.40   9
  -2   8  -5 38640.0 2974.53  10
   2  -8   5 38445.6 2805.40   7
   2  -8   6 4646.12 1059.08   7
  -2  -8  -6 3280.93 1065.72   8
  -2   8  -6 5389.66 1143.93  10
   2  -8   6 4679.26 1129.82   9
   2   8   6 3555.43 1024.14   1
   2   8   7 6203.61 1466.57   4
   2  -8   7 5117.76 1147.69   7
   2   8   7 4368.98 1174.79   1
   2  -8   7 3968.90 1111.46   9
  -2   8  -7 4707.74 1291.56   3
  -2   8  -7 5410.66 1153.01  10
  -2  -8  -7 3545.21 1281.79   8
  -2   8  -8 51628.2 4208.49   3
   2   8   8 46517.4 4060.80   4
   2  -8   8 53502.3 3927.21   9
  -2  -8  -8 50198.5 4297.57   8
   2   8   8 45547.3 3731.73   1
   2  -8   8 49684.7 3641.66   7
  -2   8  -9 16600.9 2491.71   3
   2   8   9 13802.0 2292.28   4
  -2  -8  -9 15739.7 2624.22   8
   2  -8   9 16847.9 2233.61   9
   2  -8  10 896.040 696.303   9
  -2  -9   9 10305.4 2001.07   7
  -2   9   9 9960.55 1902.73   4
   2   9  -8 6531.20 1590.66   1
  -2  -9   8 5162.42 1370.44   7
  -2  -9   8 8456.89 1856.25   5
   2  -9  -8 2929.58 1394.84   8
  -2   9   8 5814.83 1465.92   4
   2   9  -7 161.713 532.610   1
  -2  -9   7-195.358 508.977   7
  -2  -9   7 946.260 621.738   5
   2  -9  -7-153.263 1039.75   8
  -2   9   7-448.889 510.191   4
  -2  -9   6 14617.3 2064.32   7
  -2  -9   6 16425.0 2249.15   5
   2  -9  -6 11104.1 1836.80   7
   2  -9  -6 18353.1 2584.62   8
   2   9  -6 13059.1 2153.45   1
  -2   9   6 13420.0 1976.01   4
   2  -9  -5 17482.7 2132.54   7
  -2  -9   5 14425.1 2038.89   7
   2   9  -5 15419.9 2177.23   1
   2  -9  -5 18598.3 2498.21   8
  -2   9   5 17485.0 2176.79   4
  -2  -9   5 18988.4 2270.94   5
  -2  -9   5 15335.3 1822.67   9
   2  -9  -4 78902.4 4448.51   7
  -2  -9   4 72934.4 4153.58   9
   2   9  -4 73556.3 4802.24   1
   2   9  -4 81805.6 4231.35  10
  -2  -9   4 82514.6 4710.75   5
  -2   9   4 79019.1 4563.61   4
   2  -9  -4 81069.2 5060.67   8
  -2  -9   4 82724.3 4830.52   7
  -2   9   3 1858.30 730.324   4
  -2  -9   3 769.788 566.389   9
   2   9  -3-561.400 747.401   1
  -2   9   3 1354.52 745.387  10
  -2  -9   3 579.185 576.071   5
   2  -9  -3 1547.20 719.595   7
  -2  -9   3 948.156 692.373   7
   2   9  -3 1294.38 567.213  10
   2  -9  -3 1935.63 845.780   8
  -2  -9   2 10298.5 1609.94   7
  -2   9   2 10423.2 1671.33  10
  -2  -9   2 10525.2 1541.87   9
   2   9  -2 12721.3 1657.45  10
  -2  -9   2 9143.19 1381.68   5
  -2   9   2 9292.67 1344.95   4
   2  -9  -2 9752.05 1425.82   7
   2   9  -2 12168.8 1864.40   1
  -2   9   2 9423.94 1532.48   1
  -2  -9   1 56307.1 3856.16   7
   2  -9  -1 59625.5 3519.90   7
  -2  -9   1 66043.3 3488.32   5
   2   9  -1 56851.7 4107.64   1
  -2   9   1 53373.7 3507.88   1
  -2   9   1 62770.8 3407.66   4
  -2   9   1 56423.0 3910.00  10
  -2  -9   0 88623.6 4978.20   7
  -2   9   0 101042. 4807.90   1
  -2   9   0 95617.4 5154.10  10
   2  -9   0 93990.4 5156.45   9
   2   9   0 95055.6 5474.24   1
   2  -9   0 103209. 4662.32   7
  -2   9  -1 3168.52 942.931  10
  -2   9  -1 3959.35 963.048   1
  -2  -9  -1 1970.70 813.741   7
   2   9   1 1813.43 1211.70   1
   2  -9   1 1923.43 749.581   9
   2  -9   1 2336.90 641.865   7
  -2   9  -2 5532.78 1214.79  10
  -2  -9  -2 3072.76 988.800   7
   2   9   2 6822.61 1647.42   1
  -2   9  -2 6074.15 1242.01   1
   2  -9   2 2937.34 904.558   9
   2  -9   2 3733.49 882.470   7
  -2   9  -3 27982.3 2630.72  10
  -2   9  -3 27046.2 2533.88   1
   2   9   3 17438.6 2493.20   1
   2  -9   3 21878.3 2420.05   9
  -2  -9  -3 24069.5 2658.02   7
  -2  -9  -3 25752.3 2695.59   8
   2  -9   3 25130.0 2227.10   7
  -2  -9  -4 65351.0 4466.89   7
  -2   9  -4 66799.4 4197.16  10
  -2   9  -4 66888.5 4195.05   1
   2   9   4 61618.8 4390.62   1
  -2  -9  -4 62067.2 4351.67   8
   2  -9   4 71296.5 3947.93   7
   2  -9   4 63057.3 4227.47   9
   2  -9   5 26811.8 2745.83   9
  -2   9  -5 21769.0 2488.39   1
  -2  -9  -5 31726.3 3191.12   7
  -2   9  -5 25514.7 2549.39  10
  -2  -9  -5 22786.2 2696.38   8
   2   9   5 30361.3 3001.05   1
   2  -9   5 28188.1 2537.85   7
  -2   9  -6 4014.08 1011.43  10
   2  -9   6 3971.17 1037.57   7
  -2  -9  -6 9146.85 1942.56   7
   2  -9   6 4086.20 1147.69   9
  -2  -9  -6 6965.54 1640.17   8
   2   9   6 6079.44 1398.73   1
   2   9   6 6248.30 1445.77   4
  -2   9  -6 4798.79 1254.10   1
   2   9   7 13559.9 2214.35   4
   2   9   7 14170.4 2110.17   1
  -2  -9  -7 18311.2 2633.63   7
  -2   9  -7 12679.4 2069.84   1
   2  -9   7 14785.3 2127.89   9
  -2  -9  -7 19432.6 2638.75   8
   2   9   8 19386.2 2705.38   4
   2   9   8 16396.5 2291.92   1
  -2   9  -8 20677.9 2678.80   1
   2  -9   8 20058.6 2495.34   9
  -2  -9  -8 16615.6 2627.27   8
   2  -9   9 15111.9 2236.88   9
   2 -10  -8 33816.8 3478.74   7
  -2 -10   7 274.496 480.507   7
  -2 -10   7 363.972 671.106   5
   2 -10  -7 1947.12 1127.78   8
   2  10  -7-130.700 677.446   1
  -2  10   7 550.788 714.807   4
   2 -10  -7 1231.68 950.309   7
   2 -10  -6-418.699 788.621   7
   2 -10  -6 410.205 873.128   8
   2  10  -6 414.494 728.484   1
  -2 -10   6 747.503 869.299   7
  -2  10   6-141.823 439.150   4
  -2 -10   6 1102.95 715.990   5
  -2 -10   5 6108.24 1371.68   7
   2 -10  -5 5339.43 1263.65   7
   2  10  -5 5265.77 1506.38   1
   2 -10  -5 9296.87 1847.47   8
  -2 -10   5 8614.01 1664.21   5
  -2  10   5 8008.27 1569.26   4
   2 -10  -4 27672.6 2703.07   7
  -2  10   4 26388.1 2906.47  10
  -2 -10   4 23974.1 2432.37   9
   2  10  -4 20436.9 2670.21   1
  -2  10   4 15563.2 2071.76   4
  -2 -10   4 22249.0 2494.88   5
   2 -10  -4 25958.7 3006.50   8
  -2 -10   4 29861.2 2979.05   7
   2 -10  -3 5963.36 1268.74   7
  -2  10   3 8484.86 1476.39   4
   2  10  -3 4986.10 1118.52  10
  -2  10   3 6773.75 1499.24  10
  -2 -10   3 3845.01 1007.42   9
  -2 -10   3 6311.04 1302.08   5
   2  10  -3 5578.34 1525.96   1
   2 -10  -3 5832.45 1459.84   8
  -2 -10   3 7716.02 1527.92   7
  -2 -10   2-226.734 467.480   7
   2 -10  -2 1618.90 732.227   7
  -2  10   2 364.268 609.957  10
   2  10  -2 456.137 753.784   1
  -2 -10   2 465.590 489.476   9
   2  10  -2 5.54942 368.299  10
   2 -10  -1 14825.6 2124.76   9
  -2 -10   1 10712.4 1816.85   7
   2 -10  -1 11430.5 1582.33   7
   2  10  -1 11734.4 1761.19  10
   2  10  -1 10925.2 1982.89   1
  -2  10   1 10044.1 1725.58  10
   2 -10   0 34705.3 2764.93   7
  -2 -10   0 35304.1 3195.59   7
  -2  10   0 35134.5 3202.31  10
   2 -10   0 35695.2 3249.95   9
   2  10   0 32972.7 3402.89   1
  -2  10  -1 2540.97 917.291  10
  -2 -10  -1 5085.23 1304.88   7
  -2  10  -1 1935.20 788.253   1
   2 -10   1 4848.93 1105.31   7
   2 -10   1 2636.86 945.439   9
   2  10   1 2310.70 1286.41   1
   2 -10   2 2593.91 814.364   7
  -2  10  -2 2133.21 804.102  10
  -2  10  -2 109.239 584.813   1
   2 -10   2 2676.86 959.021   9
   2  10   2 3332.61 1446.87   1
  -2 -10  -2 2157.21 1106.53   7
  -2  10  -3 11123.1 1763.16  10
   2  10   3 7005.16 1735.85   1
  -2  10  -3 11226.1 1770.36   1
   2 -10   3 13232.2 2013.59   9
  -2 -10  -3 8198.57 1636.12   8
  -2 -10  -3 8493.68 1678.11   7
  -2  10  -4 2324.17 971.867   1
  -2  10  -4 1960.52 802.084  10
   2 -10   4 2652.91 969.302   9
   2  10   4 863.776 954.442   1
  -2 -10  -4 3433.41 1045.74   8
  -2  10  -5 8.90119 540.184   1
   2 -10   5-84.0154 385.055   9
  -2 -10  -5-784.016 793.437   7
  -2  10  -5 1173.52 642.471  10
  -2 -10  -5 760.359 821.413   8
   2  10   5 1219.31 980.168   1
   2  10   6 6349.12 1577.10   4
  -2  10  -6 5095.84 1361.57   1
  -2  10  -6 5646.38 1349.04  10
  -2 -10  -6 6765.89 1719.10   7
   2  10   6 3171.05 1100.37   1
   2 -10   6 5143.48 1315.73   9
  -2 -10  -6 3758.40 1347.89   8
  -2  10  -7 11474.3 2049.35   1
   2  10   7 9922.65 1825.14   1
  -2 -10  -7 8661.51 1893.56   8
   2 -10   7 9640.30 1820.57   9
  -2 -11   6 21569.0 2779.79   5
  -2  11   6 20381.8 2692.52   4
  -2 -11   5 1031.07 848.862   7
  -2 -11   5 979.589 644.944   5
   2  11  -5 955.872 1004.71   1
  -2  11   5 817.101 691.934   4
  -2 -11   4 4629.44 1296.60   7
  -2 -11   4 2722.34 1080.75   5
  -2  11   4 3815.63 1169.40  10
   2  11  -4 3127.63 1264.86   1
  -2 -11   4 3783.79 1005.32   9
   2 -11  -4 1661.16 1080.67   8
  -2  11   3 1456.41 870.848  10
  -2 -11   3 1032.19 819.967   9
   2  11  -3 305.857 1028.21   1
  -2 -11   3 438.137 642.898   7
   2  11  -3 520.567 499.066  10
  -2  11   2 1173.75 779.075  10
   2  11  -2-21.3220 297.699  10
  -2 -11   2 327.871 686.944   7
   2  11  -2-18.8865 942.427   1
  -2 -11   2 288.944 507.210   9
   2 -11  -2 162.775 475.415   9
  -2  11   1 13683.4 2109.64  10
  -2 -11   1 12487.6 1995.07   7
   2  11  -1 12903.3 1956.10  10
   2 -11  -1 15466.8 2297.94   9
   2  11  -1 16039.6 2569.58   1
  -2 -11   1 13163.5 1968.59   9
   2 -11   0-717.636 629.865   9
  -2 -11   0 911.179 947.113   7
  -2  11   0 564.662 578.376  10
   2  11   0 186.147 438.103  10
   2  11   1 11270.3 2346.20   1
  -2  11  -1 12113.1 1981.92  10
   2 -11   1 8868.91 1722.28   9
  -2 -11  -1 12695.5 2077.78   7
  -2 -11  -2 3375.75 1156.40   7
   2  11   2 6118.06 1765.33   1
   2 -11   2 5964.14 1433.07   9
  -2  11  -2 6306.95 1395.42  10
  -2  11  -3 1083.88 631.854  10
   2 -11   3 2644.56 999.754   9
   2  11   3 1770.95 1118.88   1
  -2 -11  -3 1281.85 666.651   7
   2 -11   4 9177.81 1769.42   9
  -2 -11  -4 5545.22 1518.02   7
   2  11   4 5373.93 1497.52   1
  -2  11  -4 5401.00 1332.36  10
   2  11   5-267.197 744.138   4
   2  11   5 1475.41 926.398   1
  -2  11  -5 1395.60 865.541   1
   2 -11   5-633.351 583.977   9
  -2 -11  -5-125.153 708.578   8
  -2  11  -5-1162.21 706.610  10
  -2  11  -6-182.216 646.894   1
  -2 -12   3 557.746 515.684   9
   2  12  -2 5177.75 1768.21   1
  -2 -12   2 2312.66 921.512   7
   2  12  -2 3954.76 1224.66  10
  -2 -12   2 4910.21 1296.38   9
  -2 -12   1 2009.37 1071.91   7
   2  12  -1 1214.43 770.574  10
  -2 -12   1 1298.40 753.485   9
   2  12  -1 2102.83 1418.27   1
   2  12   0 4194.28 1268.41  10
  -2 -12   0 4735.28 1398.01   9
  -2 -12   0 3979.86 1312.91   7
   2  12   0 3193.65 1503.80   1
   2  12   1 13537.0 2610.02   1
   2  12   1 17073.0 2494.78  10
  -2 -12  -1 17025.9 2462.87   7
   2  12   2 7233.69 2028.60   1
   2  12   3 23.3911 416.353   4
  -3   0  14 183.833 502.211   4
   3   0 -13-119.294 468.744   3
  -3   0  13 163.238 548.697   4
   3   0 -13-64.3417 600.516   8
  -3   0  12 9747.16 1658.77   4
   3   0 -12 9446.74 1725.51   8
  -3   0  11 56.2640 426.979   4
   3   0 -11 134.966 408.009   8
  -3   0  10 50218.7 3428.47   4
   3   0 -10 49399.0 3606.61   8
   3   0  -9-28.0270 242.993   2
  -3   0   9 429.163 449.716   4
   3   0  -9 650.577 550.799   8
   3   0  -8 88751.4 4322.47   8
   3   0  -8 90575.0 3637.79   2
  -3   0   8 88414.6 4210.58   4
  -3   0   7-136.610 346.050   4
   3   0  -7 258.932 392.226   8
   3   0  -7 307.388 318.677   2
  -3   0   6 47446.7 1589.03  10
   3   0  -6 47759.4 2318.04   2
   3   0  -6 46806.9 2592.98   8
  -3   0   6 47326.2 2641.66   4
  -3   0   5 1.12160 74.1728  10
   3   0  -5 385.522 343.818   2
  -3   0   5 57.6478 256.857   4
   3   0  -5-22.2927 245.446   8
  -3   0   4 9410.90 991.953   6
  -3   0   4 9862.31 535.068  10
   3   0  -4 10485.4 583.246   9
   3   0  -4 10178.9 935.744   2
  -3   0   4 8458.25 922.175   4
   3   0  -4 9853.07 921.657   8
  -3   0   4 9191.28 904.056   7
  -3   0   4 9033.66 509.623  10
  -3   0   3 274.938 221.990   7
   3   0  -3 46.2744 224.774   8
  -3   0   3 33.8794 68.2455  10
  -3   0   3 83.5806 261.219   6
   3   0  -3 84.9565 68.1000   9
   3   0  -3 216.213 194.817   2
  -3   0   3 57.0759 182.914   4
   3   0  -2 263632. 5791.27   1
  -3   0   2 250301. 6413.34   6
   3   0  -2 255487. 6389.13   2
  -3   0   2 248537. 6380.92   4
  -3   0   2 254848. 5674.15  10
   3   0  -2 253866. 5359.18   9
   3   0  -2 251394. 5778.93   8
  -3   0   2 262001. 5956.35   7
  -3   0   1 294.051 156.650  10
  -3   0   1-150.045 155.708   7
  -3   0   1 59.5097 116.486   9
   3   0  -1-127.620 204.174   7
  -3   0   1 168.183 209.521   1
   3   0  -1 33.3222 89.2007   9
   3   0  -1 460.151 290.579   1
  -3   0   1 236.361 247.758   4
   3   0  -1-7.97099 103.273   8
   3   0   0 566.628 186.147   3
  -3   0   0 936.905 217.258   7
  -3   0   0 672.544 245.964  10
   3   0   0 765.068 260.585   1
   3   0   0 660.286 198.284   9
  -3   0  -1-75.7971 193.113  10
   3   0   1 116.837 147.100   9
  -3   0  -1-114.992 178.535   3
   3   0   1 246.503 216.558   1
  -3   0  -2 19435.2 1144.90   3
  -3   0  -2 18302.7 1243.06  10
   3   0   2 18960.4 1240.84   9
   3   0   2 17994.4 1192.84   1
  -3   0  -3 186.591 246.045  10
  -3   0  -3 185.581 210.464   8
  -3   0  -3 293.447 335.037   3
   3   0   3 62.4499 201.336   9
  -3   0  -4 101840. 3892.41  10
  -3   0  -4 112177. 3917.71   3
  -3   0  -4 108049. 3668.12   8
   3   0   4 106933. 3992.02   9
   3   0   4 113281. 2710.78   2
  -3   0  -5 188.654 375.444   3
  -3   0  -5-203.644 299.184   8
  -3   0  -5 151.122 274.764  10
   3   0   5-80.1875 279.324   9
  -3   0  -6 46170.0 2610.39   8
  -3   0  -6 46513.0 2744.25   3
   3   0   6 47471.0 2819.35   9
  -3   0  -6 48661.3 2738.25  10
   3   0   6 43701.4 2363.69   4
  -3   0  -7 112.580 289.299  10
  -3   0  -7-351.510 367.585   3
   3   0   7 236.006 385.515   9
  -3   0  -7 23.8678 303.449   8
   3   0   7 98.4725 245.545   4
  -3   0  -8 28652.7 2482.85   3
  -3   0  -8 35056.6 2550.18  10
   3   0   8 32295.4 2243.20   4
   3   0   8 31116.2 2560.40   9
  -3   0  -8 31283.8 2498.90   8
  -3   0  -9-218.767 385.324  10
  -3   0  -9-182.851 396.150   3
   3   0   9 875.581 581.169   9
   3   0   9 528.545 405.796   4
  -3   0  -9-314.727 445.491   8
   3   0  10 17499.3 2117.55   9
  -3   0 -10 16617.8 2118.90   8
   3   0  10 17171.7 1816.30   4
  -3   0 -10 14601.1 2017.87   3
  -3   0 -10 18979.6 2069.89  10
  -3   0 -11-69.7219 525.441  10
  -3   0 -11 208.786 381.800   3
   3   0  11 1125.99 711.703   9
  -3   0 -11 1425.76 771.239   8
  -3   0 -12 9369.43 1837.63   3
   3   0  12 10478.7 1836.23   9
  -3   0 -12 13419.3 2159.78   8
   3   1 -13 49769.1 4122.09   3
   3  -1 -13 59423.0 4830.69   8
  -3  -1  13 46307.5 3757.08   4
  -3   1  13 51905.6 4143.05   4
   3   1 -13 58203.7 4614.08   8
   3   1 -12 9504.02 1666.60   3
  -3  -1  12 15230.6 2017.02   4
  -3   1  12 13794.7 2011.35   4
   3  -1 -12 16527.2 2385.02   8
   3   1 -12 12574.8 2067.87   8
   3   1 -11 18976.8 2258.21   3
  -3   1  11 24102.7 2539.01   4
  -3  -1  11 21598.9 2285.24   5
   3  -1 -11 21102.4 2547.47   8
   3   1 -11 24050.2 2619.88   8
  -3  -1  11 18454.9 2120.08   4
  -3  -1  10 881.147 565.644   4
  -3  -1  10 2184.34 856.136   5
  -3   1  10 1337.33 701.452   4
   3  -1 -10 2599.62 1048.27   8
   3   1 -10 2185.30 709.497   8
   3   1  -9 32415.0 2032.71   2
  -3  -1   9 30321.0 2455.07   5
  -3  -1   9 30285.4 2449.39   4
  -3   1   9 34011.1 2696.22   4
   3  -1  -9 35845.9 2255.82   2
   3  -1  -9 31659.4 2708.37   8
   3   1  -9 33754.1 2741.53   8
   3  -1  -8 417.006 337.680   2
  -3  -1   8 1357.91 396.493   9
  -3  -1   8 336.412 516.264   5
  -3  -1   8 594.821 417.503   4
   3  -1  -8 2340.40 808.813   8
  -3   1   8 1249.38 575.654   4
   3   1  -8 977.407 338.321   2
   3   1  -8 849.882 509.183   8
  -3  -1   7 74821.9 3574.59   5
  -3   1   7 66800.1 3494.76   4
  -3  -1   7 75103.5 2626.41   9
  -3  -1   7 68234.1 3418.11   4
   3   1  -7 71824.4 3013.55   2
   3  -1  -7 66094.6 3053.67   2
   3  -1  -7 69246.8 3579.92   8
   3   1  -7 63013.6 3358.77   8
  -3  -1   6 36703.7 1539.46   9
  -3  -1   6 36942.3 2269.48   4
   3   1  -6 36425.6 1977.64   2
   3  -1  -6 35478.6 2041.41   2
  -3   1   6 34095.2 2270.01   4
   3  -1  -6 38108.9 2353.67   8
  -3  -1   6 34997.7 2240.09   5
  -3  -1   6 34243.6 2225.04   7
   3   1  -5 120417. 3025.87   9
   3   1  -5 115000. 3905.78   2
  -3  -1   5 126065. 3079.18   9
  -3  -1   5 120463. 4295.53   4
  -3   1   5 118522. 4356.82   4
   3  -1  -5 118830. 4268.65   8
   3  -1  -5 120017. 4085.79   2
  -3  -1   5 120792. 4327.01   5
  -3  -1   5 122745. 4306.07   7
  -3  -1   4 12711.9 1164.38   6
  -3  -1   4 14071.2 1233.46   5
  -3   1   4 12019.3 1141.10   4
   3   1  -4 12418.0 502.763   9
   3  -1  -4 13372.2 1117.23   2
  -3  -1   4 12848.6 1139.61   4
   3  -1  -4 14607.5 1182.83   8
  -3   1   4 14810.2 1228.11   6
  -3  -1   4 12043.5 1096.82   7
  -3   1   3 492875. 10470.3  10
   3  -1  -3 500341. 11201.3   2
  -3  -1   3 497563. 11283.7   4
  -3   1   3 492460. 11227.1   4
   3  -1  -3 486190. 10950.6   8
  -3  -1   3 486696. 11252.4   6
  -3  -1   3 478875. 10988.8   7
  -3   1   3 496831. 11165.5   6
  -3  -1   2 115313. 2742.50  10
  -3   1   2 112739. 3192.72  10
   3  -1  -2 108119. 3295.75   8
   3  -1  -2 117833. 3589.83   2
  -3   1   2 108203. 3462.87   4
   3   1  -2 116529. 3373.26   1
   3  -1  -2 118003. 2560.65   1
  -3   1   2 111501. 3460.24   6
   3  -1  -2 106145. 3002.83   9
  -3  -1   2 110392. 3557.79   4
  -3  -1   2 108956. 3510.00   6
   3   1  -2 123556. 2794.24  10
   3  -1  -2 124601. 3048.17   7
  -3  -1   2 108502. 3321.00   7
   3  -1  -1 62888.4 1537.79   7
  -3  -1   1 57449.9 2044.57   7
   3   1  -1 60502.8 2206.91   1
  -3   1   1 61532.8 2140.72  10
  -3   1   1 67872.5 1960.42   8
  -3  -1   1 65955.3 1726.27   9
  -3  -1   1 58001.3 1889.01  10
   3   1  -1 57820.2 1680.69   9
   3  -1  -1 57471.0 1974.11   9
   3  -1  -1 56901.2 2218.66   2
  -3   1   1 55818.5 2073.64   4
   3  -1  -1 59129.2 1918.86   8
   3  -1  -1 60219.9 1490.68   1
  -3   1   1 62695.5 1530.22   1
  -3  -1   0 187530. 4847.80   7
  -3   1   0 190588. 5035.07  10
   3   1   0 190912. 5342.81   1
  -3   1   0 210028. 4543.80   8
   3   1   0 191072. 4700.06   9
   3  -1   0 196434. 4970.30   2
  -3   1   0 180754. 4621.44   4
   3   1   0 204106. 4241.41   8
  -3  -1   0 196802. 4894.44  10
   3  -1   0 191552. 4904.36   9
  -3   1   0 207467. 4586.61   1
  -3  -1  -1 20470.0 907.529   3
   3   1   1 22554.3 864.386   8
  -3  -1  -1 21192.8 1253.65  10
  -3   1  -1 21369.6 1281.63  10
   3   1   1 18252.3 1121.68   9
   3  -1   1 21747.4 980.956   4
   3   1   1 19296.7 1295.58   1
   3  -1   1 19874.8 1208.66   9
   3  -1   1 21649.8 1098.85   2
  -3  -1  -1 19736.4 933.835   8
  -3   1  -1 19237.5 1149.37   3
  -3  -1  -2 103208. 3439.48  10
  -3   1  -2 100556. 3406.21  10
  -3   1  -2 100739. 3305.35   3
   3  -1   2 102486. 2805.47   2
   3   1   2 97542.9 3326.01   9
   3  -1   2 99091.1 3401.06   9
  -3  -1  -2 96155.1 2868.21   8
   3   1   2 103662. 3486.81   1
  -3   1  -3 189215. 5435.17   3
  -3  -1  -3 185000. 5487.56  10
   3   1   3 185984. 5478.63   9
   3  -1   3 189750. 4317.47   2
   3  -1   3 179282. 5443.47   9
  -3  -1  -3 189562. 4984.18   8
  -3   1  -3 186510. 5464.12  10
   3   1   3 186122. 5500.05   1
  -3  -1  -4 10599.6 978.734   8
  -3   1  -4 8322.63 1018.38   3
  -3  -1  -4 9998.36 1082.70  10
  -3   1  -4 10023.4 1067.54  10
   3   1   4 8945.71 1053.59   9
   3  -1   4 10770.6 1126.08   9
   3  -1   4 10008.5 483.984   2
   3   1   4 8968.30 1062.61   1
  -3   1  -5 328924. 9107.63   3
   3  -1   5 337968. 9119.99   9
   3   1   5 343622. 9252.11   9
  -3   1  -5 328123. 8926.09  10
   3  -1   5 338666. 8016.81   4
  -3  -1  -5 336939. 8748.17   8
  -3  -1  -5 324792. 9037.27  10
  -3   1  -6 12812.2 1355.42  10
   3  -1   6 14434.4 1163.86   4
   3  -1   6 14574.4 1526.50   9
   3   1   6 14194.0 1513.08   9
  -3   1  -6 14718.0 1563.27   3
  -3  -1  -6 13506.1 1432.17  10
  -3  -1  -6 13337.2 1374.80   8
   3   1   6 11822.0 1294.84   4
  -3   1  -7 1937.33 568.447  10
  -3   1  -7 2883.18 776.960   3
   3   1   7 3055.73 808.452   9
  -3  -1  -7 2477.34 703.798  10
   3  -1   7 3853.86 656.759   4
   3  -1   7 2888.87 704.061   9
   3   1   7 3945.15 804.265   4
  -3  -1  -7 3298.12 809.757   8
  -3   1  -7 2976.27 699.690   8
  -3  -1  -8-168.655 514.341   3
   3   1   8 519.252 451.214   4
  -3   1  -8-564.553 517.844   8
  -3   1  -8-339.074 382.466   3
  -3   1  -8 481.491 373.883  10
   3   1   8 203.750 427.206   9
   3  -1   8-38.2152 333.813   9
  -3  -1  -8 485.132 520.968   8
   3  -1   8-47.4300 320.868   4
  -3  -1  -8 572.802 455.389  10
  -3  -1  -9 94184.5 5032.13   3
   3  -1   9 101289. 5124.86   9
  -3   1  -9 93221.0 5086.98   3
  -3   1  -9 110097. 4954.19  10
  -3   1  -9 108856. 5285.48   8
  -3  -1  -9 98805.5 4875.55  10
   3   1   9 94260.2 4993.84   9
   3   1   9 105366. 4861.61   4
  -3  -1  -9 107890. 5229.95   8
  -3  -1 -10 5345.28 1233.80   3
  -3   1 -10 6106.46 1158.15  10
   3   1  10 6485.81 1324.88   9
   3  -1  10 6855.88 1340.71   9
  -3   1 -10 5732.52 1317.63   3
   3   1  10 4500.32 1026.20   4
  -3  -1 -10 5685.35 1298.67   8
  -3   1 -10 7642.15 1439.32   8
  -3  -1 -10 6382.21 1214.73  10
  -3   1 -11 588.991 693.982   3
  -3  -1 -11 649.402 690.516   3
  -3  -1 -11 295.389 348.459  10
  -3   1 -11 256.984 357.326  10
   3   1  11 508.646 592.118   9
   3  -1  11 545.518 556.265   9
  -3   1 -11 92.4148 612.899   8
   3   1  11 1094.29 553.880   4
  -3  -1 -12 29236.7 3198.40   3
  -3   1 -12 32146.6 3417.65   3
   3   1  12 28495.1 3009.75   9
   3  -1  12 25289.5 2852.44   9
  -3  -1 -12 24725.6 2624.87  10
  -3  -1 -12 29347.8 3206.67   8
  -3   1 -12 24311.7 2889.70   8
   3   2 -13 10829.3 1997.11   3
  -3  -2  13 11428.8 1977.27   5
  -3   2  13 11645.7 1988.06   4
   3  -2 -13 14246.3 2419.92   8
   3   2 -13 13767.0 2226.49   8
  -3  -2  12 1358.87 731.124   5
   3   2 -12 1597.13 820.914   3
  -3  -2  12 2861.08 898.078   4
  -3   2  12 1531.97 846.569   4
   3  -2 -12 572.745 809.804   8
   3   2 -12 1476.06 809.243   8
   3   2 -11 184.200 447.175   3
  -3  -2  11 350.625 319.041   4
  -3  -2  11 353.889 623.241   5
   3  -2 -11-516.899 937.933   8
  -3   2  11 493.850 486.511   4
   3   2 -11 317.038 604.418   8
   3  -2 -10 2167.17 825.192   8
   3   2 -10 2596.67 854.132   3
  -3  -2  10 4033.52 1090.77   5
  -3  -2  10 2668.55 785.972   4
  -3   2  10 2381.67 847.514   4
   3   2 -10 3815.87 1038.97   8
   3  -2  -9 6496.88 1024.69   2
   3   2  -9 4973.04 998.698   3
  -3  -2   9 4691.19 1100.61   5
   3  -2  -9 4348.57 1138.96   8
  -3  -2   9 5828.04 1046.83   4
   3   2  -9 6711.06 899.598   2
  -3   2   9 4150.51 994.276   4
   3   2  -9 6779.86 1273.06   8
   3  -2  -8 679.706 597.872   8
   3  -2  -8 1176.51 474.595   2
  -3  -2   8 2413.83 856.695   5
   3   2  -8 764.268 566.018   3
  -3  -2   8 1061.54 316.382   9
  -3  -2   8 389.910 321.203   4
   3   2  -8 210.698 220.987   2
  -3   2   8 859.067 503.023   4
   3   2  -7 30742.5 2108.02   3
  -3  -2   7 31593.3 1540.35   9
  -3  -2   7 23606.5 2075.24   5
   3   2  -7 26679.4 1762.46   2
   3  -2  -7 25300.6 2194.93   8
  -3  -2   7 28720.3 2101.48   4
  -3   2   7 29184.6 2305.03   4
   3  -2  -7 29405.3 2012.61   2
  -3  -2   7 26029.0 2135.85   7
   3   2  -6 20374.0 1527.44   3
  -3  -2   6 16878.8 1666.78   5
  -3  -2   6 20268.8 1067.48   9
  -3  -2   6 16841.5 1512.46   4
   3  -2  -6 15098.8 1559.17   8
  -3   2   6 15215.2 1560.86   4
   3  -2  -6 18293.4 1488.96   2
  -3  -2   6 16423.3 1583.71   7
   3   2  -5 115991. 3844.49   3
   3   2  -5 118066. 2984.38   9
  -3  -2   5 106515. 4293.67   5
  -3  -2   5 117470. 2956.48   9
   3  -2  -5 109951. 4037.35   2
  -3   2   5 111643. 4335.93   4
   3  -2  -5 112039. 4392.33   8
  -3  -2   5 116404. 4211.23   4
  -3  -2   5 111583. 4255.45   7
   3   2  -4 48187.5 2007.55   3
  -3  -2   4 50961.1 2426.81   4
   3  -2  -4 43715.1 2262.23   2
  -3   2   4 45656.8 2382.95   4
   3  -2  -4 47951.9 2488.32   8
  -3  -2   4 43376.9 2368.04   5
  -3  -2   4 48315.0 1354.45   9
  -3  -2   4 48305.4 2393.58   7
   3   2  -3 4334.91 487.933   3
  -3  -2   3 4713.27 673.631   7
  -3  -2   3 4423.80 666.135   6
  -3   2   3 3175.26 541.004   6
  -3   2   3 4134.21 551.102  10
  -3   2   3 3833.34 615.199   4
   3   2  -3 4075.51 275.582  10
  -3  -2   3 4615.31 725.641   5
  -3  -2   3 4053.76 645.610   4
  -3  -2   3 3662.25 260.280   9
   3  -2  -3 4598.35 371.324   1
   3  -2  -3 4555.64 781.173   8
   3   2  -3 3945.45 629.456   1
   3  -2  -3 3860.76 630.721   2
   3   2  -2 3924.48 341.923   3
   3  -2  -2 3869.59 674.181   8
  -3   2   2 3543.03 505.897  10
  -3  -2   2 3138.35 532.631   6
  -3  -2   2 2971.90 505.857   7
  -3  -2   2 4555.09 342.637   9
  -3   2   2 4795.65 590.609   6
   3   2  -2 3908.02 370.630  10
   3   2  -2 3446.17 595.141   1
  -3   2   2 3644.23 527.621   4
   3  -2  -2 3738.02 602.379   2
  -3  -2   1 18157.8 1005.74  10
  -3  -2   1 18782.5 1226.65   7
  -3   2   1 20033.2 1240.87  10
   3  -2  -1 17655.0 1123.56   9
  -3  -2   1 18161.9 1176.15   6
   3   2  -1 19049.6 1297.61   1
  -3  -2   1 22149.8 982.402   9
   3  -2  -1 16649.9 1181.67   2
  -3   2   1 20012.9 1098.22   4
   3  -2  -1 18386.4 1124.04   8
  -3  -2   0 187306. 5187.76   7
  -3   2   0 198463. 5270.28  10
   3  -2   0 190958. 5146.66   9
   3   2   0 199660. 5611.49   1
   3   2   0 191168. 4818.05   9
  -3   2   0 185675. 4506.83   4
   3  -2   0 202930. 5144.61   2
  -3  -2   0 189235. 4989.88  10
   3   2   1 70473.7 2575.34   9
   3  -2   1 66815.3 2674.11   9
   3  -2   1 78932.9 1949.00   4
   3   2   1 63003.4 3002.06   1
  -3   2  -1 69188.7 2698.15   3
   3  -2   1 70685.2 2443.29   2
  -3  -2  -1 68054.4 2350.01   8
  -3   2  -1 72127.7 2759.31  10
  -3  -2  -1 72044.6 2687.32  10
  -3   2  -1 72386.9 1858.41   7
   3  -2   2 51005.7 2358.62   9
   3  -2   2 56198.6 1424.49   4
  -3  -2  -2 53153.6 2409.29  10
  -3   2  -2 51918.4 2378.46   3
  -3   2  -2 52522.1 2392.64  10
  -3  -2  -2 50918.7 2253.69   8
   3   2   2 53174.2 2591.77   1
   3  -2   2 50629.3 1907.05   2
   3   2   2 50720.9 2309.04   9
   3  -2   3 254094. 5470.87   4
   3   2   3 257452. 7097.13   9
   3  -2   3 253647. 7096.41   9
  -3   2  -3 256712. 7110.19   3
  -3  -2  -3 257003. 7148.21  10
   3   2   3 257114. 7258.06   1
  -3  -2  -3 270991. 6943.57   8
   3  -2   3 263617. 5986.72   2
  -3   2  -3 266672. 7099.25  10
  -3  -2  -4 300994. 7882.53   8
  -3   2  -4 295470. 8163.05   3
   3   2   4 304356. 8216.31   9
  -3  -2  -4 276334. 8055.06  10
   3  -2   4 289853. 8089.01   9
  -3   2  -4 284670. 7895.90  10
   3  -2   4 297531. 6417.87   4
   3   2   4 286116. 8156.98   1
   3   2   5 1393.41 450.867   1
  -3  -2  -5 2460.90 656.151  10
  -3   2  -5 1773.94 620.228   3
  -3   2  -5 3845.15 744.151  10
   3   2   5 3325.72 776.177   9
   3  -2   5 1714.53 538.840   9
   3  -2   5 2258.68 366.349   4
  -3  -2  -5 1957.48 604.807   8
  -3  -2  -6 4684.84 882.243  10
   3   2   6 4107.78 887.350   9
   3  -2   6 3961.46 799.681   9
  -3   2  -6 4358.17 904.881   3
  -3  -2  -6 2591.10 624.492   8
   3  -2   6 3939.10 542.000   4
  -3   2  -6 3587.08 751.922  10
  -3   2  -7 31071.0 2556.52   3
  -3  -2  -7 36647.2 2652.71  10
   3   2   7 40307.6 2825.06   9
  -3   2  -7 35665.1 2460.20  10
   3  -2   7 39344.3 2710.97   9
   3   2   7 42075.7 2794.82   4
   3  -2   7 41006.6 1970.47   4
  -3  -2  -7 34156.1 2580.08   8
  -3   2  -8 101572. 5096.53   3
   3   2   8 105723. 5067.24   9
   3  -2   8 104252. 4922.70   9
  -3   2  -8 102033. 4605.41  10
   3   2   8 100525. 4805.02   4
  -3  -2  -8 99780.3 4797.21  10
  -3  -2  -8 94234.7 4795.07   8
  -3   2  -9 10942.1 1738.17   3
  -3   2  -9 13032.2 1580.94  10
  -3  -2  -9 10516.0 1562.55  10
   3  -2   9 13183.0 1728.81   9
   3   2   9 10802.1 1642.30   9
  -3  -2  -9 10577.4 1598.81   8
  -3   2  -9 12472.7 1726.80   8
   3   2   9 12039.9 1649.26   4
  -3   2 -10 40192.4 3475.60   3
  -3  -2 -10 42909.8 3283.52  10
   3   2  10 39156.2 3301.82   9
   3  -2  10 39761.3 3245.71   9
  -3   2 -10 40333.4 3331.60   8
   3   2  10 42186.5 3269.50   4
  -3  -2 -10 39905.0 3429.89   8
  -3   2 -10 36391.4 2854.20  10
  -3  -2 -11 2418.28 1032.79   3
  -3  -2 -11 630.955 427.359  10
   3   2  11 1437.77 668.976   9
  -3   2 -11 2327.15 701.711  10
  -3   2 -11 2648.20 1050.81   3
   3  -2  11 2705.43 966.370   9
  -3   2 -11 714.265 738.457   8
  -3  -2 -11 930.130 855.668   8
   3   2  11 2176.81 837.573   4
  -3  -2 -12 11821.5 2026.95   3
  -3   2 -12 13057.7 2216.27   3
  -3   2 -12 11634.7 1983.30   8
   3   2  12 15473.6 2276.91   9
  -3  -2 -12 15193.7 2108.79  10
   3  -2  12 11480.1 1913.55   9
  -3  -2 -12 16914.4 2570.57   8
   3   2  12 14946.3 2063.80   4
   3   3 -13 1278.32 1042.96   3
  -3  -3  13-70.6966 529.955   5
  -3   3  13 68.6572 612.593   4
   3   3 -13 56.6062 647.048   8
  -3  -3  12 11967.3 2027.09   5
   3   3 -12 9170.72 1654.22   3
   3  -3 -12 12116.4 2198.43   8
  -3   3  12 9898.88 1772.76   4
   3   3 -12 11366.1 2036.94   8
  -3   3  11 44061.1 3669.66   4
   3   3 -11 44200.6 3465.53   3
  -3  -3  11 48333.6 3743.19   5
  -3  -3  11 47190.4 3328.13   4
   3  -3 -11 49114.2 4187.39   8
   3   3 -11 42820.6 3562.44   8
  -3  -3  10 1120.16 773.692   5
  -3  -3  10 92.4180 293.178   4
   3   3 -10 406.692 536.905   3
   3  -3 -10-176.021 737.802   8
  -3   3  10-29.2731 486.608   4
  -3  -3   9 5900.15 1043.63   4
   3   3  -9 6923.58 1199.46   3
  -3   3   9 4752.27 1102.27   4
  -3  -3   9 5702.35 1221.90   5
   3  -3  -9 6398.32 1387.06   8
   3   3  -8 15402.9 1634.23   3
  -3  -3   8 16702.2 1904.62   5
   3   3  -8 15121.5 1373.13   2
  -3  -3   8 17071.8 1682.49   4
  -3   3   8 16488.9 1906.90   4
   3  -3  -8 17068.1 1668.29   2
   3  -3  -8 13719.1 1833.55   8
  -3  -3   8 19392.7 2007.28   7
  -3  -3   7 7221.65 1195.34   7
   3  -3  -7 5893.57 972.221   2
  -3  -3   7 6801.55 703.797   9
  -3  -3   7 6259.75 1198.69   5
   3  -3  -7 7681.16 1462.89   8
   3   3  -7 7393.46 1056.05   3
  -3  -3   7 6365.65 1011.66   4
  -3   3   7 7747.47 1227.90   4
   3   3  -6 15223.5 1388.75   3
  -3  -3   6 14144.8 1620.68   5
  -3  -3   6 15341.5 989.724   9
  -3  -3   6 16689.8 1511.09   4
   3  -3  -6 15098.7 1466.06   2
   3  -3  -6 15368.7 1841.97   8
  -3   3   6 16490.4 1671.16   4
  -3  -3   6 15986.2 1616.69   7
   3   3  -5 134802. 4411.75   3
  -3  -3   5 139196. 4803.61   4
  -3  -3   5 135012. 5127.74   5
  -3  -3   5 140606. 3617.10   9
  -3  -3   5 131368. 4913.16   7
  -3   3   5 134148. 4999.54   4
   3  -3  -5 132282. 4787.64   2
   3  -3  -5 137220. 5434.53   8
   3   3  -4 178535. 4964.17   3
   3   3  -4 177206. 5633.50   1
   3   3  -4 175211. 3941.84  10
   3   3  -4 174159. 3913.02  10
  -3   3   4 174243. 5595.65   4
  -3  -3   4 176531. 4256.49   9
  -3  -3   4 174432. 5747.18   5
   3  -3  -4 181042. 5599.83   2
   3  -3  -4 169721. 6076.43   8
  -3  -3   4 173561. 5592.82   7
   3   3  -3 501.961 433.412   1
  -3  -3   3 910.075 451.826   7
   3  -3  -3 935.709 198.236   1
   3  -3  -3 1623.95 522.283   2
   3   3  -3 701.126 284.795   3
  -3  -3   3 574.635 374.082   6
  -3  -3   3 718.219 430.151   5
  -3   3   3 974.671 382.692  10
  -3   3   3 1729.16 416.343   6
   3   3  -3 988.091 224.440  10
  -3  -3   3 729.542 205.487   9
   3  -3  -3 1247.96 682.485   8
  -3   3   3 686.173 328.607   4
  -3  -3   2 22648.3 1567.39   7
   3   3  -2 26911.6 1749.46   1
  -3   3   2 24005.1 1460.95   4
  -3  -3   2 23310.5 1454.84   6
  -3   3   2 24967.2 1343.31   6
  -3  -3   2 26883.1 1664.76   5
   3   3  -2 26847.9 1163.26   3
   3  -3  -2 23038.9 1588.10   2
  -3   3   2 26635.8 842.104   1
  -3   3   2 24166.5 1560.36  10
   3  -3  -2 24460.2 1680.98   8
  -3  -3   1 1665.52 234.486   3
   3  -3  -1 484.475 291.496   2
  -3   3   1 1372.79 227.203   1
   3  -3  -1 1548.12 286.016   7
  -3  -3   1 1006.01 468.326   7
   3   3  -1 1308.56 445.254   1
  -3   3   1 1537.54 400.701  10
  -3   3   1 1179.42 330.945   4
  -3  -3   1 1626.05 416.191   6
   3  -3  -1 1458.61 388.588   9
   3  -3  -1 1450.40 414.794   8
  -3  -3   0 92079.4 3451.27   7
  -3   3   0 94154.7 2641.88   4
  -3  -3   0 90735.0 3155.35  10
  -3   3   0 93506.6 3423.40  10
   3  -3   0 100332. 3459.90   9
   3   3   0 95180.6 3725.56   1
   3  -3   0 92540.5 3300.39   2
   3  -3   0 91843.7 2349.29   7
  -3   3  -1 6605.74 508.985   7
   3   3   1 8245.65 1205.10   1
   3  -3   1 8178.95 905.281   9
  -3  -3  -1 6715.82 789.293  10
  -3   3  -1 5863.63 379.639   4
  -3  -3  -1 7097.56 770.169   8
   3  -3   1 6708.41 748.764   2
  -3  -3  -1 8084.51 998.855   7
  -3   3  -1 6359.04 810.580  10
   3  -3   1 5773.58 469.322   7
  -3   3  -2 30710.1 1945.66   3
  -3   3  -2 32785.1 1941.85  10
   3  -3   2 29978.0 1883.95   9
   3   3   2 34084.8 2285.17   1
  -3  -3  -2 32860.2 1894.55   8
  -3  -3  -2 30930.9 1893.37  10
   3  -3   2 32083.0 1391.71   7
  -3   3  -3 26164.9 1855.54   3
  -3   3  -3 21724.7 1631.34  10
   3   3   3 25663.9 1785.35   9
   3  -3   3 26924.5 1835.02   9
   3   3   3 22046.0 1828.29   1
  -3  -3  -3 25848.5 1884.48   8
  -3  -3  -3 22444.3 1712.38  10
  -3   3  -4 54106.9 2942.26   3
  -3  -3  -4 51531.4 2837.91  10
   3   3   4 57187.8 2947.38   9
  -3  -3  -4 60136.7 3120.55   8
   3   3   4 55938.6 3017.48   1
   3  -3   4 59738.1 3004.30   9
  -3   3  -4 50902.7 2698.27  10
   3   3   5 1032.01 614.370   1
  -3  -3  -5 303.380 435.100  10
  -3   3  -5 626.060 343.180  10
  -3   3  -5 393.111 469.164   3
   3   3   5 632.342 504.471   9
   3  -3   5 1183.90 550.705   9
  -3   3  -5 62.7934 85.6973   2
   3  -3   5 284.331 101.546   4
  -3  -3  -5 589.559 670.122   8
  -3   3  -6 84923.2 4213.02   3
  -3  -3  -6 79722.7 4009.31  10
  -3   3  -6 84244.6 3846.61  10
   3   3   6 83015.2 4114.39   9
   3  -3   6 81435.9 3984.84   9
  -3  -3  -6 86291.8 4251.86   8
   3   3   6 81264.5 4076.48   1
   3   3   7 2128.80 718.999   4
  -3   3  -7 1161.38 512.604  10
  -3  -3  -7 877.728 752.370   8
  -3  -3  -7 791.585 434.294  10
  -3   3  -7 1461.83 708.606   3
   3   3   7 1245.10 621.043   9
   3  -3   7 260.825 409.507   9
   3   3   8 7017.35 1258.38   4
  -3   3  -8 8413.52 1237.43  10
  -3  -3  -8 6346.74 1214.29  10
  -3   3  -8 5770.41 1248.86   3
   3   3   8 5117.07 1101.60   9
   3  -3   8 5957.18 1126.31   9
  -3  -3  -8 6834.71 1368.98   8
  -3   3  -9 237.406 311.267  10
  -3   3  -9 457.765 521.898   3
  -3  -3  -9 512.551 494.361  10
   3   3   9-434.261 598.190   9
   3  -3   9 545.305 510.299   9
  -3  -3  -9 970.102 871.063   8
   3   3   9 1522.74 759.065   4
  -3   3 -10 29646.4 3025.14   3
  -3  -3 -10 26822.1 2676.55  10
  -3   3 -10 29823.4 2553.23  10
   3   3  10 27364.5 2829.64   9
   3  -3  10 30690.4 2867.78   9
  -3  -3 -10 25675.6 2898.48   8
   3   3  10 31450.2 2928.80   4
  -3   3 -11 890.254 660.149   3
   3  -3  11 3137.37 1031.49   9
  -3  -3 -11 1452.18 923.127   8
  -3   3 -11 652.919 568.248   8
   3   3  11 1140.44 568.623   4
  -3  -3 -12 4240.52 1353.37   3
  -3   3 -12 3833.90 1388.87   3
   3  -3  12 2376.65 904.364   9
  -3  -3 -12 4423.48 1458.87   8
  -3   3 -12 4337.83 1327.38   8
   3   3  12 3834.13 1105.65   4
  -3  -4  13 2493.42 1041.61   5
   3   4 -13-448.871 610.782   3
   3   4 -12 58131.1 4327.41   3
  -3  -4  12 60638.5 4576.52   5
  -3   4  12 61370.9 4705.43   4
   3  -4 -12 61529.1 5318.30   8
   3   4 -12 60599.2 4583.37   8
   3   4 -11 43491.5 3558.21   3
  -3  -4  11 51617.3 4061.31   5
   3  -4 -11 51616.0 4598.75   8
  -3   4  11 51074.9 4095.77   4
   3   4 -10 51053.1 3587.60   3
  -3  -4  10 51588.6 3892.91   5
  -3  -4  10 55368.4 3433.92   4
  -3   4  10 42841.0 3608.31   4
   3  -4 -10 55765.3 4529.40   8
   3   4  -9 37099.9 2847.92   3
  -3  -4   9 42817.5 2910.57   4
  -3   4   9 36124.8 3082.14   4
   3  -4  -9 34479.7 3409.14   8
  -3  -4   9 38046.9 3192.65   5
  -3  -4   9 32499.6 2892.77   7
   3   4  -8 135635. 5529.76   3
  -3  -4   8 140139. 5429.49   4
  -3   4   8 133921. 6020.27   4
   3  -4  -8 136488. 6698.08   8
  -3  -4   8 132013. 5820.50   7
  -3  -4   8 129732. 6002.95   5
  -3  -4   7 118931. 4706.71   4
  -3  -4   7 112686. 5271.45   5
  -3  -4   7 113092. 5123.40   7
   3  -4  -7 116085. 5842.04   8
  -3  -4   7 111231. 3674.55   9
   3   4  -7 114425. 4666.72   3
  -3   4   7 108788. 5107.64   4
   3   4  -6 136974. 4836.02   3
   3  -4  -6 124681. 5020.55   2
  -3  -4   6 133299. 5558.38   5
  -3  -4   6 133693. 3918.07   9
  -3   4   6 128276. 5329.23   4
   3  -4  -6 130094. 5989.15   8
  -3  -4   6 116038. 5064.40   7
   3   4  -5 14249.1 797.526  10
   3   4  -5 15138.5 1316.41   3
  -3  -4   5 14061.8 998.960   9
   3  -4  -5 13460.2 1462.44   2
  -3   4   5 15667.3 1607.09   4
   3  -4  -5 16782.7 2006.24   8
  -3  -4   5 16517.9 1711.08   5
  -3  -4   5 16800.2 1623.74   7
   3   4  -4 157192. 4704.73   3
   3   4  -4 149130. 3942.32  10
   3  -4  -4 143463. 5724.13   8
   3   4  -4 147563. 5370.59   1
  -3  -4   4 152954. 5489.98   5
  -3  -4   4 153487. 4196.90   9
  -3  -4   4 154457. 5371.19   7
  -3   4   4 148302. 5268.60   4
   3  -4  -4 140941. 5217.82   2
   3   4  -3 70569.8 3316.56   1
  -3   4   3 73952.9 2609.00   6
  -3  -4   3 70322.9 3287.06   5
  -3  -4   3 73223.3 2979.91   6
  -3  -4   3 76283.7 2612.25   9
  -3   4   3 74272.3 3193.65   4
   3  -4  -3 70058.8 3506.18   8
  -3   4   3 73942.6 2227.88   1
   3  -4  -3 66631.0 3217.72   2
   3   4  -3 75629.3 2714.91   3
  -3   4   3 72896.3 3241.12  10
  -3  -4   3 65433.0 3179.97   7
  -3   4   2 192502. 4874.71   6
  -3   4   2 197533. 5945.44  10
  -3  -4   2 186069. 5298.56   6
   3   4  -2 188871. 6039.64   1
  -3   4   2 186467. 4729.12   1
  -3  -4   2 190841. 5780.81   5
   3  -4  -2 191432. 6052.03   8
  -3   4   2 193766. 5534.75   4
   3  -4  -2 192028. 5957.43   2
  -3  -4   2 187272. 5904.45   7
   3  -4  -1 18224.7 1052.20   7
  -3  -4   1 17344.5 1173.04   6
  -3   4   1 18949.2 1494.44  10
  -3   4   1 19305.6 1006.94   1
   3   4  -1 14978.5 1467.24   1
   3  -4  -1 15716.4 1370.23   2
  -3  -4   1 18549.8 1358.97   5
   3  -4  -1 17616.4 1435.37   9
   3  -4  -1 17803.3 1459.89   8
  -3  -4   1 18440.1 1525.41   7
  -3   4   1 18770.9 1219.05   4
   3  -4   0 228549. 5465.29   7
  -3  -4   0 239479. 6879.21   7
  -3   4   0 237228. 5711.82   1
   3  -4   0 232565. 6697.87   9
   3   4   0 231205. 7061.91   1
  -3   4   0 222132. 6651.21  10
  -3   4   0 229943. 5559.18   4
  -3  -4  -1 59305.3 2963.96   7
  -3   4  -1 59593.1 2860.03  10
   3  -4   1 61967.6 2924.53   9
   3   4   1 55243.1 3193.72   1
  -3   4  -1 58187.3 1695.18   4
  -3  -4  -1 63615.5 2742.26   8
   3  -4   1 60480.5 2084.46   7
  -3  -4  -2 117294. 4263.04   8
   3  -4   2 114965. 4374.15   9
  -3   4  -2 114698. 4306.32  10
   3  -4   2 121078. 3550.48   7
  -3   4  -2 113655. 4427.48   3
   3   4   2 112407. 4868.17   1
  -3   4  -3 7106.35 979.808  10
  -3   4  -3 8963.98 1193.33   3
   3   4   3 7215.17 556.354   5
   3  -4   3 7783.07 1071.39   9
  -3  -4  -3 7313.69 1036.98  10
   3   4   3 6110.55 1057.59   1
  -3  -4  -3 6088.78 1003.61   8
   3  -4   3 8374.32 837.700   7
  -3  -4  -4 14282.1 1692.28   8
  -3   4  -4 12291.1 1433.64   3
   3  -4   4 13697.7 1441.61   9
  -3   4  -4 11932.4 1312.53  10
  -3  -4  -4 11005.7 1355.39  10
   3   4   4 13290.6 1546.19   1
   3  -4   4 15076.3 1253.57   7
  -3   4  -5 7.69280 240.945  10
   3  -4   5 282.766 491.186   9
  -3  -4  -5 30.4603 360.577  10
  -3   4  -5 1906.53 752.490   3
   3   4   5 689.643 530.455   1
  -3  -4  -5 2663.79 1128.18   8
  -3  -4  -6 94996.0 4535.86  10
  -3   4  -6 79341.2 4300.48   3
  -3   4  -6 90185.7 4107.80  10
   3  -4   6 88433.6 4326.41   9
  -3  -4  -6 90993.0 4814.17   8
   3   4   6 89540.7 4472.58   1
  -3   4  -7 27316.7 2536.71   3
   3  -4   7 25640.4 2295.66   9
  -3  -4  -7 26095.3 2402.88  10
   3   4   7 22145.8 2242.51   1
  -3  -4  -7 27904.8 2730.13   8
  -3   4  -7 27785.6 2220.85  10
  -3   4  -8 23233.5 2484.53   3
  -3   4  -8 25789.9 2235.78  10
   3  -4   8 27119.1 2457.01   9
  -3  -4  -8 24600.6 2753.38   8
   3   4   8 26554.5 2565.74   4
   3   4   9 1527.14 795.511   4
  -3   4  -9 1074.44 469.502  10
  -3   4  -9 2436.18 959.722   3
   3  -4   9 2395.90 843.177   9
  -3  -4  -9 3285.50 1342.09   8
  -3   4 -10 9487.80 1810.20   3
  -3   4 -10 7792.31 1317.09  10
   3  -4  10 9426.14 1604.05   9
  -3  -4 -10 12814.3 2307.35   8
   3   4  10 9529.42 1699.96   4
  -3   4 -11 2358.62 997.579   3
  -3  -4 -11 2003.01 1329.93   8
   3  -4  11 1751.91 839.231   9
   3   4  11 1482.89 905.423   4
   3  -4  12 5056.82 1297.32   9
  -3  -4 -12 3106.02 1508.36   8
   3   4  12 4853.59 1364.53   4
   3   5 -12 754.782 557.339   3
  -3  -5  12 620.020 723.983   5
   3  -5 -12 1796.21 1721.93   8
  -3   5  12 691.782 627.799   4
   3   5 -11 6869.46 1412.41   3
   3  -5 -11 6026.98 1914.00   8
  -3  -5  11 6070.00 1480.28   5
  -3   5  11 6911.37 1601.33   4
   3   5 -10 41572.7 3278.36   3
  -3  -5  10 37344.9 3453.20   5
  -3   5  10 44289.3 3756.27   4
   3  -5 -10 37839.3 4049.06   8
  -3  -5  10 40430.4 3474.51   7
   3   5  -9 12361.6 1683.01   3
  -3  -5   9 14533.0 2067.79   5
   3  -5  -9 17061.5 2614.77   8
  -3   5   9 11383.6 1829.25   4
  -3  -5   9 14870.2 2030.79   7
  -3  -5   8 8075.65 1441.09   7
   3  -5  -8 11642.6 2109.51   8
  -3  -5   8 10784.3 1749.58   5
  -3   5   8 11171.0 1686.37   4
   3   5  -8 9696.70 1379.34   3
  -3  -5   7 19382.9 2174.33   5
  -3   5   7 14928.2 1853.78   4
   3   5  -7 17766.2 1755.80   3
   3  -5  -7 14972.9 2202.64   8
  -3  -5   7 16231.6 1915.00   7
  -3  -5   6 255.940 397.917   7
   3   5  -6 62.1806 355.785   3
  -3  -5   6 1020.00 692.280   5
  -3  -5   6 547.711 341.939   9
   3  -5  -6 1379.23 930.266   8
   3   5  -6 722.431 537.548   1
  -3   5   6 799.798 559.680   4
  -3  -5   5 7668.25 1248.02   7
   3   5  -5 8879.07 1078.07   3
   3   5  -5 9301.11 796.481  10
  -3  -5   5 7304.23 826.983   9
  -3  -5   5 8759.70 1343.32   5
   3  -5  -5 6945.98 1414.61   8
  -3   5   5 8362.82 1293.80   4
   3   5  -5 7056.29 1225.63   1
  -3   5   4 93343.1 4182.63   4
   3  -5  -4 95551.3 4686.17   8
  -3   5   4 101206. 3205.98   1
  -3  -5   4 99823.7 4467.88   5
  -3  -5   4 101897. 3519.91   9
   3   5  -4 106446. 3848.98   3
   3   5  -4 95110.7 4358.78   1
   3   5  -4 98252.0 3323.07  10
  -3  -5   4 96346.3 4311.02   7
  -3  -5   3 37186.3 2469.58   7
   3   5  -3 40717.5 2644.02   1
  -3   5   3 35517.2 2268.91   4
  -3  -5   3 39492.3 2009.95   9
  -3   5   3 42511.8 1833.67   1
   3  -5  -3 38319.2 2644.54   8
  -3  -5   3 36854.3 2418.83   5
  -3   5   3 37115.0 2430.52  10
  -3  -5   2 149241. 5409.69   7
   3  -5  -2 146262. 4584.18   7
  -3  -5   2 149856. 4564.42   6
   3   5  -2 145760. 5476.00   1
  -3  -5   2 144227. 5096.46   5
  -3   5   2 162277. 4029.59   6
  -3   5   2 150936. 4428.75   1
   3  -5  -2 154445. 5575.10   8
  -3   5   2 151422. 4941.08   4
  -3   5   2 149921. 5375.07  10
   3  -5  -1 195669. 5337.13   7
  -3  -5   1 199762. 5304.54   6
  -3  -5   1 187223. 6351.76   7
  -3   5   1 196685. 4831.18   6
  -3   5   1 198155. 5242.36   1
   3   5  -1 183029. 6435.18   1
  -3  -5   1 200099. 5869.27   5
   3  -5  -1 199530. 6375.95   8
  -3   5   1 203620. 5579.89   4
  -3   5   1 194560. 6357.43  10
   3  -5   0 85868.1 2915.95   7
  -3  -5   0 78935.1 3748.89   7
   3  -5   0 82189.1 3705.89   9
  -3  -5   0 91301.6 2958.73   6
   3   5   0 82473.8 4004.50   1
  -3   5   0 82158.5 3699.60  10
  -3   5   0 86673.4 2864.84   4
  -3   5   0 84269.7 3027.94   1
  -3   5  -1 13600.4 778.848   4
  -3  -5  -1 14974.2 1579.29   7
   3  -5   1 12371.8 1363.09   9
  -3   5  -1 13251.6 1391.04  10
  -3  -5  -1 12935.3 1317.02   8
   3   5   1 14034.1 1734.74   1
   3  -5   1 14132.1 1050.42   7
  -3   5  -2-210.790 303.182  10
   3  -5   2 1215.73 404.222   7
   3  -5   2-278.689 390.920   9
  -3  -5  -2 748.442 869.121   7
   3   5   2 948.594 905.356   1
  -3  -5  -2 948.609 585.695   8
   3  -5   3 7921.85 1137.35   9
  -3   5  -3 9826.37 1227.39  10
   3   5   3 8007.84 1363.69   1
  -3   5  -3 8592.45 1245.53   3
  -3  -5  -3 10166.5 1345.39   8
   3  -5   3 10736.1 1020.37   7
  -3   5  -4 129395. 5076.32  10
   3   5   4 123546. 5420.85   1
  -3  -5  -4 133331. 5489.53   8
  -3   5  -4 128920. 5371.28   3
   3  -5   4 119565. 5084.31   9
   3  -5   4 134132. 4534.24   7
  -3   5  -5 9282.43 1404.69   3
   3  -5   5 8378.59 1284.38   9
   3   5   5 8734.39 1351.28   1
  -3  -5  -5 11173.7 1708.88   8
  -3   5  -5 9436.65 1262.70  10
   3  -5   5 8678.62 1119.47   7
   3   5   6 10562.3 1545.47   1
  -3   5  -6 17091.1 1972.02   3
   3  -5   6 13465.4 1653.28   9
  -3   5  -6 12758.3 1522.42  10
  -3  -5  -6 11161.7 1820.76   8
  -3   5  -7 655.525 555.354   3
  -3   5  -7 23.5082 278.566  10
   3   5   7 316.812 511.015   1
   3  -5   7 507.553 351.045   9
   3  -5   8 55468.5 3742.83   9
   3   5   8 61733.7 4164.77   4
  -3   5  -8 59987.7 3582.15  10
  -3  -5  -8 54288.4 4336.11   8
  -3   5  -8 59723.8 4127.64   3
   3   5   9 3464.86 1115.00   4
  -3   5  -9 3392.36 865.365  10
  -3   5  -9 3995.30 1298.41   3
   3  -5   9 3216.89 987.863   9
  -3  -5  -9 6272.94 1736.38   8
  -3   5 -10 6230.61 1490.67   3
   3  -5  10 6452.00 1402.63   9
  -3  -5 -10 3654.09 1532.71   8
   3   5  10 4335.70 1256.59   4
   3  -5  11 3920.10 1174.12   9
  -3   5 -11 2725.05 1075.83   3
  -3  -5 -11 3898.26 1736.48   8
   3   5  11 3135.34 1110.07   4
   3   6 -12 1845.51 864.503   3
   3   6 -11-818.480 663.290   3
  -3  -6  11 318.981 959.559   5
   3  -6 -11-990.120 1138.30   8
  -3   6  11 1287.95 966.447   4
  -3  -6  10 1052.31 718.780   7
  -3   6  10 758.862 787.155   4
   3   6 -10 1260.86 681.156   3
  -3  -6  10 1666.02 1111.56   5
   3  -6 -10 2149.43 1232.11   8
  -3  -6   9 2997.47 978.089   7
   3   6  -9 1841.22 756.038   3
   3  -6  -9 3535.62 1505.62   8
  -3   6   9 1310.02 794.404   4
  -3  -6   9 2186.47 1154.86   5
   3   6  -8 12958.3 1906.27   1
  -3  -6   8 13486.9 1904.24   7
  -3  -6   8 14973.5 2068.97   5
   3   6  -8 14703.6 1778.42   3
  -3   6   8 16496.2 2142.77   4
   3  -6  -8 13995.9 2372.57   8
  -3  -6   7-210.700 397.637   7
   3   6  -7 179.389 464.116   3
  -3  -6   7 354.048 751.576   5
   3  -6  -7 1217.06 1050.55   8
  -3   6   7 506.803 484.142   4
   3   6  -7 36.3162 516.502   1
  -3  -6   6 752.552 640.380   7
  -3  -6   6-61.8235 541.297   5
  -3   6   6 541.918 485.622   4
   3   6  -6 678.242 537.998   3
  -3  -6   6 409.613 286.681   9
   3  -6  -6 2004.63 1179.37   8
   3   6  -6 155.094 494.067   1
   3   6  -5 284.611 518.929   1
  -3  -6   5 415.826 462.745   7
  -3   6   5 229.780 254.596   1
   3   6  -5 660.814 503.319   3
   3   6  -5 630.943 280.294  10
  -3  -6   5 444.303 305.770   9
   3  -6  -5-322.313 800.222   8
  -3  -6   5 488.252 485.475   5
  -3   6   5 781.322 568.967   4
   3   6  -4 1661.72 791.712   1
  -3   6   4 1221.85 599.334   4
  -3   6   4 2432.37 535.058   1
   3   6  -4 1320.27 412.894  10
  -3  -6   4 1012.32 456.391   7
  -3  -6   4 1062.26 542.234   5
  -3  -6   4 843.532 371.528   9
   3  -6  -4 697.332 671.944   8
  -3  -6   3 1154.85 552.040   7
  -3  -6   3 1032.61 574.169   5
  -3   6   3 1106.87 472.841  10
  -3  -6   3 1092.90 460.283   9
  -3   6   3 629.614 410.252   1
   3  -6  -3 1139.07 842.424   8
   3   6  -3 1242.24 781.597   1
  -3   6   3 1208.56 521.186   4
  -3   6   2 2667.47 721.358  10
  -3  -6   2 3071.78 828.111   7
   3  -6  -2 3085.40 690.715   7
  -3  -6   2 3884.22 785.950   5
   3   6  -2 2157.06 856.064   1
   3  -6  -2 3379.95 948.658   8
  -3   6   2 4442.14 818.037   1
  -3   6   2 4224.45 758.970   4
  -3  -6   1 3519.75 936.539   7
  -3  -6   1 3191.17 708.282   5
  -3   6   1 1540.48 498.282   1
   3   6  -1 1007.66 786.048   1
  -3  -6   1 1653.44 381.691   6
  -3   6   1 1804.80 273.330   6
  -3   6   1 1752.04 656.983  10
   3  -6  -1 881.604 458.580   8
   3  -6  -1 1894.81 518.451   7
  -3   6   1 1967.54 508.959   4
  -3   6   0 7823.96 936.418   1
   3  -6   0 6567.40 818.001   7
   3  -6   0 9056.79 1278.44   9
   3   6   0 9130.88 1433.89   1
  -3  -6   0 8121.59 1270.55   7
  -3   6   0 8215.89 837.556   4
  -3   6   0 7574.76 1126.11  10
  -3  -6   0 8400.78 773.313   6
  -3  -6  -1 27864.9 2279.20   7
  -3   6  -1 28409.1 2219.61  10
  -3  -6  -1 29650.7 2183.54   8
  -3  -6  -1 27762.7 1454.12   6
   3  -6   1 30878.6 2333.49   9
   3   6   1 26558.1 2553.47   1
  -3   6  -1 29443.6 1366.51   4
  -3   6  -1 28283.3 1849.43   1
   3  -6   1 27025.0 1662.00   7
  -3  -6  -2 19259.8 2032.71   7
  -3   6  -2 21625.6 1945.90  10
   3  -6   2 20667.5 1967.92   9
  -3  -6  -2 20901.5 1917.98   8
   3   6   2 20305.0 2392.19   1
   3  -6   2 20031.7 1486.15   7
  -3  -6  -3 44729.4 3178.80   7
  -3   6  -3 47279.6 2967.46  10
   3   6   3 45407.0 3363.00   1
   3  -6   3 44470.1 2962.59   9
  -3  -6  -3 44773.1 2963.59   8
   3  -6   3 45494.4 2408.70   7
  -3   6  -4 10336.9 1518.20   3
  -3   6  -4 6041.04 1075.79  10
   3  -6   4 7367.59 1228.99   9
  -3  -6  -4 9238.42 1397.15   8
   3   6   4 8252.60 1385.55   1
   3  -6   4 8722.29 1101.24   7
  -3   6  -5 52188.7 3257.15  10
  -3   6  -5 54721.5 3624.06   3
   3  -6   5 57157.6 3554.51   9
  -3  -6  -5 56752.4 3711.52   8
   3   6   5 53491.9 3571.20   1
   3  -6   5 59589.3 3095.80   7
   3  -6   6 41116.4 3082.92   9
  -3   6  -6 35428.1 2705.14  10
  -3  -6  -6 38082.8 3262.66   8
   3   6   6 35630.8 2947.27   1
  -3   6  -6 35904.2 3023.00   3
   3  -6   6 39504.2 2643.11   7
  -3   6  -7 11278.1 1541.32  10
   3  -6   7 12480.2 1747.03   9
  -3   6  -7 11862.4 1809.63   3
   3   6   7 10992.6 1688.76   1
  -3  -6  -7 10165.4 1882.60   8
   3   6   8 4111.57 1179.34   4
  -3   6  -8 1631.25 794.288   3
  -3   6  -8 1205.66 570.154  10
   3  -6   8 2123.66 781.598   9
  -3  -6  -8 2843.71 1131.38   8
   3   6   8 2087.51 920.538   1
   3   6   9 6055.70 1421.42   4
  -3   6  -9 8823.99 1740.60   3
  -3   6  -9 8510.93 1400.52  10
   3  -6   9 7597.45 1453.37   9
  -3  -6  -9 7952.07 1777.88   8
   3   6  10 281.186 566.464   4
  -3   6 -10 853.710 813.012   3
   3  -6  10 848.556 481.971   9
  -3  -6 -10 896.380 983.087   8
   3  -6  11 7562.93 1557.84   9
  -3  -6 -11 2332.27 1434.90   8
  -3  -7  10 2045.12 1066.66   7
   3   7 -10 473.235 538.724   3
   3  -7 -10 2919.91 1588.89   8
  -3  -7  10 511.473 765.376   5
  -3   7  10 305.338 599.066   4
   3   7 -10-547.688 640.127   1
  -3  -7   9 9687.30 1744.50   7
   3   7  -9 8823.40 1598.60   3
  -3  -7   9 9059.17 1837.15   5
   3  -7  -9 8453.09 2131.06   8
  -3   7   9 8325.91 1684.16   4
   3   7  -9 8946.72 1721.30   1
  -3  -7   8 702.916 683.715   7
   3   7  -8 822.542 662.043   3
  -3  -7   8-254.296 654.285   5
   3  -7  -8 1821.83 1179.51   8
  -3   7   8 2105.39 878.339   4
   3   7  -8 2847.93 1012.07   1
   3   7  -7 39433.1 3359.61   1
  -3  -7   7 46323.1 3547.09   7
  -3  -7   7 49725.4 3813.42   5
   3   7  -7 47080.4 3222.58   3
   3  -7  -7 43152.8 3837.73   8
  -3   7   7 45004.9 3554.27   4
   3   7  -6 6979.56 1389.70   1
  -3  -7   6 6658.52 1287.97   7
  -3   7   6 6436.96 1265.24   4
   3   7  -6 8175.10 1264.42   3
  -3  -7   6 8360.35 1540.15   5
   3  -7  -6 6604.34 1552.87   8
   3   7  -5 46067.8 3429.95   1
  -3  -7   5 46104.2 2654.11   9
  -3  -7   5 46305.0 3346.92   5
   3  -7  -5 44195.7 3503.67   8
  -3   7   5 47734.8 3317.50   4
  -3  -7   5 42971.2 3191.36   7
   3   7  -4 5694.73 1279.55   1
   3   7  -4 6844.59 942.836  10
  -3  -7   4 8679.98 1379.69   5
  -3  -7   4 8336.12 1111.10   9
   3  -7  -4 10131.7 1638.70   8
  -3   7   4 8785.25 1311.11   4
  -3  -7   4 8936.59 1472.59   7
  -3  -7   3 178116. 6824.63   7
  -3   7   3 172180. 6769.25  10
   3  -7  -3 182753. 6126.17   7
  -3  -7   3 173662. 6452.38   5
  -3  -7   3 176576. 5975.09   9
  -3   7   3 172462. 5715.06   1
   3   7  -3 167215. 6826.98   1
   3  -7  -3 166921. 6897.99   8
  -3   7   3 185144. 6477.01   4
  -3  -7   2 45927.3 3101.07   7
   3  -7  -2 44943.8 2554.48   7
  -3   7   2 42744.2 3002.47  10
  -3  -7   2 43491.5 2727.05   5
  -3   7   2 43530.3 2506.01   1
   3  -7  -2 42552.2 3072.04   8
  -3   7   2 39864.6 2534.35   4
   3   7  -2 35273.4 2860.77   1
   3  -7  -1 13289.4 1307.92   7
  -3   7   1 10238.9 1432.63  10
  -3  -7   1 9091.92 1161.65   5
   3  -7  -1 11383.2 1515.73   9
  -3   7   1 11153.9 1232.84   1
  -3  -7   1 8318.78 1408.97   7
   3   7  -1 11541.9 1688.70   1
  -3   7   1 10499.4 1149.40   4
  -3  -7   0 2623.65 614.127   5
   3  -7   0 3311.13 839.248   9
  -3   7   0 2999.92 707.544   1
   3  -7   0 3500.03 693.958   7
  -3   7   0 3050.35 743.424  10
   3   7   0 1971.91 956.438   1
  -3  -7   0 3093.17 894.234   7
  -3   7   0 3296.43 612.814   4
  -3  -7  -1 117507. 5336.90   7
  -3   7  -1 108508. 5023.34  10
   3  -7   1 111423. 5094.25   9
   3   7   1 101661. 5429.64   1
  -3   7  -1 112744. 4446.57   1
   3  -7   1 118135. 4248.88   7
  -3  -7  -2 21226.1 2232.05   7
  -3   7  -2 23780.5 1952.15   1
   3  -7   2 27586.4 2386.12   9
  -3   7  -2 23206.3 2143.21  10
   3   7   2 22985.7 2599.77   1
  -3  -7  -2 24276.8 2225.25   8
   3  -7   2 23850.7 1751.98   7
  -3  -7  -3 224401. 8308.47   7
  -3   7  -3 213650. 7724.28  10
   3  -7   3 230035. 8060.43   9
   3   7   3 211114. 8496.50   1
  -3  -7  -3 222800. 7990.07   8
  -3   7  -3 231846. 7545.33   1
   3  -7   3 240776. 7049.61   7
   3  -7   4 394.646 364.843   7
  -3  -7  -4 91.4780 775.658   7
  -3  -7  -4 278.912 738.416   8
   3  -7   4 639.030 382.315   9
   3   7   4-411.637 837.414   1
  -3   7  -4 233.757 526.226  10
  -3   7  -5 59383.3 3659.32  10
   3  -7   5 54002.6 3660.69   9
  -3  -7  -5 54365.5 3783.14   8
   3   7   5 52842.8 3769.24   1
   3  -7   5 56450.3 3184.27   7
   3  -7   6 2954.26 778.892   7
  -3   7  -6 3679.20 946.058  10
  -3   7  -6 5798.10 1305.06   3
   3  -7   6 3722.10 975.894   9
   3   7   6 2331.52 872.446   1
  -3  -7  -6 5486.90 1384.92   8
  -3   7  -7 58042.4 4273.84   3
  -3  -7  -7 53411.1 4165.39   8
  -3   7  -7 62091.7 3854.71  10
   3  -7   7 60163.5 4064.16   9
   3   7   7 59066.6 4114.32   1
   3   7   8 449.768 639.825   4
  -3   7  -8 432.350 434.551  10
  -3   7  -8 248.972 679.473   3
   3  -7   8 1055.95 630.055   9
   3   7   8-1781.54 802.718   1
  -3  -7  -8 568.242 934.737   8
   3   7   9 14589.5 2303.47   4
  -3  -7  -9 13808.0 2456.57   8
  -3   7  -9 16493.5 2414.19   3
   3  -7   9 15002.2 2107.85   9
   3  -7  10-268.416 437.572   9
  -3  -7 -10 1986.38 1252.13   8
   3   8  -9 6827.09 1710.73   1
  -3  -8   9 3275.37 1243.79   5
  -3  -8   9 5541.86 1388.77   7
  -3   8   9 5759.08 1467.00   4
   3  -8  -9 4164.10 1425.72   8
  -3  -8   8 57547.7 4492.34   5
   3   8  -8 71122.8 4950.47   1
  -3   8   8 60818.0 4514.37   4
   3  -8  -8 60286.6 4911.43   8
  -3  -8   8 65236.2 4576.22   7
   3   8  -7 7166.85 1603.52   1
  -3  -8   7 9738.18 1730.59   7
  -3  -8   7 6906.29 1552.20   5
   3  -8  -7 8181.64 1734.94   8
  -3   8   7 8964.84 1646.71   4
   3   8  -6 32526.8 3131.72   1
   3  -8  -6 42028.9 3676.16   8
  -3   8   6 37531.9 3208.44   4
  -3  -8   6 33105.6 3075.57   5
  -3  -8   6 39973.6 3323.26   7
  -3  -8   5 332.782 538.888   7
  -3  -8   5 800.832 797.202   5
   3   8  -5 440.570 693.683   1
  -3  -8   5 151.911 258.894   9
   3  -8  -5 468.357 639.873   8
   3  -8  -5 2362.98 900.595   7
  -3   8   5 773.774 497.171   4
   3  -8  -4 5611.93 1143.39   7
   3   8  -4 5109.90 935.707  10
  -3   8   4 5652.24 1257.37  10
  -3  -8   4 3272.44 919.303   5
  -3  -8   4 6067.58 1278.47   7
  -3  -8   4 3018.82 742.285   9
   3  -8  -4 4567.16 1250.76   8
   3   8  -4 4381.44 1164.53   1
  -3   8   4 3913.98 961.613   4
   3  -8  -3 148.130 384.255   7
  -3  -8   3 678.614 412.042   9
   3   8  -3-868.014 809.701   1
  -3   8   3-709.389 518.109  10
   3   8  -3 315.688 434.832  10
  -3  -8   3 2092.42 880.396   5
   3  -8  -3-109.280 474.837   8
  -3  -8   3 183.162 522.523   7
  -3   8   3 1056.51 583.299   4
   3  -8  -2 2119.45 624.379   7
  -3  -8   2 4276.69 1074.41   7
  -3   8   2 2000.99 765.693  10
   3   8  -2 1624.17 984.375   1
   3  -8  -2 1453.12 741.625   8
  -3  -8   2 5362.09 1093.32   5
  -3   8   2 2469.22 695.785   4
  -3  -8   1 1523.65 764.552   7
   3  -8  -1 411.705 442.874   7
  -3   8   1 467.227 500.517  10
  -3  -8   1 287.106 348.896   5
   3   8  -1 380.085 737.010   1
  -3   8   1 758.291 563.620   1
   3  -8  -1 1044.38 643.573   9
  -3   8   1 180.140 294.242   4
   3  -8   0 20464.9 1736.52   7
  -3  -8   0 19824.0 2225.63   7
  -3   8   0 20015.4 2134.42  10
  -3   8   0 16807.6 1650.82   1
   3  -8   0 22788.6 2289.50   9
   3   8   0 15632.6 2158.93   1
   3  -8   1 1.03864 262.487   7
  -3  -8  -1 619.392 576.500   7
  -3   8  -1 177.094 431.878   1
  -3   8  -1-47.8061 264.536  10
   3  -8   1 53.2627 406.700   9
   3   8   1 657.853 954.310   1
  -3  -8  -2 706.689 665.369   8
  -3   8  -2 1121.47 580.148   1
   3   8   2 1513.29 1133.30   1
   3  -8   2 485.699 353.931   7
  -3  -8  -2 2472.60 961.770   7
   3  -8   2 714.271 391.509   9
  -3   8  -2 122.158 413.600  10
  -3   8  -3 6428.40 1185.31   1
   3  -8   3 4283.46 810.022   7
  -3   8  -3 4266.17 1028.75  10
  -3  -8  -3 4773.40 1213.93   7
   3   8   3 4604.03 1453.33   1
   3  -8   3 4924.32 1110.36   9
  -3  -8  -3 4245.46 1145.07   8
   3  -8   4 2287.52 654.230   7
  -3  -8  -4 2202.47 987.091   7
   3  -8   4 3161.21 964.177   9
  -3   8  -4 1051.42 585.697  10
  -3  -8  -4 1321.84 801.097   8
   3   8   4 988.883 849.241   1
  -3   8  -4 1917.43 777.170   1
   3  -8   5 1036.05 473.896   7
   3   8   5 1185.59 731.292   1
  -3  -8  -5 1227.75 900.166   8
  -3   8  -5 1463.23 649.659  10
   3  -8   5 1275.48 668.656   9
  -3  -8  -5 790.746 885.739   7
   3   8   6 8645.11 1634.57   1
  -3   8  -6 9646.98 1572.49  10
  -3  -8  -6 10793.8 1910.49   8
   3  -8   6 9714.47 1659.76   9
   3   8   7 913.330 841.389   4
   3  -8   7 2227.38 905.678   9
   3   8   7 1074.61 706.052   1
  -3   8  -7 571.568 423.976  10
  -3  -8  -7 2121.75 1178.86   8
   3   8   8 838.478 688.222   4
   3  -8   8 364.356 655.028   9
  -3  -8  -8-538.024 921.673   8
  -3   8  -8 1710.40 1079.11   3
   3   8   8-479.810 688.696   1
  -3  -8  -9 1570.51 1251.31   8
   3  -8   9 1008.23 543.573   9
  -3  -9   8-47.3844 586.587   7
   3   9  -8 1016.32 897.968   1
  -3  -9   8 992.366 930.410   5
   3  -9  -8 815.970 917.651   8
  -3   9   8 747.795 620.324   4
   3   9  -7 19179.8 2627.06   1
  -3  -9   7 17686.2 2434.44   5
  -3   9   7 23532.9 2758.23   4
   3  -9  -7 20866.5 2865.12   8
  -3  -9   7 23371.0 2707.22   7
  -3  -9   6 4768.50 1259.26   7
   3  -9  -6 8835.90 1571.45   7
   3   9  -6 6570.06 1559.23   1
  -3   9   6 6470.90 1427.22  10
  -3  -9   6 7752.50 1577.62   5
   3  -9  -6 7165.06 1766.22   8
  -3   9   6 7563.17 1522.46   4
  -3   9   5 2256.52 897.255  10
  -3  -9   5 4124.28 1170.70   7
   3  -9  -5 4779.61 1169.89   7
   3   9  -5 4802.02 1279.88   1
  -3  -9   5 2615.79 1056.17   5
   3  -9  -5 4751.12 1401.37   8
  -3   9   5 3635.43 988.980   4
   3  -9  -4 32656.0 2662.49   7
  -3   9   4 25499.3 2749.32  10
  -3  -9   4 28985.4 2468.44   9
  -3  -9   4 29985.8 2768.85   5
   3   9  -4 23867.8 2737.37   1
  -3   9   4 31158.4 2762.97   4
   3  -9  -4 28434.4 2970.25   8
  -3  -9   4 29121.3 2874.21   7
   3  -9  -3 3890.16 914.634   7
   3   9  -3 3583.08 859.421  10
   3   9  -3 1468.88 841.936   1
  -3  -9   3 3135.99 920.294   5
  -3   9   3 2410.75 921.187  10
  -3  -9   3 2609.11 793.553   9
   3  -9  -3 2802.63 894.196   8
  -3   9   3 4207.89 1008.24   4
  -3  -9   3 3424.78 1074.15   7
  -3  -9   2 533.343 489.352   7
   3   9  -2 1793.12 973.852   1
  -3   9   2 661.139 647.075  10
  -3  -9   2 1410.63 600.732   5
   3  -9  -2 1659.65 707.439   7
  -3   9   2 1456.71 616.431   4
   3  -9  -1 7319.30 1144.62   7
  -3  -9   1 11375.9 1793.07   7
   3   9  -1 6887.08 1509.34   1
  -3   9   1 7637.13 1427.52  10
   3  -9  -1 8427.15 1497.68   9
  -3  -9   0 38625.4 3265.45   7
  -3   9   0 40831.4 3279.32  10
   3   9   0 32251.2 3286.96   1
   3  -9   0 37318.4 3159.21   9
  -3   9  -1 488.159 428.704   1
  -3  -9  -1 920.942 631.143   7
   3  -9   1-206.782 452.742   9
  -3   9  -1 1777.13 731.432  10
   3   9   1 1090.35 1061.03   1
  -3   9  -2 15565.8 2019.66  10
   3   9   2 18968.6 2644.09   1
  -3   9  -2 15581.4 1822.36   1
   3  -9   2 14646.2 1993.32   9
  -3  -9  -2 16747.0 2211.25   7
  -3   9  -3 2335.56 878.279   1
   3  -9   3 2460.59 900.289   9
  -3  -9  -3 3276.67 1172.56   7
  -3   9  -3 3053.03 943.261  10
   3   9   3 5061.12 1532.64   1
  -3  -9  -3 4116.67 1100.02   8
  -3   9  -4 12168.5 1748.60   1
   3  -9   4 12918.8 1909.67   9
  -3  -9  -4 13887.4 2146.61   7
  -3   9  -4 13105.5 1865.08  10
   3   9   4 12659.0 2120.76   1
  -3  -9  -4 8068.63 1560.50   8
   3   9   5 1736.68 997.913   1
  -3   9  -5 469.057 475.699  10
   3  -9   5 768.091 611.864   9
  -3  -9  -5 2121.98 1151.94   7
  -3  -9  -5 773.396 759.521   8
  -3   9  -5 1311.70 864.005   1
  -3   9  -6 4362.20 1159.77  10
  -3  -9  -6 6332.30 1565.19   7
  -3  -9  -6 7711.03 1680.03   8
   3  -9   6 5470.74 1347.54   9
   3   9   6 4664.87 1299.87   1
  -3   9  -6 3578.19 1078.53   1
   3   9   7 4273.32 1372.42   4
  -3  -9  -7 7100.63 1843.38   7
   3   9   7 3692.82 1245.54   1
  -3   9  -7 4470.70 1239.83   1
  -3   9  -7 4922.38 1214.06  10
   3  -9   7 2666.20 985.955   9
  -3  -9  -7 6017.98 1643.78   8
   3  -9   8 3080.99 1060.02   9
  -3  -9  -8 2168.50 1036.93   8
   3   9   8 2635.47 976.589   1
  -3 -10   7 13276.6 2154.18   7
  -3  10   7 10915.3 2021.59  10
   3  10  -7 10216.2 2082.33   1
  -3 -10   7 9460.29 1860.08   5
   3 -10  -7 12905.4 2350.23   8
  -3  10   7 10157.0 1919.25   4
  -3  10   6 28903.7 3182.59  10
   3  10  -6 27988.7 3278.80   1
  -3 -10   6 28231.7 3079.54   5
   3 -10  -6 24521.9 3104.90   8
  -3  10   6 27960.1 3004.69   4
  -3 -10   6 24040.5 2828.49   7
  -3 -10   5 3202.55 1152.28   7
   3  10  -5 1949.13 975.367   1
  -3  10   5 2702.95 958.272   4
  -3  10   5 2698.54 1034.39  10
  -3 -10   5 3669.66 1247.26   5
   3 -10  -5 2566.00 1171.63   8
  -3  10   4 23484.4 2755.26  10
   3 -10  -4 20912.9 2683.74   8
  -3 -10   4 17568.3 2224.42   5
  -3  10   4 18316.1 2222.47   4
  -3 -10   4 20626.2 2561.34   7
  -3  10   3 13781.2 2112.66  10
   3  10  -3 20181.3 2193.53  10
  -3 -10   3 18989.6 2189.23   5
  -3 -10   3 19568.1 2485.60   7
  -3 -10   3 18452.9 2141.95   9
   3  10  -3 14933.5 2345.75   1
  -3 -10   2 35539.4 3315.21   7
  -3  10   2 39535.2 3520.41  10
   3  10  -2 34493.9 2960.40  10
  -3 -10   2 36688.6 3058.33   9
   3 -10  -2 34882.9 3324.84   9
   3  10  -2 30817.8 3315.27   1
   3  10  -1 3372.59 1352.42   1
  -3 -10   1 5321.35 1316.02   7
  -3  10   1 2854.65 966.415  10
   3 -10  -1 4037.03 1138.56   9
  -3 -10   0 27748.7 2879.58   7
  -3  10   0 21501.4 2564.17  10
   3 -10   0 22360.4 2590.96   9
   3  10   0 21486.1 2911.00   1
  -3 -10  -1 49028.7 3996.80   7
  -3  10  -1 52191.2 4004.43  10
   3 -10   1 54692.4 4106.92   9
   3  10   1 45180.3 4339.49   1
  -3 -10  -2 85377.9 5355.11   7
  -3  10  -2 80132.9 5044.34  10
   3  10   2 81608.3 5770.11   1
   3 -10   2 84679.7 5235.85   9
  -3 -10  -3 760.924 847.739   7
   3  10   3-700.269 1137.74   1
  -3  10  -3 1214.46 744.180  10
   3 -10   3 1455.64 831.265   9
  -3 -10  -4 1241.86 1058.36   7
  -3  10  -4 261.427 566.951  10
  -3 -10  -4 525.000 625.023   8
   3  10   4-396.339 811.226   1
  -3  10  -4 779.839 728.270   1
   3 -10   4 1468.90 828.154   9
  -3  10  -5 7399.71 1593.68   1
   3  10   5 9157.36 1864.03   1
  -3 -10  -5 10915.3 2037.97   7
   3 -10   5 9505.26 1809.70   9
  -3 -10  -5 8850.22 1810.96   8
  -3  10  -5 7703.06 1564.02  10
  -3 -10  -6 94318.4 6060.99   7
  -3  10  -6 85496.0 5406.34   1
   3 -10   6 85260.8 5498.64   9
  -3 -10  -6 84952.5 5617.96   8
  -3  10  -6 79737.0 5099.20  10
   3  10   6 79230.3 5530.89   4
   3  10   6 74224.5 5201.32   1
  -3  10  -7 2739.20 1088.81   1
   3  10   7 827.858 593.176   1
  -3 -11   6 1658.06 996.006   5
  -3  11   6 860.270 597.716   4
  -3 -11   5 3590.07 1212.48   7
  -3 -11   5 3887.42 1279.52   5
  -3 -11   4 2067.11 895.879   7
   3  11  -4 3701.26 1394.00   1
  -3  11   4 4612.19 1380.29  10
  -3 -11   3 19872.0 2638.98   7
  -3  11   3 20082.3 2665.94  10
   3  11  -3 21465.5 2978.93   1
   3 -11  -3 15527.4 2368.32   9
   3  11  -2 1504.45 814.917  10
  -3 -11   2 2179.07 954.236   7
  -3 -11   2 2903.11 996.144   9
  -3  11   2 2137.85 993.494  10
   3 -11  -2 2385.45 1041.32   9
   3  11  -2 3107.17 1284.32   1
  -3 -11   1 6033.42 1484.36   7
   3  11  -1 4869.62 1217.53  10
   3 -11  -1 7323.06 1702.99   9
   3  11  -1 6205.47 1752.15   1
  -3  11   1 6399.73 1524.53  10
  -3  11   0-782.970 624.575  10
   3 -11   0 414.355 504.603   9
  -3 -11   0-209.766 538.159   7
   3  11   0 883.702 1044.84   1
   3  11   1 4121.74 1644.32   1
  -3  11  -1 4677.60 1306.08  10
  -3 -11  -1 8333.26 1714.15   7
   3 -11   1 8342.24 1703.91   9
  -3 -11  -2 3934.32 1299.54   7
  -3  11  -2 1805.62 857.792  10
   3 -11   2 4532.53 1305.31   9
  -3 -11  -3-441.225 796.461   7
   3  11   3 74.1723 837.268   1
   3 -11   3 227.435 580.840   9
  -3  11  -3 512.714 571.075  10
  -3 -11  -4 886.181 933.284   7
  -3  11  -4-384.314 556.511  10
   3 -11   4-357.943 531.890   9
   3  11   4-749.531 1188.42   1
   3  11   5 2014.64 1010.06   1
  -3  11  -5 877.119 664.702  10
   3  12  -1 18505.2 2497.30  10
  -3 -12   1 14241.5 2185.04   9
   3  12   0 18673.6 2551.85  10
  -4   0  13 251.874 615.098   4
   4   0 -13 3058.12 1406.33   8
  -4   0  12 27337.1 2824.03   4
   4   0 -12 28155.1 3059.46   8
  -4   0  11 86.0068 345.931   4
   4   0 -11-35.4068 521.731   8
  -4   0  10 73241.2 4346.99   4
   4   0 -10 82977.9 4716.52   8
  -4   0   9 259.262 419.427   4
   4   0  -9 299.733 472.206   8
   4   0  -9 106.425 298.947   2
  -4   0   8 9512.85 1378.49   4
   4   0  -8 6785.43 1182.72   8
   4   0  -8 6747.46 998.321   2
  -4   0   7 445.950 518.381   4
   4   0  -7 248.397 297.198   2
   4   0  -7-396.323 355.640   8
  -4   0   6 25388.8 974.808  10
  -4   0   6 26103.2 983.906  10
   4   0  -6 24777.1 1791.24   2
  -4   0   6 26700.3 2026.48   4
   4   0  -6 24303.3 1832.14   8
  -4   0   5 528.260 509.588   6
  -4   0   5-4.61272 74.3569  10
  -4   0   5 166.622 102.918  10
   4   0  -5-113.260 85.5710   9
  -4   0   5 61.2956 284.238   4
   4   0  -5 206.572 282.209   2
   4   0  -5 292.936 327.446   8
  -4   0   5 442.946 381.455   7
   4   0  -4 131877. 3016.74   9
  -4   0   4 130564. 4516.10   6
   4   0  -4 127942. 3009.31   9
   4   0  -4 132462. 4398.06   2
  -4   0   4 136242. 3248.44  10
  -4   0   4 131302. 4542.06   4
   4   0  -4 135138. 4123.99   8
  -4   0   4 132678. 4154.00   7
  -4   0   3 462.117 256.373   7
   4   0  -3 216.618 189.161   1
   4   0  -3 59.3566 68.7999   9
  -4   0   3 140.980 120.214  10
  -4   0   3-37.6980 340.488   6
   4   0  -3-38.3797 224.920   2
  -4   0   3-39.0502 262.948   4
   4   0  -3 127.632 183.664   8
  -4   0   2 367030. 8761.61   4
   4   0  -2 351473. 7492.73   9
  -4   0   2 349029. 8744.04   6
   4   0  -2 373921. 8048.22   1
   4   0  -2 351216. 8708.76   2
   4   0  -2 353336. 7706.34   8
  -4   0   2 363395. 7948.66  10
  -4   0   2 357874. 7957.16   7
   4   0  -1 220.378 341.475   1
  -4   0   1 224.160 156.000   7
   4   0  -1 363.560 174.507   3
   4   0  -1 179.884 132.198   9
  -4   0   1 613.023 307.457   4
  -4   0   1-92.0515 149.131  10
   4   0  -1 192.756 104.765   8
  -4   0   0 10477.5 685.069   7
  -4   0   0 11773.7 935.658  10
   4   0   0 11070.1 823.044   9
   4   0   0 9980.19 819.130   1
  -4   0  -1 163.079 214.083   3
  -4   0  -1 63.8154 169.427  10
   4   0   1-34.4543 173.042   9
   4   0   1 135.405 198.066   1
  -4   0  -1-5.39659 63.2701   8
  -4   0  -2 952.838 380.774  10
  -4   0  -2 1127.05 321.256   3
   4   0   2 1545.71 391.657   9
   4   0   2 1162.50 372.680   1
  -4   0  -2 1560.69 283.630   8
  -4   0  -3-32.3302 231.811  10
   4   0   3-69.5745 213.785   9
  -4   0  -3 23.8979 253.226   3
  -4   0  -3 207.157 185.936   8
  -4   0  -4 16197.9 1374.36   3
  -4   0  -4 14593.0 1410.59  10
   4   0   4 16155.6 1458.55   9
   4   0   4 16453.3 904.755   2
  -4   0  -4 16349.1 1212.80   8
  -4   0  -5 833.285 463.819  10
   4   0   5 211.507 430.795   9
  -4   0  -5-68.9682 338.181   3
   4   0   5 89.7931 91.8769   2
  -4   0  -5-144.186 259.316   8
  -4   0  -6 24321.6 2018.47   3
  -4   0  -6 23125.6 2012.09  10
   4   0   6 25312.9 2140.15   9
  -4   0  -6 22670.2 1814.65   8
   4   0   6 26780.4 1854.68   4
   4   0   7 335.951 284.212   4
  -4   0  -7 397.219 547.929  10
   4   0   7 171.218 516.914   9
  -4   0  -7 74.1428 368.322   3
  -4   0  -7-112.520 297.648   8
   4   0   8 1305.74 677.334   9
  -4   0  -8 1220.83 607.324   3
  -4   0  -8 458.895 406.663  10
  -4   0  -8 1086.79 546.002   8
   4   0   8 1811.78 590.615   4
  -4   0  -9 639.944 522.399   3
  -4   0  -9 567.858 522.273  10
   4   0   9-283.424 416.848   9
  -4   0  -9 661.892 641.585   8
   4   0   9-136.279 281.863   4
  -4   0 -10 7444.92 1495.04   3
   4   0  10 10425.8 1710.73   9
  -4   0 -10 10801.7 1656.16  10
  -4   0 -10 11629.8 1779.97   8
  -4   0 -11-270.375 383.361  10
  -4   0 -11-166.560 637.654   3
   4   0  11 401.783 684.602   9
  -4   0 -12 46121.8 4144.49   3
   4   0  12 47431.1 4081.16   9
  -4   0 -12 56982.7 4513.82   8
  -4   0 -12 52607.1 3979.04  10
   4   1 -13 7585.75 1594.18   3
  -4  -1  13 3714.30 1111.04   4
  -4   1  13 6534.24 1479.16   4
   4  -1 -13 7135.56 1712.20   8
   4   1 -13 7230.33 1720.75   8
   4   1 -12 2779.62 1015.52   3
  -4  -1  12 2948.16 950.776   4
  -4   1  12 3646.84 1073.75   4
   4  -1 -12 3037.67 1147.71   8
   4   1 -12 5464.59 1462.94   8
  -4  -1  11 28332.0 2702.36   4
  -4   1  11 22749.8 2510.45   4
   4  -1 -11 20829.9 2548.99   8
   4   1 -11 27795.9 2810.50   8
   4  -1 -10 4209.07 838.834   2
  -4  -1  10 5922.03 1202.56   4
  -4   1  10 3849.62 1024.67   4
   4  -1 -10 4181.19 1008.39   8
   4   1 -10 5565.85 1232.76   8
   4   1  -9 101242. 4184.68   2
   4   1  -9 100739. 4945.67   8
  -4  -1   9 93752.5 4676.50   4
  -4   1   9 95499.7 4855.70   4
   4  -1  -9 91324.9 4154.94   2
   4  -1  -9 96391.5 4948.01   8
   4   1  -8-177.611 485.869   8
  -4  -1   8-54.5962 312.792   4
  -4   1   8 148.985 399.366   4
   4  -1  -8 11.3150 475.333   8
   4  -1  -8 344.778 384.346   2
   4   1  -8-121.898 306.418   2
  -4   1   7 2046.64 365.573  10
  -4  -1   7 1951.27 665.031   4
   4   1  -7 1675.83 504.104   2
  -4   1   7 2236.21 748.865   4
   4  -1  -7 1577.42 635.592   8
   4   1  -7 1992.22 640.607   8
   4  -1  -7 1832.66 575.232   2
  -4  -1   6 210.807 390.922   7
  -4   1   6 67.1284 124.841  10
   4   1  -6-170.911 287.399   2
  -4  -1   6 844.037 397.370   4
  -4   1   6-71.7957 428.562   4
   4  -1  -6 550.836 471.340   8
   4   1  -6 5.70798 267.691   8
   4  -1  -6 661.152 397.718   2
   4  -1  -5 309018. 8326.17   2
  -4   1   5 317366. 7203.71  10
  -4   1   5 300825. 8438.16   6
  -4  -1   5 308244. 8619.59   6
   4   1  -5 298392. 8126.47   2
  -4   1   5 309241. 8590.30   4
  -4  -1   5 309795. 8536.26   4
   4  -1  -5 307400. 8261.87   8
  -4  -1   5 304871. 8264.26   7
   4   1  -4 6335.65 767.756   1
  -4   1   4 8577.96 714.735  10
  -4  -1   4 8468.66 1021.80   6
  -4   1   4 7039.49 929.596   6
   4  -1  -4 7803.80 941.723   2
  -4  -1   4 8724.21 1017.64   4
  -4   1   4 8301.72 1005.11   4
   4  -1  -4 8260.19 903.504   8
  -4  -1   4 8211.74 919.412   7
   4  -1  -3 81765.6 2207.49   1
  -4   1   3 84119.7 3190.51   6
  -4  -1   3 84892.9 2164.94  10
   4   1  -3 77990.1 2843.45   1
   4   1  -3 82964.0 2176.51  10
  -4  -1   3 79033.5 3217.29   6
   4  -1  -3 78655.1 2452.03   9
   4  -1  -3 86110.5 3266.62   2
  -4  -1   3 81905.2 3260.15   4
  -4   1   3 85101.2 3235.38   4
   4  -1  -3 77499.1 2853.85   8
  -4  -1   3 79640.8 2936.67   7
  -4   1   3 86695.1 2715.62  10
  -4  -1   2 113552. 3847.90   6
  -4   1   2 114767. 3780.20   6
  -4  -1   2 113881. 3053.19  10
   4   1  -2 114242. 3544.80   1
   4   1  -2 108633. 2587.44   9
  -4  -1   2 114236. 2590.15   9
   4  -1  -2 110034. 3158.93   9
  -4  -1   2 112838. 3828.90   4
   4  -1  -2 106635. 2751.76   1
   4  -1  -2 112175. 3790.45   2
  -4   1   2 109691. 3646.60   4
   4  -1  -2 109466. 3391.46   8
  -4   1   2 113755. 3414.48  10
  -4  -1   2 112585. 3446.72   7
   4  -1  -2 125709. 3018.74   7
  -4  -1   1 227944. 5881.01   7
   4  -1  -1 246435. 5116.13   7
   4   1  -1 243379. 5076.63   8
  -4   1   1 247588. 6164.77  10
  -4  -1   1 241188. 5859.78  10
   4   1  -1 233367. 5477.20   9
   4  -1  -1 239171. 5877.81   9
  -4   1   1 254042. 5383.71   1
   4   1  -1 245898. 6370.20   1
   4  -1  -1 239093. 6354.33   2
   4  -1  -1 244749. 5283.21   1
  -4   1   1 220378. 6026.02   4
   4  -1  -1 231020. 5422.85   8
  -4   1   1 257252. 5471.26   8
  -4   1   1 242946. 5071.04   7
   4   1   0 1620.61 599.565   1
  -4  -1   0 1265.76 375.193   7
   4  -1   0 1341.68 269.439   1
  -4  -1   0 1156.25 331.620  10
  -4   1   0 1747.88 417.628  10
   4   1   0 1596.57 316.618   9
   4  -1   0 1890.98 390.336   9
  -4   1   0 1136.59 138.058   7
  -4   1   0 1270.58 266.568   8
   4  -1   0 1270.47 344.389   2
  -4  -1  -1 30877.0 1695.75  10
  -4  -1  -1 30922.6 1230.36   3
  -4   1  -1 28032.0 1501.06   3
  -4   1  -1 28411.3 1676.00  10
   4   1   1 23820.3 1425.32   9
   4  -1   1 25526.0 1527.62   9
   4  -1   1 29229.1 1484.01   2
   4   1   1 27623.8 1719.28   1
  -4  -1  -1 26740.3 1063.36   8
  -4  -1  -2 693.655 237.854   3
  -4   1  -2 868.567 361.020  10
  -4  -1  -2 459.384 260.699  10
   4   1   2 1502.91 457.213   1
   4   1   2 918.060 325.865   9
   4  -1   2 820.843 320.168   9
  -4   1  -2 932.069 373.327   3
  -4  -1  -2 688.527 262.143   8
   4  -1   2 945.241 271.088   2
  -4  -1  -3 256459. 6704.78   3
  -4  -1  -3 254275. 7271.10  10
  -4   1  -3 261873. 7088.03   3
  -4   1  -3 259559. 7304.81  10
   4   1   3 251498. 7257.01   1
   4   1   3 258797. 7241.62   9
   4  -1   3 262685. 7295.07   9
   4  -1   3 266075. 6110.22   2
  -4  -1  -3 261119. 6449.84   8
  -4  -1  -4 69281.3 2988.44   3
  -4   1  -4 73857.7 3267.83   3
  -4  -1  -4 71065.5 3345.90  10
   4  -1   4 72000.7 3349.01   9
  -4   1  -4 75886.0 3393.80  10
   4   1   4 68744.5 3281.92   9
   4  -1   4 72504.4 2165.34   2
  -4  -1  -4 72556.9 2877.05   8
   4   1   4 71638.3 3329.46   1
  -4  -1  -5 41793.5 2434.04   3
  -4   1  -5 48661.0 2762.66   3
  -4  -1  -5 45525.3 2739.96  10
   4   1   5 46504.8 2789.52   9
   4  -1   5 45333.1 2725.13   9
  -4   1  -5 46083.4 2704.06  10
   4  -1   5 43578.8 1247.14   2
  -4  -1  -5 49118.3 2474.21   8
   4  -1   6 1823.55 456.960   4
  -4  -1  -6 1779.80 588.628  10
  -4  -1  -6 2504.85 729.326   3
  -4   1  -6 1384.99 580.034   3
   4   1   6 2898.08 798.870   9
   4  -1   6 1438.36 608.986   9
  -4   1  -6 985.436 517.338  10
  -4  -1  -6 1907.10 643.348   8
  -4  -1  -7 111989. 4950.27   3
  -4   1  -7 106375. 4986.25   3
  -4  -1  -7 112615. 5026.14  10
  -4   1  -7 115713. 4972.97  10
   4   1   7 107225. 5041.30   9
   4  -1   7 111979. 5073.27   9
   4  -1   7 110566. 4062.64   4
  -4  -1  -7 114184. 4805.06   8
   4   1   7 110681. 4667.63   4
  -4   1  -7 116957. 4858.97   8
  -4  -1  -8 16064.4 1884.38   3
  -4   1  -8 13263.1 1770.75   3
  -4   1  -8 12951.4 1650.18  10
   4   1   8 14916.2 1655.85   4
   4   1   8 14705.2 1825.68   9
  -4  -1  -8 16974.3 1916.08  10
  -4  -1  -8 18559.8 1932.75   8
  -4   1  -8 13256.9 1655.77   8
   4  -1   8 13756.8 1763.50   9
  -4  -1  -9 19035.6 2188.44   3
  -4   1  -9 17719.6 2176.31   3
   4   1   9 27171.9 2616.89   9
   4  -1   9 22226.1 2402.72   9
   4   1   9 23064.6 2180.40   4
  -4  -1  -9 22599.2 2355.13   8
  -4   1  -9 19827.5 2183.28   8
  -4  -1  -9 21613.3 2276.05  10
  -4   1  -9 22561.3 2239.46  10
  -4  -1 -10 14150.2 1907.60  10
  -4   1 -10 9451.68 1504.26  10
  -4   1 -10 13409.1 2032.28   3
   4   1  10 14179.6 2001.00   9
  -4  -1 -10 15035.8 2081.86   3
   4   1  10 13548.2 1757.55   4
   4  -1  10 11671.7 1827.62   9
  -4  -1 -10 8886.01 1595.99   8
  -4   1 -10 13280.9 1928.04   8
  -4  -1 -11 21812.0 2649.61   3
  -4   1 -11 23618.0 2820.72   3
  -4  -1 -11 19244.3 2332.11  10
   4  -1  11 15321.5 2174.66   9
  -4   1 -11 12289.5 1812.94  10
  -4  -1 -11 20493.2 2564.01   8
  -4   1 -11 16795.5 2283.18   8
   4   1  11 18108.1 2396.88   9
  -4  -1 -12 7000.92 1654.48   3
  -4  -1 -12 7056.50 1493.61  10
  -4   1 -12 8519.54 1841.50   3
   4   1  12 5027.54 1271.20   9
   4  -1  12 9531.47 1827.62   9
  -4  -1 -12 6816.93 1682.59   8
  -4   1 -12 6019.41 1471.47   8
   4   2 -13 20147.5 2576.12   3
  -4  -2  13 26769.0 2837.93   4
  -4   2  13 27573.2 3124.78   4
   4  -2 -13 26071.5 3308.47   8
   4   2 -13 29309.8 3271.86   8
   4   2 -12 513.371 526.461   3
  -4  -2  12 812.040 673.046   4
  -4   2  12 616.512 581.475   4
   4  -2 -12-211.520 1019.55   8
   4   2 -12 1065.30 904.218   8
   4   2 -11 4783.84 1154.32   3
  -4  -2  11 5084.23 1106.71   4
  -4   2  11 5332.44 1279.32   4
   4  -2 -11 5069.47 1366.56   8
   4   2 -11 6998.38 1478.79   8
   4   2 -10 118823. 5544.86   3
  -4  -2  10 140643. 6241.16   5
  -4  -2  10 131485. 5839.68   4
  -4   2  10 113367. 5828.58   4
   4  -2 -10 134833. 5448.80   2
   4  -2 -10 125499. 6316.97   8
   4   2 -10 132092. 6191.06   8
   4   2  -9 91833.6 4404.34   3
  -4  -2   9 89789.8 4729.85   5
   4   2  -9 93580.9 3999.07   2
  -4  -2   9 81641.9 4346.85   4
  -4   2   9 87996.0 4749.10   4
   4  -2  -9 91921.4 4269.62   2
   4  -2  -9 90499.2 4925.53   8
   4   2  -9 87438.3 4629.14   8
   4   2  -8 8219.71 1139.05   3
   4   2  -8 8655.79 1100.49   2
   4  -2  -8 9753.97 1296.67   2
  -4  -2   8 8749.80 1375.45   5
  -4  -2   8 8258.82 1228.11   4
   4  -2  -8 9297.03 1489.08   8
  -4   2   8 8290.23 1345.19   4
  -4  -2   8 6610.83 1224.99   7
   4   2  -7 11877.8 1265.18   3
  -4  -2   7 11674.6 1429.84   7
   4   2  -7 13089.4 1309.85   2
  -4  -2   7 14108.1 1596.09   5
  -4  -2   7 12482.6 1477.27   4
  -4   2   7 10860.5 1447.20   4
   4  -2  -7 12394.8 1382.38   2
   4  -2  -7 10158.7 1457.61   8
  -4   2   6 187554. 5337.60  10
  -4  -2   6 183543. 6187.02   4
   4  -2  -6 183220. 6036.45   2
  -4   2   6 186171. 6382.22   4
   4  -2  -6 185380. 6394.09   8
  -4  -2   6 178961. 6309.10   5
  -4  -2   6 182375. 6190.85   7
   4   2  -5 35941.2 1855.70   3
  -4   2   5 39334.3 1941.48  10
  -4   2   5 37577.4 2366.87   4
  -4  -2   5 40123.3 2404.24   4
   4  -2  -5 34082.0 2175.50   2
   4  -2  -5 38507.5 2396.61   8
  -4  -2   5 33129.2 2172.11   7
   4   2  -4 100897. 3099.06   3
  -4   2   4 100718. 3735.27   6
   4   2  -4 100103. 3719.19   1
  -4   2   4 96654.4 3347.76  10
  -4  -2   4 96814.7 3830.40   6
  -4  -2   4 105641. 3990.18   4
   4  -2  -4 102983. 3929.39   2
  -4   2   4 95739.6 3833.27   4
   4  -2  -4 93979.3 3882.15   8
   4  -2  -4 100193. 2550.74   1
  -4  -2   4 100557. 3788.63   7
  -4   2   3 86231.9 3062.62  10
   4   2  -3 94863.1 2512.92   3
   4   2  -3 86794.6 3302.43   1
  -4  -2   3 89842.8 3463.43   6
  -4  -2   3 84833.5 3429.19   4
  -4   2   3 90803.5 3294.47   6
   4  -2  -3 82100.0 3388.32   2
  -4   2   3 81982.8 3281.77   4
   4  -2  -3 84083.6 3454.76   8
   4   2  -3 86129.2 2277.56  10
  -4  -2   3 82710.1 3247.57   7
  -4  -2   2 38495.1 1972.30   7
  -4  -2   2 41080.9 1590.97  10
  -4  -2   2 43087.0 1326.06   9
   4   2  -2 41117.5 1109.99   3
  -4  -2   2 36513.8 2012.12   6
  -4   2   2 40493.4 1955.24  10
   4  -2  -2 38027.6 1820.29   9
   4  -2  -2 35918.4 2042.36   2
  -4   2   2 39713.9 1973.88   4
   4  -2  -2 39727.7 1976.27   8
  -4   2   2 40742.0 2002.83   6
   4   2  -2 38788.3 2041.46   1
   4  -2  -2 44519.8 1409.01   7
  -4   2   1 47131.4 1326.53   1
  -4  -2   1 48704.7 2174.96   7
   4  -2  -1 47102.7 2083.55   9
   4   2  -1 46523.8 2331.41   1
  -4   2   1 49245.5 2223.57  10
   4  -2  -1 47234.6 2256.02   2
   4  -2  -1 47147.1 1918.38   8
  -4  -2   1 46692.6 1926.21  10
  -4   2   1 47480.9 1994.94   4
  -4  -2   0 265381. 7041.81   7
   4   2   0 277645. 6694.42   9
   4  -2   0 272839. 7053.71   2
  -4   2   0 287816. 7295.47  10
  -4  -2   0 291677. 7034.50  10
  -4   2   0 265660. 6435.41   4
   4  -2   0 269610. 7064.37   9
   4   2   0 273810. 7689.42   1
   4   2   0 286090. 6413.79   8
  -4  -2  -1 809.003 201.103   3
  -4   2  -1 1295.78 158.525   7
  -4   2  -1 1308.48 410.804  10
  -4  -2  -1 1685.17 568.520   7
  -4   2  -1 1604.18 471.313   3
   4  -2   1 655.782 319.656   9
   4   2   1 1016.01 332.772   9
  -4  -2  -1 1494.57 405.050  10
  -4  -2  -1 924.877 278.533   8
   4  -2   1 1507.61 365.603   2
   4  -2   2 4503.14 578.828   2
  -4   2  -2 4999.64 766.451   3
  -4  -2  -2 5358.11 788.500  10
   4   2   2 6200.51 808.650   9
   4  -2   2 5232.40 447.883   4
   4  -2   2 5534.70 774.811   9
  -4  -2  -2 5925.99 741.026   8
  -4   2  -2 4551.49 727.554  10
   4   2   2 3916.27 703.383   1
   4  -2   3 3746.38 496.774   2
  -4  -2  -3 5073.09 852.499  10
  -4   2  -3 6939.95 943.011   3
   4   2   3 7913.54 1107.52   1
   4   2   3 4942.25 792.882   9
   4  -2   3 5007.34 434.233   4
   4  -2   3 5126.09 806.279   9
  -4   2  -3 4532.90 767.566  10
  -4  -2  -3 7605.63 917.346   8
  -4   2  -4 103814. 4289.35   3
  -4  -2  -4 114061. 4471.67  10
   4   2   4 103068. 4267.33   9
   4  -2   4 104456. 4325.85   9
  -4  -2  -4 100685. 3887.00   8
   4  -2   4 111333. 3085.33   2
   4  -2   4 114997. 3034.81   4
   4   2   4 105277. 4383.11   1
  -4   2  -4 110507. 4348.43  10
  -4   2  -5 97321.0 4288.50   3
  -4  -2  -5 101984. 4431.27  10
  -4   2  -5 91438.0 4126.40  10
   4   2   5 97428.8 4336.36   9
   4  -2   5 101453. 2985.06   4
  -4  -2  -5 100519. 4060.51   8
   4  -2   5 102412. 4404.87   9
   4   2   5 98667.6 4380.46   1
  -4   2  -6 65.7344 383.452  10
  -4   2  -6-20.0127 353.291   3
  -4  -2  -6 397.034 401.551  10
   4   2   6 377.651 601.095   9
   4  -2   6 781.765 530.492   9
  -4  -2  -6-132.363 434.074   8
   4  -2   6 292.912 183.581   4
  -4   2  -7 809.740 588.318   3
  -4   2  -7 434.165 300.295  10
   4   2   7 381.336 470.171   9
   4  -2   7 295.972 417.059   9
  -4  -2  -7-327.237 615.778   8
  -4  -2  -7 159.803 316.552  10
   4   2   8 10884.9 1511.14   4
  -4  -2  -8 9395.51 1440.96   3
  -4   2  -8 8771.62 1476.53   3
   4   2   8 11326.9 1634.52   9
   4  -2   8 9981.97 1530.32   9
  -4   2  -8 10609.0 1493.65  10
  -4  -2  -8 11109.7 1581.56  10
  -4  -2  -8 12050.4 1621.57   8
  -4   2  -9 1408.48 694.908   3
  -4   2  -9 2407.41 801.297  10
   4   2   9 1510.51 728.596   9
  -4  -2  -9 880.536 485.350  10
   4  -2   9 2576.21 875.772   9
  -4  -2  -9 1454.14 741.317   8
  -4   2  -9 223.419 553.975   8
  -4  -2  -9 467.216 588.268   3
   4   2   9 1271.53 611.251   4
  -4  -2 -10 563.065 557.553   3
  -4  -2 -10 416.669 327.034  10
  -4   2 -10 151.347 427.895  10
  -4   2 -10-306.622 633.299   3
   4   2  10 545.076 556.347   9
   4  -2  10 1172.40 765.557   9
  -4  -2 -10 577.297 596.875   8
  -4   2 -10 715.897 643.682   8
   4   2  10 267.362 482.631   4
  -4  -2 -11 1262.13 723.356   3
  -4   2 -11 1010.60 612.412  10
  -4   2 -11 2524.73 1005.22   3
   4   2  11 1327.87 835.504   9
  -4  -2 -11 1431.02 715.834  10
  -4  -2 -11 1750.30 998.193   8
  -4   2 -11 2049.06 880.554   8
   4   2  11 959.718 618.303   4
   4  -2  11 2613.98 989.380   9
  -4  -2 -12 3022.24 1002.41  10
   4  -2  12 5493.08 1440.80   9
   4   2  12 5667.19 1508.94   9
  -4  -2 -12 1762.10 1101.76   8
  -4  -2 -12 5503.54 1450.87   3
  -4   2 -12 4401.25 1346.57   8
   4   3 -13 184.476 623.226   3
   4   3 -12-91.8067 458.523   3
  -4  -3  12 308.923 391.832   4
   4  -3 -12-182.871 757.719   8
  -4   3  12 443.053 679.515   4
   4   3 -12-120.086 626.073   8
   4   3 -11 581.341 671.152   3
  -4  -3  11 1335.86 877.372   5
  -4  -3  11 1105.49 624.997   4
  -4   3  11 598.658 601.764   4
   4   3 -11 204.865 546.063   8
   4   3 -10 21282.5 2199.11   3
  -4  -3  10 24233.5 2339.30   4
  -4  -3  10 23264.2 2520.90   5
  -4   3  10 29594.1 2837.57   4
   4  -3 -10 22004.4 2687.97   8
   4  -3 -10 25605.6 2296.28   2
   4   3 -10 26981.5 2655.24   8
   4  -3  -9 1055.17 539.441   2
   4   3  -9 1382.92 620.655   3
  -4  -3   9 1855.20 840.243   5
  -4  -3   9 638.488 542.062   4
   4   3  -9 1133.36 483.990   2
   4  -3  -9 2746.59 1163.80   8
  -4   3   9 2720.35 936.056   4
  -4  -3   9-1.70657 442.724   7
   4   3  -8 3965.26 851.847   3
  -4  -3   8 3312.39 889.705   7
   4  -3  -8 1656.51 623.663   2
   4   3  -8 1789.48 575.411   2
  -4  -3   8 3164.22 958.179   5
  -4  -3   8 1651.24 650.909   4
   4  -3  -8 3401.07 1157.34   8
  -4   3   8 2958.79 911.105   4
  -4  -3   7 1521.19 814.934   7
   4  -3  -7 1705.92 599.125   2
   4   3  -7 1670.32 613.336   3
  -4  -3   7 3357.62 952.701   5
  -4  -3   7 2379.62 696.806   4
   4  -3  -7 2426.98 879.813   8
  -4   3   7 2058.46 759.690   4
   4   3  -6 70315.6 3053.03   3
  -4  -3   6 69813.4 3491.33   4
  -4   3   6 72459.8 3718.63   4
   4  -3  -6 72598.0 4031.76   8
   4  -3  -6 64000.1 3366.77   2
  -4  -3   6 72285.1 3778.44   5
  -4  -3   6 68258.4 3571.98   7
   4  -3  -5 651.524 440.300   2
  -4  -3   5 369.195 432.190   7
   4   3  -5 1068.49 417.587   3
  -4   3   5 678.978 336.406  10
  -4  -3   5 977.072 733.198   5
  -4  -3   5 627.745 140.250   9
  -4  -3   5 273.479 343.199   4
  -4   3   5 6.56012 366.393   4
   4   3  -5 27.9901 436.306   1
   4   3  -4 22624.3 1295.51   3
  -4  -3   4 22073.9 1828.09   5
   4   3  -4 21113.5 790.719  10
   4   3  -4 21175.5 1696.72   1
   4   3  -4 20318.3 790.936  10
  -4  -3   4 21392.1 1699.55   6
   4  -3  -4 19693.4 790.058   1
  -4  -3   4 21643.7 818.980   9
  -4   3   4 21281.7 1539.43  10
  -4   3   4 22298.9 1747.11   4
   4  -3  -4 23040.0 1767.97   2
  -4   3   4 22581.6 1589.50   6
   4  -3  -4 20011.4 1877.53   8
  -4  -3   4 23569.6 1778.48   7
   4  -3  -3 2170.72 592.558   2
  -4  -3   3 2599.55 575.077   7
   4   3  -3 2533.97 380.831   3
   4   3  -3 2822.08 729.085   1
  -4  -3   3 1613.51 464.928   6
  -4   3   3 1391.01 393.022   6
  -4   3   3 2265.38 502.686  10
  -4  -3   3 1629.80 250.479   9
   4  -3  -3 3286.62 764.880   8
  -4   3   3 1529.25 433.386   4
  -4  -3   2 261678. 7263.64   7
   4   3  -2 261207. 7415.55   1
  -4   3   2 268975. 7231.29  10
  -4  -3   2 263516. 7122.41   6
  -4   3   2 276249. 6889.28   6
   4  -3  -2 267196. 7076.94   9
  -4   3   2 256240. 6900.24   4
   4  -3  -2 257927. 7349.44   2
   4  -3  -2 272735. 7237.47   8
  -4  -3   1 74172.6 3112.91   7
   4  -3  -1 71223.4 1782.94   7
  -4   3   1 76222.9 1860.90   1
  -4  -3   1 77643.4 2768.71  10
   4  -3  -1 69886.0 3009.31   2
  -4   3   1 77040.7 3133.96  10
  -4  -3   1 73704.8 2966.33   6
   4  -3  -1 75010.8 3017.01   9
   4   3  -1 74783.5 3318.21   1
  -4   3   1 72663.9 2638.57   4
   4  -3  -1 72314.2 2842.84   8
  -4   3   1 75537.8 1845.67   1
  -4  -3   0 32067.3 1977.09   7
  -4   3   0 32172.0 1951.96  10
   4  -3   0 34326.9 1978.48   9
   4   3   0 39187.9 2439.59   1
  -4  -3   0 34807.9 1874.64  10
  -4   3   0 32772.3 1438.29   4
   4  -3   0 31946.4 1860.49   2
   4  -3   1 240.184 254.797   2
   4   3   1 1357.76 822.241   1
  -4  -3  -1 843.309 366.935  10
  -4   3  -1 728.848 368.371  10
  -4  -3  -1 876.875 562.119   7
  -4   3  -1 201.004 112.585   7
   4  -3   1 1001.85 423.734   9
  -4  -3  -1 401.882 323.772   8
   4  -3   1 330.033 141.921   4
   4  -3   2 80012.6 3426.56   9
  -4   3  -2 76622.3 3367.86   3
  -4  -3  -2 77676.0 3363.36  10
   4   3   2 76726.4 3241.45   9
  -4   3  -2 76917.0 3389.41  10
   4   3   2 75702.0 3711.98   1
  -4  -3  -2 75869.6 3000.31   8
   4  -3   2 77626.8 2897.88   2
   4  -3   3 69.8857 183.044   2
   4   3   3 1497.64 770.216   1
  -4   3  -3 107.542 283.921  10
  -4   3  -3 879.155 519.274   3
  -4  -3  -3 198.151 290.033  10
   4   3   3 73.5505 392.630   9
   4  -3   3-91.2260 296.063   9
  -4  -3  -3 861.318 557.497   8
  -4   3  -4 8772.42 1140.71  10
  -4   3  -4 9621.51 1281.12   3
   4  -3   4 11148.4 1355.53   9
   4   3   4 7778.39 1118.30   9
   4   3   4 7337.51 1193.24   1
  -4  -3  -4 11441.5 1466.40   8
  -4  -3  -4 8857.02 1184.49  10
  -4  -3  -5 79750.1 3962.34  10
  -4   3  -5 81402.1 4020.43   3
   4  -3   5 81568.7 4008.82   9
   4   3   5 85294.0 4060.70   9
  -4  -3  -5 81686.8 3976.56   8
   4   3   5 76908.7 3961.87   1
  -4   3  -5 83547.8 3927.75  10
  -4   3  -6 22381.7 2144.48   3
  -4  -3  -6 21689.6 2087.68  10
  -4   3  -6 21377.7 1952.69  10
   4  -3   6 21161.4 2028.01   9
   4   3   6 23376.4 2156.63   9
  -4  -3  -6 24027.0 2181.98   8
   4   3   6 20314.8 2023.32   1
  -4   3  -7 2432.30 725.434  10
  -4  -3  -7 2329.22 774.217  10
  -4   3  -7 2170.07 779.443   3
   4   3   7 2606.22 875.111   9
   4  -3   7 4043.53 998.273   9
  -4  -3  -7 4026.34 1103.60   8
  -4   3  -8 16348.1 2053.16   3
   4   3   8 17812.8 2113.41   9
  -4  -3  -8 18690.6 2134.72  10
  -4   3  -8 17722.7 1924.54  10
   4  -3   8 18368.0 2066.16   9
   4   3   8 18531.8 2090.66   4
  -4  -3  -8 16851.4 2059.88   8
  -4   3  -9 17156.5 1956.82  10
  -4  -3  -9 15719.7 2018.26  10
  -4   3  -9 13709.3 2004.46   3
   4  -3   9 15020.6 2006.96   9
   4   3   9 14210.4 1985.92   9
   4   3   9 19148.4 2226.54   4
  -4  -3  -9 14745.4 2123.19   8
  -4  -3 -10 3200.99 983.567   3
  -4   3 -10 5914.82 1436.01   3
  -4   3 -10 5490.35 1150.59  10
   4   3  10 6027.20 1420.46   9
   4  -3  10 4070.56 1181.07   9
  -4  -3 -10 3861.00 1042.59  10
  -4  -3 -10 4401.40 1347.80   8
  -4   3 -10 6324.05 1381.64   8
   4   3  10 3501.59 1033.83   4
   4   3  11 1381.88 858.321   9
  -4  -3 -11 1393.35 815.331   3
  -4  -3 -11 537.813 570.671  10
  -4   3 -11 2197.36 793.536  10
  -4   3 -11 2002.13 1004.89   3
   4  -3  11 1285.71 777.189   9
  -4  -3 -11 1225.28 1031.05   8
  -4   3 -11 104.983 561.505   8
   4   3  11 1513.23 719.109   4
   4  -3  12 3550.62 1221.63   9
  -4  -3 -12 2919.54 1434.19   8
  -4   3 -12 2954.12 1131.46   8
   4   3  12 4195.79 1170.22   4
   4   4 -13 56.9034 515.189   3
   4   4 -12 15216.7 2139.67   3
   4  -4 -12 14234.1 2713.42   8
  -4  -4  12 12238.4 2070.76   5
  -4   4  12 14519.1 2288.88   4
   4   4 -12 15767.4 2324.31   8
   4   4 -11 2143.75 862.738   3
  -4  -4  11 1287.27 1028.24   5
  -4  -4  11 1371.03 704.337   4
   4  -4 -11 1506.87 1310.41   8
  -4   4  11 546.929 727.948   4
   4   4 -10 16860.2 2000.35   3
  -4  -4  10 22620.6 2621.39   5
  -4  -4  10 17467.1 1994.00   4
   4  -4 -10 22708.8 2989.91   8
  -4   4  10 14377.5 2121.85   4
  -4  -4  10 16916.2 2206.82   7
  -4  -4   9 2090.63 820.399   7
   4   4  -9 2053.85 706.279   3
  -4  -4   9 2165.37 831.112   5
   4   4  -9 2473.33 659.988   2
  -4  -4   9 1501.96 648.301   4
   4  -4  -9 3603.49 1318.50   8
  -4   4   9 1134.27 708.151   4
   4   4  -8 24663.2 2101.78   3
  -4  -4   8 21332.5 2330.57   5
  -4  -4   8 23704.5 2134.98   4
  -4   4   8 22378.4 2339.22   4
   4  -4  -8 22888.8 2759.63   8
   4  -4  -8 18401.3 1948.41   2
  -4  -4   8 25411.0 2394.19   7
  -4  -4   7 2016.76 700.639   7
   4  -4  -7 4200.23 944.091   2
   4   4  -7 2894.94 680.562   3
  -4  -4   7 2461.27 940.059   5
  -4  -4   7 1227.67 509.218   4
   4  -4  -7 4633.51 1430.75   8
  -4   4   7 2988.44 891.032   4
   4   4  -6 46191.6 2506.25   3
  -4  -4   6 45758.1 3090.47   5
   4   4  -6 47050.4 3016.27   1
  -4   4   6 47743.3 3056.07   4
   4  -4  -6 46821.2 3467.73   8
   4  -4  -6 45428.5 2919.05   2
  -4  -4   6 44231.4 2931.87   7
   4   4  -5 10019.5 1347.85   1
   4  -4  -5 9780.74 1284.02   2
  -4  -4   5 10817.4 1359.79   7
   4   4  -5 12391.7 1136.96   3
  -4   4   5 12317.8 1325.22  10
  -4  -4   5 10808.8 750.807   9
  -4  -4   5 11353.8 1439.25   5
  -4   4   5 12692.7 1453.67   4
   4  -4  -5 11753.6 1696.90   8
  -4  -4   4 15826.5 937.262   9
  -4   4   4 17134.2 1523.11  10
  -4  -4   4 15819.5 1644.33   5
   4   4  -4 15947.9 1179.29   3
   4   4  -4 13740.6 1542.44   1
  -4   4   4 15192.6 1504.35   4
   4  -4  -4 17479.9 1838.06   8
   4  -4  -4 16259.5 1601.65   2
  -4  -4   4 17135.4 1515.93   6
   4  -4  -4 14247.2 682.269   1
  -4   4   4 15973.5 1313.80   6
  -4  -4   4 16337.0 1595.09   7
  -4   4   3 38225.8 2319.72  10
  -4   4   3 44660.5 2082.48   6
   4   4  -3 39626.8 2482.47   1
  -4  -4   3 39227.2 2220.28   6
  -4  -4   3 38121.2 2403.37   5
  -4   4   3 38813.3 2279.57   4
   4  -4  -3 37435.7 2453.29   8
   4  -4  -3 36545.1 2368.68   2
  -4  -4   3 40184.2 2456.71   7
  -4  -4   2 266809. 7728.74   7
   4  -4  -2 269057. 7560.09   9
  -4   4   2 273520. 7692.23  10
  -4  -4   2 264838. 7189.70   6
   4   4  -2 263252. 7902.73   1
  -4   4   2 275068. 6849.46   6
  -4   4   2 267185. 5563.86   1
  -4   4   2 270501. 7174.74   4
   4  -4  -2 266656. 7656.21   8
   4  -4  -2 256826. 7654.45   2
  -4  -4   1 3071.72 342.523   3
   4  -4  -1 1914.16 531.941   2
  -4  -4   1 3104.56 764.659   7
  -4  -4   1 2411.73 548.249   6
  -4   4   1 3649.34 718.524  10
  -4   4   1 2744.00 339.174   1
   4   4  -1 2688.11 801.114   1
   4  -4  -1 3335.33 654.616   9
   4  -4  -1 2533.45 577.682   8
   4  -4  -1 2761.90 335.288   7
  -4   4   1 2481.84 469.413   4
  -4  -4   0 152894. 5307.67   7
  -4   4   0 149178. 4046.33   4
   4   4   0 151437. 5641.87   1
   4  -4   0 151556. 5163.29   9
  -4   4   0 146294. 5179.98  10
   4  -4   0 155903. 5094.68   2
   4  -4   0 152352. 3591.80   7
  -4  -4  -1 19918.3 1764.04   7
  -4   4  -1 20614.7 1699.85  10
  -4  -4  -1 18517.9 1535.01  10
   4  -4   1 20033.9 1660.79   9
   4   4   1 17375.7 1956.49   1
  -4   4  -1 17735.4 829.322   4
  -4  -4  -1 20147.6 1434.49   8
   4  -4   1 19120.7 1490.31   2
   4  -4   1 19007.3 928.969   7
  -4  -4  -2 73725.6 3674.05   7
  -4  -4  -2 72956.5 3468.58  10
   4  -4   2 78166.2 3644.50   9
   4   4   2 74446.9 4019.34   1
  -4  -4  -2 84425.4 3403.76   8
  -4   4  -2 81029.7 3678.65  10
   4  -4   2 81592.1 2577.60   7
  -4   4  -3 1361.73 543.791  10
  -4   4  -3 1603.12 614.975   3
  -4  -4  -3 1812.22 578.696  10
   4  -4   3 958.063 533.432   9
  -4  -4  -3 624.267 615.460   8
   4   4   3-392.475 780.384   1
  -4  -4  -4 42066.3 2760.63  10
  -4   4  -4 39161.1 2735.65   3
   4  -4   4 40574.2 2720.53   9
  -4   4  -4 40314.3 2620.73  10
  -4  -4  -4 40988.6 2762.88   8
   4   4   4 38703.4 2778.32   1
  -4  -4  -5 56674.1 3430.52  10
   4  -4   5 60505.7 3512.46   9
  -4   4  -5 58092.1 3487.14   3
  -4   4  -5 58387.2 3332.88  10
  -4  -4  -5 58405.6 3550.80   8
   4   4   5 63702.9 3655.40   1
  -4  -4  -6 237713. 8437.23  10
  -4   4  -6 260133. 8323.46  10
  -4   4  -6 244612. 8583.24   3
   4  -4   6 257552. 8600.02   9
  -4  -4  -6 250335. 8851.11   8
   4   4   6 258515. 8736.80   1
  -4   4  -7 4777.61 979.343  10
  -4  -4  -7 7110.53 1301.68  10
  -4   4  -7 6440.25 1302.83   3
   4   4   7 5710.85 1194.67   1
   4  -4   7 5327.41 1102.87   9
  -4  -4  -7 7606.43 1577.16   8
   4  -4   8 83585.4 4746.54   9
  -4  -4  -8 87876.5 5271.98   8
   4   4   8 87961.2 4960.52   4
  -4   4  -8 89761.9 4631.68  10
  -4   4  -8 90551.1 5155.05   3
  -4  -4  -8 94064.4 5117.19  10
  -4   4  -9 16542.5 1957.89  10
  -4  -4  -9 19936.3 2627.71   8
   4   4   9 19798.9 2358.08   4
   4  -4   9 15422.6 2071.70   9
  -4   4  -9 13683.9 2102.87   3
  -4  -4  -9 19431.8 2312.86  10
  -4   4 -10 29482.8 3156.98   3
  -4   4 -10 29761.7 2744.46  10
   4  -4  10 32526.1 3124.78   9
   4   4  10 28238.8 2947.67   4
  -4  -4 -10 22610.4 3006.49   8
  -4   4 -11 43882.8 4047.49   3
   4  -4  11 39415.5 3606.28   9
   4   4  11 39372.6 3661.99   4
  -4  -4 -11 38019.0 4041.76   8
  -4   4 -11 38693.4 3610.93   8
  -4  -5  12 2985.10 1197.33   5
   4  -5 -12 6019.53 2042.59   8
   4   5 -11 609.712 542.849   3
  -4  -5  11 1334.25 1045.84   5
  -4   5  11 789.515 844.257   4
  -4  -5  10 122.997 604.725   7
  -4  -5  10 576.044 773.463   5
   4   5 -10 302.836 357.837   3
   4  -5 -10 598.916 1259.67   8
  -4   5  10-211.629 557.289   4
  -4  -5   9 1339.06 754.507   7
   4   5  -9 1254.38 674.308   3
  -4  -5   9 858.709 782.633   5
   4  -5  -9 1147.03 1111.09   8
  -4   5   9 1272.34 719.776   4
  -4  -5   8 18734.9 2276.43   5
  -4   5   8 16381.3 2080.66   4
   4  -5  -8 15683.0 2456.53   8
   4   5  -8 16011.1 2021.15   1
  -4  -5   8 18537.9 2170.42   7
   4   5  -8 18094.2 1867.42   3
  -4  -5   7 3666.50 985.856   7
   4   5  -7 4061.23 874.968   3
  -4  -5   7 3348.48 1010.62   5
   4  -5  -7 6177.05 1546.76   8
  -4   5   7 3120.77 869.532   4
   4   5  -7 3291.01 963.401   1
   4   5  -6 580.770 427.588   3
   4   5  -6 275.372 479.653   1
  -4  -5   6-373.391 467.090   7
   4  -5  -6 416.430 420.026   2
  -4  -5   6 309.330 591.292   5
   4  -5  -6 937.275 967.156   8
  -4   5   6 217.444 412.787   4
   4   5  -5 2685.32 810.946   1
  -4  -5   5 4573.07 977.460   7
   4   5  -5 5219.88 807.465   3
  -4   5   5 3815.26 803.462  10
  -4  -5   5 4829.87 1070.03   5
  -4  -5   5 3234.41 510.433   9
   4  -5  -5 4247.35 1184.22   8
  -4   5   5 4557.91 960.596   4
   4  -5  -5 3600.29 855.783   2
   4   5  -4 181637. 5244.04   3
  -4   5   4 165379. 6037.90  10
   4   5  -4 172722. 4786.46  10
  -4  -5   4 166832. 6197.53   5
   4   5  -4 166972. 6292.12   1
  -4  -5   4 173153. 4870.59   9
  -4   5   4 175774. 6092.38   4
   4  -5  -4 171079. 6503.00   8
   4  -5  -4 167468. 6227.96   2
  -4  -5   4 162226. 6127.03   7
  -4  -5   3 13321.4 1511.61   7
  -4   5   3 13911.1 1500.43  10
   4   5  -3 16205.9 1781.41   1
  -4  -5   3 13428.0 1305.61   6
  -4   5   3 14400.7 1102.34   6
  -4   5   3 13589.2 1376.29   4
   4  -5  -3 16862.3 1771.11   8
  -4  -5   3 16704.6 1642.21   5
   4  -5  -3 13635.5 1531.27   2
  -4   5   3 14093.9 759.789   1
  -4   5   2 1694.65 408.732   1
   4  -5  -2 420.942 318.475   2
   4  -5  -2 1026.12 417.642   7
  -4   5   2 939.432 365.188   6
  -4   5   2 778.603 474.590  10
   4   5  -2 367.326 541.726   1
   4  -5  -2 1023.51 483.133   9
   4  -5  -2 2312.80 786.086   8
  -4  -5   2 1428.28 675.743   7
  -4   5   2 855.123 373.540   4
  -4  -5   2 809.145 417.818   6
   4  -5  -1 6483.71 651.935   7
  -4  -5   1 7271.72 1155.64   7
  -4   5   1 8955.44 1173.43  10
  -4  -5   1 6078.41 816.359   6
   4   5  -1 7329.62 1291.76   1
  -4   5   1 6428.67 648.169   1
   4  -5  -1 6825.44 1033.02   9
  -4   5   1 6875.11 794.739   4
   4  -5  -1 5391.35 897.193   8
  -4  -5   0 59411.0 3296.68   7
  -4   5   0 65823.7 3347.11  10
  -4   5   0 65303.0 2474.47   1
  -4  -5   0 66461.3 2771.03   6
   4  -5   0 60302.1 3207.35   9
  -4   5   0 66618.0 2362.84   4
   4   5   0 61286.8 3615.99   1
   4  -5   0 64531.0 2207.68   7
   4   5   1 17641.8 2108.70   1
  -4  -5  -1 18156.1 1821.89   7
  -4   5  -1 17149.3 1664.57  10
   4  -5   1 17306.7 1675.44   9
  -4   5  -1 20406.3 919.023   4
  -4  -5  -1 20394.0 1620.32   8
   4  -5   1 18336.3 1090.00   7
  -4  -5  -2 33806.1 2576.00   7
  -4   5  -2 29926.8 2270.68  10
   4  -5   2 31266.6 2338.61   9
   4   5   2 31974.6 2795.86   1
  -4  -5  -2 34059.2 2256.60   8
   4  -5   2 33499.0 1647.48   7
   4  -5   3 3793.67 613.140   7
  -4   5  -3 2876.22 753.402  10
  -4   5  -3 1985.36 775.839   3
   4  -5   3 3969.64 914.912   9
   4   5   3 1575.10 777.793   1
  -4  -5  -3 2040.26 742.835   8
  -4   5  -4 96693.6 4471.00  10
   4  -5   4 98640.8 4628.91   9
  -4   5  -4 92792.8 4576.96   3
  -4  -5  -4 98831.4 4545.03   8
   4   5   4 92657.7 4736.12   1
  -4   5  -5 24137.8 2315.23   3
  -4   5  -5 18620.2 1924.31  10
   4  -5   5 22333.4 2175.87   9
  -4  -5  -5 26653.1 2438.59   8
   4   5   5 23320.7 2309.14   1
  -4   5  -6-116.053 359.650  10
  -4   5  -6-59.3461 594.377   3
   4  -5   6-204.709 424.132   9
   4   5   6-302.433 458.015   1
  -4  -5  -6 1459.72 961.853   8
   4   5   7 1349.62 586.550   1
  -4   5  -7 496.747 416.791  10
  -4   5  -7 1310.58 788.305   3
   4  -5   7 279.237 473.468   9
  -4  -5  -7 1317.74 1008.18   8
  -4   5  -8 19408.4 2381.51   3
  -4   5  -8 20642.0 2169.99  10
   4   5   8 21395.5 2504.66   4
   4  -5   8 20209.1 2298.28   9
  -4  -5  -8 18525.3 2528.80   8
  -4   5  -9 33341.4 2909.59  10
   4  -5   9 41543.1 3440.17   9
  -4   5  -9 38044.0 3515.36   3
  -4  -5  -9 37195.5 3749.55   8
   4   5   9 39237.2 3501.47   4
   4   5  10 2010.49 927.119   4
  -4   5 -10 5824.87 1566.58   3
   4  -5  10 3463.91 1136.08   9
  -4  -5 -10 3985.55 1574.40   8
  -4   5 -10 4271.81 1086.81  10
   4  -5  11 4700.02 1471.77   9
  -4  -5 -11 4987.62 1788.33   8
   4   5  11 2660.68 1081.19   4
   4   6 -11 32892.4 3414.84   1
  -4  -6  11 31193.4 3390.91   5
  -4   6  11 33789.0 3568.51   4
   4  -6 -11 25778.4 3710.14   8
  -4  -6  11 32370.9 3362.15   7
  -4  -6  10 4729.33 1314.05   7
  -4  -6  10 6880.11 1643.49   5
   4  -6 -10 2579.92 1563.62   8
  -4   6  10 4510.15 1300.68   4
   4   6 -10 4429.54 1314.76   1
   4   6  -9 18227.6 2029.24   3
   4   6  -9 17466.0 2327.05   1
  -4  -6   9 19427.1 2519.10   5
  -4   6   9 23145.4 2672.38   4
   4  -6  -9 20664.1 2851.99   8
  -4  -6   9 22682.9 2586.62   7
  -4  -6   8 12734.3 1872.82   7
  -4  -6   8 12912.0 2035.59   5
   4   6  -8 15978.8 1788.32   3
   4  -6  -8 11991.7 2210.69   8
  -4   6   8 13705.3 2002.93   4
   4   6  -8 10567.4 1712.20   1
   4   6  -7 8759.90 1552.40   1
  -4  -6   7 9638.52 1668.26   5
  -4  -6   7 13390.0 1827.30   7
   4   6  -7 11176.7 1425.87   3
   4  -6  -7 9836.53 1961.46   8
  -4   6   7 12592.2 1792.81   4
   4   6  -6 586.141 581.929   1
  -4  -6   6 575.855 527.093   7
   4   6  -6 917.628 485.044   3
  -4  -6   6 1163.37 882.151   5
  -4   6   6 1165.70 541.556  10
   4  -6  -6-71.2929 793.924   8
  -4   6   6 336.269 447.460   4
  -4  -6   5 10355.4 1516.88   7
   4   6  -5 9163.00 1413.37   1
   4   6  -5 9104.46 1154.06   3
  -4   6   5 10320.0 1440.76  10
  -4  -6   5 11341.4 1590.73   5
   4  -6  -5 8991.57 1550.27   8
  -4   6   5 11159.3 1490.52   4
  -4   6   4 6207.94 1119.42  10
  -4  -6   4 6823.48 1228.83   7
   4   6  -4 6913.40 1311.70   1
   4   6  -4 5416.25 750.675  10
  -4  -6   4 8638.46 1340.16   5
  -4  -6   4 6146.49 813.953   9
   4  -6  -4 7233.89 1338.05   8
  -4   6   4 6456.44 1093.29   4
   4  -6  -3 9435.23 1123.00   7
  -4   6   3 9342.59 1334.04  10
   4   6  -3 5806.95 1236.95   1
  -4  -6   3 6862.98 1124.60   5
  -4  -6   3 7835.23 1270.74   7
  -4   6   3 9083.00 1196.58   4
   4  -6  -3 9406.39 1458.26   8
  -4  -6   2 14893.0 1696.11   7
   4  -6  -2 15289.6 1243.98   7
  -4   6   2 12057.1 1522.62  10
  -4  -6   2 16330.5 1609.55   5
   4   6  -2 11863.1 1679.10   1
   4  -6  -2 15358.9 1650.82   9
  -4   6   2 13074.2 1127.83   1
  -4   6   2 12903.3 1287.43   4
  -4   6   2 15527.0 1034.60   6
   4  -6  -2 11202.4 1515.60   8
  -4  -6   2 14280.7 1270.49   6
   4  -6  -1 9663.22 918.090   7
  -4  -6   1 9745.88 994.948   6
  -4   6   1 7759.45 764.241   6
  -4   6   1 7917.41 1212.23  10
  -4  -6   1 8135.81 1266.54   7
  -4   6   1 8078.94 849.881   1
   4   6  -1 5566.44 1281.05   1
   4  -6  -1 8573.07 1255.60   9
   4  -6  -1 8708.40 1272.93   8
  -4   6   1 9931.00 1016.92   4
   4  -6   0 4497.74 608.013   7
   4  -6   0 2926.22 751.238   9
  -4  -6   0 3062.20 866.635   7
  -4   6   0 4232.09 706.897   1
  -4   6   0 3033.28 801.467  10
  -4  -6   0 4558.17 709.821   6
  -4   6   0 4351.59 575.963   4
  -4  -6  -1 62940.1 3647.52   7
  -4   6  -1 62396.2 3515.81  10
  -4   6  -1 67823.3 2916.62   1
   4  -6   1 54176.6 3318.20   9
   4   6   1 57372.3 3876.84   1
  -4  -6  -1 58522.9 3143.89   8
   4  -6   1 63714.5 2501.99   7
   4  -6   2 1903.78 444.535   7
  -4  -6  -2 1782.67 786.676   7
   4  -6   2 1469.05 645.935   9
  -4   6  -2 1701.58 658.428  10
   4   6   2 593.047 824.530   1
  -4  -6  -2 1613.30 647.376   8
  -4  -6  -3 25298.9 2464.89   7
  -4   6  -3 28767.8 2388.78  10
   4  -6   3 29680.2 2487.48   9
   4   6   3 24362.4 2557.08   1
  -4  -6  -3 28564.6 2338.64   8
   4  -6   3 30031.1 1831.60   7
   4  -6   4 7907.71 990.874   7
  -4   6  -4 6359.23 1159.89  10
  -4  -6  -4 7267.69 1270.88   8
   4   6   4 6506.80 1285.02   1
   4  -6   4 6268.24 1214.78   9
  -4   6  -5 12579.0 1626.87  10
   4   6   5 12989.0 1823.28   1
  -4   6  -5 13991.8 1857.36   3
   4  -6   5 16652.0 1953.84   9
  -4  -6  -5 11130.1 1627.50   8
  -4   6  -6 5587.65 1126.47  10
  -4   6  -6 5103.79 1200.16   3
   4  -6   6 6420.24 1350.16   9
  -4  -6  -6 6633.00 1458.06   8
   4   6   6 6746.79 1344.77   1
  -4   6  -7 6195.11 1218.03  10
  -4   6  -7 4775.75 1246.54   3
   4  -6   7 6290.39 1298.43   9
   4   6   7 5657.02 1287.32   1
  -4  -6  -7 7560.67 1586.51   8
  -4   6  -8 13737.3 2115.81   3
   4   6   8 11656.6 1898.34   4
   4  -6   8 14349.1 2018.42   9
  -4   6  -8 13242.2 1820.90  10
  -4  -6  -8 14426.8 2315.52   8
   4   6   8 11539.4 1870.30   1
   4   6   9 13981.7 2193.39   4
  -4   6  -9 14971.7 1981.15  10
  -4   6  -9 11676.4 2065.05   3
   4  -6   9 16073.0 2237.19   9
  -4  -6  -9 10541.1 2151.99   8
   4   6  10-34.7148 589.225   4
  -4   6 -10-11.1617 633.783   3
   4  -6  10 831.850 750.930   9
  -4  -6 -10-33.0579 865.018   8
   4   7 -10 192.219 841.202   1
  -4  -7  10 772.234 646.771   7
  -4  -7  10 1308.55 952.462   5
   4  -7 -10 1457.17 1557.28   8
  -4   7  10 1233.24 764.709   4
   4   7  -9 42373.3 3774.70   1
  -4  -7   9 42694.8 3873.27   5
  -4   7   9 38910.8 3637.45   4
   4  -7  -9 42912.7 4192.77   8
  -4  -7   9 35948.5 3434.03   7
   4   7  -8 117.601 666.098   1
  -4  -7   8 522.454 656.900   7
  -4  -7   8 984.892 1010.04   5
   4  -7  -8 1278.70 853.683   8
  -4   7   8 801.399 563.660   4
  -4  -7   7 142491. 6876.21   5
   4   7  -7 132493. 6642.77   1
  -4   7   7 142939. 6690.04   4
   4  -7  -7 139454. 7145.95   8
  -4  -7   7 147506. 6734.61   7
  -4  -7   6 1063.84 654.880   7
   4   7  -6 777.461 697.704   1
  -4   7   6 1325.50 678.741  10
  -4  -7   6 2485.61 1025.41   5
   4  -7  -6 52.9032 815.990   8
  -4   7   6 1476.64 763.509   4
  -4   7   5 24630.0 2384.91  10
   4   7  -5 21215.4 2364.14   1
  -4  -7   5 21255.7 2290.90   5
  -4   7   5 21922.1 2210.93   4
   4  -7  -5 20891.4 2408.53   8
  -4  -7   5 20904.6 2245.69   7
   4  -7  -4 12103.5 1390.95   7
   4   7  -4 12336.3 1267.01  10
  -4   7   4 12099.3 1638.09  10
  -4  -7   4 13871.4 1740.14   5
  -4  -7   4 14388.4 1389.73   9
   4   7  -4 11699.7 1766.95   1
  -4   7   4 12865.7 1575.71   4
  -4  -7   4 10379.3 1562.69   7
   4  -7  -4 11900.3 1746.33   8
  -4  -7   3 327957. 10378.5   7
   4  -7  -3 352785. 9198.60   7
  -4   7   3 318541. 10277.5  10
   4   7  -3 310537. 10449.9   1
  -4  -7   3 320308. 9853.07   5
   4  -7  -3 327975. 10542.0   8
  -4   7   3 330173. 9615.63   4
   4  -7  -2-150.609 346.004   7
  -4  -7   2 826.756 566.273   7
  -4   7   2-115.340 410.982  10
  -4  -7   2 296.680 445.372   5
   4   7  -2 144.944 543.322   1
   4  -7  -2 604.873 591.039   9
   4  -7  -2-95.2832 487.822   8
  -4   7   2 298.393 313.967   4
   4  -7  -1 13226.6 1179.02   7
  -4   7   1 10089.2 1460.29  10
  -4   7   1 13575.8 1231.18   1
  -4  -7   1 12303.1 1642.48   7
   4   7  -1 9135.27 1592.91   1
   4  -7  -1 10860.9 1529.65   9
  -4   7   1 11350.0 1161.49   4
  -4   7   0 1457.84 500.673   1
  -4  -7   0 798.234 655.315   7
  -4   7   0 2854.82 815.085  10
   4  -7   0 651.541 444.460   9
   4   7   0 2663.44 1067.55   1
   4  -7   0 1732.63 469.785   7
  -4  -7  -1 153769. 6534.04   7
  -4   7  -1 154946. 6351.25  10
  -4   7  -1 160986. 5415.17   1
   4  -7   1 152739. 6357.79   9
   4   7   1 152030. 7069.49   1
   4  -7   1 167805. 5042.86   7
  -4   7  -2 12385.3 1402.98   1
  -4  -7  -2 12391.2 1787.69   7
  -4   7  -2 12775.9 1649.13  10
   4   7   2 13205.9 2149.34   1
   4  -7   2 9812.63 1510.07   9
  -4  -7  -2 11568.3 1533.19   8
  -4  -7  -3 90323.8 4987.21   7
   4  -7   3 101515. 5034.80   9
  -4  -7  -3 98929.8 4762.36   8
  -4   7  -3 92424.5 4767.33  10
  -4  -7  -4 1843.41 968.750   7
  -4   7  -4 164.848 297.398  10
  -4  -7  -4 498.020 594.807   8
   4   7   4-1314.69 976.881   1
   4  -7   4 255.264 473.559   9
  -4   7  -5 52063.9 3563.01  10
   4  -7   5 45770.2 3502.06   9
  -4  -7  -5 48302.0 3537.21   8
   4   7   5 53674.7 3882.16   1
  -4   7  -6 21581.8 2322.78  10
  -4   7  -6 20619.5 2521.50   3
   4  -7   6 22427.7 2440.78   9
   4   7   6 20944.4 2468.91   1
  -4  -7  -6 18949.5 2313.64   8
  -4   7  -7 20307.3 2585.66   3
   4   7   7 15524.5 2196.10   1
   4  -7   7 17127.8 2205.75   9
  -4   7  -7 14652.2 1955.45  10
  -4  -7  -7 16296.8 2325.73   8
   4   7   8 11764.0 2130.93   4
  -4   7  -8 4790.71 1122.59  10
  -4   7  -8 11450.7 2027.21   3
   4  -7   8 8745.35 1632.21   9
   4   7   8 9855.03 1752.77   1
  -4  -7  -8 6989.56 1829.04   8
   4   7   9 18808.1 2614.65   4
  -4   7  -9 16872.0 2542.03   3
   4  -7   9 13791.0 2113.66   9
  -4  -7  -9 15922.1 2467.51   8
  -4  -7 -10 10989.0 2323.53   8
  -4   8  10 4813.07 1313.92  10
   4   8  -9 2032.24 1043.85   1
  -4  -8   9 577.252 830.330   7
  -4   8   9 746.660 579.510  10
  -4  -8   9 454.602 594.837   5
   4  -8  -9 940.873 1167.28   8
  -4   8   9 429.237 648.270   4
  -4  -8   8 1743.36 1146.60   7
   4   8  -8 3851.94 1278.79   1
  -4   8   8 2961.96 939.041  10
  -4  -8   8 3003.45 1251.82   5
   4  -8  -8 1366.68 1066.04   8
  -4   8   8 2102.41 827.291   4
  -4  -8   7 1122.23 832.487   7
  -4   8   7 504.153 519.893  10
  -4  -8   7 1139.09 854.123   5
   4   8  -7 1861.15 887.638   1
   4  -8  -7 1728.85 946.026   8
  -4   8   7 45.6919 495.033   4
  -4  -8   6 6268.75 1407.22   7
  -4   8   6 7659.26 1499.55  10
  -4  -8   6 5199.85 1308.45   5
   4   8  -6 3527.59 1118.84   1
   4  -8  -6 9194.96 1766.64   8
  -4   8   6 6848.34 1355.28   4
  -4  -8   5 415.742 666.959   7
  -4   8   5 572.004 681.537  10
   4  -8  -5 1247.19 791.367   7
  -4  -8   5 59.8559 515.104   5
   4  -8  -5 1355.12 955.712   8
   4   8  -5 1346.83 836.681   1
  -4   8   5 997.106 596.236   4
  -4  -8   4 413.198 701.202   7
  -4  -8   4 647.978 505.833   5
   4   8  -4 681.661 660.800   1
   4  -8  -4 656.716 705.815   8
  -4   8   4 1575.08 673.189   4
  -4   8   4 1190.29 606.684  10
  -4  -8   3 872.226 549.885   7
  -4   8   3 484.468 548.320  10
   4   8  -3-717.203 839.564   1
  -4  -8   3 349.659 459.122   5
  -4  -8   3-48.8499 284.430   9
   4  -8  -3-78.5760 501.842   8
  -4   8   3 135.210 314.314   4
  -4  -8   2 17480.1 2110.25   7
  -4   8   2 23661.0 2402.93  10
   4   8  -2 15980.0 2178.19   1
   4  -8  -2 18780.1 2167.50   9
  -4  -8   2 22914.1 2066.96   5
   4  -8  -2 20055.0 2246.85   8
  -4   8   2 20241.7 1812.08   4
  -4  -8   1 1858.54 806.307   7
  -4   8   1 2027.66 767.781  10
   4   8  -1 2691.71 1211.68   1
   4  -8  -1 980.747 567.252   9
  -4  -8   0 491.366 632.073   7
  -4   8   0-87.6047 382.098  10
   4  -8   0 364.542 635.813   9
   4   8   0 1451.51 1126.23   1
   4   8   1 15388.4 2350.99   1
  -4  -8  -1 15847.7 2034.18   7
  -4   8  -1 13866.2 1474.73   1
  -4   8  -1 15607.5 1970.50  10
   4  -8   1 15928.7 2007.88   9
  -4  -8  -2 17783.1 2222.81   7
  -4   8  -2 16875.4 1740.95   1
   4  -8   2 18725.7 2170.10   9
   4   8   2 16523.3 2473.01   1
  -4   8  -2 15325.7 1947.52  10
  -4  -8  -2 17588.3 1969.01   8
   4   8   3 2396.55 1227.35   1
   4  -8   3 2193.39 783.669   9
  -4  -8  -3 2481.60 1150.93   7
  -4  -8  -3 2392.19 825.305   8
  -4   8  -3 997.121 682.295  10
  -4   8  -3 1300.72 599.455   1
  -4   8  -4 13828.8 1867.75  10
  -4  -8  -4 16540.1 2273.02   7
   4  -8   4 10948.7 1737.06   9
  -4   8  -4 14580.9 1799.62   1
  -4  -8  -4 13522.0 1875.69   8
   4   8   4 8310.42 1712.77   1
  -4  -8  -5 3495.08 1269.53   7
  -4   8  -5 3166.07 913.591  10
   4   8   5 5313.03 1429.33   1
   4  -8   5 4392.46 1159.62   9
  -4  -8  -5 4421.86 1200.76   8
  -4  -8  -6 4456.84 1334.35   7
  -4   8  -6 1509.70 745.412  10
   4  -8   6 3240.32 1155.51   9
   4   8   6 781.691 706.109   1
  -4  -8  -6 2448.95 1161.99   8
   4   8   7 566.947 635.457   1
   4  -8   7 650.664 615.486   9
  -4  -8  -7 860.062 918.712   8
  -4   8  -7 1170.22 720.697  10
   4   8   8 8809.67 1897.18   4
  -4   8  -8 9141.64 1654.05  10
  -4   8  -8 4438.92 1450.70   3
   4  -8   8 5099.25 1337.48   9
   4   8   8 6774.17 1502.36   1
  -4  -8  -8 6615.01 1597.99   8
  -4  -8  -9 1498.28 1095.17   8
  -4   9   9 783.576 622.937  10
   4   9  -8 2402.76 1199.08   1
  -4  -9   8 207.468 827.006   7
  -4   9   8-84.8742 409.520  10
  -4  -9   8 2988.37 1331.75   5
   4  -9  -8 2868.73 1504.95   8
  -4   9   8 136.419 479.233   4
  -4  -9   7 14137.1 2153.99   7
   4   9  -7 10898.7 2079.31   1
  -4   9   7 14104.0 2140.57  10
  -4  -9   7 10273.2 1941.71   5
   4  -9  -7 12219.5 2200.06   8
  -4   9   7 11569.1 1935.37   4
  -4  -9   6 11766.3 1999.42   7
  -4   9   6 15871.2 2277.37  10
  -4  -9   6 18368.9 2420.44   5
   4   9  -6 20958.3 2733.30   1
   4  -9  -6 15463.3 2333.12   8
  -4   9   6 14667.4 2096.46   4
  -4  -9   5 3564.93 1120.23   7
   4   9  -5 5409.14 1511.50   1
  -4   9   5 3016.64 1064.25  10
  -4  -9   5 5781.46 1444.81   5
   4  -9  -5 6158.79 1598.66   8
  -4   9   5 2927.58 900.163   4
  -4   9   4-625.510 574.963  10
  -4  -9   4 235.771 633.169   7
   4   9  -4 707.830 781.857   1
  -4  -9   4 304.835 485.658   5
   4  -9  -4 629.974 766.368   8
  -4   9   4 201.982 386.597   4
  -4   9   3 4081.22 1123.09  10
   4   9  -3 2866.38 805.381  10
  -4  -9   3 3117.26 865.490   5
   4   9  -3 1403.85 814.367   1
  -4  -9   3 3798.49 1079.86   7
  -4  -9   3 2444.78 756.027   9
   4  -9  -3 3673.96 1136.14   9
   4  -9  -3 3982.01 1046.01   8
  -4  -9   2 6177.93 1432.54   7
  -4   9   2 5749.37 1296.75  10
   4   9  -2 9753.85 1891.10   1
   4  -9  -2 5434.85 1262.94   9
  -4   9   1 2496.53 874.756  10
  -4  -9   1 2360.39 912.842   7
   4  -9  -1 3574.03 1026.97   9
   4   9  -1 4015.56 1458.89   1
  -4  -9   0 569.489 558.641   7
  -4   9   0 812.971 763.762  10
   4  -9   0 775.001 651.159   9
   4   9   0 678.901 959.589   1
  -4  -9  -1 20416.8 2475.46   7
   4   9   1 21404.4 2890.22   1
  -4   9  -1 24741.3 2612.98  10
   4  -9   1 25945.5 2688.82   9
  -4  -9  -2-96.0924 666.916   7
  -4   9  -2-62.1616 421.990  10
   4  -9   2 221.436 539.680   9
   4   9   2 1502.46 1110.11   1
  -4   9  -3 1076.50 662.426  10
  -4  -9  -3 1522.52 863.419   7
   4   9   3 573.921 776.075   1
  -4  -9  -3 480.587 506.341   8
  -4  -9  -4 21499.8 2702.53   7
  -4   9  -4 19745.3 2219.03   1
  -4   9  -4 16801.6 2214.27  10
   4  -9   4 21217.5 2531.04   9
  -4  -9  -4 21451.5 2487.70   8
   4   9   4 20345.2 2676.81   1
   4   9   5 7212.04 1684.61   1
   4  -9   5 4262.30 1221.00   9
  -4  -9  -5 8827.75 1636.80   8
  -4   9  -5 5832.37 1299.00   1
  -4   9  -5 5724.99 1263.19  10
  -4  -9  -5 8347.36 1856.76   7
   4   9   6 8957.71 1805.61   1
  -4   9  -6 7381.48 1519.90  10
   4  -9   6 9193.39 1739.17   9
  -4  -9  -6 9112.18 1760.10   8
  -4   9  -6 7472.51 1512.76   1
  -4  -9  -6 6421.29 1749.48   7
  -4  -9  -7 1564.92 1271.23   7
   4   9   7-100.172 620.918   1
  -4   9  -7 1218.81 656.855  10
   4  -9   7 130.395 514.785   9
  -4  -9  -7-219.777 678.220   8
  -4  -9  -8 6331.99 1690.51   8
  -4  10   7 3107.12 1148.04  10
  -4 -10   7 3962.13 1344.72   5
  -4  10   7 3358.42 1121.91   4
  -4 -10   6 14297.3 2231.74   7
  -4  10   6 12849.2 2126.83  10
   4  10  -6 15293.3 2464.72   1
  -4 -10   6 13444.9 2136.74   5
   4 -10  -6 13346.7 2325.77   8
  -4  10   6 14324.6 2122.58   4
  -4 -10   5 9279.90 1775.29   7
  -4  10   5 7374.73 1649.92  10
   4  10  -5 11205.0 2224.58   1
  -4 -10   5 7824.36 1644.35   5
   4 -10  -5 8234.48 1788.59   8
  -4  10   5 7137.97 1472.60   4
  -4 -10   4 16197.9 2340.25   7
  -4  10   4 14147.7 2192.31  10
  -4 -10   4 12881.2 1912.70   5
   4  10  -4 13420.3 2318.33   1
   4 -10  -4 15218.2 2327.43   8
  -4 -10   3 8533.72 1681.82   7
  -4  10   3 7043.69 1522.80  10
  -4 -10   3 3851.04 1058.45   5
   4  10  -3 5457.67 1605.58   1
   4 -10  -3 7133.31 1557.17   9
  -4 -10   2 73672.7 4896.87   7
  -4  10   2 76945.9 5049.57  10
   4  10  -2 67716.5 5153.93   1
   4 -10  -2 62394.6 4562.78   9
   4 -10  -1 12445.3 1976.73   9
  -4 -10   1 10594.9 1845.27   7
  -4  10   1 10730.6 1859.98  10
   4  10  -1 9687.50 2116.56   1
  -4 -10   0 25757.5 2860.73   7
  -4  10   0 25916.1 2871.26  10
   4 -10   0 26129.9 2871.85   9
   4  10   0 21115.7 2975.83   1
   4  10   1 1497.90 1390.07   1
  -4 -10  -1 2953.61 1130.75   7
  -4  10  -1 220.096 337.653  10
   4 -10   1 522.613 548.888   9
  -4 -10  -2 64449.9 4730.06   7
  -4  10  -2 64607.8 4550.55  10
   4 -10   2 60555.5 4477.99   9
   4  10   2 56741.3 4942.03   1
  -4 -10  -3 29357.9 3242.66   7
  -4  10  -3 37338.4 3443.08  10
   4 -10   3 37272.1 3495.71   9
   4  10   3 34067.8 3687.91   1
  -4 -10  -4 3373.26 1378.12   7
  -4  10  -4 1584.93 806.300  10
   4 -10   4 2037.39 956.867   9
  -4 -10  -4 530.095 574.487   8
   4  10   4 1855.81 1131.98   1
   4  10   5 4630.14 1396.49   1
  -4 -10  -5 5285.06 1563.63   7
  -4  10  -5 1874.46 850.442  10
   4 -10   5 3850.11 1144.94   9
  -4 -10  -5 4216.65 1337.63   8
  -4  10  -6 61404.7 4575.61  10
  -4 -10  -6 62514.1 4757.77   8
   4  10   6 60738.5 4806.04   1
  -4 -11   5 244.519 613.435   5
   4  11  -4 6588.55 1917.01   1
  -4 -11   4 10193.4 1958.48   7
  -4 -11   3 898.047 784.810   7
  -4  11   3 2689.17 1112.27  10
   4  11  -3 889.674 1238.59   1
   4 -11  -3 2007.14 985.881   9
  -4 -11   2 22150.2 2802.01   7
  -4  11   2 20736.8 2713.73  10
   4 -11  -2 26506.5 3087.95   9
   4  11  -2 26747.0 3464.62   1
  -4 -11   1 1300.11 828.868   7
  -4  11   1 974.191 724.951  10
   4 -11  -1 900.170 647.869   9
   4  11  -1 2049.03 1404.22   1
  -4 -11   0 14500.4 2273.24   7
  -4  11   0 11349.5 2008.18  10
   4 -11   0 12304.0 2087.76   9
   4  11   0 8434.23 2308.61   1
   4 -11   1 484.251 585.598   9
  -4  11  -1 1381.57 731.591  10
  -4 -11  -1 680.910 888.752   7
  -4  11  -2 1899.84 900.335  10
   4  11   2 4262.96 1608.54   1
   4 -11   2 6159.50 1438.23   9
  -4 -11  -2 5800.35 1592.92   7
  -4  11  -3 10799.0 1983.40  10
   4  11   3 6436.22 1800.46   1
  -5   0  13 88.1349 389.458   4
   5   0 -13-696.119 939.464   8
  -5   0  12 18843.7 2388.58   4
   5   0 -12 18551.3 2525.95   8
  -5   0  11-406.337 502.817   4
   5   0 -11 383.029 558.141   8
  -5   0  10 1817.34 803.332   4
   5   0 -10 1548.23 782.738   8
   5   0 -10 1215.71 649.814   2
  -5   0   9-27.9659 387.371   4
   5   0  -9-162.251 384.586   8
   5   0  -9-102.837 315.849   2
   5   0  -8 68766.8 3562.98   2
  -5   0   8 76222.4 4117.08   4
   5   0  -8 73669.6 3900.79   8
  -5   0   7 222.800 345.700   4
   5   0  -7 169.954 402.281   2
   5   0  -7-131.811 336.648   8
  -5   0   6 89515.6 2267.38  10
   5   0  -6 83854.3 3801.40   2
  -5   0   6 83227.8 4006.21   4
   5   0  -6 92943.8 3821.75   8
  -5   0   5 641.172 383.277   7
  -5   0   5-16.9949 73.0997  10
  -5   0   5 187.328 470.601   6
   5   0  -5 75.2741 56.1837   9
   5   0  -5 69.6976 59.7905   9
  -5   0   5 147.359 385.226   4
   5   0  -5 538.907 484.247   2
   5   0  -5 1.55540 274.491   8
   5   0  -5-69.8286 226.476   1
  -5   0   4 36677.8 1439.93  10
   5   0  -4 37549.0 1729.33   1
  -5   0   4 35625.2 2242.07   6
   5   0  -4 32847.4 1055.50   9
   5   0  -4 35585.0 1059.50   9
   5   0  -4 39321.2 2270.52   2
   5   0  -4 38139.4 1884.42   8
  -5   0   4 32501.5 2140.16   4
  -5   0   4 37651.8 1923.79   7
  -5   0   3 5.30869 185.314   7
  -5   0   3 70.6091 120.111  10
  -5   0   3-152.740 383.978   6
   5   0  -3-24.0808 251.380   1
   5   0  -3 146.709 87.9066   9
   5   0  -3 10.0337 279.518   2
  -5   0   3 164.279 295.472   4
   5   0  -3-164.190 254.964   8
  -5   0   2 565487. 12075.4  10
  -5   0   2 555538. 13015.3   6
   5   0  -2 537552. 11502.3   9
   5   0  -2 556840. 12913.5   2
   5   0  -2 560612. 12166.8   1
  -5   0   2 553746. 12856.3   4
   5   0  -2 552552. 11460.8   8
  -5   0   2 545145. 11801.9   7
   5   0  -1 350.598 378.427   2
  -5   0   1-49.5140 180.297  10
  -5   0   1 77.6883 150.292   7
   5   0  -1-57.7401 294.417   1
   5   0  -1-75.4474 126.167   9
  -5   0   0 31165.2 1352.92   7
  -5   0   0 30164.9 1734.26  10
   5   0   0 29985.9 1579.59   9
   5   0   0 30882.3 1771.68   2
   5   0   0 32715.4 1676.78   1
  -5   0  -1 488.237 325.559  10
  -5   0  -1 382.388 319.609   7
  -5   0  -1 260.467 223.074   3
   5   0   1-42.0714 210.740   2
   5   0   1-113.862 177.818   9
   5   0   1 480.770 336.367   1
  -5   0  -2 177130. 5655.33  10
   5   0   2 172452. 5421.87   9
   5   0   2 181674. 5040.89   2
  -5   0  -2 177260. 5036.98   3
  -5   0  -2 176851. 4264.01   8
   5   0   2 178574. 5368.57   1
  -5   0  -3 239.038 349.362  10
   5   0   3 344.415 384.252   9
   5   0   3-61.2958 159.216   2
  -5   0  -3-123.759 285.785   3
  -5   0  -3-20.0815 151.617   8
  -5   0  -4 1634.03 565.583  10
  -5   0  -4 1268.43 448.248   3
   5   0   4 1830.52 637.322   9
   5   0   4 1163.18 290.704   2
  -5   0  -4 841.178 297.561   8
  -5   0  -5 566.317 403.187  10
  -5   0  -5 136.828 365.979   3
   5   0   5 423.222 406.869   9
   5   0   5 38.5886 126.316   2
  -5   0  -5 549.870 293.990   8
  -5   0  -6 21726.8 1970.14   3
  -5   0  -6 16671.1 1786.29  10
   5   0   6 17330.0 1857.71   9
  -5   0  -6 14875.6 1467.67   8
   5   0   7-85.8758 270.035   4
  -5   0  -7 1.53830 322.388  10
  -5   0  -7 23.5322 501.311   3
   5   0   7 325.550 604.490   9
  -5   0  -7 228.054 411.858   8
  -5   0  -8 8675.02 1430.65  10
  -5   0  -8 7162.25 1337.97   3
   5   0   8 7934.18 1449.42   9
  -5   0  -8 10685.9 1458.37   8
   5   0   8 6895.64 1065.77   4
  -5   0  -9 18.5334 338.945  10
  -5   0  -9-174.573 502.507   3
   5   0   9-388.583 542.600   9
  -5   0  -9 244.381 460.067   8
  -5   0 -10 267.549 552.607   3
  -5   0 -10 1469.21 1143.44  10
   5   0  10-1075.84 661.362   9
  -5   0 -10 629.132 657.011   8
  -5   0 -11-14.9967 505.682   3
   5   0  11-497.573 467.648   9
  -5   0 -11 1094.72 936.005   8
  -5   0 -11-807.991 590.779  10
  -5   0 -12 1870.17 955.833  10
  -5   0 -12 370.317 760.830   8
   5   1 -13 636.799 629.998   3
  -5  -1  13 102.123 422.232   4
  -5   1  13 571.840 601.858   4
   5  -1 -13 302.660 801.830   8
   5   1 -13 1082.22 998.596   8
   5   1 -12 23965.6 2631.99   3
  -5  -1  12 22907.6 2604.94   4
  -5   1  12 24491.5 2787.18   4
   5  -1 -12 26608.7 3035.87   8
   5   1 -12 24365.7 2847.78   8
  -5  -1  11 28126.8 2754.46   4
  -5   1  11 26458.1 2786.55   4
   5  -1 -11 28386.5 2994.71   8
   5   1 -11 31638.2 3025.57   8
   5  -1 -10 149.810 356.120   2
  -5  -1  10 504.147 484.035   4
  -5   1  10 183.644 410.426   4
   5  -1 -10 952.049 945.966   8
   5   1 -10 418.891 570.215   8
   5   1 -10 347.398 456.794   2
  -5  -1   9 6788.96 1236.70   4
  -5   1   9 6511.19 1245.07   4
   5  -1  -9 6884.15 1251.56   8
   5   1  -9 5623.59 1005.90   2
   5   1  -9 6422.70 1223.03   8
   5  -1  -9 5811.17 1058.39   2
   5   1  -8 103838. 4410.78   2
  -5  -1   8 88197.1 4542.65   4
   5  -1  -8 99176.5 4469.80   2
  -5   1   8 97726.5 4820.48   4
   5  -1  -8 96636.7 4697.38   8
   5   1  -8 102087. 4674.42   8
   5   1  -7 56803.3 3098.08   2
  -5  -1   7 57162.4 3361.74   4
   5  -1  -7 59473.9 3236.15   2
  -5   1   7 60381.8 3518.66   4
   5  -1  -7 63871.8 3431.74   8
   5   1  -7 60883.9 3268.17   8
  -5  -1   7 61276.0 3318.61   7
  -5   1   6 9878.59 794.170  10
   5   1  -6 9402.86 1126.48   8
   5   1  -6 5873.05 939.819   2
  -5  -1   6 8247.35 1205.68   4
  -5   1   6 7088.19 1106.75   4
   5  -1  -6 7761.60 1049.51   8
   5  -1  -6 8837.43 1172.28   2
  -5  -1   6 9739.03 1214.20   7
  -5   1   5 14103.5 968.586  10
   5   1  -5 12642.4 1167.83   1
  -5  -1   5 13575.5 1493.68   6
  -5   1   5 15313.7 1520.28   6
   5  -1  -5 13159.2 930.018   1
   5   1  -5 13916.0 1388.81   2
   5  -1  -5 14138.9 1414.86   2
  -5  -1   5 13140.4 1420.06   4
  -5   1   5 12601.4 1393.73   4
   5  -1  -5 13941.6 1346.77   8
   5   1  -5 13372.0 1209.05   8
  -5  -1   5 11962.6 1240.18   7
  -5  -1   4 255751. 5486.44  10
  -5   1   4 258165. 6310.90  10
   5   1  -4 254164. 6719.14   1
  -5  -1   4 250815. 7483.60   6
   5  -1  -4 258868. 5969.29   9
   5  -1  -4 242061. 7278.19   2
  -5  -1   4 242385. 7389.24   4
  -5   1   4 246401. 7337.12   6
  -5   1   4 251364. 7375.56   4
   5  -1  -4 244983. 5797.06   1
   5  -1  -4 259405. 6906.57   8
   5   1  -4 246113. 6494.32   8
  -5  -1   4 259588. 6980.73   7
  -5  -1   3 21732.5 1065.36  10
   5   1  -3 24307.0 1512.05   1
  -5  -1   3 24750.0 1792.99   6
  -5   1   3 22733.2 1667.72   6
  -5  -1   3 22817.9 1702.29   4
   5  -1  -3 20730.1 999.142   1
   5  -1  -3 20309.8 1114.30   9
   5  -1  -3 23035.6 1693.29   2
  -5   1   3 20538.4 1569.93   4
  -5   1   3 22699.0 1338.62  10
   5  -1  -3 20759.8 1399.06   8
   5   1  -3 20733.1 1157.25   8
  -5  -1   3 22878.5 1449.06   7
  -5  -1   2 69056.0 2390.02  10
  -5   1   2 68721.4 2647.76  10
  -5  -1   2 65725.1 3023.74   6
   5   1  -2 66302.9 1974.96   9
   5   1  -2 67579.8 2789.70   1
   5  -1  -2 65902.3 2368.46   9
  -5  -1   2 68583.7 1976.43   9
   5  -1  -2 65663.9 2979.13   2
  -5   1   2 69040.7 2891.20   4
   5  -1  -2 69971.4 2070.39   1
   5  -1  -2 68226.1 2388.68   8
   5   1  -2 71698.8 2015.11   8
  -5   1   2 67642.3 2052.37   7
  -5  -1   2 69499.1 2613.76   7
  -5  -1   1 214592. 5681.93   7
   5   1  -1 224524. 4667.81   3
  -5  -1   1 222532. 5822.86  10
  -5   1   1 226326. 6123.96  10
   5   1  -1 218644. 5411.44   9
   5  -1  -1 222286. 5767.40   9
   5  -1  -1 220593. 6305.22   2
   5   1  -1 223958. 6389.14   1
  -5   1   1 206273. 5946.51   4
   5  -1  -1 216441. 4965.06   8
  -5   1   1 228273. 4956.53   8
   5  -1  -1 232168. 5227.66   1
  -5   1   1 223174. 4812.76   7
  -5   1   0 217139. 4706.42   7
  -5  -1   0 221314. 5773.98   7
  -5  -1   0 223424. 6079.05  10
   5   1   0 217860. 5716.14   9
   5  -1   0 224466. 6017.42   9
   5  -1   0 218689. 6131.44   2
   5   1   0 215649. 6357.10   1
  -5   1   0 223567. 5059.03   8
   5  -1   0 228106. 5513.53   1
  -5   1   0 228999. 6289.60  10
  -5  -1  -1 53880.7 2312.57   7
  -5  -1  -1 51630.2 2506.66  10
  -5  -1  -1 55996.7 1890.43   3
  -5   1  -1 55796.5 2364.38   3
  -5   1  -1 54089.7 2608.60  10
   5   1   1 51417.4 2357.55   9
   5  -1   1 51442.0 2451.35   9
   5  -1   1 50453.3 2292.07   2
  -5   1  -1 52841.0 1710.23   8
  -5  -1  -1 49231.9 1362.20   8
   5   1   1 54258.0 2601.17   1
  -5  -1  -2 200373. 5257.99   3
  -5  -1  -2 199245. 6133.31  10
   5   1   2 199770. 5921.96   9
   5  -1   2 187626. 5949.15   9
   5  -1   2 206286. 5462.08   2
  -5   1  -2 204138. 6194.56  10
  -5   1  -2 188016. 5652.22   3
  -5  -1  -2 198311. 4924.52   8
   5   1   2 199257. 6055.89   1
  -5  -1  -3 14956.0 1199.80   3
  -5  -1  -3 14096.8 1411.02  10
  -5   1  -3 16083.5 1388.37   3
   5   1   3 14982.9 1424.17   9
   5  -1   3 15672.4 1467.50   9
   5  -1   3 13979.1 1032.81   2
  -5  -1  -3 14735.6 1055.34   8
   5   1   3 14423.8 1417.67   1
  -5   1  -3 16103.9 1524.25  10
  -5  -1  -4 28444.1 1860.87   3
  -5   1  -4 26086.1 1944.64   3
   5   1   4 30114.3 2184.10   9
  -5  -1  -4 28865.7 2168.48  10
   5  -1   4 26340.2 2048.30   9
   5  -1   4 27113.9 1371.49   2
  -5  -1  -4 30524.9 1730.14   8
   5   1   4 27395.4 2073.13   1
  -5   1  -4 26570.7 2057.67  10
  -5  -1  -5 26252.8 1938.81   3
  -5   1  -5 20825.1 1883.96   3
  -5  -1  -5 24357.0 2098.43  10
  -5   1  -5 23469.9 2052.59  10
   5  -1   5 26533.1 2173.90   9
   5   1   5 24884.5 2127.10   9
   5  -1   5 25056.8 1129.42   2
  -5  -1  -5 25862.6 1783.77   8
  -5  -1  -6 164602. 5968.04   3
  -5   1  -6 160325. 6175.52   3
  -5  -1  -6 155295. 6234.87  10
  -5   1  -6 156176. 6129.69  10
   5   1   6 161757. 6351.05   9
   5  -1   6 156851. 6237.64   9
  -5  -1  -6 165424. 5657.26   8
   5  -1   6 168397. 5131.64   4
  -5   1  -6 160697. 5613.64   8
  -5  -1  -7 58451.9 3479.27   3
  -5   1  -7 56732.6 3589.90   3
  -5  -1  -7 55588.5 3570.28  10
  -5   1  -7 53291.9 3454.90  10
   5   1   7 56494.9 3652.40   9
   5  -1   7 55234.2 3603.00   9
  -5  -1  -7 54886.3 3210.39   8
  -5   1  -7 54710.1 3180.60   8
  -5  -1  -8 42239.9 3126.57   3
  -5   1  -8 35363.2 3004.53   3
  -5  -1  -8 36125.9 2988.91  10
  -5   1  -8 36695.9 2962.59  10
   5   1   8 38842.8 3170.74   9
   5  -1   8 40505.5 3191.88   9
   5   1   8 38660.6 2779.03   4
  -5  -1  -8 40453.6 2910.41   8
  -5   1  -8 42610.0 2966.61   8
  -5  -1  -9 5248.75 1201.45  10
  -5  -1  -9 4490.63 1087.95   3
  -5   1  -9 6056.41 1210.15  10
  -5   1  -9 4566.79 1167.99   3
   5   1   9 8868.19 1622.80   9
   5  -1   9 5734.33 1273.47   9
  -5  -1  -9 5522.51 1194.79   8
  -5   1  -9 5833.01 1159.51   8
   5   1   9 5257.02 1102.12   4
  -5  -1 -10 56891.0 4179.68   3
  -5   1 -10 58675.8 4369.75   3
  -5   1 -10 56925.6 4005.98  10
   5   1  10 59815.5 4361.88   9
   5  -1  10 52344.8 4111.27   9
  -5  -1 -10 55561.9 4017.52   8
  -5   1 -10 58984.9 4063.50   8
  -5  -1 -10 55963.4 4064.52  10
  -5   1 -11 21005.4 2692.28   3
  -5  -1 -11 17104.9 2395.06   3
  -5  -1 -11 18262.9 2389.50  10
  -5   1 -11 16310.3 2195.89  10
   5  -1  11 18093.7 2483.84   9
   5   1  11 15199.0 2312.36   9
  -5   1 -11 20649.0 2518.65   8
  -5  -1 -11 18372.9 2457.32   8
  -5  -1 -12 2600.84 943.640  10
  -5   1 -12 2963.27 1012.87  10
  -5  -1 -12 1815.15 959.357   8
  -5   1 -12 2730.00 1051.28   8
   5   2 -13 15417.3 2199.54   3
  -5  -2  13 11311.3 1916.10   4
  -5   2  13 12096.7 2150.11   4
   5  -2 -13 16632.7 2760.65   8
   5   2 -13 15982.6 2469.65   8
   5   2 -12 2450.80 913.853   3
  -5  -2  12 1041.33 642.392   4
  -5   2  12 2142.28 945.527   4
   5  -2 -12 2239.73 968.922   8
   5   2 -12 2553.56 991.552   8
   5   2 -11 2059.07 767.086   3
  -5  -2  11 3958.83 1089.48   4
  -5   2  11 7177.11 1516.95   4
   5  -2 -11 6518.53 1627.31   8
   5   2 -11 2997.80 1000.85   8
   5  -2 -10 2431.49 753.329   2
   5   2 -10 3256.58 864.049   3
  -5  -2  10 3448.82 956.059   4
  -5   2  10 4522.19 1177.73   4
   5  -2 -10 4258.31 1274.32   8
   5   2 -10 2629.36 868.490   8
   5   2  -9 95154.2 4440.21   3
   5   2  -9 89124.1 4223.49   2
  -5  -2   9 86741.3 4665.46   4
  -5   2   9 90251.6 4950.78   4
   5  -2  -9 89892.6 4464.32   2
   5  -2  -9 102143. 5294.40   8
   5   2  -9 97078.3 4853.99   8
   5  -2  -8 951.194 430.093   2
   5   2  -8 492.483 296.479   3
  -5  -2   8 84.3049 449.544   7
  -5  -2   8 174.220 364.171   4
   5   2  -8 1649.49 561.687   2
  -5   2   8 1142.52 552.162   4
   5  -2  -8 1770.91 794.977   8
   5   2  -8 876.096 506.104   8
  -5   2   7 35147.5 1911.99  10
   5   2  -7 34567.3 2354.32   2
  -5  -2   7 31653.9 2492.85   4
  -5   2   7 35756.8 2699.80   4
   5  -2  -7 30353.2 2336.08   2
   5  -2  -7 35101.6 2680.97   8
  -5  -2   7 36671.2 2599.19   7
  -5  -2   6 1345.17 533.951   7
  -5   2   6 1635.63 409.821  10
  -5  -2   6 2145.46 704.315   4
  -5   2   6 2253.95 739.041   4
   5  -2  -6 1730.64 760.300   8
   5   2  -6 1173.98 556.306   1
   5  -2  -6 2077.98 668.751   2
   5   2  -5 31935.4 2084.46   1
  -5   2   5 38217.8 2379.39   6
  -5  -2   5 33673.9 2359.84   6
  -5   2   5 35198.9 1877.01  10
  -5  -2   5 30916.3 2271.78   4
   5  -2  -5 37976.1 2429.35   2
  -5   2   5 31406.9 2253.76   4
   5  -2  -5 37487.6 2473.41   8
  -5  -2   5 33851.6 2217.38   7
   5   2  -4 2548.15 408.422   3
  -5  -2   4 2614.22 564.120   7
   5   2  -4 3453.20 710.784   1
   5   2  -4 2282.28 231.696  10
  -5   2   4 2076.78 459.006  10
  -5  -2   4 1922.26 616.653   6
  -5   2   4 2472.34 657.692   6
   5  -2  -4 2163.47 449.225   9
  -5  -2   4 2988.92 718.093   4
   5  -2  -4 2297.19 747.130   8
  -5   2   4 2417.45 634.077   4
   5  -2  -4 2407.28 610.436   2
  -5  -2   3 28041.8 1942.64   6
   5   2  -3 29684.9 1084.27   3
  -5   2   3 30193.2 1743.36  10
   5  -2  -3 28353.5 1582.24   9
  -5  -2   3 29892.0 1276.10  10
   5  -2  -3 28792.0 1980.74   2
  -5   2   3 25670.5 1783.10   4
   5  -2  -3 29446.5 1904.68   8
  -5   2   3 28838.0 1920.25   6
   5   2  -3 24827.1 1727.14   1
  -5  -2   3 29500.9 1829.65   7
  -5  -2   2 860.700 355.784   7
   5  -2  -2 1403.93 211.583   7
  -5  -2   2 964.808 266.812  10
  -5   2   2 824.070 349.735  10
  -5  -2   2 1512.97 540.370   6
   5   2  -2 1537.32 543.135   1
  -5  -2   2 1844.50 260.300   9
   5  -2  -2 2095.29 453.643   9
   5  -2  -2 1186.99 351.270   8
  -5   2   2 1799.16 613.903   6
  -5   2   2 709.393 301.025   4
   5  -2  -2 2232.19 572.894   2
  -5  -2   1 168375. 5041.17   7
  -5   2   1 175441. 5256.19  10
  -5  -2   1 169843. 4830.57  10
  -5   2   1 165573. 3900.24   1
   5  -2  -1 169204. 4999.03   9
   5   2  -1 164229. 5494.32   1
  -5   2   1 163691. 4841.36   4
   5  -2  -1 157990. 5197.70   2
   5   2  -1 168277. 4423.74   9
   5  -2  -1 169686. 4434.67   8
   5   2  -1 169574. 4082.19   8
  -5  -2   0 1195.67 490.995   7
  -5  -2   0 1974.54 437.623  10
  -5   2   0 1626.46 457.026  10
   5   2   0 1506.67 366.317   9
   5   2   0 2198.09 833.075   1
   5  -2   0 1901.41 478.058   9
   5   2   0 1681.10 252.130   8
   5  -2   0 1439.22 393.663   2
  -5  -2  -1 78458.4 3294.12   7
   5   2   1 83958.7 3218.93   9
  -5  -2  -1 87371.6 2398.39   3
  -5  -2  -1 88089.3 3461.15  10
  -5   2  -1 89013.0 3613.93  10
   5  -2   1 80170.0 3389.16   9
   5  -2   1 83610.7 3192.43   2
   5   2   1 79310.2 3688.40   1
  -5  -2  -1 84621.6 2423.61   8
   5   2   1 84548.5 2370.87   8
  -5  -2  -2 13696.1 957.138   3
  -5   2  -2 15376.2 1446.86  10
  -5  -2  -2 12751.3 1309.47  10
   5  -2   2 14480.3 1379.61   9
  -5   2  -2 15634.6 1374.68   3
   5  -2   2 14261.8 1133.84   2
  -5  -2  -2 15286.5 1088.50   8
   5   2   2 18354.4 1665.62   1
   5   2   2 14295.5 1307.35   9
  -5  -2  -3 10538.6 980.150   3
  -5   2  -3 8484.11 1101.05   3
  -5  -2  -3 9085.33 1166.30  10
  -5   2  -3 10090.6 1240.62  10
   5   2   3 9779.15 1173.28   9
   5  -2   3 12373.8 1352.22   9
   5   2   3 9154.04 1213.03   1
   5  -2   3 10606.2 920.511   2
  -5  -2  -3 11574.9 1150.52   8
  -5  -2  -4 27390.7 1792.01   3
  -5  -2  -4 25688.2 2087.18  10
  -5   2  -4 26601.6 2048.11   3
   5   2   4 27138.1 2077.80   9
   5  -2   4 26730.7 2107.15   9
  -5   2  -4 23860.2 2004.69  10
   5  -2   4 26334.5 1390.32   2
  -5  -2  -4 24470.7 1762.59   8
   5   2   4 23373.3 1992.34   1
  -5  -2  -5 29271.6 2050.30   3
  -5   2  -5 25536.1 2149.21   3
  -5   2  -5 26354.0 2196.55  10
  -5  -2  -5 27424.9 2271.30  10
   5  -2   5 25206.7 2182.02   9
  -5  -2  -5 30247.4 2078.49   8
   5  -2   5 27895.2 1417.99   4
   5   2   5 25426.5 2183.00   9
   5   2   5 21731.9 2041.59   1
  -5  -2  -6 11374.8 1372.88   3
  -5  -2  -6 6197.68 1142.03  10
  -5   2  -6 6276.13 1139.10  10
  -5   2  -6 10348.5 1454.13   3
   5   2   6 9681.08 1401.75   9
   5  -2   6 8026.52 1277.65   9
  -5  -2  -6 8576.95 1215.42   8
  -5  -2  -7 61465.9 3543.33   3
  -5   2  -7 52531.7 3544.43   3
  -5   2  -7 54509.3 3523.33  10
  -5  -2  -7 55799.6 3673.71  10
   5   2   7 63821.2 3896.17   9
   5  -2   7 55740.2 3645.47   9
  -5  -2  -7 54711.0 3349.79   8
   5   2   8 97.6053 357.260   4
  -5  -2  -8 70.0243 372.224   3
  -5  -2  -8 357.193 536.764  10
  -5   2  -8 932.522 603.960  10
   5   2   8 390.683 366.533   9
  -5   2  -8 706.342 579.888   3
   5  -2   8-310.724 494.588   9
  -5  -2  -8 388.305 669.217   8
  -5   2  -8-657.048 469.558   8
   5   2   9 298.492 404.698   4
  -5  -2  -9 267.759 519.739   3
  -5  -2  -9-233.106 399.509  10
  -5   2  -9 368.132 406.018  10
  -5   2  -9 612.914 634.576   3
   5   2   9 586.968 615.848   9
   5  -2   9-52.8811 398.549   9
  -5  -2  -9 290.726 537.012   8
  -5   2  -9-244.200 561.336   8
  -5  -2 -10 68644.0 4667.70   3
  -5   2 -10 84269.7 5332.37   3
  -5  -2 -10 80466.0 5017.79  10
   5   2  10 82004.3 5225.97   9
   5  -2  10 73272.9 4948.26   9
   5   2  10 86471.0 4901.40   4
  -5  -2 -10 75818.7 4913.47   8
  -5   2 -10 83479.5 4942.63   8
  -5   2 -10 72964.3 4615.57  10
  -5  -2 -11 20372.2 2571.76  10
  -5  -2 -11 22773.3 2740.91   3
  -5   2 -11 23573.7 2895.86   3
  -5   2 -11 22612.5 2574.10  10
   5   2  11 20781.0 2680.33   9
   5  -2  11 25461.6 2928.38   9
  -5  -2 -11 25160.9 2985.58   8
  -5   2 -11 16999.1 2357.07   8
  -5   2 -12 425.819 561.211   8
  -5  -3  13-561.240 504.599   4
   5   3 -12 17611.9 2235.14   3
  -5  -3  12 16706.8 2207.81   4
  -5   3  12 19191.2 2641.88   4
   5  -3 -12 21082.4 2991.31   8
   5   3 -12 18073.1 2437.71   8
   5   3 -11 29595.3 2718.48   3
  -5  -3  11 29215.0 2815.96   4
  -5   3  11 28775.6 3035.34   4
   5  -3 -11 30023.4 3373.37   8
   5   3 -11 30836.6 3028.81   8
   5   3 -10 13099.0 1688.23   3
   5  -3 -10 11820.8 1652.85   2
  -5  -3  10 12192.3 1742.99   4
   5  -3 -10 10415.0 1915.00   8
  -5   3  10 11110.0 1811.10   4
   5   3 -10 12354.4 1788.42   8
   5   3  -9 56946.4 3343.21   3
   5   3  -9 58408.7 3317.00   2
  -5  -3   9 57093.8 3674.45   4
  -5   3   9 56221.6 3912.99   4
   5  -3  -9 54389.6 3494.63   2
   5  -3  -9 54456.5 4100.77   8
  -5  -3   9 54414.4 3734.92   7
   5   3  -8 46616.5 2790.45   3
  -5   3   8 47223.6 2606.77  10
   5   3  -8 45337.5 2848.24   2
  -5  -3   8 44661.5 3134.36   4
  -5   3   8 46920.7 3353.54   4
   5  -3  -8 53142.7 3310.16   2
   5  -3  -8 49661.6 3714.60   8
  -5  -3   8 44402.4 3169.11   7
   5   3  -7 22353.9 1705.92   3
   5   3  -7 15326.2 1725.22   1
  -5   3   7 23729.9 1741.86  10
  -5  -3   7 20609.6 2012.44   4
  -5   3   7 20031.7 2072.89   4
   5  -3  -7 18465.0 1876.47   2
   5  -3  -7 19879.8 2202.73   8
  -5  -3   7 22120.2 2093.19   7
   5   3  -6 13140.6 1174.63   3
   5   3  -6 13713.5 1546.89   1
  -5   3   6 13010.6 1274.51  10
  -5  -3   6 14193.5 1610.29   4
  -5   3   6 15143.4 1674.06   4
   5  -3  -6 12091.4 1487.85   2
   5  -3  -6 14208.7 1863.35   8
  -5  -3   6 13421.7 1552.19   7
   5  -3  -5 4995.52 938.923   2
   5   3  -5 5103.57 962.314   1
  -5  -3   5 6165.95 1012.86   7
   5   3  -5 5184.35 670.895   3
  -5  -3   5 4567.26 917.184   6
  -5   3   5 3707.10 790.166   6
  -5   3   5 5234.60 796.959  10
   5  -3  -5 6136.04 1358.73   8
  -5   3   5 5211.99 947.361   4
   5   3  -4 14221.9 934.355   3
  -5   3   4 13869.2 1279.60  10
  -5  -3   4 12221.9 1387.55   6
  -5   3   4 13480.7 1342.39   6
  -5   3   4 13844.9 1421.77   4
   5  -3  -4 11857.4 1351.81   2
   5  -3  -4 13789.1 1593.80   8
   5   3  -4 12899.7 1406.45   1
  -5  -3   4 12475.1 1361.83   7
  -5  -3   3 41986.3 2407.62   6
  -5   3   3 43442.4 2314.45  10
  -5   3   3 45129.8 2334.37   6
   5   3  -3 39451.9 2394.66   1
  -5  -3   3 40591.1 1296.54   9
   5  -3  -3 44765.3 2245.58   9
  -5   3   3 41437.6 2315.42   4
   5  -3  -3 40808.2 2481.99   2
   5  -3  -3 41507.7 2400.20   8
  -5  -3   3 40642.5 2354.25   7
  -5  -3   2 19568.5 1569.15   7
  -5   3   2 17255.2 1445.58  10
  -5  -3   2 17893.0 1520.51   6
   5   3  -2 15711.5 1550.69   1
  -5  -3   2 18322.1 1211.37  10
   5  -3  -2 17361.9 1386.56   9
  -5   3   2 17738.0 1438.91   6
  -5   3   2 15542.2 1285.62   4
   5  -3  -2 17472.1 1543.75   2
   5  -3  -2 15133.0 1302.94   8
   5  -3  -2 16714.1 703.713   7
  -5  -3   1 31582.6 1982.17   7
  -5  -3   1 29411.3 1687.94  10
  -5   3   1 29551.0 1943.82  10
   5  -3  -1 30116.8 1887.99   9
  -5   3   1 25914.4 985.331   1
  -5   3   1 28187.3 1610.12   4
   5  -3  -1 28250.8 1916.36   2
   5  -3  -1 31131.8 1695.75   8
   5   3  -1 27865.6 2117.54   1
   5   3   0 8973.77 1342.26   1
  -5  -3   0 9216.99 1126.12   7
  -5   3   0 10080.2 1163.26  10
  -5  -3   0 9966.74 1034.22  10
   5  -3   0 8656.38 1044.00   9
  -5   3   0 10969.9 881.080   4
   5  -3   0 10026.8 1099.80   2
  -5  -3  -1 1105.94 229.039   3
   5  -3   1 1124.12 411.817   2
  -5   3  -1 1031.43 448.179  10
  -5  -3  -1 827.551 605.228   7
  -5  -3  -1 906.676 421.606  10
   5   3   1 104.804 712.726   1
   5   3   1 1173.78 443.562   9
   5  -3   1 1021.17 434.431   9
  -5  -3  -1 467.312 235.207   8
  -5   3  -2 16738.5 839.264   7
  -5  -3  -2 18323.3 1605.43  10
  -5   3  -2 18249.1 1668.12  10
  -5   3  -2 19283.3 1666.22   3
   5   3   2 19953.2 1608.42   9
   5  -3   2 17261.1 1610.65   9
   5   3   2 18342.6 1835.52   1
   5  -3   2 17671.4 851.582   4
   5  -3   2 19449.3 1409.68   2
  -5  -3  -2 20136.8 1341.78   8
  -5  -3  -3 23938.1 1943.47  10
  -5   3  -3 20124.3 1825.31   3
   5   3   3 22009.9 1834.48   9
   5  -3   3 22449.1 1898.48   9
  -5  -3  -3 23116.9 1690.90   8
   5  -3   3 21468.9 1437.48   2
   5   3   3 23689.9 2072.88   1
  -5   3  -3 22440.8 1921.52  10
  -5  -3  -4-18.9909 317.458  10
  -5   3  -4 639.137 414.472  10
  -5   3  -4 3.68810 377.648   3
   5   3   4 464.527 335.037   9
   5  -3   4 777.079 528.830   9
   5   3   4-316.095 461.299   1
  -5  -3  -4 74.0628 538.245   8
  -5  -3  -5 1895.59 663.831  10
  -5   3  -5 1040.59 565.593  10
  -5   3  -5 2221.14 775.491   3
   5   3   5 1830.46 689.879   9
   5   3   5 1255.53 632.592   1
   5  -3   5 1617.89 697.087   9
  -5  -3  -5 2607.96 1020.66   8
  -5  -3  -6 2977.00 865.660  10
  -5   3  -6 3327.70 948.056   3
  -5   3  -6 3400.08 823.081  10
   5   3   6 3784.34 931.507   9
   5  -3   6 4828.22 1048.27   9
  -5  -3  -6 3174.48 971.297   8
   5   3   6 3848.70 947.652   1
  -5  -3  -7 12662.1 1757.35  10
  -5   3  -7 12872.6 1696.43  10
   5   3   7 12737.4 1772.32   9
  -5   3  -7 13187.8 1825.01   3
   5  -3   7 16304.2 1970.45   9
  -5  -3  -7 15986.0 1951.77   8
   5   3   8 862.379 632.459   4
  -5  -3  -8 640.547 612.199   3
  -5  -3  -8 602.511 511.327  10
  -5   3  -8 398.822 388.812  10
  -5   3  -8 507.905 489.541   3
   5   3   8 681.574 441.759   9
   5  -3   8 2055.18 805.804   9
  -5  -3  -8 1559.36 1004.81   8
   5   3   9 3249.09 916.937   4
  -5   3  -9 3805.37 1231.10   3
  -5  -3  -9 3940.05 1095.02   3
  -5  -3  -9 4044.97 1151.69  10
  -5   3  -9 4620.91 1122.99  10
   5   3   9 3716.55 1059.29   9
   5  -3   9 3838.75 1182.97   9
  -5  -3  -9 2812.67 1055.81   8
  -5   3 -10 488.573 586.406   3
  -5  -3 -10 222.261 693.675  10
  -5   3 -10 1407.33 752.487  10
   5  -3  10-1196.61 717.048   9
   5   3  10 908.401 779.106   9
  -5  -3 -10 9.78977 750.103   8
  -5  -3 -10 59.8705 517.638   3
  -5   3 -10-405.262 569.813   8
   5   3  10 295.465 522.358   4
  -5  -3 -11 6449.87 1508.94  10
  -5  -3 -11 2120.28 920.125   3
  -5   3 -11 5947.45 1565.79   3
   5   3  11 5848.28 1467.42   9
   5  -3  11 4019.38 1290.96   9
  -5   3 -11 3818.85 1104.27  10
  -5  -3 -11 5503.51 1528.27   8
  -5   3 -11 3658.04 1155.97   8
   5   3  11 3806.64 1098.66   4
  -5  -4  12 15687.8 2137.61   4
   5  -4 -12 24313.1 3532.27   8
  -5   4  12 18628.0 2641.66   4
   5   4 -12 18165.9 2480.65   8
  -5  -4  11 1032.26 642.649   4
   5  -4 -11 554.882 1232.37   8
  -5   4  11 1519.88 911.990   4
   5   4 -11 560.518 522.261   8
  -5  -4  10 12047.0 1898.20   7
   5  -4 -10 10808.6 1629.97   2
   5   4 -10 10775.7 1547.32   3
  -5  -4  10 11897.3 1901.95   5
  -5  -4  10 9919.82 1587.70   4
   5  -4 -10 16446.2 2613.23   8
  -5   4  10 12516.4 1966.75   4
  -5  -4   9 13567.2 1899.71   7
   5   4  -9 16811.3 1805.90   3
   5   4  -9 14178.1 1935.41   1
  -5  -4   9 15731.7 2122.64   5
   5   4  -9 18084.9 1824.71   2
   5  -4  -9 13658.7 1791.80   2
  -5  -4   9 12404.0 1686.88   4
   5  -4  -9 18705.9 2645.61   8
  -5   4   9 12722.2 1898.23   4
   5   4  -8 44518.9 3288.40   1
   5   4  -8 59809.1 3210.09   3
  -5   4   8 51140.7 3025.46  10
  -5  -4   8 51188.2 3677.30   5
  -5   4   8 47006.7 3509.02   4
   5  -4  -8 49250.3 3992.06   8
   5  -4  -8 52060.3 3476.79   2
  -5  -4   8 51352.7 3555.10   7
   5   4  -7 20605.2 1700.70   3
  -5   4   7 19436.5 1754.32  10
   5   4  -7 14731.4 1797.72   1
  -5  -4   7 18985.3 2143.24   5
  -5   4   7 20033.3 2116.91   4
   5  -4  -7 22288.5 2591.36   8
   5  -4  -7 20047.1 2040.89   2
  -5  -4   7 19596.9 2088.18   7
   5   4  -6 85211.6 3388.84   3
  -5   4   6 83751.1 3785.99  10
   5   4  -6 76713.4 4035.50   1
  -5  -4   6 80331.1 4305.17   5
  -5   4   6 78906.5 4133.93   4
   5  -4  -6 69488.5 3863.69   2
   5  -4  -6 74304.6 4460.61   8
  -5  -4   6 80830.1 4126.48   7
   5   4  -5 23686.4 1491.77   3
  -5   4   5 21684.8 1791.60  10
  -5  -4   5 19982.4 1848.33   6
  -5   4   5 22730.5 1779.48   6
   5   4  -5 20224.4 1936.14   1
  -5   4   5 23188.0 2029.10   4
   5  -4  -5 21737.8 1981.49   2
   5  -4  -5 21158.4 2231.64   8
  -5  -4   5 19445.0 1862.83   7
   5   4  -4 83806.0 2697.51   3
  -5   4   4 76004.4 3539.86  10
  -5  -4   4 77255.6 3662.57   6
   5   4  -4 71771.5 3720.75   1
  -5   4   4 80863.3 3375.55   6
  -5  -4   4 75910.7 2232.21   9
  -5   4   4 77494.1 3648.82   4
   5  -4  -4 72482.3 3717.86   2
   5  -4  -4 73772.8 3836.79   8
  -5  -4   4 72022.3 3625.07   7
  -5   4   3 162044. 5625.11  10
  -5   4   3 171880. 5274.51   6
  -5  -4   3 169070. 5634.05   6
   5  -4  -3 167698. 5569.58   9
  -5   4   3 171740. 5563.60   4
   5  -4  -3 158762. 5841.19   2
   5  -4  -3 165923. 5762.80   8
   5   4  -3 159888. 5921.59   1
  -5  -4   3 161256. 5753.45   7
  -5  -4   2 137073. 5128.66   7
   5  -4  -2 144088. 3513.43   7
  -5   4   2 144324. 5200.38  10
  -5  -4   2 148585. 5019.40   6
   5   4  -2 139065. 5407.60   1
   5  -4  -2 139537. 4989.16   9
  -5   4   2 147267. 4736.16   4
   5  -4  -2 145867. 5009.44   8
   5  -4  -2 135660. 5156.60   2
  -5   4   2 139776. 4619.59   6
  -5  -4   1 56727.9 2998.61   7
  -5   4   1 53483.1 2902.67  10
  -5   4   1 55233.8 1593.12   1
  -5  -4   1 60476.1 2841.80   6
   5   4  -1 52500.4 3159.33   1
   5  -4  -1 55474.9 2894.28   9
  -5   4   1 53911.5 2358.34   4
   5  -4  -1 52890.5 2611.23   8
   5  -4  -1 51122.7 2829.76   2
  -5   4   1 51135.6 1549.07   1
  -5  -4   0 81461.5 3754.11   7
  -5  -4   0 77149.8 2068.37   3
  -5   4   0 87547.2 3855.80  10
   5  -4   0 82447.3 3687.80   9
   5   4   0 79191.1 4188.56   1
  -5   4   0 84424.9 2797.27   4
   5  -4   0 84179.2 3627.05   2
  -5  -4  -1 40734.3 2628.47   7
  -5  -4  -1 43123.3 2540.69  10
  -5   4  -1 40124.2 2593.84  10
   5  -4   1 46904.1 2729.46   9
   5   4   1 39094.0 3011.60   1
  -5  -4  -1 44616.3 2146.95   8
   5  -4   1 41979.7 2402.58   2
  -5  -4  -2 61038.0 3407.32   7
  -5   4  -2 65444.1 3443.48  10
   5  -4   2 63546.6 3391.93   9
  -5  -4  -2 65684.3 3361.23  10
   5   4   2 64798.5 3822.10   1
  -5  -4  -2 71472.6 2993.23   8
   5  -4   2 66966.9 3028.78   2
  -5   4  -3 35288.7 2516.54  10
  -5   4  -3 32858.7 2463.85   3
  -5  -4  -3 37705.0 2594.70  10
   5  -4   3 35158.4 2538.31   9
  -5  -4  -3 40037.0 2330.01   8
  -5   4  -4 58865.1 3516.67   3
  -5  -4  -4 61881.4 3569.39  10
  -5   4  -4 62313.9 3546.13  10
   5   4   4 61688.9 3502.04   9
   5  -4   4 65993.9 3680.41   9
  -5  -4  -4 64771.5 3381.43   8
   5   4   4 63028.6 3716.64   1
   5   4   5 44001.7 3071.57   9
  -5   4  -5 42849.2 3101.46   3
  -5   4  -5 46176.0 3100.71  10
  -5  -4  -5 47246.8 3201.61  10
   5  -4   5 43907.6 3114.48   9
  -5  -4  -5 46920.4 3108.85   8
   5   4   5 44398.1 3184.25   1
  -5  -4  -6 18091.2 2057.46  10
  -5   4  -6 15339.6 1802.62  10
  -5   4  -6 17201.5 2045.58   3
   5   4   6 17107.4 2012.16   9
   5  -4   6 17590.8 2003.42   9
  -5  -4  -6 16853.2 2001.71   8
   5   4   6 16913.6 2011.41   1
  -5   4  -7 1980.10 846.985   3
   5   4   7 3151.57 1021.58   9
  -5   4  -7 1973.54 747.254  10
   5   4   7 1398.02 715.881   1
   5  -4   7 1284.99 631.275   9
  -5  -4  -7 1125.82 611.174  10
  -5  -4  -7 2025.65 978.063   8
  -5   4  -8 35320.6 2974.44  10
  -5   4  -8 34496.0 3187.99   3
  -5  -4  -8 35477.4 3169.22  10
   5  -4   8 32596.9 2994.29   9
   5   4   8 36425.3 3217.45   9
  -5  -4  -8 34972.7 3394.98   8
   5   4   9 2252.03 896.662   4
  -5  -4  -9 2308.56 931.628  10
  -5   4  -9 1595.03 703.752  10
  -5   4  -9 1675.72 953.028   3
   5  -4   9 2513.01 912.356   9
  -5  -4  -9 3489.78 1439.52   8
   5   4  10 3647.81 1129.10   4
  -5   4 -10 3903.71 1057.94  10
  -5  -4 -10 3929.98 1079.68  10
  -5  -4 -10 3119.41 1011.45   3
  -5   4 -10 4454.64 1355.77   3
   5  -4  10 3609.46 1109.90   9
  -5  -4 -10 2169.33 1212.08   8
  -5  -4 -11 3985.22 1380.23   3
  -5  -4 -11 2092.76 1237.66   8
  -5   4 -11 1370.82 785.119   8
   5   4  11 456.284 651.869   4
   5   5 -12 12750.0 2115.84   1
   5   5 -12 9744.14 1843.42   8
  -5  -5  11 214.209 782.095   5
   5  -5 -11 872.041 1324.75   8
  -5   5  11-227.117 691.922   4
   5   5 -11-542.290 868.060   1
   5   5 -10 48442.8 3982.79   1
  -5  -5  10 64309.1 4655.91   5
  -5   5  10 59952.9 4510.66   4
   5  -5 -10 64297.4 5296.33   8
  -5  -5  10 60405.2 4366.87   7
   5   5  -9 29684.4 2917.43   1
  -5   5   9 32949.4 2657.22  10
  -5  -5   9 35879.7 3285.94   5
  -5   5   9 30441.5 3010.87   4
   5  -5  -9 27006.8 3262.01   8
  -5  -5   9 31318.1 2980.89   7
   5   5  -8 2380.84 868.253   1
  -5  -5   8 2565.83 869.157   7
  -5   5   8 2250.14 757.082  10
  -5  -5   8 3546.11 1145.70   5
   5  -5  -8 2776.12 886.401   2
  -5   5   8 3975.26 1144.81   4
   5   5  -7 3921.91 1099.82   1
  -5  -5   7 4684.63 1132.91   7
  -5  -5   7 3457.58 1081.14   5
   5   5  -7 4005.36 814.267   3
  -5   5   7 4229.42 919.048  10
   5  -5  -7 4724.43 1529.96   8
   5  -5  -7 2777.93 841.950   2
  -5   5   7 3460.11 954.459   4
   5   5  -6 47614.1 2481.79   3
  -5   5   6 41298.2 2814.26  10
   5   5  -6 37227.9 2920.46   1
  -5  -5   6 37735.2 3019.10   5
  -5   5   6 45093.2 3167.70   4
   5  -5  -6 37747.5 3198.41   8
   5  -5  -6 36259.8 2838.00   2
  -5  -5   6 40834.9 3001.83   7
   5   5  -5 90915.2 4621.60   1
  -5   5   5 97700.1 4462.62  10
  -5  -5   5 98456.7 4817.28   5
  -5   5   5 100782. 4620.35   4
   5  -5  -5 101225. 5024.82   8
   5  -5  -5 84605.6 4445.32   2
   5   5  -5 105338. 3664.05   3
  -5  -5   5 91541.6 4548.06   7
  -5   5   4 29820.2 2294.84  10
  -5   5   4 36947.7 2117.79   6
   5   5  -4 32306.0 2597.55   1
  -5  -5   4 31227.1 1558.13   9
  -5  -5   4 30496.3 2226.00   6
  -5   5   4 34332.2 2393.15   4
   5  -5  -4 29932.6 2471.00   8
   5  -5  -4 27859.8 2353.63   2
  -5  -5   4 35126.0 2605.74   7
   5  -5  -3 719.032 496.096   2
  -5   5   3 46.8522 339.424   6
  -5  -5   3 846.946 530.961   6
  -5   5   3 521.359 485.277  10
   5   5  -3 9.72155 633.306   1
  -5  -5   3 604.294 453.957   7
   5  -5  -3 766.378 478.446   9
   5  -5  -3 1149.07 690.234   8
  -5   5   3 610.538 363.479   4
  -5  -5   2 46493.6 2920.32   7
  -5  -5   2 46674.9 2586.38   6
   5  -5  -2 45172.5 1754.53   7
  -5   5   2 39603.9 2661.99  10
  -5   5   2 44125.4 2261.26   6
   5   5  -2 44478.6 3044.56   1
   5  -5  -2 49704.6 2890.26   9
  -5   5   2 50049.6 2518.10   4
   5  -5  -2 47081.8 2782.39   8
   5  -5  -2 45551.2 2880.03   2
  -5  -5   1 24519.0 2116.69   7
  -5  -5   1 29567.0 1950.09   6
  -5   5   1 29422.2 2261.64  10
  -5   5   1 26970.8 1210.88   1
   5   5  -1 29442.9 2536.92   1
   5  -5  -1 24394.9 2039.70   9
  -5   5   1 26907.5 1650.26   4
   5  -5  -1 24137.5 2044.95   2
   5  -5  -1 27604.9 1103.09   7
  -5  -5   0 24236.8 2095.05   7
  -5   5   0 21767.7 1281.58   1
  -5   5   0 22754.7 1993.72  10
   5  -5   0 23881.1 2029.31   9
   5   5   0 22135.6 2324.78   1
  -5   5   0 23010.9 1304.79   4
   5  -5   0 21836.1 1873.34   2
  -5  -5  -1 80564.7 4103.11   7
  -5   5  -1 79989.0 3975.54  10
   5  -5   1 81433.5 3996.37   9
   5   5   1 72642.3 4440.07   1
  -5  -5  -2 967.303 786.337   7
  -5   5  -2-42.5520 342.469  10
   5   5   2-27.8384 804.744   1
   5  -5   2 447.896 451.812   9
  -5  -5  -2 150.859 381.199   8
  -5  -5  -3 1913.21 655.601  10
  -5   5  -3 4001.71 891.575  10
   5  -5   3 2886.40 807.919   9
  -5  -5  -3 2562.19 748.400   8
   5   5   3 2318.42 814.255   1
  -5  -5  -4 24043.4 2241.60  10
  -5   5  -4 23107.3 2275.59   3
  -5   5  -4 22326.4 2147.83  10
   5  -5   4 22156.6 2191.97   9
  -5  -5  -4 23595.7 2047.06   8
   5   5   4 26035.5 2480.57   1
  -5  -5  -5 57156.0 3694.07  10
  -5   5  -5 53706.6 3514.67  10
  -5   5  -5 55333.0 3704.14   3
   5  -5   5 62939.5 3887.46   9
  -5  -5  -5 60244.0 3629.83   8
   5   5   5 54752.8 3721.02   1
  -5   5  -6 7387.71 1326.98  10
   5   5   6 4673.40 1086.24   1
  -5  -5  -6 4618.90 1172.27  10
  -5   5  -6 5115.61 1194.93   3
   5  -5   6 5427.44 1205.60   9
  -5  -5  -6 5010.02 1330.61   8
  -5   5  -7 1525.34 680.897  10
  -5   5  -7-196.074 478.876   3
   5   5   7-355.423 704.655   1
  -5  -5  -7 607.853 538.707  10
   5  -5   7 869.819 593.816   9
  -5   5  -8 8915.97 1532.56  10
  -5   5  -8 6320.23 1473.41   3
   5  -5   8 6012.69 1293.75   9
  -5  -5  -8 7088.93 1597.99   8
   5   5   9 10288.4 1809.75   4
  -5   5  -9 10928.7 1711.31  10
  -5   5  -9 9628.06 1895.29   3
   5  -5   9 11883.1 1929.58   9
  -5  -5  -9 9022.73 1959.00   8
   5   5  10 303.677 636.712   4
  -5   5 -10 1256.70 731.446   3
  -5   5 -10 298.361 412.204  10
   5  -5  10 1031.19 869.526   9
  -5  -5 -10 2569.54 1503.64   8
  -5  -6  11 10988.6 1994.05   7
  -5  -6  11 8332.01 1850.19   5
   5  -6 -11 8015.52 2119.78   8
  -5   6  11 10246.5 2024.59   4
   5   6 -11 12651.4 2168.86   1
   5   6 -10 953.405 684.591   1
  -5  -6  10 896.521 723.144   7
  -5  -6  10 1165.40 939.570   5
   5  -6 -10 1501.78 1456.17   8
  -5   6  10 607.325 683.382   4
   5   6  -9 1634.85 930.461   1
  -5  -6   9 724.321 661.551   7
  -5   6   9 310.621 335.444  10
  -5  -6   9 246.834 672.141   5
   5  -6  -9 846.326 1103.86   8
  -5   6   9 2009.62 908.191   4
   5   6  -8-399.913 752.983   1
  -5  -6   8 1855.35 816.000   7
  -5   6   8 456.790 516.273  10
  -5  -6   8 1790.40 856.204   5
   5  -6  -8 85.7858 816.211   8
  -5   6   8 633.960 650.819   4
  -5   6   7 54511.2 3572.25  10
   5   6  -7 47186.6 3650.71   1
  -5  -6   7 53431.9 3908.60   5
  -5   6   7 60111.4 4007.88   4
   5  -6  -7 56512.9 4304.82   8
  -5  -6   7 53154.4 3760.70   7
   5   6  -6 13905.4 1957.88   1
  -5   6   6 14706.5 1786.93  10
  -5  -6   6 17571.7 2135.91   5
  -5   6   6 15412.4 1921.77   4
   5  -6  -6 15097.8 2088.43   8
  -5  -6   6 14383.4 1905.67   7
  -5   6   5 29901.3 2511.69  10
   5   6  -5 26796.3 2580.55   1
  -5  -6   5 26770.8 2503.22   5
  -5   6   5 31801.5 2601.96   4
   5  -6  -5 25213.4 2513.50   8
  -5  -6   5 29396.2 2597.56   7
  -5  -6   4 6627.16 1246.25   7
   5   6  -4 3721.43 1068.36   1
  -5   6   4 4870.98 1000.48  10
   5  -6  -4 6172.81 1305.65   8
  -5   6   4 6270.50 1097.82   4
  -5  -6   3 26664.0 2382.14   7
  -5   6   3 27398.4 1715.18   6
  -5  -6   3 28829.2 2075.27   6
   5   6  -3 31052.2 2687.11   1
   5  -6  -3 30958.2 2431.64   9
  -5   6   3 28411.8 2142.42   4
   5  -6  -3 32914.3 2601.09   8
  -5   6   3 27536.8 2355.93  10
  -5  -6   2 5691.74 1139.61   7
  -5  -6   2 4005.19 766.794   6
  -5   6   2 4398.25 944.616  10
  -5   6   2 5292.20 721.890   6
   5   6  -2 5793.21 1334.80   1
   5  -6  -2 4348.67 963.493   9
   5  -6  -2 4494.23 963.494   8
  -5   6   2 6188.27 913.618   4
  -5  -6   1 48404.2 3208.40   7
  -5   6   1 51083.7 3241.89  10
  -5  -6   1 51857.2 2659.77   6
  -5   6   1 50530.4 2377.01   6
   5   6  -1 47581.7 3476.98   1
   5  -6  -1 50364.4 3187.57   9
  -5   6   1 51905.0 2440.81   4
  -5   6   0 924.701 378.554   1
  -5   6   0 1173.08 585.173  10
  -5  -6   0-314.249 784.612   7
  -5  -6   0 1157.09 523.415   6
   5  -6   0 604.234 553.191   9
   5   6   0 2532.50 1184.62   1
  -5  -6  -1 70463.8 4020.62   7
  -5   6  -1 73366.2 3053.46   1
  -5   6  -1 79134.5 4145.88  10
   5  -6   1 69351.6 3902.90   9
  -5  -6  -2 10176.3 1611.67   7
  -5   6  -2 8168.08 1326.40  10
   5   6   2 10268.6 1874.08   1
   5  -6   2 9608.64 1471.43   9
  -5  -6  -2 10916.3 1338.14   8
  -5  -6  -3 53774.1 3667.49   7
  -5   6  -3 52735.0 3462.82  10
   5  -6   3 56794.6 3625.16   9
   5   6   3 48376.3 3695.31   1
  -5  -6  -3 54510.8 3205.04   8
   5   6   4 13490.9 1892.01   1
  -5  -6  -4 14007.2 1993.65   7
  -5   6  -4 15576.2 1866.94  10
   5  -6   4 14926.3 1874.95   9
  -5  -6  -4 19114.2 1951.82   8
  -5   6  -5 55947.0 3725.54  10
   5  -6   5 55113.1 3798.31   9
  -5  -6  -5 58422.0 3652.29   8
   5   6   5 53534.2 3840.70   1
  -5   6  -5 56296.8 3933.40   3
  -5   6  -6 336.085 379.723  10
  -5   6  -6 1709.14 883.650   3
   5  -6   6 42.8551 503.559   9
  -5  -6  -6 948.158 787.347   8
   5   6   6-128.631 552.834   1
  -5   6  -7 7613.41 1443.65  10
  -5   6  -7 7387.15 1578.56   3
   5  -6   7 9360.48 1647.64   9
   5   6   7 7830.99 1561.60   1
  -5  -6  -7 6352.50 1594.25   8
   5   6   8 9717.08 1861.29   1
  -5   6  -8 5672.62 1255.13  10
  -5   6  -8 9768.17 1859.25   3
   5  -6   8 8261.96 1612.82   9
  -5  -6  -8 9349.32 1862.18   8
  -5   6  -9 65252.4 4469.52  10
  -5   6  -9 66372.6 4992.14   3
   5  -6   9 73380.7 4973.19   9
  -5  -6  -9 61703.0 4812.63   8
   5   6   9 58740.4 4646.42   4
   5   7 -10 3024.12 1115.32   1
  -5  -7  10 7532.81 1720.60   7
  -5  -7  10 2483.64 1204.44   5
   5  -7 -10 3907.67 1575.72   8
  -5   7  10 5949.89 1494.17   4
   5   7  -9 13637.8 2226.65   1
  -5  -7   9 15802.0 2285.78   7
  -5   7   9 11018.7 1805.54  10
  -5  -7   9 13751.8 2295.09   5
   5  -7  -9 13194.8 2408.67   8
  -5   7   9 14932.9 2235.02   4
  -5  -7   8 13584.9 2078.23   7
   5   7  -8 9445.78 1797.89   1
  -5   7   8 9090.48 1590.17  10
  -5  -7   8 8222.83 1784.16   5
   5  -7  -8 10360.3 2136.63   8
  -5   7   8 9819.69 1724.58   4
  -5  -7   7 3285.90 1079.91   7
   5   7  -7 257.376 588.459   1
  -5   7   7 2411.82 852.327  10
  -5  -7   7 2279.60 1006.97   5
   5  -7  -7 2328.93 959.513   8
  -5   7   7 837.077 661.490   4
  -5  -7   6 8671.20 1576.41   7
  -5   7   6 9178.28 1522.91  10
  -5  -7   6 7098.88 1440.24   5
   5  -7  -6 5431.76 1288.76   8
  -5   7   6 9947.54 1587.66   4
   5   7  -6 8395.63 1590.62   1
  -5  -7   5 4078.32 1077.37   7
   5   7  -5 4288.40 1221.05   1
  -5   7   5 5091.72 1116.71  10
  -5  -7   5 6953.81 1411.95   5
   5  -7  -5 7858.82 1579.51   8
  -5   7   5 7303.84 1276.87   4
  -5  -7   4 5366.29 1163.32   7
  -5   7   4 4395.55 1036.05  10
   5   7  -4 5986.65 1315.34   1
   5  -7  -4 4801.22 1169.55   8
  -5   7   4 6456.22 1130.01   4
  -5  -7   3 369.276 563.814   7
  -5   7   3 258.901 317.946  10
   5   7  -3 571.617 703.159   1
   5  -7  -3 303.449 515.047   9
   5  -7  -3-397.364 455.022   8
  -5   7   3 481.702 489.135   4
  -5  -7   2 11067.4 1637.19   7
  -5  -7   2 8122.69 1056.75   6
   5   7  -2 12631.8 1930.33   1
   5  -7  -2 9492.07 1474.13   9
  -5   7   2 10688.5 1241.59   4
   5  -7  -2 10474.1 1521.44   8
  -5   7   2 9877.61 1483.87  10
  -5  -7   1 13797.2 1847.21   7
  -5   7   1 13308.8 1734.42  10
  -5  -7   1 14913.2 1367.51   6
   5  -7  -1 13884.1 1769.47   9
   5   7  -1 12910.0 1982.34   1
  -5  -7   0 18693.3 2105.98   7
  -5   7   0 16497.7 1943.12  10
   5  -7   0 19271.7 2074.28   9
   5   7   0 17151.8 2339.88   1
   5   7   1 15736.3 2337.53   1
  -5  -7  -1 15061.7 1957.86   7
  -5   7  -1 14482.9 1845.03  10
   5  -7   1 17050.4 1986.78   9
  -5  -7  -2 4507.64 1100.86   7
   5   7   2 2854.80 1172.69   1
  -5   7  -2 4654.75 1074.60  10
   5  -7   2 4668.93 1048.99   9
  -5  -7  -2 4622.03 952.846   8
  -5   7  -2 3209.29 696.789   1
  -5  -7  -3 40161.2 3312.52   7
  -5   7  -3 34677.0 2930.44  10
   5  -7   3 35214.8 3001.43   9
   5   7   3 34842.4 3277.84   1
  -5  -7  -3 36671.9 2773.71   8
  -5  -7  -4 24883.0 2692.53   7
   5  -7   4 24846.8 2535.87   9
  -5  -7  -4 22072.2 2214.76   8
  -5   7  -4 24699.1 2482.13  10
   5   7   4 20278.7 2466.01   1
   5   7   5 1064.46 754.133   1
  -5   7  -5 1690.45 682.116  10
   5  -7   5 1262.98 729.462   9
  -5  -7  -5 1409.98 930.309   8
  -5   7  -6-259.738 403.600  10
   5  -7   6 783.077 669.998   9
   5   7   6 652.093 644.221   1
  -5  -7  -6-249.062 779.477   8
  -5   7  -7 20774.0 2398.58  10
   5  -7   7 16745.9 2296.70   9
  -5   7  -7 17604.4 2501.93   3
  -5  -7  -7 16385.9 2232.95   8
   5   7   7 18477.9 2456.84   1
  -5   7  -8 17016.6 2536.13   3
   5  -7   8 16990.5 2408.56   9
  -5   7  -8 13420.4 2002.03  10
  -5  -7  -8 15338.6 2317.87   8
   5   7   8 17266.3 2466.39   1
  -5   7  -9 16268.3 2228.83  10
   5  -7   9 17837.7 2546.59   9
  -5  -8   9 1843.10 852.699   7
   5   8  -9 1397.17 909.289   1
  -5   8   9 1588.69 808.958  10
  -5  -8   9 2028.71 1123.95   5
   5  -8  -9 1389.70 1057.20   8
  -5   8   9-361.956 639.098   4
  -5  -8   8 4324.89 1326.78   7
  -5   8   8 5955.65 1404.73  10
   5   8  -8 8142.92 1904.76   1
  -5  -8   8 6503.74 1568.27   5
   5  -8  -8 4221.00 1401.47   8
  -5   8   8 6747.69 1581.20   4
  -5  -8   7 13911.9 2160.66   7
   5   8  -7 12204.5 2060.01   1
  -5   8   7 10929.0 1819.10  10
  -5  -8   7 15892.0 2296.35   5
   5  -8  -7 13578.7 2216.63   8
  -5   8   7 13940.4 2055.05   4
  -5  -8   6 3655.97 1125.83   7
   5   8  -6 6433.84 1585.84   1
  -5   8   6 7189.08 1451.01  10
  -5  -8   6 5152.45 1332.08   5
   5  -8  -6 7293.57 1597.81   8
  -5   8   6 5570.61 1266.96   4
  -5   8   5 18947.4 2297.77  10
   5   8  -5 19509.8 2555.84   1
  -5  -8   5 20394.5 2353.53   5
  -5   8   5 19532.4 2202.66   4
   5  -8  -5 21078.8 2550.48   8
  -5  -8   5 23210.4 2579.39   7
  -5   8   4 67259.9 4362.23  10
   5   8  -4 64123.6 4512.39   1
   5  -8  -4 67342.2 4340.31   9
  -5   8   4 76208.8 4172.47   4
   5  -8  -4 63187.2 4297.18   8
  -5  -8   4 65070.2 4369.02   7
  -5   8   3 9230.31 1558.50  10
   5   8  -3 6819.51 1562.52   1
   5  -8  -3 7348.79 1412.31   9
   5  -8  -3 8338.66 1491.43   8
  -5  -8   3 8302.55 1548.22   7
  -5   8   3 9549.04 1346.60   4
  -5  -8   2 3894.82 1123.30   7
  -5   8   2 3298.11 961.296  10
   5   8  -2 926.368 836.066   1
   5  -8  -2 2276.23 855.824   9
  -5  -8   1 53236.4 3801.76   7
  -5   8   1 55430.4 3853.33  10
   5   8  -1 42342.1 3784.17   1
   5  -8  -1 47127.3 3527.01   9
  -5  -8   0 54772.9 3945.58   7
   5  -8   0 64018.1 4103.02   9
  -5   8   0 64347.4 4145.80  10
  -5  -8  -1 21968.4 2492.54   7
   5   8   1 23740.4 2987.49   1
  -5   8  -1 24776.7 2544.06  10
   5  -8   1 23544.9 2457.92   9
  -5   8  -2 10142.1 1660.20  10
   5   8   2 10327.0 2120.41   1
   5  -8   2 12027.7 1799.95   9
  -5  -8  -2 9650.63 1738.87   7
  -5  -8  -3 27901.0 2893.26   7
  -5   8  -3 26960.8 2695.69  10
   5  -8   3 27078.4 2759.01   9
   5   8   3 27746.3 3051.50   1
  -5  -8  -3 26820.6 2530.19   8
  -5  -8  -4 39972.2 3576.99   7
  -5   8  -4 34816.9 3117.92  10
   5  -8   4 31006.1 3012.57   9
  -5  -8  -4 35567.2 2995.83   8
   5   8   4 32348.6 3335.97   1
  -5  -8  -5 22597.4 2792.57   7
  -5   8  -5 23537.3 2598.40  10
   5  -8   5 23090.6 2636.64   9
  -5  -8  -5 27726.8 2715.45   8
   5   8   5 24021.0 2845.51   1
  -5  -8  -6 1614.69 1297.23   7
  -5   8  -6 237.640 403.181  10
   5  -8   6 977.096 658.666   9
   5   8   6 199.613 684.858   1
  -5  -8  -6 1020.49 854.648   8
  -5  -8  -7 30311.9 3410.03   7
  -5   8  -7 25690.5 2814.25  10
   5  -8   7 26770.0 2991.64   9
  -5  -8  -7 31087.2 3138.55   8
   5   8   7 31190.5 3301.04   1
  -5   8  -8 355.546 487.900  10
  -5   9   9 30228.9 3269.79  10
  -5   9   8 1063.03 617.173  10
  -5  -9   8 1636.78 890.909   5
   5  -9  -8 1191.36 1051.43   8
  -5   9   8 2457.21 1058.28   4
  -5  -9   7 1327.89 737.823   7
   5   9  -7 4259.97 1375.52   1
  -5   9   7 4391.78 1260.67  10
  -5  -9   7 3122.48 1152.20   5
   5  -9  -7 3393.64 1496.43   8
  -5   9   7 2397.53 1015.46   4
  -5   9   6 23427.2 2755.54  10
   5   9  -6 25638.9 3059.84   1
  -5  -9   6 24707.4 2814.45   5
   5  -9  -6 25185.4 2974.80   8
  -5  -9   6 29125.0 3097.57   7
  -5   9   5 51631.0 4084.94  10
   5   9  -5 47934.2 4185.49   1
  -5  -9   5 53490.4 3997.77   5
  -5   9   5 54893.5 3886.61   4
   5  -9  -5 50744.9 4163.70   8
  -5  -9   5 53787.1 4191.42   7
  -5  -9   4 17692.0 2357.04   7
  -5   9   4 14135.0 2037.20  10
   5   9  -4 15787.4 2345.97   1
   5  -9  -4 15313.8 2197.00   9
   5  -9  -4 15087.0 2159.86   8
  -5  -9   3 795.811 872.565   7
  -5   9   3 528.455 488.147  10
   5   9  -3-1016.58 954.156   1
   5  -9  -3 353.261 569.817   9
   5  -9  -3 538.634 669.192   8
  -5  -9   2 55155.4 4122.94   7
  -5   9   2 56435.1 4152.31  10
   5   9  -2 52852.2 4406.55   1
   5  -9  -2 57722.4 4134.80   9
  -5  -9   1 28684.4 2950.92   7
  -5   9   1 27885.1 2862.04  10
   5   9  -1 28633.7 3296.42   1
   5  -9  -1 27220.5 2816.30   9
  -5  -9   0 19298.0 2404.56   7
  -5   9   0 17176.2 2257.31  10
   5  -9   0 18213.7 2298.80   9
   5   9   0 18279.1 2764.43   1
  -5  -9  -1 25224.0 2816.77   7
  -5   9  -1 28901.5 2897.04  10
   5  -9   1 25414.2 2748.14   9
   5   9   1 27992.2 3430.59   1
   5   9   2 3229.73 1442.09   1
  -5  -9  -2 3404.64 1275.28   7
  -5   9  -2 3979.60 1181.91  10
   5  -9   2 5301.71 1283.42   9
  -5  -9  -3 7459.49 1584.61   7
  -5   9  -3 6315.06 1419.13  10
   5   9   3 6870.14 1713.27   1
   5  -9   3 3059.21 911.875   9
  -5  -9  -4 86188.4 5563.31   7
  -5   9  -4 84717.2 5226.77  10
   5  -9   4 86919.4 5443.96   9
  -5  -9  -4 80700.9 4911.61   8
   5   9   4 83321.7 5632.86   1
  -5  -9  -5 4279.63 1365.52   7
   5   9   5 3446.73 1302.03   1
  -5   9  -5 3168.66 971.979  10
   5  -9   5 1804.98 875.990   9
  -5  -9  -5 3815.21 1079.66   8
  -5  -9  -6 2823.52 1337.76   7
  -5   9  -6 2163.58 867.623  10
   5  -9   6 2953.42 1029.30   9
   5   9   6 2386.08 1035.79   1
  -5  -9  -6 3242.34 1061.36   8
  -5   9  -7 654.492 625.842  10
  -5  10   7 7477.77 1526.11   4
  -5 -10   6 5958.05 1599.32   7
  -5  10   6 4570.79 1297.38  10
  -5 -10   6 5478.72 1477.75   5
   5 -10  -6 2588.19 1115.56   8
  -5 -10   5 2801.89 1043.67   7
   5  10  -5 1819.25 1169.51   1
   5 -10  -5 1477.35 838.191   9
  -5  10   5 2735.37 1085.41  10
   5 -10  -5 1095.22 918.528   8
  -5 -10   4 2875.48 1104.41   7
  -5  10   4 2628.47 973.165  10
   5  10  -4 2883.95 1452.04   1
   5 -10  -4 4089.03 1250.82   9
   5 -10  -4 1268.36 849.311   8
  -5 -10   3 5114.63 1373.66   7
  -5  10   3 5927.29 1479.04  10
   5 -10  -3 3027.31 1130.33   9
   5  10  -3 3989.82 1526.68   1
  -5  10   2 4892.33 1333.79  10
   5 -10  -2 8368.23 1696.98   9
  -5 -10   2 7179.97 1602.93   7
   5  10  -2 6721.13 1871.42   1
  -5 -10   1 2690.81 1075.61   7
   5 -10  -1 3134.14 1081.61   9
  -5  10   1 3485.95 1077.11  10
   5  10  -1 4857.34 1727.02   1
   5  10   0 13958.2 2618.18   1
  -5 -10   0 13766.5 2197.66   7
  -5  10   0 9852.80 1818.01  10
   5 -10   0 15670.0 2290.29   9
  -5 -10  -1 4007.97 1329.46   7
   5  10   1 3439.43 1717.43   1
  -5  10  -1 4133.74 1245.26  10
   5 -10   1 1033.97 671.611   9
  -5 -10  -2 17743.1 2519.97   7
  -5  10  -2 15750.6 2288.69  10
   5  10   2 12763.1 2525.14   1
   5 -10   2 18756.9 2525.93   9
  -5 -10  -3 324.855 718.360   7
  -5  10  -3 1444.89 794.872  10
   5 -10   3 873.379 643.656   9
   5  10   3-176.835 938.659   1
  -5 -10  -4 4208.56 1375.89   7
  -5  10  -4 4102.12 1167.65  10
   5 -10   4 2340.23 983.969   9
   5  10   4 3465.70 1213.83   1
  -5  10  -5 4716.45 1325.84  10
  -5 -10  -5 5124.67 1374.46   8
   5  11  -2 4881.91 1841.07   1
  -5 -11   1 4182.74 1424.40   7
  -5  11   1 2708.55 1136.58  10
   5 -11  -1 1747.76 879.604   9
   5  11  -1 3725.28 1512.78   1
   5  11   0 2808.52 1634.72   1
  -5 -11   0 940.866 825.276   7
  -5  11   0 1455.38 831.706  10
   5  11   1-280.240 982.924   1
  -6   0  13-7.73218 551.018   4
   6   0 -13-3195.08 1289.24   8
  -6   0  12 9924.57 1796.35   4
   6   0 -12 11100.3 1920.87   8
  -6   0  11 1108.23 810.209   4
   6   0 -11 706.116 719.035   8
  -6   0  10 8299.00 1518.38   4
   6   0 -10 9227.83 1674.01   8
   6   0 -10 8596.58 1382.01   2
  -6   0   9-92.4970 396.400   4
   6   0  -9 1075.90 721.563   8
   6   0  -9 107.196 394.625   2
   6   0  -8 68968.1 3776.09   2
  -6   0   8 67025.2 3998.03   4
   6   0  -8 70828.9 3831.47   8
   6   0  -7 69.4722 408.978   1
  -6   0   7 919.447 586.321   4
   6   0  -7-92.9642 380.836   2
   6   0  -7 312.973 454.803   8
   6   0  -6 3119.98 624.712   1
  -6   0   6 4694.08 1001.46   6
  -6   0   6 3335.08 813.222   4
   6   0  -6 3804.69 833.232   2
   6   0  -6 5193.35 872.178   8
  -6   0   5-26.3327 315.902   7
   6   0  -5 697.668 391.446   1
  -6   0   5 77.9443 155.498  10
  -6   0   5 1078.77 626.606   6
  -6   0   5 222.563 410.362   4
   6   0  -5 164.897 396.810   2
   6   0  -5 385.629 365.218   8
  -6   0   4 3090.84 551.395   7
  -6   0   4 2701.98 421.045  10
  -6   0   4 1382.06 566.053   6
   6   0  -4 2584.91 534.216   1
   6   0  -4 2826.92 265.160   9
  -6   0   4 2758.46 732.494   4
   6   0  -4 2737.95 683.266   2
   6   0  -4 2804.64 521.246   8
  -6   0   3 270.626 250.899   7
  -6   0   3-27.0552 150.344  10
  -6   0   3 724.734 661.720   6
   6   0  -3 45.1365 117.902   9
   6   0  -3 825.272 466.983   1
  -6   0   3 2.00246 293.131   4
   6   0  -3 63.8052 376.187   2
   6   0  -3 77.1426 240.010   8
  -6   0   2 66244.7 2597.83  10
   6   0  -2 62532.3 2171.86   9
   6   0  -2 62132.5 3010.99   2
  -6   0   2 64957.0 3022.02   4
   6   0  -2 58858.8 2581.86   1
   6   0  -2 56393.4 1770.78   8
  -6   0   2 56865.0 2183.39   7
  -6   0   1 234.027 212.277   7
  -6   0   1-27.3686 188.178  10
   6   0  -1 59.6747 175.486   9
   6   0  -1 422.471 338.907   2
   6   0  -1-183.580 333.544   1
  -6   0   0 28383.2 1366.71   7
  -6   0   0 27921.8 1827.10  10
   6   0   0 28957.3 1692.97   9
   6   0   0 28100.9 1859.26   2
   6   0   0 30704.3 1747.10   1
  -6   0  -1 328.315 385.081  10
  -6   0  -1 264.029 305.724   7
   6   0   1 466.377 363.608   1
  -6   0  -1 825.724 344.569   3
   6   0   1-41.8715 274.912   9
   6   0   1 201.547 260.057   2
  -6   0  -2 31881.2 2200.14  10
   6   0   2 35453.0 2181.83   9
   6   0   2 34748.6 1965.12   2
  -6   0  -2 32958.3 1834.32   3
  -6   0  -2 35200.3 1280.30   8
   6   0   2 31360.8 1993.68   1
  -6   0  -3-97.8859 298.445  10
  -6   0  -3-80.3152 275.597   3
   6   0   3-121.059 329.827   9
   6   0   3-103.982 240.250   2
  -6   0  -3 316.313 234.699   8
  -6   0  -4 3102.46 843.023  10
  -6   0  -4 3209.83 715.626   3
   6   0   4 1511.84 395.328   2
  -6   0  -4 2163.10 477.631   8
   6   0   4 2871.43 767.839   9
  -6   0  -5-103.565 349.510  10
  -6   0  -5 7.02105 374.996   3
   6   0   5 384.396 544.464   9
  -6   0  -5 449.199 420.073   8
  -6   0  -6 28631.9 2379.27   3
  -6   0  -6 29694.4 2541.92  10
   6   0   6 28835.7 2520.90   9
  -6   0  -6 29904.1 2072.30   8
   6   0   7 159.738 252.239   4
  -6   0  -7 883.729 531.237  10
   6   0   7 368.350 483.053   9
  -6   0  -7 206.089 494.689   3
  -6   0  -7 116.230 366.558   8
  -6   0  -8 61760.4 4050.71   3
  -6   0  -8 56215.7 3941.94  10
   6   0   8 60947.3 4205.26   9
  -6   0  -8 65474.0 3731.56   8
  -6   0  -9 459.136 506.073   3
   6   0   9 179.580 519.936   9
  -6   0  -9 70.2033 415.870  10
  -6   0  -9-115.908 390.633   8
  -6   0 -10-74.1405 384.338  10
  -6   0 -10 211.577 622.224   3
   6   0  10 468.039 550.678   9
  -6   0 -11 746.055 690.579  10
  -6   0 -11 325.331 753.425   3
  -6  -1  13 3038.15 1040.97   4
   6  -1 -13 6190.77 1747.75   8
   6   1 -13 5616.92 1488.91   8
   6   1 -12 38130.6 3288.74   3
  -6  -1  12 35995.0 3416.88   4
  -6   1  12 44409.5 3861.12   4
   6  -1 -12 35671.4 3621.25   8
   6   1 -12 41784.3 3700.43   8
  -6  -1  11 2756.16 922.445   4
  -6   1  11 3422.31 1152.85   4
   6  -1 -11 1244.86 949.855   8
   6   1 -11 2920.34 1052.37   8
   6  -1 -10 5244.93 1094.83   2
  -6  -1  10 3395.58 1007.36   4
  -6   1  10 4104.03 1134.90   4
   6  -1 -10 4508.96 1145.24   8
   6   1 -10 5266.53 1170.19   8
   6   1 -10 4920.92 1030.75   2
  -6  -1   9 7468.90 1369.78   4
  -6   1   9 7630.44 1435.12   4
   6  -1  -9 8574.08 1469.89   8
   6   1  -9 9027.13 1352.34   2
   6   1  -9 8416.54 1392.66   8
   6  -1  -9 9559.38 1423.46   2
   6   1  -8 77880.9 4054.53   2
  -6  -1   8 75990.0 4294.98   4
   6  -1  -8 74348.4 4049.24   2
  -6   1   8 77020.9 4390.45   4
   6  -1  -8 86575.9 4424.22   8
   6   1  -8 84568.8 4200.85   8
  -6  -1   7 715.678 521.299   7
  -6  -1   7 978.059 556.790   4
   6   1  -7 408.696 341.589   2
  -6   1   7 1757.46 775.772   4
   6  -1  -7 1503.00 568.433   8
   6   1  -7 1861.12 649.692   8
   6  -1  -7 1175.37 609.460   2
   6   1  -7 731.475 510.374   1
  -6   1   6 14659.3 1019.30  10
   6  -1  -6 12927.1 1040.73   1
   6   1  -6 14746.3 1386.33   1
  -6  -1   6 16252.7 1773.10   6
   6   1  -6 11729.5 1421.11   2
   6  -1  -6 12799.4 1491.96   2
  -6  -1   6 16435.4 1774.36   4
  -6   1   6 13917.0 1626.70   4
   6  -1  -6 14492.5 1511.13   8
   6   1  -6 14369.4 1393.90   8
  -6   1   6 11494.0 1477.52   6
  -6  -1   6 13832.9 1454.37   7
  -6   1   5 12781.1 1000.96  10
  -6   1   5 12544.0 1496.98   6
   6   1  -5 13608.7 1279.45   1
   6  -1  -5 14330.4 973.552   1
  -6  -1   5 12325.1 1492.84   6
   6  -1  -5 15154.5 916.231   9
   6   1  -5 12027.2 1393.69   2
  -6  -1   5 13361.4 1577.98   4
  -6   1   5 13101.7 1494.94   4
   6  -1  -5 11924.5 1274.89   8
   6   1  -5 14240.4 1248.02   8
   6  -1  -5 10392.9 1319.45   2
  -6  -1   5 12527.4 1295.38   7
  -6  -1   4 64802.7 3404.86   6
  -6   1   4 71867.9 2727.94  10
  -6   1   4 67757.7 3429.45   6
  -6  -1   4 70151.5 2252.76  10
   6   1  -4 72942.0 3006.92   1
   6  -1  -4 72695.5 2343.11   1
   6  -1  -4 74382.5 2423.32   9
   6   1  -4 67371.1 3365.36   2
   6  -1  -4 67562.8 3414.15   2
  -6  -1   4 70300.7 3511.44   4
  -6   1   4 71096.5 3468.84   4
   6  -1  -4 68956.3 3048.80   8
   6   1  -4 69488.1 2681.30   8
  -6  -1   4 67833.5 3009.17   7
  -6  -1   3 25631.8 1385.74  10
  -6   1   3 29343.7 1683.02  10
  -6  -1   3 26840.6 2073.95   6
  -6   1   3 29168.3 2086.72   6
   6   1  -3 28056.6 967.982   9
   6   1  -3 26340.0 1744.20   1
   6  -1  -3 26798.3 1405.02   9
  -6  -1   3 33355.1 2205.54   4
   6  -1  -3 29738.7 2101.46   2
  -6   1   3 26854.9 1949.99   4
   6  -1  -3 27687.5 1298.23   1
   6  -1  -3 30514.4 1711.93   8
   6   1  -3 29786.9 1345.82   8
  -6  -1   3 27082.7 1660.79   7
  -6  -1   2 19269.0 1283.57  10
   6   1  -2 17885.2 797.622   3
  -6   1   2 20935.6 1463.67  10
  -6  -1   2 20145.6 1743.06   6
   6   1  -2 18436.5 997.029   9
   6  -1  -2 18437.1 1210.64   9
   6   1  -2 19817.9 1595.98   1
   6  -1  -2 18203.4 1590.62   2
  -6   1   2 18690.0 1514.46   4
   6  -1  -2 19828.3 1051.26   8
   6  -1  -2 19788.5 1014.78   1
   6   1  -2 17827.7 770.690   8
  -6   1   2 18140.6 927.413   7
  -6  -1   2 19955.3 1334.53   7
  -6   1   1 1373.48 217.612   7
  -6  -1   1 1473.49 394.274   7
   6  -1  -1 1319.23 305.511   1
   6   1  -1 1218.38 179.704   3
   6   1  -1 1413.49 602.303   1
  -6  -1   1 1495.35 416.932  10
  -6   1   1 1465.75 427.227  10
   6   1  -1 885.120 296.927   9
   6  -1  -1 1020.05 332.549   9
   6  -1  -1 919.836 469.512   2
  -6   1   1 1066.20 165.803   8
  -6  -1   0 10834.0 979.857   7
  -6   1   0 10795.0 1150.62  10
  -6  -1   0 10168.4 1075.77  10
   6   1   0 10526.3 978.247   9
   6  -1   0 12435.6 1133.85   9
   6  -1   0 12602.9 1220.62   2
   6   1   0 12688.5 1321.43   1
  -6   1   0 10491.0 501.513   8
   6  -1   0 11404.4 930.234   1
  -6   1   0 11690.8 605.357   7
  -6   1  -1 46369.9 1644.45   7
  -6  -1  -1 49146.8 2290.59   7
  -6  -1  -1 47507.7 2567.10  10
  -6  -1  -1 49055.5 1880.58   3
   6   1   1 47293.2 2389.31   9
   6  -1   1 46452.0 2480.66   9
   6  -1   1 51054.9 2492.33   2
  -6   1  -1 43179.1 2521.96  10
  -6   1  -1 45697.1 1571.43   8
   6   1   1 51293.6 2640.03   1
  -6  -1  -2 49751.0 2141.53   3
  -6  -1  -2 54059.3 2884.08  10
  -6   1  -2 46732.8 2742.86  10
  -6   1  -2 50568.4 2502.73   3
   6   1   2 48882.5 2616.72   9
   6  -1   2 48346.8 2674.67   9
   6  -1   2 46559.9 2313.89   2
  -6  -1  -2 47287.6 1706.11   8
   6   1   2 48125.5 2649.61   1
  -6  -1  -3 93169.0 3486.49   3
  -6  -1  -3 87235.4 4054.01  10
  -6   1  -3 94070.2 3812.99   3
  -6   1  -3 93299.0 4189.77  10
   6   1   3 92858.1 4042.64   9
   6  -1   3 91042.2 4045.67   9
   6  -1   3 91715.4 3322.51   2
  -6  -1  -3 91283.6 3074.73   8
   6   1   3 84623.4 3885.16   1
  -6  -1  -4 6498.72 1068.55  10
  -6   1  -4 5645.55 1052.59  10
  -6   1  -4 7717.41 1122.35   3
  -6  -1  -4 7444.21 1015.45   3
   6   1   4 3603.71 838.044   9
   6  -1   4 6302.70 1050.20   9
   6  -1   4 8203.69 840.715   2
   6   1   4 5560.19 1006.11   1
  -6   1  -4 6842.05 794.414   8
  -6  -1  -4 6477.30 819.303   8
  -6  -1  -5 59307.1 3173.13   3
  -6   1  -5 65324.9 3503.19   3
  -6  -1  -5 54359.8 3446.60  10
  -6   1  -5 61553.2 3625.87  10
   6   1   5 63927.0 3652.21   9
   6  -1   5 59272.1 3548.36   9
  -6  -1  -5 64660.4 2954.65   8
  -6   1  -5 65084.8 2963.85   8
  -6  -1  -6 6561.15 1208.46  10
  -6  -1  -6 5658.02 1052.04   3
  -6   1  -6 7026.43 1261.59  10
  -6   1  -6 7356.63 1221.27   3
   6   1   6 6739.79 1231.15   9
   6  -1   6 7346.81 1292.80   9
  -6  -1  -6 6711.88 1022.23   8
  -6   1  -6 4984.53 865.097   8
  -6  -1  -7 1530.36 706.925  10
  -6  -1  -7 1256.30 552.242   3
  -6   1  -7 1477.61 593.873  10
   6   1   7 756.575 547.115   9
   6  -1   7 2237.96 748.173   9
  -6  -1  -7 1313.99 564.377   8
  -6   1  -7 1744.23 741.674   3
  -6   1  -7 1638.61 548.552   8
   6   1   8 248.430 316.588   4
  -6  -1  -8 230.167 538.111  10
  -6   1  -8 1090.30 714.375   3
  -6  -1  -8 387.670 521.414   3
  -6   1  -8 515.763 423.855  10
   6   1   8 1660.17 900.870   9
   6  -1   8 1324.84 788.250   9
  -6  -1  -8 479.262 475.846   8
  -6   1  -8 1063.49 532.246   8
  -6  -1  -9 8508.86 1531.01   3
  -6  -1  -9 10278.5 1722.30  10
  -6   1  -9 9284.71 1633.84  10
   6   1   9 9740.35 1717.39   9
   6  -1   9 10588.8 1805.72   9
  -6   1  -9 6316.04 1342.03   3
  -6   1  -9 10334.9 1577.62   8
  -6  -1 -10-1124.07 659.657  10
  -6  -1 -10 496.696 608.691   3
  -6   1 -10 905.002 578.364  10
  -6   1 -10-242.960 595.684   3
   6   1  10 2.46190 585.367   9
   6  -1  10 1043.62 622.386   9
  -6  -1 -11 1452.11 979.648  10
  -6   1 -11 1335.96 695.573  10
  -6   1 -11 1284.74 952.184   3
  -6  -1 -11 1303.34 825.841   3
  -6  -2  13 1506.37 1012.39   4
   6   2 -13 2359.55 1041.55   8
  -6  -2  12 3505.82 1035.41   4
  -6   2  12 6799.55 1565.90   4
   6  -2 -12 4067.86 1389.10   8
   6   2 -12 6445.81 1507.65   8
   6   2 -11 6197.35 1242.47   3
  -6  -2  11 9957.34 1709.91   4
  -6   2  11 5983.75 1423.54   4
   6  -2 -11 6832.38 1583.12   8
   6   2 -11 7701.98 1563.43   8
   6  -2 -10 5854.50 1216.94   2
   6   2 -10 6803.52 1197.40   3
  -6  -2  10 5668.11 1227.72   4
  -6   2  10 6032.31 1345.27   4
   6  -2 -10 7849.90 1659.38   8
   6   2 -10 9690.60 1404.87   2
   6   2 -10 5235.85 1176.56   8
   6  -2  -9 1867.40 752.443   2
   6   2  -9 2998.39 765.351   3
  -6  -2   9 2784.05 950.122   4
   6   2  -9 1835.76 663.430   2
  -6   2   9 2619.97 921.206   4
   6  -2  -9 2742.79 943.065   8
   6   2  -9 2688.95 793.078   8
   6   2  -8 42229.9 2576.78   3
   6   2  -8 42175.6 2869.08   1
   6   2  -8 38205.2 2725.40   2
  -6  -2   8 43212.6 3160.28   4
  -6   2   8 40323.9 3144.24   4
   6  -2  -8 37564.8 2846.36   2
   6  -2  -8 48058.2 3408.07   8
   6   2  -8 42991.8 2926.79   8
  -6  -2   8 40957.1 2974.29   7
   6   2  -7 196215. 6685.53   1
   6   2  -7 194664. 6819.08   2
  -6  -2   7 189231. 7180.04   4
  -6   2   7 187197. 7213.52   4
   6  -2  -7 190286. 7034.30   2
   6  -2  -7 206891. 7377.82   8
   6   2  -7 211146. 6808.02   8
  -6  -2   7 186910. 6822.19   7
   6   2  -6 454.215 449.120   1
  -6  -2   6 818.494 570.164   7
  -6  -2   6 816.905 649.321   6
  -6   2   6 733.609 603.091   6
  -6   2   6 692.622 289.862  10
   6  -2  -6 516.328 259.750   9
  -6  -2   6 269.872 462.261   4
  -6   2   6 327.031 459.727   4
   6  -2  -6 534.688 792.719   8
   6   2  -6 543.029 290.766   8
   6  -2  -6 1402.12 621.426   2
  -6   2   5 13643.4 1193.52  10
  -6  -2   5 12295.9 1550.61   6
  -6   2   5 14877.0 1578.73   6
   6   2  -5 13255.0 1383.15   1
   6  -2  -5 15191.8 1159.51   9
  -6  -2   5 14848.2 1642.83   4
   6  -2  -5 16087.6 1674.72   2
  -6   2   5 14237.9 1577.64   4
   6  -2  -5 14788.4 1696.70   8
  -6  -2   5 12650.0 1392.39   7
   6   2  -4 382968. 8035.75   3
  -6  -2   4 368097. 7928.47  10
  -6   2   4 365530. 9201.71  10
  -6  -2   4 354745. 10098.7   6
  -6   2   4 368108. 9956.49   6
   6   2  -4 359546. 9616.57   1
   6  -2  -4 375150. 8828.39   9
   6  -2  -4 343969. 10005.6   2
  -6   2   4 347947. 9875.03   4
   6  -2  -4 337865. 9627.91   8
  -6  -2   4 358963. 9571.36   7
  -6  -2   3 104414. 2932.72  10
  -6   2   3 96346.2 3512.22  10
  -6  -2   3 92361.7 3961.52   6
  -6   2   3 92730.1 3818.48   6
   6   2  -3 93896.4 3727.83   1
   6  -2  -3 93030.1 3201.09   9
  -6  -2   3 82651.0 1869.57   9
   6  -2  -3 96977.5 4045.93   2
  -6   2   3 94093.9 3758.17   4
   6  -2  -3 101651. 3515.73   8
  -6  -2   3 91587.7 3512.05   7
   6  -2  -2 3442.26 289.005   7
  -6  -2   2 3336.43 638.992   7
  -6  -2   2 2939.93 525.192  10
  -6   2   2 4992.88 804.705  10
  -6  -2   2 4315.45 914.844   6
   6  -2  -2 3672.77 608.597   9
   6   2  -2 5706.64 1077.76   1
   6  -2  -2 4858.74 648.754   8
  -6   2   2 4793.85 774.679   4
   6  -2  -2 3324.93 726.209   2
  -6  -2   1 8419.26 959.412   7
   6   2  -1 6413.79 1174.78   1
  -6  -2   1 8864.51 937.706  10
  -6   2   1 7763.91 993.397  10
   6   2  -1 8326.96 795.497   9
  -6   2   1 8163.45 946.231   4
   6  -2  -1 6033.51 834.299   9
   6   2  -1 6773.98 480.177   8
   6  -2  -1 7015.32 968.903   2
  -6  -2   0 94788.1 3629.13   7
  -6  -2   0 97259.4 3730.19  10
   6   2   0 94818.5 3418.72   9
   6  -2   0 97088.7 3772.71   9
   6  -2   0 96324.6 3827.68   2
   6   2   0 83107.4 4043.33   1
  -6   2   0 98368.0 3962.80  10
  -6  -2  -1 325227. 8675.39   7
  -6  -2  -1 338837. 7187.22   3
  -6   2  -1 319000. 9108.19  10
   6   2   1 329061. 8593.11   9
   6  -2   1 321136. 8902.62   9
   6  -2   1 315972. 8555.75   2
   6   2   1 318284. 9259.28   1
  -6  -2  -1 326129. 8914.52  10
  -6  -2  -2 122717. 4591.87   7
  -6  -2  -2 126364. 3684.80   3
  -6  -2  -2 122428. 4790.71  10
  -6   2  -2 118920. 4827.54  10
  -6   2  -2 120710. 4579.54   3
   6   2   2 122312. 4586.97   9
   6  -2   2 112865. 4649.08   9
   6  -2   2 127095. 4287.11   2
  -6  -2  -2 125922. 3457.84   8
   6   2   2 121220. 4877.92   1
  -6  -2  -3 23162.0 1509.48   3
  -6  -2  -3 24333.0 2036.91  10
  -6   2  -3 21845.8 1835.13   3
  -6   2  -3 23397.3 2029.32  10
   6   2   3 22789.5 1892.19   9
   6  -2   3 25383.3 2083.10   9
   6  -2   3 24274.9 1577.85   2
  -6  -2  -3 23544.4 1552.28   8
   6   2   3 22637.2 1996.60   1
  -6  -2  -4 30276.8 1960.64   3
  -6   2  -4 33350.6 2379.93   3
  -6   2  -4 28425.2 2334.33  10
  -6  -2  -4 29728.9 2373.92  10
   6   2   4 31741.9 2403.56   9
   6  -2   4 33890.0 2531.00   9
   6  -2   4 29991.4 1668.67   2
  -6  -2  -4 31204.6 2051.90   8
   6   2   4 28844.9 2343.90   1
  -6   2  -5 4007.79 896.289  10
  -6  -2  -5 5071.57 884.247   3
  -6  -2  -5 5448.21 1082.63  10
  -6   2  -5 4778.06 1016.14   3
   6   2   5 3258.13 823.886   1
   6   2   5 5690.28 1070.11   9
   6  -2   5 4355.56 1003.97   9
  -6  -2  -5 4993.18 965.255   8
  -6  -2  -6 19661.2 1874.31   3
  -6   2  -6 23499.1 2254.79   3
  -6  -2  -6 19003.6 2095.45  10
  -6   2  -6 21970.2 2205.40  10
   6   2   6 20229.5 2160.96   9
   6  -2   6 22583.1 2250.92   9
  -6  -2  -6 19223.4 1846.84   8
  -6  -2  -7 54719.4 3450.06   3
  -6  -2  -7 57416.7 3897.02  10
  -6   2  -7 57101.7 3839.17   3
  -6   2  -7 50134.3 3557.94  10
   6   2   7 53418.6 3778.62   9
   6  -2   7 51813.0 3700.73   9
  -6  -2  -7 53339.7 3387.31   8
  -6   2  -7 64567.1 3533.58   8
   6   2   8 725.811 507.878   4
  -6   2  -8 968.665 664.277   3
  -6  -2  -8 264.244 667.644  10
  -6   2  -8-62.5290 300.962  10
   6   2   8 959.643 660.799   9
   6  -2   8-519.706 429.255   9
  -6  -2  -8 1167.44 667.303   3
  -6  -2  -8 289.887 614.116   8
  -6   2  -8 303.076 311.237   8
  -6  -2  -9 17454.5 2197.19   3
  -6  -2  -9 18842.1 2380.83  10
  -6   2  -9 21964.7 2507.83  10
   6   2   9 19538.3 2503.19   9
   6  -2   9 19675.8 2507.68   9
  -6   2  -9 19122.0 2438.14   3
   6   2   9 23381.9 2441.67   4
  -6   2  -9 18588.2 2123.56   8
  -6  -2 -10 33312.1 3193.25   3
  -6  -2 -10 36388.2 3437.50  10
  -6   2 -10 31233.1 3104.94  10
  -6   2 -10 34803.6 3445.30   3
   6   2  10 34829.3 3442.77   9
   6  -2  10 37311.6 3583.03   9
  -6  -2 -11 36924.2 3549.07   3
  -6  -2 -11 33626.9 3438.68  10
  -6   2 -11 35562.7 3434.22  10
  -6  -3  13 6385.50 1473.98   4
  -6  -3  12 4293.17 1311.95   4
  -6   3  12 5165.24 1412.19   4
   6  -3 -12 1621.60 1143.53   8
   6   3 -12 5004.15 1415.77   8
   6   3 -11 55126.4 4054.14   1
  -6  -3  11 52578.2 3974.38   4
  -6   3  11 64513.2 4654.82   4
   6  -3 -11 52438.7 4592.61   8
   6  -3 -11 56870.3 3927.01   2
   6   3 -11 56548.0 4156.23   8
   6   3 -10 15549.4 2033.83   1
   6   3 -10 13438.8 1676.00   2
   6  -3 -10 18515.0 2146.37   2
   6   3 -10 16996.7 2112.62   8
  -6  -3  10 14518.8 2013.62   4
  -6   3  10 14135.3 2079.09   4
   6  -3 -10 13250.8 2236.37   8
  -6  -3   9 7000.67 1407.18   7
   6  -3  -9 8462.67 1427.77   2
  -6  -3   9 9020.89 1491.62   4
   6   3  -9 7321.22 1230.05   2
   6  -3  -9 8471.36 1762.36   8
  -6   3   9 9752.42 1642.01   4
   6   3  -9 7939.37 1329.98   8
   6   3  -9 7725.59 1385.26   1
   6  -3  -8 1244.72 639.671   2
  -6  -3   8 1695.81 730.567   7
   6   3  -8 2204.72 612.769   3
  -6  -3   8 954.749 529.819   4
   6   3  -8 654.752 461.912   2
   6  -3  -8 2637.54 1067.94   8
  -6   3   8 1627.75 681.994   4
   6   3  -8 988.956 586.313   1
   6   3  -7 90606.5 3646.14   3
  -6   3   7 86245.0 3670.37  10
   6   3  -7 86184.0 4307.14   1
  -6  -3   7 93733.2 4667.16   4
  -6   3   7 85041.9 4573.03   4
   6  -3  -7 85737.9 4452.56   2
   6  -3  -7 89995.8 4939.80   8
  -6  -3   7 85115.8 4386.07   7
   6  -3  -6 375.557 401.130   2
  -6  -3   6 844.104 574.673   7
   6   3  -6 814.097 551.686   1
  -6   3   6 426.589 483.702   6
   6   3  -6 763.589 373.442   3
  -6   3   6 1120.36 419.812  10
   6  -3  -6 584.996 753.490   8
  -6   3   6 380.939 450.225   4
  -6  -3   6 83.2075 368.717   6
   6   3  -5 57945.0 2235.49   3
  -6   3   5 59821.6 2911.86  10
  -6  -3   5 53114.8 3202.40   6
  -6   3   5 55196.7 3090.64   6
   6   3  -5 58869.8 3234.39   1
   6  -3  -5 57966.5 2755.06   9
  -6   3   5 57285.2 3319.47   4
   6  -3  -5 51185.6 3192.07   2
   6  -3  -5 50148.4 3224.37   8
  -6  -3   5 55804.4 3125.86   7
  -6  -3   4 9735.78 1229.58   7
   6   3  -4 13103.4 739.204   3
  -6   3   4 9868.38 1142.66  10
  -6  -3   4 14322.0 1577.72   6
   6   3  -4 9932.01 1282.74   1
  -6   3   4 9818.48 1233.79   6
   6  -3  -4 11900.4 1155.24   9
  -6   3   4 10708.7 1303.04   4
   6  -3  -4 10350.8 1355.12   8
   6  -3  -4 10556.3 1366.05   2
  -6  -3   3 139770. 4017.58  10
  -6   3   3 132387. 4807.13  10
  -6  -3   3 139487. 5246.31   6
  -6   3   3 139273. 4988.73   6
   6   3  -3 133979. 5148.21   1
   6  -3  -3 133881. 4609.37   9
  -6   3   3 134918. 4897.21   4
   6  -3  -3 128743. 5154.89   2
   6  -3  -3 136260. 4724.76   8
  -6  -3   3 129700. 4878.67   7
  -6  -3   2 758.231 503.169   7
  -6   3   2 1423.59 469.862  10
  -6  -3   2 1339.98 633.076   6
  -6   3   2 1958.32 744.753   6
  -6  -3   2 693.152 293.720  10
   6  -3  -2 1079.61 370.697   9
   6   3  -2 1720.20 815.369   1
   6  -3  -2 1357.36 464.913   8
  -6   3   2 1424.52 463.494   4
   6  -3  -2 1013.75 468.722   2
  -6  -3   1 83759.5 3623.02   7
  -6  -3   1 91487.6 3439.92  10
  -6   3   1 89330.7 3833.42  10
  -6   3   1 81177.7 2205.19   1
   6  -3  -1 83926.9 3579.86   9
   6   3  -1 82563.8 4080.65   1
  -6   3   1 85915.3 3292.84   4
   6  -3  -1 83818.5 3750.77   2
  -6  -3   0 148451. 5134.86   7
  -6  -3   0 148363. 4974.40  10
  -6   3   0 148475. 5339.53  10
   6   3   0 144204. 4598.19   9
   6  -3   0 137616. 5036.91   9
   6   3   0 125054. 5550.09   1
   6  -3   0 133617. 4936.29   2
  -6  -3  -1 46258.6 2705.50   7
  -6  -3  -1 47431.7 1472.99   3
  -6  -3  -1 46666.8 2663.10  10
  -6   3  -1 42499.9 2704.15  10
   6   3   1 48430.8 2540.56   9
   6  -3   1 44908.8 2680.68   9
   6   3   1 47367.7 3117.52   1
   6  -3   1 43090.7 2442.91   2
   6  -3   2 3873.14 710.661   2
  -6  -3  -2 4937.96 573.724   3
  -6  -3  -2 5746.94 1115.50   7
  -6  -3  -2 4963.42 900.074  10
  -6   3  -2 3972.46 853.529  10
   6   3   2 4526.33 846.186   9
   6  -3   2 4339.98 893.193   9
  -6  -3  -2 5197.31 662.084   8
   6   3   2 3811.70 896.052   1
  -6  -3  -3 150656. 4536.17   3
  -6   3  -3 145924. 5744.33  10
  -6   3  -3 143911. 5563.94   3
   6   3   3 147160. 5555.73   9
   6  -3   3 144627. 5739.69   9
   6  -3   3 149254. 4812.17   2
  -6  -3  -3 149225. 4722.11   8
   6   3   3 138230. 5768.97   1
  -6  -3  -3 147511. 5731.04  10
  -6  -3  -4 116259. 4155.20   3
  -6  -3  -4 114407. 5100.30  10
   6   3   4 112627. 4960.38   9
   6  -3   4 107308. 4975.41   9
  -6   3  -4 111250. 4944.57   3
  -6  -3  -4 108034. 4320.28   8
   6  -3   4 113199. 3871.63   2
  -6   3  -4 111669. 5032.64  10
   6   3   4 104812. 4973.92   1
  -6  -3  -5 26975.3 2001.93   3
  -6  -3  -5 26699.2 2422.72  10
  -6   3  -5 26998.5 2418.07   3
  -6   3  -5 26509.0 2399.83  10
   6   3   5 26323.5 2377.97   9
   6  -3   5 27224.4 2457.63   9
  -6  -3  -5 30241.2 2347.19   8
   6   3   5 26083.9 2418.61   1
  -6  -3  -6 4747.12 916.129   3
  -6  -3  -6 5093.44 1119.76  10
  -6   3  -6 5519.77 1162.47  10
  -6   3  -6 3472.20 922.383   3
   6   3   6 4582.91 1080.68   9
   6  -3   6 6017.18 1216.88   9
   6   3   6 4496.22 1105.32   1
  -6  -3  -6 5271.19 1166.07   8
  -6  -3  -7 27253.3 2349.05   3
  -6  -3  -7 28665.7 2786.51  10
  -6   3  -7 25739.0 2617.70   3
  -6   3  -7 30949.2 2779.74  10
   6   3   7 27265.6 2706.81   9
   6  -3   7 27710.0 2687.06   9
  -6  -3  -7 32816.6 2817.13   8
  -6  -3  -8 38799.1 3054.91   3
  -6  -3  -8 42169.1 3505.87  10
   6   3   8 39937.0 3424.96   9
   6  -3   8 42530.6 3504.27   9
  -6   3  -8 41765.8 3511.15   3
  -6   3  -8 47615.8 3565.70  10
  -6  -3  -9 16240.4 2097.88   3
  -6  -3  -9 20210.0 2521.85  10
  -6   3  -9 17409.0 2395.03   3
  -6   3  -9 16567.1 2189.97  10
   6   3   9 18034.0 2403.43   9
   6  -3   9 15747.1 2277.45   9
   6   3   9 17958.0 2261.28   4
  -6   3  -9 20683.6 2297.42   8
   6   3  10 5720.22 1314.28   4
  -6  -3 -10 6490.07 1467.37  10
  -6  -3 -10 6617.53 1424.51   3
  -6   3 -10 9338.27 1834.18   3
   6   3  10 9319.59 1806.69   9
   6  -3  10 8492.52 1736.95   9
  -6   3 -10 6318.36 1393.20   8
  -6   3 -10 8748.92 1723.05  10
  -6   3 -11 8615.70 1741.76  10
  -6  -3 -11 9963.68 1869.55   3
  -6  -4  12 382.087 620.528   4
   6  -4 -12 2107.34 1430.57   8
   6   4 -12 791.948 462.713   8
   6   4 -12-165.416 647.530   1
   6  -4 -11 9130.15 1617.35   2
  -6  -4  11 9400.45 1681.30   4
   6  -4 -11 16692.2 2832.41   8
  -6   4  11 15989.3 2374.24   4
   6   4 -11 10880.1 1851.77   8
   6   4 -11 8510.20 1702.00   1
  -6  -4  10 10806.6 1889.81   7
   6  -4 -10 8912.07 1552.05   2
  -6  -4  10 9759.13 1637.37   4
   6  -4 -10 9141.70 2117.91   8
  -6   4  10 8029.87 1568.28   4
   6   4 -10 6828.02 1380.86   8
   6   4 -10 4707.87 1240.60   1
   6   4  -9 7494.57 1464.81   1
  -6  -4   9 8090.57 1539.66   7
   6  -4  -9 7640.53 1431.06   2
   6   4  -9 6959.17 1218.80   2
   6  -4  -9 10430.3 2023.69   8
  -6   4   9 8126.46 1569.84   4
   6   4  -8 10769.3 1653.17   1
  -6   4   8 17141.5 1678.22  10
  -6   4   8 18772.6 2181.60   4
   6  -4  -8 15851.2 1970.05   2
   6  -4  -8 16069.6 2299.95   8
  -6  -4   8 15143.1 1929.80   7
   6  -4  -7 338.649 430.462   2
   6   4  -7 171.296 490.748   1
  -6  -4   7 49.6843 504.471   7
  -6   4   7 49.2936 251.917  10
  -6   4   7-729.503 516.462   4
   6  -4  -6 4447.50 1015.07   2
  -6  -4   6 6313.25 1156.02   7
   6   4  -6 6904.76 1233.04   1
  -6   4   6 5815.35 960.276  10
   6  -4  -6 4891.17 1300.19   8
  -6   4   6 6011.11 1134.73   4
  -6   4   5 9828.71 1247.82  10
   6   4  -5 10584.7 1457.24   1
  -6  -4   5 9043.74 1332.76   6
  -6   4   5 9354.52 1236.83   6
   6  -4  -5 8668.95 1134.67   9
   6  -4  -5 11380.5 1538.81   2
   6  -4  -5 11240.9 1622.52   8
  -6   4   5 9997.22 1382.47   4
  -6  -4   5 10486.7 1431.41   7
   6  -4  -4 1186.07 603.788   2
  -6  -4   4 2421.06 693.926   6
  -6   4   4 695.231 522.766   6
  -6   4   4 657.326 463.500  10
   6   4  -4 1557.87 621.173   1
  -6  -4   4 1690.54 651.811   7
   6  -4  -4 2201.75 644.893   9
   6  -4  -4 1070.51 644.727   8
  -6   4   4 783.583 489.595   4
   6  -4  -3 7218.27 1187.30   2
  -6   4   3 7097.58 1040.60  10
  -6  -4   3 7596.86 1136.13   7
  -6  -4   3 9648.09 1245.48   6
  -6   4   3 8042.68 1056.36   6
   6  -4  -3 8451.96 1095.51   9
   6   4  -3 10306.4 1423.63   1
   6  -4  -3 9842.08 1257.85   8
  -6   4   3 8459.94 1105.85   4
  -6  -4   2 69286.3 3512.68   7
  -6   4   2 75130.2 3622.31  10
  -6  -4   2 72291.9 3532.32   6
  -6   4   2 71344.0 3283.81   6
   6   4  -2 67483.9 3800.15   1
   6  -4  -2 71865.2 3456.96   9
  -6   4   2 77775.4 3280.45   4
   6  -4  -2 69939.1 3198.25   8
   6  -4  -2 69798.5 3601.64   2
   6  -4  -1 4156.31 858.073   2
  -6  -4   1 3863.33 864.998   7
  -6   4   1 4466.65 878.184  10
  -6  -4   1 5628.04 1006.65   6
   6  -4  -1 5485.80 945.920   9
  -6  -4   1 4637.42 753.459  10
  -6   4   1 5758.86 775.262   4
   6   4  -1 4679.30 1275.36   1
  -6  -4   0 35316.3 2459.89   7
  -6  -4   0 37826.5 2331.97  10
  -6   4   0 33459.4 2432.03  10
   6  -4   0 34213.4 2402.30   9
   6   4   0 36447.0 2968.71   1
  -6   4   0 36736.7 1802.57   4
   6  -4   0 34753.2 2335.33   2
  -6  -4  -1 14561.7 1654.42   7
  -6  -4  -1 15015.7 1536.43  10
  -6   4  -1 14175.3 1597.20  10
   6   4   1 13094.2 1845.83   1
   6  -4   1 13937.3 1571.53   9
   6  -4   1 14298.0 1445.48   2
  -6  -4  -2 204.286 187.039   3
   6  -4   2 54.3244 338.916   2
  -6  -4  -2 809.145 661.052   7
  -6  -4  -2 74.3840 336.690  10
  -6   4  -2 660.293 435.666  10
   6  -4   2 216.841 424.638   9
   6   4   2-719.090 676.656   1
  -6  -4  -2-134.449 291.373   8
   6   4   3 10943.1 1615.65   1
  -6  -4  -3 9929.09 1378.81  10
  -6   4  -3 12008.8 1556.98  10
  -6  -4  -3 11191.3 1615.48   7
   6   4   3 10893.9 1392.54   9
   6  -4   3 12352.8 1561.79   9
  -6   4  -3 11813.3 1541.43   3
  -6  -4  -3 13225.7 1292.49   8
   6  -4   3 9461.49 1105.87   2
  -6  -4  -4 241.293 389.545  10
  -6   4  -4 1289.43 591.642  10
  -6   4  -4 1358.79 680.610   3
   6   4   4 631.097 652.333   1
   6   4   4 108.437 314.537   9
   6  -4   4 300.186 368.364   9
  -6  -4  -4-221.671 467.321   8
  -6  -4  -5 13969.3 1789.20  10
  -6   4  -5 17010.9 1959.44  10
  -6   4  -5 13771.9 1812.00   3
   6   4   5 17755.2 1990.88   9
   6  -4   5 12777.4 1735.56   9
  -6  -4  -5 16118.5 1762.02   8
   6   4   5 16801.3 2026.38   1
  -6   4  -6 12945.1 1769.92  10
  -6  -4  -6 11705.6 1718.87  10
   6   4   6 14138.2 1881.43   9
  -6   4  -6 13329.4 1855.24   3
   6  -4   6 12869.0 1778.40   9
  -6  -4  -6 14186.0 1817.14   8
   6   4   6 14869.6 1979.14   1
  -6  -4  -7 24313.2 2242.41   3
  -6  -4  -7 20803.7 2435.08  10
  -6   4  -7 20698.3 2449.92   3
  -6   4  -7 26104.7 2574.35  10
   6   4   7 22392.7 2471.36   9
   6  -4   7 21811.7 2447.37   9
  -6  -4  -7 22372.6 2454.83   8
   6   4   7 21054.7 2445.31   1
  -6  -4  -8 871.826 552.731   3
  -6  -4  -8 444.078 427.223  10
  -6   4  -8 537.141 498.925  10
   6   4   8 1136.23 757.453   9
  -6   4  -8 281.566 591.710   3
   6  -4   8 464.710 714.254   9
   6   4   9 219.957 518.534   4
  -6  -4  -9 157.710 627.769  10
  -6   4  -9 170.401 402.276  10
  -6   4  -9 154.646 623.448   3
   6  -4   9 377.974 674.702   9
   6   4  10 507.306 598.050   4
  -6  -4 -10 861.432 872.513  10
  -6   4 -10-311.379 454.485  10
  -6   4 -10 691.210 724.928   3
   6  -4  10-438.398 554.512   9
  -6   4 -10-581.616 548.394   8
   6   5 -12 4126.48 1433.56   1
   6   5 -11 2908.71 1171.24   1
   6  -5 -11 7587.35 2180.68   8
  -6   5  11 8317.99 1785.08   4
  -6  -5  11 5924.67 1440.15   7
   6   5 -10 1379.90 843.314   1
  -6  -5  10 2178.55 1009.82   7
   6  -5 -10 192.144 1056.37   8
  -6   5  10 497.075 565.574   4
   6   5  -9 14723.6 2074.51   1
  -6  -5   9 15265.5 2105.93   7
  -6   5   9 16115.9 2208.02   4
   6  -5  -9 16377.2 2144.68   2
   6  -5  -9 14495.6 2452.94   8
   6   5  -8 7743.33 1517.74   1
  -6  -5   8 10462.6 1677.65   7
   6  -5  -8 9693.96 1616.03   2
  -6   5   8 8585.61 1312.06  10
   6  -5  -8 11078.3 2031.41   8
  -6   5   8 8676.08 1563.16   4
  -6  -5   7 427.353 718.628   7
   6  -5  -7 817.267 517.379   2
   6   5  -7 1564.36 833.505   1
  -6   5   7 314.590 289.479  10
  -6   5   7 1239.46 719.232   4
  -6  -5   6 7267.34 1325.41   7
   6  -5  -6 8501.75 1421.46   2
   6   5  -6 5052.27 1158.40   1
  -6   5   6 8133.09 1247.77  10
   6  -5  -6 9356.48 1618.23   8
  -6   5   6 7490.31 1313.14   4
  -6   5   5 17805.9 1811.95  10
  -6  -5   5 16707.3 1815.86   6
  -6   5   5 20089.1 1754.60   6
   6   5  -5 16583.3 1965.91   1
   6  -5  -5 18101.1 1779.64   9
  -6   5   5 19587.1 1973.36   4
   6  -5  -5 22171.7 2223.43   8
   6  -5  -5 15968.4 1899.77   2
  -6  -5   5 20896.8 2106.92   7
  -6   5   4 16339.0 1740.20  10
  -6  -5   4 15833.4 1689.21   6
  -6   5   4 15955.5 1511.87   6
   6   5  -4 14729.7 1803.05   1
   6  -5  -4 15147.2 1625.97   9
  -6   5   4 18917.2 1804.60   4
   6  -5  -4 19325.4 1949.28   8
   6  -5  -4 13346.6 1700.83   2
  -6  -5   4 16768.7 1859.13   7
   6  -5  -3 1899.43 752.738   2
  -6  -5   3 2444.40 799.057   7
  -6  -5   3 2039.90 670.884   6
  -6   5   3 2066.24 615.293  10
  -6   5   3 4222.93 812.122   6
   6   5  -3 1580.20 690.063   1
   6  -5  -3 2311.17 720.466   9
   6  -5  -3 2577.01 806.066   8
  -6   5   3 1995.96 562.501   4
  -6  -5   2 115412. 5092.07   7
  -6   5   2 121472. 5174.47  10
  -6  -5   2 123311. 4869.61   6
  -6   5   2 126621. 4546.24   6
   6   5  -2 118394. 5500.02   1
   6  -5  -2 128195. 5137.55   9
  -6   5   2 120228. 4455.06   4
   6  -5  -2 123251. 4857.24   8
   6  -5  -2 121514. 5229.33   2
   6  -5  -1 4226.64 899.378   2
  -6  -5   1 4670.67 988.256   7
  -6   5   1 4726.29 988.240  10
  -6  -5   1 4395.40 861.969   6
   6  -5  -1 3639.23 856.676   9
   6   5  -1 4954.72 1373.06   1
  -6   5   1 3733.08 638.982   4
   6   5   0 2620.06 1132.55   1
   6  -5   0 1755.02 634.236   2
  -6  -5   0 729.386 555.767   7
  -6   5   0 707.788 487.509  10
   6  -5   0 1230.65 604.247   9
  -6   5   0 1453.54 373.052   4
  -6  -5  -1 20532.8 2109.95   7
  -6   5  -1 17340.0 1858.81  10
   6   5   1 18793.1 2355.43   1
  -6  -5  -1 19797.1 1851.91  10
   6  -5   1 20275.3 1985.35   9
   6  -5   1 16806.1 1668.30   2
  -6  -5  -2 130517. 5686.26   7
  -6  -5  -2 125523. 5359.13  10
  -6   5  -2 127664. 5612.47  10
   6  -5   2 133159. 5684.30   9
   6   5   2 117994. 5912.07   1
  -6  -5  -2 136601. 4736.51   8
  -6  -5  -3 1625.33 847.387   7
  -6  -5  -3-88.5248 349.860  10
  -6   5  -3-184.098 382.938  10
   6  -5   3 448.326 546.147   9
  -6  -5  -3 149.402 381.414   8
   6   5   3-787.968 920.905   1
  -6  -5  -4 19763.2 2140.92  10
  -6   5  -4 18251.6 2080.89   3
   6  -5   4 20302.2 2181.75   9
  -6  -5  -4 20240.1 1854.32   8
   6   5   4 18368.2 2154.96   1
  -6   5  -4 20151.6 2141.31  10
  -6  -5  -5 18249.5 2151.56  10
  -6   5  -5 20217.6 2195.99  10
  -6   5  -5 16323.3 2087.20   3
   6  -5   5 20497.3 2279.12   9
  -6  -5  -5 20470.8 2022.57   8
   6   5   5 19751.3 2266.62   1
  -6  -5  -6 94843.7 5275.49  10
  -6   5  -6 86141.2 5098.56   3
  -6   5  -6 91875.8 5058.42  10
   6  -5   6 96765.6 5332.32   9
  -6  -5  -6 93252.0 4812.87   8
   6   5   6 83631.0 5061.78   1
  -6  -5  -7 2670.47 936.711  10
  -6   5  -7 2821.27 902.738  10
  -6   5  -7 3614.82 1169.56   3
   6  -5   7 2065.76 920.764   9
   6   5   7 2891.82 991.843   1
  -6  -5  -8 4884.94 1301.85  10
  -6   5  -8 5575.31 1328.27  10
  -6   5  -8 5380.64 1400.11   3
   6  -5   8 6147.54 1408.81   9
   6   5   9 1402.69 909.400   4
  -6   5  -9 343.909 350.769  10
  -6   5  -9 676.973 638.571   3
   6  -5   9-505.429 593.481   9
  -6   5 -10 40146.8 3655.41  10
   6   5  10 40503.0 3839.58   4
   6   6 -11 8217.93 1819.42   1
   6  -6 -11 5779.95 1907.92   8
   6   6 -10 49311.0 4156.45   1
  -6   6  10 51231.3 4298.61   4
   6  -6 -10 49202.2 4649.15   8
  -6  -6  10 44170.7 3882.26   7
  -6  -6   9 14911.6 2153.82   7
   6   6  -9 16881.7 2359.19   1
  -6   6   9 22198.9 2677.77   4
   6  -6  -9 16768.5 2732.98   8
  -6  -6   8 5304.87 1285.98   7
   6   6  -8 6226.64 1451.50   1
  -6   6   8 6747.53 1285.75  10
   6  -6  -8 10164.5 1983.81   8
  -6   6   8 7154.58 1539.61   4
  -6  -6   7 13298.1 1905.68   7
   6   6  -7 11320.6 1842.84   1
  -6   6   7 12885.8 1699.38  10
   6  -6  -7 13568.4 1933.84   2
   6  -6  -7 14488.0 2208.91   8
  -6   6   7 13721.1 1903.18   4
  -6   6   6 63508.7 3864.72  10
   6   6  -6 61659.1 4129.21   1
  -6   6   6 61423.1 3909.11   4
   6  -6  -6 61285.2 4130.43   8
   6  -6  -6 53379.2 3808.16   2
  -6  -6   6 55929.4 3831.07   7
  -6   6   5 102698. 4995.29  10
   6   6  -5 101177. 5326.33   1
   6  -6  -5 110108. 5064.35   9
  -6   6   5 109057. 5068.63   4
   6  -6  -5 105904. 5316.43   8
   6  -6  -5 92377.1 5056.99   2
  -6  -6   5 101031. 5163.56   7
  -6  -6   4 7389.73 1364.59   7
  -6  -6   4 9193.04 1299.35   6
  -6   6   4 6507.76 1200.62  10
   6   6  -4 7416.76 1407.48   1
   6  -6  -4 5859.65 1184.73   2
   6  -6  -4 7757.75 1275.69   9
   6  -6  -4 8025.52 1331.34   8
  -6   6   4 5675.12 1033.76   4
  -6  -6   3 18615.1 2014.03   7
  -6   6   3 16757.8 1904.88  10
  -6  -6   3 20923.5 1861.33   6
  -6   6   3 16461.3 1459.36   6
   6   6  -3 20942.5 2279.89   1
   6  -6  -3 19507.7 1966.43   9
  -6   6   3 18227.6 1717.60   4
   6  -6  -3 18717.1 1927.09   8
   6  -6  -3 16037.0 1911.39   2
  -6  -6   2 182379. 6945.27   7
  -6   6   2 174004. 6797.33  10
  -6  -6   2 185986. 6257.12   6
  -6   6   2 183383. 5688.61   6
   6  -6  -2 172470. 6630.82   9
  -6   6   2 178115. 5795.36   4
   6  -6  -2 171706. 6424.35   8
   6  -6  -2 168060. 6706.90   2
  -6  -6   1 52368.5 3421.12   7
  -6   6   1 45692.8 3177.42  10
  -6  -6   1 51651.9 2888.90   6
   6  -6  -1 49151.7 3266.53   9
   6   6  -1 49093.2 3687.98   1
  -6  -6   0 35939.9 2851.30   7
  -6   6   0 31424.3 2648.99  10
  -6  -6   0 33840.6 2314.55   6
   6  -6   0 36392.5 2790.53   9
   6   6   0 29444.7 2976.65   1
  -6  -6  -1 30723.4 2671.80   7
  -6   6  -1 31253.0 2669.22  10
   6  -6   1 31070.8 2633.16   9
   6   6   1 26100.9 2895.08   1
  -6  -6  -2 39792.5 3148.88   7
  -6   6  -2 38095.8 3022.00  10
   6  -6   2 48726.4 3359.18   9
   6   6   2 38257.8 3428.25   1
  -6  -6  -2 39033.0 2525.57   8
  -6  -6  -3 3570.35 1092.50   7
  -6   6  -3 4984.78 1129.08  10
   6  -6   3 3645.56 980.884   9
  -6  -6  -3 3765.73 899.645   8
   6   6   3 1874.32 943.935   1
  -6  -6  -4 23751.2 2583.89   7
  -6   6  -4 21961.9 2386.16  10
   6  -6   4 25240.6 2576.99   9
  -6  -6  -4 25969.3 2220.79   8
   6   6   4 25014.8 2687.44   1
  -6  -6  -5 2559.54 1098.19   7
   6   6   5 3564.31 1088.02   1
   6  -6   5 2093.29 857.510   9
  -6   6  -5 1793.31 758.349  10
  -6  -6  -5 4342.73 1035.67   8
  -6   6  -6 22008.4 2454.88  10
  -6   6  -6 22943.4 2685.62   3
   6  -6   6 26591.1 2812.97   9
   6   6   6 21239.3 2579.93   1
  -6   6  -7 1281.28 676.359  10
  -6   6  -7 1456.13 794.436   3
   6  -6   7 1604.16 780.655   9
   6   6   7 2629.57 1043.89   1
  -6   6  -8 43452.2 4002.75   3
  -6   6  -8 45384.5 3757.79  10
   6  -6   8 41003.0 3733.63   9
   6   6   8 48672.9 4147.14   1
  -6   6  -9 36943.5 3465.88  10
   6   6   9 38780.6 3793.68   4
   6   7 -10 5651.77 1532.58   1
   6  -7 -10 5951.45 1835.76   8
  -6   7  10 5420.85 1505.79   4
  -6  -7   9 1064.17 696.479   7
   6   7  -9 2557.70 1159.58   1
   6  -7  -9 892.235 970.555   8
  -6   7   9 2009.49 891.929   4
  -6  -7   8 723.300 739.657   7
   6   7  -8 939.675 948.965   1
  -6   7   8-2.02221 357.150  10
   6  -7  -8-454.262 848.288   8
  -6   7   8 700.374 600.978   4
  -6  -7   7 13787.3 2033.07   7
  -6   7   7 17085.5 2128.91  10
   6   7  -7 14283.3 2174.21   1
  -6   7   7 15087.9 2071.43   4
   6  -7  -7 13270.5 2060.42   8
  -6  -7   6 2462.82 1011.12   7
   6   7  -6 1472.72 815.423   1
  -6   7   6 785.020 578.678  10
   6  -7  -6 2018.00 1036.16   8
  -6   7   6 839.060 579.278   4
  -6  -7   5 2689.21 916.188   7
   6   7  -5 2995.63 1104.01   1
  -6   7   5 1159.95 643.273  10
   6  -7  -5 2718.54 876.777   9
   6  -7  -5 2239.75 964.660   8
  -6   7   5 1903.30 705.219   4
  -6  -7   4 72.3315 367.517   7
  -6   7   4 499.787 488.393  10
   6   7  -4-665.037 915.241   1
   6  -7  -4 259.149 398.967   9
   6  -7  -4 403.057 679.160   8
  -6   7   4 102.408 401.831   4
  -6  -7   3 708.016 648.069   7
  -6  -7   3 255.489 387.446   6
  -6   7   3-246.714 428.408  10
   6   7  -3 273.018 858.306   1
   6  -7  -3 561.194 505.326   9
   6  -7  -3 332.907 574.385   8
  -6   7   3 658.643 424.782   4
  -6  -7   2 7463.18 1398.46   7
  -6  -7   2 8337.58 1176.95   6
  -6   7   2 5661.75 1213.23  10
   6  -7  -2 9924.00 1559.91   9
   6   7  -2 5355.23 1438.63   1
  -6  -7   1 40406.9 3219.47   7
  -6   7   1 48559.3 3476.54  10
  -6  -7   1 44134.2 2633.45   6
   6  -7  -1 43180.1 3227.22   9
   6   7  -1 38059.1 3457.93   1
  -6  -7   0 2068.03 880.149   7
  -6   7   0 1282.47 554.071  10
  -6  -7   0 2081.71 640.408   6
   6  -7   0 2500.73 801.417   9
   6   7   0 54.0428 890.971   1
  -6  -7  -1 10266.9 1656.59   7
   6   7   1 7897.73 1826.33   1
  -6   7  -1 6774.92 1338.05  10
   6  -7   1 9308.88 1541.99   9
  -6   7  -2 2681.84 854.631  10
   6   7   2 1703.47 1196.10   1
   6  -7   2 4340.89 1084.64   9
  -6  -7  -2 3071.03 1034.33   7
  -6  -7  -3 58749.3 4168.04   7
  -6   7  -3 52269.1 3793.34  10
   6  -7   3 57195.7 3996.46   9
   6   7   3 53409.3 4225.63   1
  -6  -7  -3 57415.5 3481.12   8
   6   7   4 1813.57 893.327   1
  -6  -7  -4 2551.71 1202.54   7
  -6   7  -4 845.242 601.896  10
   6  -7   4 890.213 606.291   9
  -6  -7  -4 1267.21 602.154   8
  -6  -7  -5 4380.47 1479.44   7
  -6   7  -5 4096.33 1112.45  10
   6   7   5 4792.15 1354.95   1
   6  -7   5 5079.14 1235.64   9
  -6  -7  -6 4238.32 1496.63   7
  -6   7  -6 1602.43 826.098  10
   6  -7   6 3260.71 1123.29   9
   6   7   6 2838.19 1170.14   1
  -6   7  -7 3936.58 1134.20  10
   6  -7   7 5233.32 1287.00   9
   6   7   7 5454.59 1413.63   1
   6   7   8 511.859 596.047   1
  -6   7  -8 2329.42 927.431  10
   6  -7   8 2536.08 1035.64   9
  -6   8   9 2402.71 939.446  10
   6  -8  -9 1577.31 978.002   8
  -6   8   9 2702.82 1147.87   4
  -6  -8   8-894.667 753.133   7
   6   8  -8 604.132 914.724   1
  -6   8   8 164.956 433.310  10
   6  -8  -8-902.602 973.420   8
  -6   8   8 17.3736 546.855   4
  -6  -8   7 12711.9 2019.60   7
   6   8  -7 15246.3 2378.04   1
  -6   8   7 16148.5 2214.29  10
   6  -8  -7 13000.0 2191.55   8
  -6   8   7 15446.3 2178.69   4
  -6  -8   6 5871.54 1415.82   7
   6   8  -6 4672.73 1377.53   1
  -6   8   6 6218.68 1374.92  10
   6  -8  -6 6015.65 1342.08   9
   6  -8  -6 8034.59 1696.69   8
  -6   8   6 6979.78 1406.10   4
  -6   8   5 26152.5 2740.28  10
   6   8  -5 20269.7 2648.74   1
   6  -8  -5 27293.7 2735.76   9
  -6   8   5 26946.5 2571.65   4
   6  -8  -5 22076.8 2600.69   8
  -6  -8   5 24358.5 2707.51   7
  -6  -8   4 4099.99 1196.93   7
  -6   8   4 2997.83 952.854  10
   6   8  -4 2125.03 1033.62   1
   6  -8  -4 3115.64 926.056   9
   6  -8  -4 2751.88 1023.56   8
  -6   8   4 4058.23 963.536   4
  -6   8   3-90.7881 388.396  10
   6   8  -3-1158.16 775.571   1
   6  -8  -3-1.92809 406.093   9
   6  -8  -3-56.9542 584.296   8
  -6  -8   2 26320.9 2731.17   7
  -6   8   2 29399.2 2851.47  10
   6   8  -2 23320.5 2885.61   1
   6  -8  -2 31215.1 2877.67   9
  -6  -8   1 5632.48 1354.17   7
  -6   8   1 6008.48 1323.58  10
   6  -8  -1 7923.82 1461.05   9
   6   8  -1 9302.82 2015.79   1
   6   8   0 10963.9 2107.31   1
  -6  -8   0 10180.7 1769.89   7
  -6   8   0 12144.5 1843.45  10
   6  -8   0 11676.1 1742.85   9
  -6  -8  -1 7237.80 1509.05   7
   6   8   1 7194.83 1906.79   1
  -6   8  -1 9361.95 1669.03  10
   6  -8   1 7635.42 1428.05   9
  -6  -8  -2 4822.19 1336.00   7
  -6   8  -2 6694.20 1417.93  10
   6   8   2 3805.96 1407.87   1
   6  -8   2 5225.84 1312.90   9
  -6  -8  -3 3069.04 1099.63   7
  -6   8  -3 2225.83 861.624  10
   6  -8   3 2751.78 979.234   9
   6   8   3 916.607 829.240   1
   6   8   4-394.443 711.027   1
  -6  -8  -4 1878.21 974.159   7
  -6   8  -4 317.661 365.699  10
   6  -8   4 1466.81 725.449   9
  -6  -8  -5 1441.42 1114.90   7
  -6   8  -5-136.229 370.060  10
   6   8   5 857.372 822.174   1
   6  -8   5 211.488 576.093   9
  -6  -8  -6 22133.1 2919.90   7
  -6   8  -6 18657.3 2460.70  10
   6  -8   6 26301.2 3005.92   9
   6   8   6 19962.0 2670.45   1
  -6   8  -7-134.128 459.304  10
  -6   9   8-990.998 663.032  10
  -6   9   8 599.777 634.260   4
  -6  -9   7 1878.83 997.918   7
  -6   9   7 840.589 737.285  10
   6   9  -7 3019.63 1330.74   1
   6  -9  -7 1312.74 738.133   8
  -6   9   7 966.093 720.198   4
  -6   9   6 29137.3 3121.24  10
   6   9  -6 29008.4 3322.55   1
   6  -9  -6 29955.7 3138.08   9
  -6   9   6 31177.0 3037.87   4
   6  -9  -6 32641.3 3383.65   8
  -6  -9   6 24582.3 2910.87   7
  -6  -9   5 544.146 804.623   7
  -6   9   5 133.410 444.797  10
   6   9  -5-58.0592 679.191   1
   6  -9  -5 106.332 535.717   9
   6  -9  -5 241.197 800.055   8
  -6  -9   4 17096.8 2334.07   7
  -6   9   4 13387.5 2089.88  10
   6   9  -4 15261.9 2476.08   1
   6  -9  -4 12556.6 1975.78   9
   6  -9  -4 14279.3 2134.01   8
  -6  -9   3 5432.97 1437.90   7
  -6   9   3 4496.61 1267.20  10
   6  -9  -3 4363.88 1186.96   9
   6   9  -3 4872.17 1827.61   1
  -6  -9   2 24893.8 2826.74   7
  -6   9   2 26104.4 2837.90  10
   6  -9  -2 23494.0 2692.46   9
   6   9  -2 25988.6 3249.88   1
  -6  -9   1 19746.4 2528.99   7
  -6   9   1 16380.5 2256.94  10
   6  -9  -1 15173.6 2184.85   9
   6   9  -1 16451.1 2679.67   1
   6   9   0 14539.4 2598.61   1
  -6  -9   0 12394.9 2029.63   7
  -6   9   0 13109.1 2023.98  10
   6  -9   0 12196.1 1917.77   9
   6   9   1 2505.54 1270.39   1
  -6   9  -1 3131.09 1024.30  10
  -6  -9  -1 4763.13 1444.10   7
   6  -9   1 2021.74 912.559   9
  -6  -9  -2 136.951 739.166   7
  -6   9  -2 1583.03 837.532  10
   6   9   2 276.952 853.079   1
   6  -9   2 950.515 587.310   9
  -6  -9  -3 3349.78 1106.50   7
  -6   9  -3 4192.96 1195.20  10
   6  -9   3 3299.54 1065.87   9
   6   9   3 1149.40 745.792   1
  -6  -9  -4 30652.7 3391.06   7
  -6   9  -4 31224.6 3248.91  10
   6  -9   4 30905.8 3246.67   9
   6   9   4 36906.0 3808.97   1
  -6  -9  -5 1563.60 1020.47   7
   6   9   5 330.972 670.208   1
  -6   9  -5 216.257 552.233  10
   6  -9   5 741.638 627.220   9
  -6   9  -6 7527.26 1647.03  10
   6 -10  -6 21446.3 2799.61   9
  -6  10   5 9511.02 1886.55  10
   6 -10  -5 11633.5 2076.99   9
   6 -10  -5 12020.0 2092.05   8
  -6 -10   4 12985.1 2176.97   7
  -6  10   4 8104.25 1723.67  10
   6  10  -4 12894.5 2442.23   1
   6 -10  -4 8504.90 1792.12   9
  -6 -10   3 338.306 552.274   7
  -6  10   3 311.007 547.299  10
   6 -10  -3 732.556 812.712   9
   6  10  -3 552.215 1105.68   1
  -6 -10   2 11094.8 2044.86   7
  -6  10   2 12257.6 2041.34  10
   6 -10  -2 14731.8 2241.43   9
   6  10  -2 16759.2 2848.94   1
  -6 -10   1 7533.37 1724.57   7
  -6  10   1 5361.29 1406.79  10
   6 -10  -1 5246.46 1408.69   9
   6  10  -1 8790.24 2191.94   1
   6  10   0 5506.91 1943.50   1
  -6  10   0 5488.31 1418.21  10
   6 -10   0 4828.38 1370.34   9
  -6 -10   0 4186.00 1306.82   7
  -6 -10  -1 10960.0 1986.66   7
   6  10   1 8213.38 2097.89   1
  -6  10  -1 5492.98 1422.17  10
   6 -10   1 8454.04 1756.16   9
  -6 -10  -2 5976.29 1515.78   7
  -6  10  -2 6482.99 1519.42  10
   6  10   2 8434.15 2246.15   1
   6 -10   2 7841.33 1690.71   9
  -6  10  -3 9921.12 1909.23  10
   6  10   3 7425.77 1826.82   1
   7   0 -13-2539.19 1144.22   8
  -7   0  12 16612.8 2410.61   4
   7   0 -12 15173.7 2300.32   8
  -7   0  11 260.188 612.978   4
   7   0 -11-398.275 665.916   8
  -7   0  10 56493.5 4128.05   4
   7   0 -10 54748.6 3747.72   2
   7   0 -10 60408.0 4075.72   8
  -7   0   9-3.85561 450.379   4
   7   0  -9-221.271 635.981   8
   7   0  -9 159.465 400.857   2
   7   0  -8 45508.5 3209.83   2
  -7   0   8 48286.7 3499.32   4
   7   0  -8 46909.8 3075.51   8
   7   0  -7 244.638 328.867   1
  -7   0   7 295.248 585.960   6
  -7   0   7 22.5843 448.176   4
   7   0  -7-280.209 382.916   2
   7   0  -7-85.7781 443.760   8
  -7   0   6 443812. 12719.4   6
   7   0  -6 462262. 10960.9   1
   7   0  -6 417183. 12276.4   2
  -7   0   6 441190. 12692.8   4
   7   0  -6 487382. 11755.1   8
  -7   0   5 408.854 385.073   7
  -7   0   5-48.8860 144.201  10
  -7   0   5-405.929 610.716   6
   7   0  -5 234.716 408.980   1
  -7   0   5 121.218 416.210   4
   7   0  -5-184.367 417.549   2
   7   0  -5 201.012 416.616   8
  -7   0   4 53329.0 2259.11  10
  -7   0   4 51251.9 3164.33   6
   7   0  -4 54981.6 2501.22   1
   7   0  -4 56594.7 3198.62   2
  -7   0   4 51490.5 3114.90   4
   7   0  -4 53922.5 2381.98   8
  -7   0   4 52177.8 2461.91   7
   7   0  -3 1015.18 578.797   1
  -7   0   3 945.749 323.137   7
  -7   0   3 256.092 254.605  10
  -7   0   3 508.238 553.301   6
   7   0  -3 265.470 165.287   9
  -7   0   3-65.4922 397.933   4
   7   0  -3 556.221 478.712   2
   7   0  -3 807.091 362.990   8
  -7   0   2 220774. 6346.01  10
   7   0  -2 225131. 5802.31   9
   7   0  -2 214266. 7030.91   2
   7   0  -2 222270. 6241.96   1
  -7   0   2 224081. 5727.18   7
   7   0  -1 587.503 455.869   1
  -7   0   1 222.418 213.473   7
  -7   0   1 193.934 287.995  10
   7   0  -1-70.3669 153.169   9
   7   0  -1 204.012 365.881   2
  -7   0   0 651484. 14003.4   7
   7   0   0 658934. 14939.2   9
   7   0   0 655876. 15588.0   2
  -7   0   0 648154. 15485.9  10
   7   0   0 678695. 14958.3   1
  -7   0  -1 209.803 249.980   7
  -7   0  -1 81.5380 285.431  10
   7   0   1 492.368 366.845   1
   7   0   1 234.504 299.628   9
   7   0   1 128.180 287.360   2
  -7   0  -2 69079.4 2806.20   7
  -7   0  -2 55839.8 3243.52  10
  -7   0  -2 66799.5 2887.84   3
   7   0   2 64359.0 3262.64   9
   7   0   2 65127.5 3059.73   2
   7   0   2 67362.7 3199.85   1
  -7   0  -3 370.077 407.971  10
  -7   0  -3 316.312 349.981   3
   7   0   3 247.959 408.410   9
   7   0   3 105.024 215.065   2
  -7   0  -4 395031. 11497.7  10
  -7   0  -4 393139. 10520.4   3
   7   0   4 384782. 11253.0   9
   7   0   4 396398. 9810.87   2
  -7   0  -5 435.984 475.332  10
  -7   0  -5 164.420 458.073   3
   7   0   5 277.364 497.832   9
  -7   0  -6 33810.9 2652.54   3
  -7   0  -6 33117.6 2895.50  10
   7   0   6 35258.1 2956.41   9
  -7   0  -7 482.765 540.322  10
  -7   0  -7 765.380 472.468   3
   7   0   7-310.951 502.179   9
  -7   0  -8 250977. 9264.52   3
  -7   0  -8 236628. 9429.79  10
  -7   0  -9 419.899 519.699  10
  -7   0  -9 300.368 558.687   3
   7   0   9 598.548 744.293   9
  -7   0 -10 1146.31 605.168  10
  -7   0 -10 945.568 674.829   3
   7   0  10 1215.11 898.038   9
  -7  -1  12-121.014 466.872   4
  -7   1  12 18.0274 663.964   4
   7  -1 -12 206.139 736.989   8
   7   1 -12 313.718 686.717   8
   7  -1 -11 4666.49 1087.41   2
  -7  -1  11 5291.14 1297.68   4
  -7   1  11 6833.16 1486.98   4
   7  -1 -11 5759.46 1450.29   8
   7   1 -11 5737.81 1427.46   8
   7   1 -10 14989.9 1897.78   2
  -7  -1  10 14692.6 2072.08   4
   7  -1 -10 18814.2 2323.29   8
   7   1 -10 15096.5 1962.89   8
  -7   1  10 15827.0 2172.41   4
   7  -1 -10 12099.3 1740.21   2
  -7  -1   9 8266.20 1523.53   4
  -7   1   9 7839.82 1463.68   4
   7  -1  -9 5929.41 1275.29   8
   7   1  -9 5817.36 1181.98   2
   7   1  -9 7694.11 1304.39   8
   7  -1  -9 8250.69 1392.20   2
   7   1  -8 8019.05 1154.23   1
  -7  -1   8 11973.5 1742.54   4
  -7   1   8 10334.3 1623.04   4
   7   1  -8 10726.1 1537.31   2
   7  -1  -8 11616.1 1612.00   8
   7   1  -8 8586.08 1283.54   8
   7  -1  -8 8644.77 1418.63   2
  -7  -1   7 25101.6 2429.28   6
  -7   1   7 22066.2 2233.88   6
   7   1  -7 19328.0 1716.70   1
   7   1  -7 20914.9 2055.93   2
  -7  -1   7 18940.8 2093.95   4
   7  -1  -7 20664.8 2077.83   2
  -7   1   7 22116.0 2248.45   4
   7  -1  -7 24803.1 2173.72   8
   7   1  -7 22887.8 1919.73   8
  -7  -1   7 23208.5 2030.55   7
  -7  -1   6 616.184 396.615   7
   7   1  -6 1348.79 605.227   1
  -7  -1   6 924.796 614.400   6
  -7   1   6 572.796 444.443   6
  -7  -1   6 2232.76 775.389   4
   7   1  -6 492.574 390.786   2
  -7   1   6 716.759 471.239   4
   7  -1  -6 1456.12 573.530   8
   7   1  -6 630.651 437.866   8
   7  -1  -6 207.174 440.474   2
  -7  -1   5 1514.92 504.558   7
  -7   1   5 709.178 315.099  10
  -7  -1   5 447.699 507.160   6
  -7   1   5 1384.55 704.102   6
   7   1  -5 693.767 473.926   1
  -7  -1   5 801.321 500.605   4
   7   1  -5 2189.96 718.919   2
  -7   1   5 730.079 487.978   4
   7  -1  -5 1813.90 672.765   8
   7  -1  -5 716.584 481.814   2
   7   1  -5 790.983 375.671   8
  -7  -1   4 34580.2 1638.60  10
  -7   1   4 34013.0 1895.48  10
  -7   1   4 33867.8 2496.46   6
   7   1  -4 35411.9 2164.82   1
   7  -1  -4 36004.3 1619.08   9
   7   1  -4 31277.2 2361.52   2
  -7  -1   4 36357.3 2584.75   4
   7  -1  -4 30121.8 2359.56   2
   7  -1  -4 32011.8 1546.05   1
  -7   1   4 31937.9 2390.04   4
   7  -1  -4 31523.6 2021.70   8
   7   1  -4 35354.3 1727.14   8
  -7  -1   4 33388.3 2529.86   6
  -7  -1   4 30544.9 1972.33   7
  -7  -1   3 119.267 231.110   7
  -7  -1   3 559.255 281.184  10
  -7   1   3 406.618 290.829  10
  -7  -1   3 1262.92 773.519   6
  -7   1   3 1019.45 659.661   6
   7   1  -3 1107.27 622.805   2
   7   1  -3 264.677 156.049   9
   7  -1  -3 166.975 215.709   9
  -7   1   3 50.3226 305.588   4
   7  -1  -3 321.361 324.322   8
   7   1  -3 1581.39 757.870   1
   7  -1  -3 125.195 421.471   2
   7   1  -3 138.313 195.585   8
   7  -1  -3-62.9008 244.038   1
  -7  -1   2 20123.7 1449.60  10
  -7   1   2 18398.4 1498.73  10
  -7  -1   2 19583.7 1881.67   6
   7   1  -2 19376.7 1175.10   9
   7  -1  -2 21361.7 1406.25   9
   7  -1  -2 16854.2 1673.27   2
  -7   1   2 22804.1 1805.73   4
   7   1  -2 20654.5 1758.75   1
   7  -1  -2 19154.6 897.794   8
   7  -1  -2 20485.9 1144.41   1
  -7   1   2 19612.6 989.965   7
  -7  -1   2 20337.5 1425.32   7
  -7  -1   1 33557.0 1814.63   7
  -7  -1   1 30154.4 1923.00  10
  -7   1   1 33319.4 2114.67  10
   7   1  -1 32369.4 1740.21   9
   7  -1  -1 29604.7 1833.21   9
   7  -1  -1 28128.8 2124.03   2
   7   1  -1 29031.0 2076.75   1
   7  -1  -1 31930.8 1597.48   1
  -7   1   1 30942.5 1157.97   7
  -7  -1   0 75440.2 2940.86   7
  -7  -1   0 66637.4 3220.74  10
  -7   1   0 66621.8 3328.35  10
   7   1   0 70061.1 2992.82   9
   7  -1   0 75114.6 3246.97   9
   7  -1   0 73675.9 3426.18   2
   7   1   0 69490.7 3313.41   1
   7  -1   0 78536.3 2875.67   1
  -7   1   0 72016.2 2023.49   7
  -7   1  -1 23118.2 1101.56   7
  -7  -1  -1 23034.8 1598.02   7
  -7  -1  -1 23989.2 1929.62  10
  -7   1  -1 25285.5 1994.82  10
   7   1   1 21342.2 1665.90   9
   7  -1   1 23452.2 1835.13   9
   7  -1   1 24204.0 1813.67   2
   7   1   1 25017.2 1897.92   1
  -7  -1  -2 70671.5 3178.38   7
  -7   1  -2 75655.8 2614.74   7
  -7  -1  -2 71652.7 2798.97   3
  -7   1  -2 67040.0 3619.68  10
  -7   1  -2 74395.2 3301.09   3
   7   1   2 70295.7 3431.42   9
   7  -1   2 75558.0 3611.54   9
   7  -1   2 73906.0 3256.75   2
  -7  -1  -2 76126.3 3741.57  10
   7   1   2 68158.9 3448.94   1
   7   1   3 5487.07 1023.88   1
  -7  -1  -3 7036.16 918.647   3
  -7  -1  -3 4783.06 996.465  10
  -7   1  -3 6224.40 1119.61  10
  -7   1  -3 5245.96 912.615   3
   7   1   3 6894.38 1117.07   9
   7  -1   3 6791.78 1137.72   9
   7  -1   3 6144.01 855.425   2
   7   1   4 1130.71 527.215   1
  -7  -1  -4-48.8344 284.557  10
  -7   1  -4 68.5981 291.785  10
  -7  -1  -4 711.501 330.853   3
  -7   1  -4 989.165 581.902   3
   7   1   4-8.54099 196.240   2
   7   1   4 225.182 415.767   9
   7  -1   4 94.8534 372.390   9
   7  -1   4 446.120 311.117   2
  -7  -1  -5 3476.50 928.277  10
  -7   1  -5 2399.72 740.985  10
  -7  -1  -5 1923.19 612.812   3
  -7   1  -5 3783.35 897.191   3
   7   1   5 3639.25 953.089   9
   7  -1   5 3139.71 883.851   9
  -7  -1  -6 13379.6 1613.44   3
  -7  -1  -6 9495.21 1529.42  10
  -7   1  -6 10411.8 1601.66  10
  -7   1  -6 10334.4 1524.43   3
   7   1   6 10830.8 1654.05   9
   7  -1   6 9905.34 1565.06   9
  -7  -1  -7 1146.71 681.090  10
  -7   1  -7 1232.98 689.790  10
  -7  -1  -7 1332.15 603.490   3
  -7   1  -7 707.584 470.180   3
   7   1   7 295.322 460.782   9
   7  -1   7 725.148 578.183   9
  -7  -1  -8 8339.62 1573.49  10
  -7   1  -8 5897.02 1308.63  10
  -7  -1  -8 5984.11 1276.90   3
  -7   1  -8 6680.12 1425.51   3
   7   1   8 7514.59 1567.69   9
   7  -1   8 10130.7 1787.49   9
  -7  -1  -9-44.4812 437.910  10
  -7   1  -9-27.4917 351.441  10
  -7  -1  -9 459.564 747.458   3
  -7   1  -9 151.627 438.063   3
   7   1   9 419.340 546.578   9
   7  -1   9-95.2824 426.959   9
  -7  -1 -10 1465.26 886.080  10
  -7   1 -10 3201.09 1141.25  10
  -7  -1 -10 819.248 584.663   3
  -7   1 -10 1752.92 1030.94   3
   7   1  10 1677.89 773.964   9
   7  -1  10 1469.69 840.233   9
  -7  -2  12 894.347 691.489   4
  -7   2  12 1396.18 715.698   4
   7  -2 -12 1764.25 1176.64   8
   7   2 -12 2415.74 997.367   8
   7  -2 -11-39.5721 523.421   2
  -7  -2  11 1693.65 873.563   4
  -7   2  11 678.532 693.596   4
   7  -2 -11 1416.45 1071.06   8
   7   2 -11 1194.14 693.296   8
   7  -2 -10 990.298 646.467   2
  -7  -2  10 856.553 650.121   4
  -7   2  10-117.574 469.518   4
   7  -2 -10-751.262 710.246   8
   7   2 -10-186.742 467.203   2
   7   2 -10-124.667 305.416   8
   7  -2  -9 50.0684 399.323   2
   7   2  -9-86.2158 443.699   1
  -7  -2   9 939.245 761.489   4
  -7   2   9 308.787 496.542   4
   7   2  -9 70.2230 318.789   2
   7  -2  -9 1188.98 929.549   8
   7   2  -9-71.2215 398.971   8
  -7  -2   8-373.677 424.193   7
   7   2  -8-226.993 514.107   1
  -7  -2   8-147.488 302.845   4
   7   2  -8-136.398 354.144   2
  -7   2   8 408.643 417.320   4
   7  -2  -8 1249.08 860.463   8
   7   2  -8 632.163 442.153   8
   7  -2  -8-320.210 432.922   2
  -7  -2   7 9020.32 1296.93   7
  -7   2   7 9921.98 1496.24   6
   7   2  -7 8303.38 1257.33   1
   7   2  -7 10573.4 1307.05   8
  -7  -2   7 9674.67 1516.50   4
   7   2  -7 8620.61 1349.81   2
  -7   2   7 7305.01 1306.36   4
   7  -2  -7 11598.3 1691.26   8
   7  -2  -7 8610.76 1412.01   2
  -7  -2   6 2095.35 638.633   7
   7   2  -6 2053.27 650.715   1
  -7  -2   6 2456.84 882.923   6
  -7   2   6 1986.86 659.372   6
  -7   2   6 1476.04 428.678  10
  -7  -2   6 2079.86 759.056   4
   7   2  -6 2066.45 649.310   2
  -7   2   6 2103.67 765.838   4
   7  -2  -6 4815.39 1070.00   8
   7   2  -6 3099.08 693.637   8
   7  -2  -6 3595.47 919.600   2
  -7  -2   5 938.070 530.657   7
  -7   2   5 1357.29 443.842  10
  -7  -2   5 2047.26 748.156   6
  -7   2   5 571.501 505.722   6
   7   2  -5 1733.90 644.906   1
   7  -2  -5 969.974 333.032   9
  -7   2   5 1014.01 522.543   4
   7  -2  -5 2134.47 864.816   8
   7   2  -5 869.009 378.739   8
   7  -2  -5 387.368 441.959   2
  -7  -2   4 5189.40 890.825   7
  -7  -2   4 8174.45 712.329  10
  -7   2   4 6262.12 872.612  10
  -7  -2   4 6949.63 1176.53   6
  -7   2   4 4965.30 1030.30   6
   7  -2  -4 7919.04 870.710   9
   7   2  -4 6963.10 1113.68   1
   7   2  -4 7667.93 794.993   8
  -7   2   4 6668.63 1064.80   4
   7  -2  -4 7621.67 1104.48   8
   7  -2  -4 6006.82 1115.63   2
  -7  -2   3 5418.54 865.423   7
  -7  -2   3 4379.54 607.846  10
  -7   2   3 4639.99 782.683  10
  -7  -2   3 3819.12 972.598   6
  -7   2   3 4790.63 1071.12   6
   7  -2  -3 5113.07 729.095   9
   7   2  -3 6414.56 1137.48   1
   7   2  -3 4396.16 496.132   8
  -7   2   3 5072.70 892.086   4
   7  -2  -3 5100.30 722.899   8
   7  -2  -3 4274.82 914.301   2
  -7   2   2 51307.1 2739.37  10
  -7  -2   2 49183.8 2365.93  10
  -7  -2   2 48152.3 2987.05   6
   7   2  -2 47731.9 1932.06   9
   7  -2  -2 53283.5 2547.99   9
   7   2  -2 46152.6 2961.29   1
  -7   2   2 46891.6 2654.39   4
   7  -2  -2 45676.2 2843.40   2
   7  -2  -2 50608.0 2006.05   8
  -7  -2   2 48286.9 2509.72   7
   7   2  -1 1491.96 951.995   1
  -7  -2   1 1355.52 423.590  10
  -7   2   1 925.092 477.070  10
   7   2  -1 724.032 298.329   9
   7  -2  -1 872.066 418.513   9
  -7  -2   1 1491.77 535.808   7
   7  -2  -1 703.982 456.240   2
  -7  -2   0 579.029 456.323   7
  -7  -2   0-91.3089 269.662  10
  -7   2   0-219.770 302.098  10
   7   2   0 153.322 233.582   9
   7  -2   0 83.0067 381.757   9
   7   2   0-351.625 727.777   1
   7  -2   0-255.862 342.139   2
  -7  -2  -1 23395.6 1790.12   7
  -7  -2  -1 22046.9 1853.24  10
  -7   2  -1 22940.0 1976.02  10
   7   2   1 21895.8 1709.46   9
   7  -2   1 23608.4 1904.16   9
   7  -2   1 25924.9 1903.69   2
   7   2   1 27049.5 2180.41   1
  -7  -2  -2 11466.5 1326.26   7
  -7  -2  -2 12699.3 1486.05  10
  -7   2  -2 15779.5 1711.20  10
   7   2   2 13627.4 1448.35   9
   7  -2   2 13555.6 1498.41   9
   7  -2   2 13955.1 1347.15   2
   7   2   2 12305.7 1497.57   1
  -7  -2  -2 13836.1 1012.38   3
   7   2   3-378.025 428.314   1
  -7  -2  -3 262.804 358.463  10
  -7   2  -3 386.493 341.568  10
  -7  -2  -3 136.542 293.186   3
  -7   2  -3 690.014 476.608   3
   7   2   3 58.5653 283.655   9
   7  -2   3 254.952 402.523   9
   7  -2   3-49.8208 224.591   2
   7  -2   4 650.847 365.602   2
  -7  -2  -4 1087.33 669.529  10
  -7   2  -4 279.000 425.071  10
  -7  -2  -4 219.434 376.631   3
  -7   2  -4 262.370 369.417   3
   7   2   4 359.344 419.378   9
   7  -2   4 217.054 466.520   9
   7   2   4 538.098 548.215   1
  -7  -2  -5 1875.53 748.033  10
  -7  -2  -5 1335.33 488.299   3
  -7   2  -5 2862.37 837.723  10
  -7   2  -5 2748.54 898.081   3
   7   2   5 1388.33 622.885   9
   7  -2   5 2004.16 700.197   9
   7   2   5 1086.46 616.020   1
  -7  -2  -6 1464.14 645.924  10
  -7  -2  -6 1769.33 653.588   3
  -7   2  -6 2453.65 863.708  10
  -7   2  -6 1893.98 788.881   3
   7   2   6 1732.55 779.882   9
   7  -2   6 1466.13 691.117   9
  -7  -2  -7-904.271 582.929  10
  -7  -2  -7 470.176 467.054   3
  -7   2  -7 838.306 661.382  10
  -7   2  -7 1278.70 677.559   3
   7   2   7 1414.40 778.438   9
   7  -2   7 314.501 448.863   9
  -7  -2  -8 5460.72 1310.33  10
  -7   2  -8 4140.43 1135.61  10
  -7  -2  -8 3149.09 989.308   3
  -7   2  -8 4371.48 1167.72   3
   7   2   8 3665.96 1094.51   9
   7  -2   8 1769.90 840.675   9
  -7  -2  -9 1155.63 701.665  10
  -7   2  -9 2105.08 936.895  10
  -7  -2  -9 598.321 446.534   3
  -7   2  -9 519.127 603.240   3
   7   2   9 451.301 453.598   9
   7  -2   9 1737.02 783.741   9
  -7  -2 -10 1035.72 780.183  10
  -7   2 -10 861.297 665.277  10
  -7   2 -10 289.927 639.745   3
  -7  -3  12 4923.98 1321.86   4
   7  -3 -12 5260.84 1885.44   8
   7   3 -12 3534.93 1125.29   8
  -7  -3  11 33927.4 3293.00   4
  -7   3  11 38942.5 3720.03   4
   7  -3 -11 37830.6 3332.15   2
   7  -3 -11 37628.4 3967.34   8
   7   3 -11 35617.9 3285.44   8
   7   3 -10 41519.2 3346.12   1
   7   3 -10 45073.3 3281.03   2
  -7  -3  10 41825.2 3517.95   4
  -7   3  10 40154.1 3605.30   4
   7  -3 -10 38005.4 3275.56   2
   7  -3 -10 36842.0 3744.73   8
   7   3 -10 29766.4 2817.96   8
   7   3  -9 28637.7 2651.47   1
   7   3  -9 31028.1 2669.20   2
  -7  -3   9 30794.1 2913.23   4
  -7   3   9 31445.0 3037.59   4
   7  -3  -9 25951.8 2629.43   2
   7  -3  -9 31463.2 3287.72   8
   7   3  -9 33347.5 2795.63   8
  -7  -3   9 27316.8 2637.18   7
   7  -3  -8 325.204 387.843   2
  -7  -3   8-233.798 342.261   7
   7   3  -8 1134.99 549.453   1
  -7  -3   8 282.175 430.340   4
   7   3  -8 90.9180 321.224   2
  -7   3   8 902.540 665.537   4
   7   3  -8 191.897 483.973   8
   7   3  -7 32808.4 2601.51   1
  -7   3   7 35176.6 2911.58   4
   7  -3  -7 29540.0 2619.40   2
   7  -3  -7 35114.0 3052.81   8
  -7  -3   7 25251.0 2358.12   7
  -7   3   6 44947.3 2564.41  10
  -7  -3   6 39527.3 3025.26   6
  -7   3   6 40716.7 2893.54   6
   7   3  -6 41124.5 2841.06   1
   7  -3  -6 42717.1 2344.13   9
  -7   3   6 36217.7 2857.92   4
   7  -3  -6 43722.7 3120.55   2
   7  -3  -6 44177.2 3183.34   8
  -7  -3   6 39796.0 2825.62   7
  -7   3   5 134824. 4966.96  10
  -7  -3   5 136426. 5782.82   6
  -7   3   5 135408. 5482.46   6
   7   3  -5 136790. 5470.62   1
   7  -3  -5 143272. 4800.85   9
  -7   3   5 132948. 5594.43   4
   7  -3  -5 130832. 5682.89   2
   7  -3  -5 146853. 5672.35   8
  -7  -3   5 131624. 5318.25   7
  -7  -3   4 4726.30 924.241   7
  -7   3   4 4924.50 851.974  10
  -7  -3   4 4168.49 987.583   6
  -7   3   4 4990.06 958.503   6
   7   3  -4 5630.46 1078.23   1
   7  -3  -4 4775.92 784.761   9
   7  -3  -4 3194.50 771.324   8
  -7   3   4 4622.73 929.911   4
   7  -3  -4 3444.91 841.525   2
  -7  -3   3 14358.6 1137.80  10
  -7   3   3 13221.0 1412.96  10
  -7  -3   3 13286.9 1588.78   6
  -7   3   3 15332.6 1615.24   6
   7  -3  -3 15741.6 1416.74   9
  -7   3   3 13208.5 1441.52   4
   7  -3  -3 12845.2 1571.69   2
   7   3  -3 13498.9 1625.68   1
   7  -3  -3 17266.9 1435.34   8
  -7  -3   3 15786.8 1536.49   7
  -7  -3   2 48470.3 2763.48   7
  -7  -3   2 51335.3 2494.09  10
  -7   3   2 52075.5 2938.24  10
  -7  -3   2 49593.4 3050.47   6
   7  -3  -2 52187.9 2758.32   9
   7   3  -2 48971.1 3221.56   1
  -7   3   2 51429.2 2760.23   4
   7  -3  -2 45496.9 2931.32   2
   7  -3  -2 53587.9 2385.84   8
  -7  -3   1 145969. 5298.10   7
  -7  -3   1 152835. 5150.39  10
  -7   3   1 156042. 5675.90  10
   7  -3  -1 158260. 5462.57   9
  -7   3   1 153537. 5026.92   4
   7  -3  -1 150875. 5643.31   2
  -7  -3   0 6414.42 965.077  10
  -7   3   0 3829.88 823.363  10
  -7  -3   0 5079.33 932.622   7
   7   3   0 6954.11 1400.27   1
   7   3   0 6140.80 848.357   9
   7  -3   0 6147.03 967.083   9
   7  -3   0 5031.38 914.186   2
   7  -3   1 3422.71 768.923   2
  -7  -3  -1 3291.93 773.707   7
  -7   3  -1 4399.40 946.004  10
   7   3   1 3552.65 701.426   9
  -7  -3  -1 3382.81 814.813  10
   7  -3   1 4607.56 862.510   9
   7   3   1 1866.27 699.919   1
   7  -3   2 1360.52 477.000   2
   7   3   2 2216.33 894.036   1
  -7  -3  -2 2116.94 748.711   7
  -7  -3  -2 1375.03 567.938  10
  -7   3  -2 1589.92 647.579  10
   7   3   2 442.158 405.222   9
   7  -3   2 2530.76 726.334   9
  -7  -3  -3 237298. 8030.59   7
  -7   3  -3 246905. 8439.31  10
  -7   3  -3 246966. 8099.39   3
   7   3   3 251987. 8098.64   9
   7  -3   3 256754. 8447.09   9
   7  -3   3 250457. 7247.13   2
  -7  -3  -3 242882. 8253.46  10
   7   3   3 250167. 8477.24   1
   7   3   4 86.1310 453.065   1
  -7  -3  -4 797.456 573.687  10
  -7   3  -4 80.1133 338.617  10
  -7   3  -4 1458.54 656.852   3
   7   3   4 847.211 515.347   9
   7  -3   4 1457.02 636.325   9
  -7  -3  -5 11934.3 1706.54  10
  -7   3  -5 12265.5 1720.32  10
   7   3   5 14083.8 1849.31   9
  -7   3  -5 11670.3 1655.14   3
   7  -3   5 10149.4 1553.80   9
   7   3   5 11250.2 1705.94   1
  -7  -3  -6 642.339 518.746  10
  -7   3  -6 1666.84 772.182  10
  -7   3  -6 770.337 599.917   3
   7   3   6 1143.46 604.150   9
   7  -3   6 607.032 627.442   9
   7   3   6 328.279 459.132   1
  -7  -3  -7 8406.55 1576.65  10
  -7   3  -7 8231.11 1535.97  10
  -7   3  -7 8179.67 1523.83   3
   7   3   7 8254.62 1560.92   9
   7  -3   7 10348.0 1736.81   9
  -7  -3  -8 8617.91 1686.39  10
  -7   3  -8 8222.48 1604.92  10
  -7   3  -8 7064.01 1483.79   3
   7   3   8 7150.87 1466.14   9
   7  -3   8 11398.9 1928.17   9
  -7  -3  -9 70333.5 4956.91  10
  -7   3  -9 63119.9 4583.11  10
  -7   3  -9 69592.9 4931.98   3
   7   3   9 67026.7 4851.62   9
   7  -3   9 62397.7 4727.68   9
   7   3   9 63861.5 4457.40   4
  -7   3 -10 551.340 586.486  10
  -7   3 -10 849.430 976.391   3
   7  -4 -12 808.166 1276.46   8
   7   4 -12-1081.10 765.234   8
   7   4 -11 5527.22 1342.96   1
   7  -4 -11 6559.55 1434.55   2
   7  -4 -11 12015.6 2428.12   8
  -7   4  11 8076.29 1797.13   4
   7   4 -11 8760.68 1663.25   8
  -7  -4  10 2180.43 971.554   7
   7   4 -10 1031.19 631.682   1
   7  -4 -10 930.725 737.114   2
   7   4 -10 1277.41 591.743   2
   7  -4 -10 2459.70 1327.46   8
  -7   4  10 1175.01 807.028   4
   7   4 -10-242.008 435.213   8
  -7  -4   9 5708.80 1333.59   7
   7  -4  -9 6104.09 1358.92   2
   7   4  -9 7497.01 1458.27   1
   7   4  -9 5120.39 1132.67   2
   7  -4  -9 5448.77 1651.28   8
  -7   4   9 7239.09 1505.39   4
   7  -4  -8 5249.19 1191.41   2
  -7  -4   8 7148.66 1364.38   7
   7   4  -8 7039.09 1376.14   1
   7  -4  -8 6208.62 1575.70   8
  -7   4   8 8640.53 1555.26   4
  -7   4   7 18269.6 1751.17  10
   7   4  -7 20571.9 2213.32   1
  -7   4   7 23190.1 2399.29   4
   7  -4  -7 18313.9 2145.61   2
   7  -4  -7 18328.9 2320.15   8
  -7  -4   7 16803.8 2002.28   7
   7  -4  -6 840.568 631.891   2
  -7  -4   6 471.070 535.423   7
   7   4  -6 1213.84 677.331   1
  -7  -4   6 134.537 430.439   6
  -7   4   6-150.402 464.791   6
  -7   4   6 707.826 418.847  10
   7  -4  -6 929.738 456.686   9
   7  -4  -6 1740.19 893.403   8
  -7   4   6 975.875 590.530   4
   7  -4  -5 2761.79 902.511   2
  -7  -4   5 4680.37 1002.96   7
  -7  -4   5 5357.95 1131.80   6
  -7   4   5 2719.28 754.780   6
  -7   4   5 2574.04 728.989  10
   7   4  -5 4554.42 1084.31   1
   7  -4  -5 4891.94 876.196   9
   7  -4  -5 3015.04 899.276   8
  -7   4   5 3242.26 905.682   4
   7  -4  -4 2892.47 821.154   2
  -7  -4   4 3796.47 871.416   7
  -7   4   4 3959.10 826.847  10
  -7  -4   4 4609.10 972.240   6
  -7   4   4 5187.89 951.620   6
   7   4  -4 3974.52 1034.18   1
   7  -4  -4 3996.10 772.597   9
   7  -4  -4 6265.99 1117.34   8
  -7   4   4 3655.75 838.463   4
  -7   4   3 31650.6 2373.71  10
  -7  -4   3 34395.6 2589.44   6
  -7   4   3 37332.8 2490.34   6
   7   4  -3 33685.7 2723.47   1
   7  -4  -3 38616.4 2479.06   9
  -7   4   3 34932.4 2392.15   4
   7  -4  -3 29740.7 2478.42   2
   7  -4  -3 38983.7 2378.97   8
  -7  -4   3 30832.9 2383.73   7
   7  -4  -2 1987.32 711.617   2
  -7  -4   2 2808.32 736.743   7
  -7  -4   2 1568.76 424.379  10
  -7   4   2 1461.93 553.207  10
  -7  -4   2 2299.44 770.719   6
  -7   4   2 1881.40 749.348   6
   7  -4  -2 2760.79 693.378   9
   7  -4  -2 1925.06 564.010   8
  -7   4   2 1427.69 494.893   4
   7   4  -2 3892.91 1166.61   1
   7  -4  -1 102.607 398.091   2
  -7  -4   1 1630.27 648.422   7
  -7  -4   1 822.417 388.804  10
  -7   4   1 154.164 340.098  10
  -7  -4   1 1103.60 732.731   6
   7  -4  -1 76.2403 284.402   9
  -7   4   1 391.347 336.837   4
   7   4  -1 2492.38 1069.57   1
   7  -4   0-63.3106 333.753   2
   7   4   0 1153.30 937.492   1
  -7  -4   0 1269.25 519.948  10
  -7  -4   0 521.760 542.854   7
  -7   4   0 554.137 461.786  10
   7  -4   0-190.624 323.119   9
  -7  -4  -1 31043.8 2448.25   7
  -7  -4  -1 32605.9 2402.17  10
  -7   4  -1 29284.8 2448.32  10
   7  -4   1 32331.8 2497.51   9
   7   4   1 26546.6 2595.16   1
   7  -4   1 32681.3 2316.44   2
   7  -4   2 865.626 414.285   2
  -7  -4  -2 483.042 536.402   7
  -7  -4  -2 1398.25 546.100  10
  -7   4  -2 1290.55 585.611  10
   7  -4   2 1764.61 677.509   9
   7   4   2 65.9213 640.710   1
  -7  -4  -3 51005.4 3423.35   7
  -7  -4  -3 52719.7 3390.78  10
  -7   4  -3 56875.0 3600.98  10
   7   4   3 53725.1 3311.68   9
   7  -4   3 48889.5 3362.96   9
   7  -4   3 48860.8 2761.73   2
   7   4   3 45518.6 3367.22   1
  -7  -4  -4 1094.95 846.710   7
  -7  -4  -4 340.531 461.633  10
  -7   4  -4 110.813 406.894  10
  -7   4  -4 776.203 627.885   3
   7   4   4 784.746 489.686   9
   7  -4   4 827.940 553.529   9
   7   4   4 866.930 684.431   1
  -7  -4  -5 31164.6 2828.53  10
  -7   4  -5 29978.6 2771.93  10
  -7   4  -5 25874.1 2551.04   3
   7   4   5 32118.3 2798.05   9
   7  -4   5 32427.4 2887.38   9
   7   4   5 30449.6 2820.75   1
  -7  -4  -6 24.1924 378.299  10
  -7   4  -6 591.990 513.969  10
   7   4   6 591.189 613.697   1
  -7   4  -6 795.054 660.494   3
   7   4   6 1231.47 831.320   9
   7  -4   6 544.385 526.712   9
  -7  -4  -7 24713.7 2745.21  10
  -7   4  -7 21043.2 2476.05  10
  -7   4  -7 20757.4 2525.67   3
   7   4   7 25965.4 2764.38   9
   7  -4   7 24701.6 2739.95   9
  -7  -4  -8 1346.13 787.256  10
  -7   4  -8 1739.80 817.392  10
  -7   4  -8 2009.85 1032.25   3
   7   4   8 1271.57 759.385   9
   7  -4   8 1252.18 763.239   9
  -7   4  -9 32315.7 3283.56  10
  -7   4  -9 30751.3 3338.86   3
   7   4   9 35984.7 3589.38   9
   7  -4   9 30414.6 3276.49   9
  -7  -4  -9 30811.4 3321.68  10
   7   4   9 32435.9 3271.26   4
   7   4  10-1122.69 716.042   4
   7   5 -11 2039.33 1008.85   1
   7  -5 -11 4186.91 1670.90   8
  -7  -5  11 1393.38 892.718   7
  -7  -5  10 380.377 579.229   7
   7   5 -10 377.018 649.554   1
   7  -5 -10-51.2977 557.698   2
   7  -5 -10 765.275 1252.67   8
  -7   5  10 364.958 508.564   4
   7   5  -9 38080.7 3399.25   1
  -7   5   9 39550.5 3566.59   4
   7  -5  -9 33511.7 3580.98   8
   7  -5  -9 36609.5 3373.90   2
  -7  -5   9 40219.2 3477.14   7
  -7  -5   8 4534.51 1189.24   7
   7  -5  -8 3671.63 1063.25   2
   7   5  -8 3566.33 1197.32   1
   7  -5  -8 2680.88 1144.62   8
  -7   5   8 2361.22 883.827   4
  -7   5   7 34807.8 2678.92  10
   7   5  -7 35395.3 3100.88   1
   7  -5  -7 40703.9 2819.88   9
  -7   5   7 36423.4 3116.75   4
   7  -5  -7 38792.0 3348.52   8
   7  -5  -7 32363.1 2984.17   2
  -7  -5   7 34369.1 3012.32   7
   7  -5  -6-338.475 500.238   2
  -7  -5   6 279.389 550.998   7
   7   5  -6-134.586 575.472   1
  -7   5   6 782.191 430.409  10
   7  -5  -6 117.309 389.358   9
   7  -5  -6 3.53538 617.554   8
  -7   5   6 616.212 553.548   4
  -7   5   5 20259.3 2011.96  10
  -7  -5   5 19865.4 2074.57   6
  -7   5   5 19463.9 1852.73   6
   7   5  -5 18064.7 2147.45   1
   7  -5  -5 20705.1 1952.09   9
  -7   5   5 24039.2 2272.70   4
   7  -5  -5 17541.2 1971.09   8
   7  -5  -5 16170.7 2002.35   2
  -7  -5   5 19667.2 2095.20   7
  -7   5   4 50540.9 3249.00  10
  -7  -5   4 62397.0 3649.87   6
  -7   5   4 59093.3 3206.61   6
   7   5  -4 45155.3 3381.94   1
   7  -5  -4 54538.2 3232.07   9
  -7   5   4 55738.7 3314.08   4
   7  -5  -4 55597.3 3353.38   8
   7  -5  -4 56291.4 3682.86   2
  -7  -5   4 51534.5 3402.95   7
  -7   5   3 67877.8 3828.67  10
  -7  -5   3 74561.6 3914.30   6
  -7   5   3 74777.7 3610.02   6
   7   5  -3 69053.1 4244.02   1
   7  -5  -3 75102.8 3880.74   9
  -7   5   3 71889.8 3590.50   4
   7  -5  -3 73921.1 3694.89   8
   7  -5  -3 67147.1 4008.15   2
  -7  -5   3 69240.6 3906.04   7
   7  -5  -2 6.01471 308.582   2
  -7  -5   2 1016.30 584.407   7
  -7   5   2 1028.14 457.721  10
  -7  -5   2 1637.46 708.272   6
  -7   5   2 675.087 507.464   6
   7  -5  -2 463.426 417.831   9
   7   5  -2 999.742 879.447   1
  -7   5   2 983.405 432.141   4
   7  -5  -1 3522.82 864.654   2
  -7  -5   1 6071.39 1166.97   7
  -7   5   1 7165.46 1227.52  10
  -7  -5   1 7184.42 1189.51   6
  -7   5   1 7595.73 928.840   4
   7  -5  -1 6431.42 1160.10   9
   7   5  -1 5642.30 1452.69   1
   7  -5   0 1092.04 607.992   2
  -7  -5   0 1201.22 541.763  10
   7   5   0 1333.42 1030.01   1
  -7  -5   0 1106.80 611.048   7
  -7   5   0 475.305 483.031  10
   7  -5   0 1659.44 613.532   9
  -7  -5  -1 138916. 5882.10   7
  -7  -5  -1 132192. 5496.36  10
  -7   5  -1 135574. 5913.40  10
   7  -5   1 140220. 5907.58   9
   7   5   1 121245. 6213.58   1
   7  -5   1 131820. 5417.18   2
   7  -5   2 1245.24 514.342   2
  -7  -5  -2 2274.72 868.244   7
  -7  -5  -2 1624.92 773.770  10
  -7   5  -2 1745.65 680.098  10
   7  -5   2 899.076 558.080   9
   7   5   2 1915.10 860.582   1
  -7  -5  -3 27304.8 2586.99   7
  -7  -5  -3 24068.8 2367.67  10
  -7   5  -3 22733.9 2353.27  10
   7  -5   3 17882.8 2108.24   9
   7   5   3 25564.4 2606.72   1
  -7  -5  -4 8177.81 1547.41   7
  -7  -5  -4 5922.39 1269.59  10
  -7   5  -4 7187.40 1361.74  10
   7   5   4 8371.31 1522.83   1
   7  -5   4 5393.22 1220.52   9
  -7  -5  -5 47696.8 3623.13  10
  -7   5  -5 38912.2 3340.09   3
  -7   5  -5 49512.6 3678.11  10
   7  -5   5 40807.8 3412.50   9
   7   5   5 38755.7 3371.23   1
  -7  -5  -6 923.764 609.413  10
  -7   5  -6 966.306 559.425  10
  -7   5  -6 936.801 733.293   3
   7  -5   6 1926.41 794.111   9
   7   5   6 999.029 677.911   1
  -7  -5  -7 15670.0 2227.64  10
  -7   5  -7 12576.9 1965.67  10
   7   5   7 16063.1 2297.68   1
  -7   5  -7 14497.3 2179.59   3
   7  -5   7 12635.1 2009.05   9
  -7  -5  -8 14265.5 2243.44  10
  -7   5  -8 8593.98 1672.55  10
  -7   5  -8 11924.7 2099.81   3
   7  -5   8 10300.3 1874.92   9
   7   5   9 6810.04 1563.38   4
  -7   5  -9 4258.89 1279.29  10
  -7  -6  10 10175.0 1915.16   7
   7   6 -10 10302.1 1946.09   1
   7  -6 -10 10932.2 2302.95   8
  -7   6  10 11443.6 2087.96   4
  -7  -6   9-257.742 612.226   7
   7   6  -9 2116.39 1164.70   1
   7  -6  -9 1111.59 1028.57   8
  -7   6   9 440.339 589.014   4
  -7  -6   8 12574.3 1962.21   7
   7  -6  -8 10354.9 1802.17   2
   7   6  -8 11322.0 1965.39   1
  -7   6   8 11668.2 1682.12  10
   7  -6  -8 14336.2 2285.38   8
  -7   6   8 14281.5 2080.45   4
  -7  -6   7 9614.25 1682.97   7
   7  -6  -7 7814.94 1551.23   2
   7   6  -7 6775.74 1503.54   1
  -7   6   7 7588.70 1366.12  10
   7  -6  -7 7078.03 1257.04   9
   7  -6  -7 7715.10 1670.11   8
  -7   6   7 7156.69 1443.58   4
  -7   6   6 34814.1 2859.90  10
   7   6  -6 33995.3 3147.61   1
   7  -6  -6 38863.1 2935.74   9
  -7   6   6 33041.8 2882.55   4
   7  -6  -6 30422.8 2879.60   8
   7  -6  -6 28485.7 2857.78   2
  -7  -6   6 34649.3 3032.92   7
  -7  -6   5 7620.58 1433.51   7
   7  -6  -5 9975.37 1638.68   2
  -7  -6   5 10113.5 1472.07   6
  -7   6   5 9776.32 1508.60  10
   7   6  -5 7824.94 1533.61   1
   7  -6  -5 9181.42 1396.84   9
   7  -6  -5 10224.4 1616.10   8
  -7   6   5 11099.3 1566.62   4
  -7  -6   4 1253.09 676.988   7
   7  -6  -4 503.586 453.036   2
  -7  -6   4 1839.11 711.410   6
  -7   6   4 87.3803 339.136  10
   7   6  -4 728.347 810.651   1
   7  -6  -4 1241.94 591.269   9
   7  -6  -4 2045.71 880.718   8
  -7   6   4 1374.09 611.594   4
  -7  -6   3 18030.6 2043.40   7
   7  -6  -3 13042.2 1795.32   2
  -7   6   3 16230.4 1932.89  10
  -7  -6   3 18531.2 1917.82   6
  -7   6   3 17414.7 1639.98   6
   7  -6  -3 16186.8 1862.83   9
  -7   6   3 17342.9 1711.27   4
   7   6  -3 16849.5 2204.20   1
   7  -6  -3 19171.2 1964.14   8
  -7  -6   2 33837.6 2821.51   7
  -7   6   2 32414.3 2752.05  10
  -7  -6   2 36050.4 2618.83   6
  -7   6   2 35722.3 2346.89   6
   7   6  -2 31439.9 3096.58   1
   7  -6  -2 37132.3 2859.10   9
   7  -6  -2 31809.0 2754.40   2
   7  -6  -1 5647.56 1150.97   2
  -7   6   1 4430.66 1048.22  10
  -7  -6   1 5400.21 991.229   6
   7  -6  -1 6705.84 1227.98   9
   7   6  -1 5284.92 1481.99   1
  -7  -6   1 4895.81 1138.50   7
  -7  -6   0 17848.2 2104.05   7
  -7   6   0 17566.4 2062.32  10
  -7  -6   0 22429.7 2014.25   6
   7  -6   0 21252.4 2174.86   9
   7   6   0 16570.3 2387.00   1
   7  -6   0 18752.7 2006.75   2
  -7  -6  -1 842.027 788.862   7
  -7   6  -1-31.8358 374.532  10
   7   6   1 1014.00 962.327   1
   7  -6   1 458.647 576.261   9
  -7  -6  -2 21009.2 2357.11   7
  -7   6  -2 20964.9 2322.03  10
   7  -6   2 22081.5 2350.93   9
   7   6   2 18872.8 2468.14   1
  -7  -6  -3 9115.50 1629.83   7
  -7   6  -3 12202.8 1828.38  10
   7  -6   3 12986.9 1878.74   9
  -7  -6  -4 808.825 826.255   7
   7   6   4 435.931 739.847   1
  -7   6  -4 813.475 584.915  10
   7  -6   4 657.920 616.039   9
  -7  -6  -5 1725.79 1166.41   7
  -7   6  -5 783.201 694.681  10
   7  -6   5-10.8294 591.624   9
   7   6   5 1803.76 911.172   1
  -7  -6  -6 22384.7 2813.78   7
  -7   6  -6 24606.2 2716.63  10
   7  -6   6 22239.0 2662.35   9
   7   6   6 25136.2 2878.99   1
   7   6   7 4418.33 1353.39   1
  -7   6  -7 5647.54 1360.69  10
  -7   6  -7 5430.96 1424.44   3
   7  -6   7 4057.34 1260.54   9
  -7   6  -8 12944.4 2095.33  10
  -7   6  -8 14474.2 2378.65   3
   7  -7 -10 769.149 1008.66   8
   7   7  -9 38822.0 3799.44   1
  -7   7   9 35799.0 3608.40   4
   7  -7  -9 35339.4 3766.79   8
  -7  -7   9 35451.1 3574.19   7
  -7  -7   8 4890.69 1383.42   7
   7   7  -8 4836.05 1418.28   1
  -7   7   8 6705.17 1357.61  10
   7  -7  -8 4581.84 1374.21   8
  -7   7   8 4574.22 1191.73   4
  -7  -7   7-322.947 602.744   7
   7   7  -7-512.407 820.733   1
  -7   7   7 32.1461 324.033  10
   7  -7  -7 1015.43 613.633   9
   7  -7  -7 1769.88 1028.00   8
  -7   7   7-869.302 604.084   4
  -7  -7   6 2259.26 862.345   7
  -7   7   6 1805.49 762.255  10
   7   7  -6 2059.68 1106.64   1
   7  -7  -6 1781.12 691.287   9
   7  -7  -6 3491.22 1119.85   8
  -7   7   6 2168.40 786.829   4
  -7   7   5 57965.0 3961.78  10
   7   7  -5 49639.1 4035.07   1
   7  -7  -5 49387.1 3576.30   9
  -7   7   5 60900.1 3827.22   4
   7  -7  -5 53184.4 3844.77   8
  -7  -7   5 53336.8 3941.10   7
  -7  -7   4 1177.06 606.442   7
  -7  -7   4 1476.78 613.820   6
  -7   7   4 1482.14 693.856  10
   7   7  -4 1824.96 1061.54   1
   7  -7  -4 1644.68 679.350   9
   7  -7  -4 2662.34 986.398   8
  -7   7   4 1452.66 630.453   4
  -7  -7   3 2848.65 966.628   7
  -7  -7   3 894.085 613.802   6
  -7   7   3 307.173 492.902  10
   7  -7  -3 1999.06 810.160   9
   7  -7  -3 893.583 515.750   8
   7   7  -3 1429.27 1024.52   1
  -7  -7   2 15157.0 2002.29   7
  -7   7   2 18038.6 2152.16  10
  -7  -7   2 15474.9 1721.41   6
   7  -7  -2 16264.5 1987.14   9
   7   7  -2 15964.3 2396.54   1
  -7  -7   1 47677.0 3585.78   7
  -7   7   1 44972.3 3483.93  10
  -7  -7   1 51838.9 3103.39   6
   7  -7  -1 45971.4 3438.22   9
   7   7  -1 40910.5 3825.72   1
   7   7   0 4565.14 1591.38   1
  -7  -7   0 6517.82 1443.47   7
  -7   7   0 5326.16 1251.03  10
  -7  -7   0 5827.69 1030.07   6
   7  -7   0 7405.67 1395.01   9
  -7  -7  -1 28514.2 2847.46   7
  -7   7  -1 29318.7 2826.99  10
   7   7   1 19789.3 2784.35   1
   7  -7   1 29831.5 2837.92   9
  -7  -7  -2 11174.0 1846.39   7
  -7   7  -2 8788.34 1588.78  10
   7   7   2 8581.43 1822.83   1
   7  -7   2 8277.38 1557.76   9
  -7   7  -3 14884.5 2081.11  10
  -7  -7  -3 15248.8 2147.88   7
   7  -7   3 13258.1 1985.73   9
   7   7   3 10516.5 1937.20   1
   7   7   4 3368.59 1169.77   1
  -7  -7  -4 4644.01 1489.15   7
  -7   7  -4 6469.31 1387.53  10
   7  -7   4 5144.34 1268.80   9
  -7  -7  -5 9618.89 1877.29   7
  -7   7  -5 8670.47 1674.59  10
   7   7   5 10304.2 1935.84   1
   7  -7   5 9684.03 1775.80   9
   7   7   6 2543.40 1070.71   1
  -7  -7  -6 4198.04 1582.32   7
  -7   7  -6 1001.34 688.130  10
   7  -7   6 4012.51 1310.45   9
  -7  -7  -7 13805.0 2413.61   7
  -7   7  -7 12668.9 2070.24  10
   7   7   7 14025.4 2292.72   1
  -7   8   8 34962.8 3386.90  10
   7   8  -8 43527.9 4147.25   1
  -7   8   8 37105.0 3623.36   4
   7  -8  -8 42145.6 4018.26   8
  -7  -8   8 42037.6 3930.65   7
  -7  -8   7 5928.63 1483.71   7
  -7   8   7 5318.93 1305.97  10
   7   8  -7 4045.21 1387.62   1
   7  -8  -7 4815.20 1244.63   9
   7  -8  -7 3078.80 1072.80   8
  -7   8   7 6134.54 1421.30   4
  -7  -8   6 2834.24 994.076   7
  -7   8   6 3978.96 1145.86  10
   7   8  -6 4750.86 1517.90   1
   7  -8  -6 3716.38 1073.44   9
   7  -8  -6 3435.19 1333.60   8
  -7   8   6 2778.37 956.138   4
  -7  -8   5 7215.72 1555.49   7
  -7   8   5 6300.26 1386.91  10
   7   8  -5 6873.92 1801.30   1
   7  -8  -5 4770.42 1193.45   9
   7  -8  -5 7575.16 1489.93   8
  -7   8   4 75817.5 4854.19  10
   7   8  -4 76050.0 5335.26   1
   7  -8  -4 81442.9 4894.90   9
   7  -8  -4 77719.3 4792.46   8
  -7  -8   4 75546.5 4939.45   7
  -7  -8   3 7911.90 1591.76   7
  -7   8   3 8162.72 1567.07  10
   7  -8  -3 7671.93 1475.53   9
   7   8  -3 8075.84 1879.24   1
  -7  -8   2 43301.8 3587.78   7
  -7   8   2 33929.3 3190.44  10
   7  -8  -2 41523.7 3448.26   9
   7   8  -2 36031.2 3690.15   1
  -7  -8   1 1904.45 833.008   7
  -7   8   1 1541.20 799.475  10
   7  -8  -1 1126.73 763.649   9
   7   8  -1 942.166 1179.96   1
  -7  -8   0 33370.1 3226.09   7
  -7   8   0 36936.2 3333.83  10
   7  -8   0 38208.1 3326.97   9
   7   8   0 29655.3 3561.92   1
  -7  -8  -1 2774.56 1104.31   7
  -7   8  -1 2864.08 1026.83  10
   7   8   1 2951.37 1329.24   1
   7  -8   1 2223.76 871.232   9
  -7  -8  -2 75366.7 5049.81   7
  -7   8  -2 65768.7 4630.03  10
   7  -8   2 79120.3 5027.70   9
   7   8   2 68084.3 5224.89   1
  -7  -8  -3 909.709 899.935   7
  -7   8  -3 143.075 586.133  10
   7  -8   3 947.865 670.581   9
   7   8   3-21.7305 1057.11   1
   7   8   4 2860.81 1248.60   1
  -7  -8  -4 2724.70 1262.36   7
  -7   8  -4 1141.76 721.383  10
   7  -8   4 1743.46 902.817   9
  -7  -8  -5 6083.89 1699.27   7
  -7   8  -5 3928.32 1170.37  10
   7   8   5 4234.82 1294.16   1
   7  -8   5 2775.99 1114.96   9
  -7   8  -6 102919. 6188.47  10
  -7   9   7 21611.1 2778.64  10
   7  -9  -7 23606.3 2840.98   9
   7  -9  -7 27226.7 3167.77   8
  -7  -9   6 682.916 642.400   7
  -7   9   6 994.641 675.825  10
   7   9  -6 1404.14 1126.36   1
   7  -9  -6 1060.45 795.433   9
   7  -9  -6-1604.33 952.746   8
  -7  -9   5 3522.05 1175.87   7
  -7   9   5 1583.17 905.488  10
   7   9  -5 2290.81 1200.89   1
   7  -9  -5 349.671 646.420   9
   7  -9  -5 863.979 815.796   8
  -7  -9   4 7445.62 1691.56   7
  -7   9   4 7876.54 1642.45  10
   7  -9  -4 5621.60 1365.16   9
  -7   9   3 72625.2 4986.54  10
   7   9  -3 68687.6 5439.33   1
   7  -9  -3 65175.3 4642.47   9
  -7  -9   3 73996.0 5063.99   7
  -7  -9   2 645.653 700.485   7
  -7   9   2 684.285 602.967  10
   7  -9  -2 1317.75 715.200   9
   7   9  -2 3009.72 1439.09   1
   7   9  -1 3814.91 1724.37   1
  -7  -9   1 1810.09 1018.92   7
  -7   9   1 712.199 676.486  10
   7  -9  -1 2035.58 879.359   9
   7   9   0 1826.76 1369.94   1
  -7  -9   0 2112.75 922.760   7
  -7   9   0 1128.42 724.063  10
   7  -9   0 1346.71 776.330   9
  -7  -9  -1 47833.6 4103.66   7
  -7   9  -1 51566.6 4197.92  10
   7  -9   1 45788.3 3916.11   9
   7   9   1 52083.5 4856.80   1
  -7  -9  -2 9048.65 1828.18   7
  -7   9  -2 10387.6 1876.79  10
   7   9   2 8445.09 2095.43   1
   7  -9   2 12450.4 2047.12   9
  -7  -9  -3 11112.3 2088.18   7
  -7   9  -3 7468.14 1607.94  10
   7  -9   3 8085.35 1730.48   9
   7   9   3 7832.62 1945.04   1
  -7  -9  -4 25878.2 3174.87   7
  -7   9  -4 28938.1 3210.23  10
   7   9   4 31744.6 3532.74   1
   7 -10  -4 10301.0 1952.79   9
  -7  10   3-283.129 541.205  10
   7 -10  -3 763.594 639.046   9
  -7 -10   2 359.411 489.634   7
  -7  10   2 1189.62 751.678  10
   7 -10  -2 865.235 783.205   9
   7  10  -2-204.181 1381.50   1
   7  10  -1 7641.00 2204.25   1
  -7 -10   1 5939.25 1464.40   7
  -7  10   1 5519.40 1406.55  10
   7 -10  -1 3254.44 1092.71   9
   7  10   0 13031.3 2665.71   1
  -7  10   0 9081.20 1845.31  10
  -7 -10   0 13941.5 2286.60   7
   7 -10   0 9649.15 1876.36   9
   8   0 -12 6165.54 1573.88   8
  -8   0  11-51.8749 478.110   4
   8   0 -11-472.889 768.618   8
   8   0 -11-982.453 633.195   2
  -8   0  10 44602.8 3764.34   4
   8   0 -10 40345.4 3350.86   2
   8   0 -10 42183.1 3396.09   8
  -8   0   9 583.858 543.549   4
   8   0  -9-22.2107 510.387   8
   8   0  -9 145.464 618.804   2
   8   0  -8 290.385 506.709   8
   8   0  -8 222.568 471.064   2
  -8   0   7-385.182 472.084   6
  -8   0   7-141.889 419.667   4
   8   0  -7 441.959 568.082   8
   8   0  -7 125.602 400.786   2
  -8   0   6 180945. 7173.02   6
   8   0  -6 169940. 6836.60   2
  -8   0   6 171316. 7024.23   4
   8   0  -6 194092. 6161.87   8
  -8   0   5 215.396 307.963   7
  -8   0   5 74.7683 461.990   6
  -8   0   5 258.533 507.347   4
   8   0  -5-76.6275 431.966   2
  -8   0   4 8378.84 915.587  10
  -8   0   4 6612.60 1246.58   6
   8   0  -4 9064.52 1108.87   1
  -8   0   4 7988.72 1287.70   4
   8   0  -4 7703.75 1235.61   2
  -8   0   4 10186.3 1031.48   7
  -8   0   3-5.17771 195.571   7
  -8   0   3 242.901 256.535  10
  -8   0   3 1073.22 695.491   6
   8   0  -3 6.40381 382.852   1
   8   0  -3 1041.81 601.013   2
  -8   0   2 59615.5 2928.58  10
   8   0  -2 57870.9 2483.64   9
   8   0  -2 57549.5 3343.83   2
   8   0  -2 63321.0 2761.15   1
  -8   0   2 57539.9 2331.38   7
  -8   0   1 201.898 240.617   7
  -8   0   1 112.910 340.872  10
   8   0  -1 680.111 360.506   1
   8   0  -1-30.3917 181.953   9
   8   0  -1 570.002 527.648   2
   8   0   0 4195.34 745.469   1
  -8   0   0 4511.98 589.694   7
  -8   0   0 5753.11 962.675  10
   8   0   0 4665.55 775.056   9
   8   0   0 3735.30 832.075   2
   8   0   1 237.589 307.832   1
  -8   0  -1-58.1124 251.420   7
  -8   0  -1-80.9275 338.396  10
   8   0   1 190.964 319.463   9
   8   0   1 38.5204 322.607   2
  -8   0  -2 17220.0 1329.17   7
  -8   0  -2 15919.0 1760.70  10
   8   0   2 17644.8 1722.78   9
   8   0   2 19466.0 1715.83   2
   8   0   2 17788.4 1663.55   1
  -8   0  -3 324.819 384.678  10
  -8   0  -3 488.278 405.064   3
   8   0   3-59.4782 330.790   9
   8   0   3 314.105 365.922   2
  -8   0  -4 47932.3 3405.98  10
  -8   0  -4 53316.0 3032.53   3
   8   0   4 49108.9 3322.85   9
  -8   0  -5 528.202 512.631  10
  -8   0  -5 391.763 435.062   3
   8   0   5 1673.04 759.419   9
  -8   0  -6 4540.99 1156.01  10
  -8   0  -6 5969.61 1187.42   3
   8   0   6 4339.71 1083.97   9
  -8   0  -7 1217.30 884.284  10
  -8   0  -7-195.584 388.325   3
   8   0   7 727.987 536.217   9
  -8   0  -8 8959.68 1713.23  10
  -8   0  -8 9269.29 1614.59   3
   8   0   8 7697.64 1621.24   9
  -8   0  -9-1416.54 775.071   3
   8   0   9 113.246 732.535   9
   8  -1 -12 1330.36 928.384   8
   8   1 -12 1428.84 832.073   8
   8  -1 -11 3863.85 1106.29   2
  -8  -1  11 5350.03 1509.79   4
  -8   1  11 2867.70 1127.00   4
   8  -1 -11 3296.56 1279.28   8
   8   1 -11 1302.41 625.188   8
   8   1 -11 1268.01 679.783   2
  -8  -1  10 5647.37 1363.89   4
  -8   1  10 4781.79 1278.82   4
   8  -1 -10 3987.71 1171.73   8
   8   1 -10 5827.07 1293.08   8
   8   1 -10 5498.27 1243.17   2
   8  -1 -10 4221.58 1103.39   2
  -8  -1   9 80.1077 530.010   4
  -8   1   9 320.448 601.820   4
   8  -1  -9 785.334 931.861   8
   8   1  -9 560.728 483.269   2
   8   1  -9 61.7119 446.587   8
   8  -1  -9 81.3346 421.177   2
  -8  -1   8 1024.93 635.393   4
  -8   1   8 3247.97 943.436   4
   8   1  -8 1433.99 644.904   2
   8  -1  -8 862.805 730.133   8
   8   1  -8 1855.15 732.717   8
   8  -1  -8 813.348 534.372   2
  -8  -1   7-63.9466 377.941   7
  -8  -1   7 561.634 640.798   6
  -8   1   7 163.766 462.829   6
  -8  -1   7 208.805 377.968   4
  -8   1   7 1303.27 695.433   4
   8   1  -7 760.917 509.060   2
   8  -1  -7-124.535 445.632   8
   8   1  -7 1198.33 583.259   8
   8  -1  -7 165.907 438.177   2
  -8  -1   6 4067.59 838.946   7
  -8  -1   6 5608.78 1177.74   6
  -8   1   6 3985.48 1079.85   6
   8   1  -6 3753.35 794.534   1
  -8  -1   6 4787.14 1088.22   4
  -8   1   6 3598.42 923.709   4
   8   1  -6 3350.33 910.881   2
   8  -1  -6 4428.61 1034.28   8
   8  -1  -6 3664.70 964.756   2
  -8  -1   5 2908.65 696.196   7
  -8   1   5 3273.71 599.089  10
  -8  -1   5 4478.49 1056.45   6
  -8   1   5 3132.48 927.034   6
  -8  -1   5 2931.51 907.955   4
   8   1  -5 4733.75 925.160   1
  -8   1   5 2760.71 834.270   4
   8   1  -5 2817.08 818.897   2
   8  -1  -5 1781.17 687.772   2
  -8  -1   4 22515.3 1427.30  10
  -8   1   4 21069.5 1571.09  10
  -8  -1   4 19733.6 2073.45   6
  -8   1   4 20064.0 2076.46   6
   8   1  -4 22003.8 1853.63   1
   8   1  -4 14085.8 1684.77   2
   8  -1  -4 19724.0 1986.75   2
  -8   1   4 19145.0 1953.00   4
  -8  -1   4 23054.4 1718.14   7
  -8  -1   3 1483.66 473.873   7
   8   1  -3 2775.29 915.545   1
  -8  -1   3 1356.25 422.167  10
  -8   1   3 2238.82 543.104  10
  -8  -1   3 3633.22 1002.68   6
  -8   1   3 4313.84 980.517   6
   8  -1  -3 3260.77 557.910   9
  -8   1   3 4460.30 922.270   4
   8   1  -3 2119.14 672.822   2
   8  -1  -3 1838.72 701.062   2
  -8  -1   2 4501.07 702.153   7
  -8   1   2 4482.43 824.487  10
   8  -1  -2 3356.08 498.726   1
  -8  -1   2 7016.33 1326.37   6
   8   1  -2 3638.24 898.644   1
   8   1  -2 4559.38 602.456   9
   8  -1  -2 3838.04 653.728   9
   8   1  -2 5182.67 1020.97   2
  -8  -1   2 4515.29 753.374  10
   8  -1  -2 4456.77 964.997   2
  -8  -1   1 2390.84 539.943   7
  -8  -1   1 1955.89 547.840  10
  -8   1   1 2338.34 618.346  10
   8   1  -1 1821.79 624.720   2
   8   1  -1 1875.82 463.696   9
   8  -1  -1 2537.82 591.281   9
   8  -1  -1 2350.49 489.460   1
   8  -1  -1 1695.81 619.336   2
   8   1  -1 1541.46 661.752   1
  -8  -1   0 7988.94 911.567   7
   8   1   0 7032.21 1062.61   1
  -8  -1   0 4904.62 911.925  10
  -8   1   0 6757.78 1049.40  10
   8   1   0 7991.07 1013.34   9
   8  -1   0 7904.68 1040.41   9
   8  -1   0 7847.95 1135.03   2
  -8  -1  -1 402.811 412.831   7
  -8  -1  -1 467.719 359.814  10
  -8   1  -1-123.074 424.409  10
   8   1   1 395.403 379.922   9
   8  -1   1 783.535 401.162   9
   8   1   1 295.916 393.510   1
   8  -1   1 359.898 420.230   2
  -8  -1  -2 1934.82 645.139   7
  -8  -1  -2 637.598 457.926  10
  -8   1  -2 788.059 478.989  10
   8   1   2 1466.55 632.055   1
   8   1   2 1377.88 508.726   2
   8   1   2 1323.64 510.505   9
   8  -1   2 814.452 447.295   9
   8  -1   2 1412.34 570.554   2
  -8  -1  -3 1733.91 719.301   7
  -8  -1  -3 2294.49 741.080  10
  -8   1  -3 588.536 408.245  10
  -8   1  -3 1976.14 665.184   3
   8   1   3 576.462 431.875   9
   8  -1   3 1824.96 686.452   9
   8   1   3 1631.56 537.005   2
   8   1   3 2305.49 712.597   1
   8  -1   3 499.764 262.613   2
  -8  -1  -4 21138.5 1767.20   3
  -8  -1  -4 15651.5 1915.92  10
  -8   1  -4 14142.4 1870.16  10
  -8   1  -4 16921.1 1772.33   3
   8   1   4 18544.3 2019.55   9
   8  -1   4 20408.1 2136.29   9
   8   1   4 22304.3 1769.47   2
  -8  -1  -5 35393.5 2518.38   3
  -8  -1  -5 33145.7 2947.51  10
  -8   1  -5 33559.8 2944.42  10
  -8   1  -5 33944.4 2655.88   3
   8   1   5 36188.9 2986.52   9
   8  -1   5 32821.5 2865.83   9
  -8  -1  -6 7898.11 1515.27  10
  -8   1  -6 10817.7 1740.72  10
  -8   1  -6 9903.94 1539.57   3
   8   1   6 11054.5 1736.02   9
   8  -1   6 9009.54 1562.43   9
  -8  -1  -7 40548.6 3507.98  10
  -8   1  -7 38682.8 3417.07  10
  -8   1  -7 35375.9 3082.21   3
   8   1   7 34547.5 3224.68   9
   8  -1   7 36945.6 3352.82   9
  -8  -1  -8 998.497 682.238  10
  -8   1  -8 1593.66 796.232  10
  -8   1  -8 2627.43 989.713   3
   8   1   8 977.222 682.287   9
   8  -1   8 65.5407 524.293   9
  -8  -1  -9 15663.1 2386.87  10
  -8   1  -9 9220.37 1808.61  10
  -8   1  -9 10432.9 1890.22   3
   8   1   9 11467.4 2051.83   9
   8  -1   9 10164.8 1938.18   9
  -8   1 -10 18964.4 2619.65   3
   8  -2 -12-301.339 802.853   8
   8  -2 -11 8404.62 1588.00   2
  -8  -2  11 6226.88 1460.49   4
  -8   2  11 7951.75 1724.94   4
   8  -2 -11 10484.7 2142.77   8
   8   2 -11 11511.2 1844.95   8
   8  -2 -10-227.493 392.241   2
  -8  -2  10 159.981 454.778   4
  -8   2  10-315.383 546.047   4
   8  -2 -10-92.4440 783.935   8
   8   2 -10-374.316 397.642   2
   8   2 -10 647.887 577.831   8
   8  -2  -9 4124.93 1070.39   2
  -8  -2   9 4223.26 1171.09   4
  -8   2   9 4172.00 1235.06   4
   8   2  -9 4884.78 1188.21   2
   8  -2  -9 7403.28 1576.08   8
   8   2  -9 4527.68 1055.98   8
  -8  -2   8 10695.7 1554.09   7
  -8  -2   8 8151.81 1498.36   4
  -8   2   8 8819.08 1552.83   4
   8   2  -8 9485.86 1501.80   2
   8  -2  -8 11786.6 1873.17   8
   8   2  -8 7283.88 1187.14   8
   8  -2  -8 9496.30 1600.24   2
  -8   2   7 52119.4 3586.82   6
   8   2  -7 50715.5 3134.95   1
   8   2  -7 40890.0 3152.08   2
  -8  -2   7 53123.0 3746.30   6
  -8  -2   7 48015.6 3568.48   4
  -8   2   7 48214.8 3541.57   4
   8  -2  -7 41922.9 3298.32   2
   8  -2  -7 53093.0 3615.56   8
  -8  -2   7 50230.4 3216.69   7
  -8  -2   6 2333.54 664.207   7
  -8  -2   6 3960.14 1047.73   6
  -8   2   6 4678.66 1119.30   6
   8   2  -6 1923.86 722.012   1
   8   2  -6 3376.81 902.096   2
  -8   2   6 3544.63 976.287   4
   8  -2  -6 6112.99 1173.10   8
   8  -2  -6 2891.04 908.674   2
  -8   2   5 26155.6 1861.86  10
  -8  -2   5 26547.9 2469.28   6
  -8   2   5 30274.0 2531.86   6
   8   2  -5 29583.4 2262.23   1
   8   2  -5 24965.3 2330.31   2
  -8   2   5 26863.5 2380.34   4
   8  -2  -5 23476.8 2281.61   2
   8  -2  -5 29528.8 2229.94   8
  -8  -2   5 29177.3 2186.87   7
  -8   2   4 13828.6 1375.51  10
  -8   2   4 14404.1 1740.07   6
  -8  -2   4 11269.9 1633.43   6
   8   2  -4 13526.6 1623.49   1
   8  -2  -4 13000.5 1158.10   9
  -8   2   4 9038.58 1313.71   4
   8  -2  -4 12102.4 1596.30   2
  -8  -2   4 13125.6 1399.94   7
  -8  -2   3 46320.0 2319.33  10
  -8   2   3 45866.4 2675.07  10
  -8  -2   3 43562.9 3087.22   6
  -8   2   3 43380.4 2975.38   6
   8  -2  -3 53034.9 2560.88   9
   8   2  -3 49048.9 3104.31   1
  -8   2   3 42601.2 2810.76   4
   8  -2  -3 45158.2 3065.27   2
  -8  -2   3 48204.0 2644.90   7
  -8  -2   2 67339.6 3052.66  10
  -8   2   2 62498.5 3286.11  10
  -8  -2   2 58577.0 3597.62   6
   8  -2  -2 68137.1 3120.67   9
  -8   2   2 65818.2 3387.28   4
   8   2  -2 63972.3 3681.71   1
   8  -2  -2 64427.1 3620.42   2
  -8  -2   2 62947.8 3044.59   7
  -8  -2   1 1630.37 484.303   7
  -8  -2   1 947.550 424.585  10
  -8   2   1 803.905 463.929  10
   8   2  -1 919.579 704.677   1
   8   2  -1 1147.40 356.019   9
   8  -2  -1 1240.68 506.076   9
   8  -2  -1 498.152 432.046   2
  -8  -2   0 641.398 364.245  10
  -8  -2   0 437.851 332.065   7
  -8   2   0 540.286 400.631  10
   8   2   0 831.801 372.544   9
   8  -2   0 280.350 379.308   9
   8   2   0 65.2686 569.394   1
  -8  -2  -1 150951. 5296.26   7
  -8  -2  -1 145910. 5724.69  10
  -8   2  -1 141955. 5850.35  10
   8   2   1 152517. 5436.92   9
   8  -2   1 149212. 5691.03   9
   8  -2   1 147906. 5548.51   2
   8   2   1 151470. 5869.94   1
  -8  -2  -2 130437. 5089.71   7
  -8  -2  -2 138797. 5719.99  10
  -8   2  -2 130578. 5716.84  10
   8   2   2 145647. 5494.47   9
   8  -2   2 147311. 5777.56   9
   8  -2   2 133317. 5127.41   2
   8   2   2 136745. 5643.99   1
  -8  -2  -3 700.238 645.581   7
  -8  -2  -3 2120.03 785.192  10
  -8   2  -3 808.538 436.240  10
   8   2   3 1357.70 587.789   1
  -8   2  -3 1544.31 668.461   3
   8   2   3 1381.62 514.676   9
   8  -2   3 1264.00 648.793   9
   8  -2   3 1901.06 535.795   2
  -8  -2  -4 4671.63 1087.40  10
  -8   2  -4 3600.48 971.509  10
   8   2   4 5848.37 1161.81   1
  -8   2  -4 4356.30 974.072   3
   8   2   4 5304.75 1080.30   9
   8  -2   4 4771.86 1107.13   9
  -8  -2  -5 54500.3 3813.68  10
  -8   2  -5 53879.3 3806.56  10
  -8   2  -5 48077.2 3352.45   3
   8   2   5 56507.2 3786.26   9
   8  -2   5 55591.2 3821.27   9
  -8  -2  -6 53857.6 3969.87  10
  -8   2  -6 59737.0 4137.13  10
  -8   2  -6 49885.0 3626.47   3
   8   2   6 56575.0 3984.86   9
   8  -2   6 58078.7 4083.94   9
  -8  -2  -7-20.1955 495.046  10
  -8   2  -7 525.685 441.683  10
  -8   2  -7 171.911 606.920   3
   8   2   7 350.201 426.795   9
   8  -2   7 80.1030 449.393   9
  -8  -2  -8 2513.55 981.549  10
  -8   2  -8 194.193 614.806  10
  -8   2  -8 1637.00 868.765   3
   8   2   8 1707.00 900.114   9
   8  -2   8 2071.78 925.017   9
  -8  -2  -9 6642.00 1613.33  10
  -8   2  -9 8877.36 1792.76  10
  -8   2  -9 9205.85 1822.95   3
   8   2   9 5742.70 1465.06   9
   8  -2   9 6608.83 1638.73   9
   8  -3 -12 8832.35 2285.31   8
  -8  -3  11 50469.4 4195.82   4
  -8   3  11 56683.3 4586.14   4
   8  -3 -11 49386.4 3999.32   2
   8  -3 -11 55869.8 4895.17   8
   8  -3 -10 9371.75 1666.20   2
  -8  -3  10 13278.4 2056.39   4
  -8   3  10 9806.90 1798.04   4
   8   3 -10 10997.2 1718.09   2
   8  -3 -10 9508.38 2063.47   8
   8   3  -9 22023.4 2346.65   1
   8   3  -9 16460.2 2078.40   2
  -8   3   9 21343.7 2553.02   4
   8  -3  -9 18368.9 2303.62   2
   8  -3  -9 17545.5 2453.72   8
  -8  -3   9 15272.5 2032.80   7
   8  -3  -8 1470.85 612.231   2
  -8  -3   8 244.273 400.360   7
   8   3  -8 902.479 603.778   1
   8   3  -8-84.7307 393.941   2
  -8   3   8 1429.17 797.995   4
   8  -3  -8 1028.55 957.597   8
   8  -3  -7 6285.32 1301.46   2
  -8  -3   7 7908.25 1315.00   7
  -8  -3   7 9435.91 1618.91   6
   8   3  -7 8893.48 1433.77   1
  -8   3   7 9456.60 1505.95   6
   8   3  -7 6646.17 1279.27   2
  -8   3   7 7178.43 1430.63   4
   8  -3  -7 6738.61 1365.13   8
  -8   3   6 52850.4 2940.73  10
  -8  -3   6 53270.5 3696.69   6
  -8   3   6 53029.4 3511.42   6
   8   3  -6 54701.1 3420.21   1
  -8   3   6 48349.0 3446.87   4
   8  -3  -6 45648.4 3407.88   2
   8  -3  -6 55441.4 3514.19   8
  -8  -3   6 54646.0 3387.03   7
  -8   3   5 97952.3 4188.25  10
  -8  -3   5 88710.9 4766.94   6
  -8   3   5 92604.0 4643.06   6
   8   3  -5 91393.1 4527.81   1
  -8   3   5 99442.5 4819.17   4
   8  -3  -5 86800.9 4718.23   2
   8  -3  -5 100804. 4399.84   8
  -8  -3   5 88612.1 4287.82   7
  -8   3   4 14489.6 1525.10  10
  -8  -3   4 11828.1 1631.03   6
  -8   3   4 9913.12 1427.99   6
   8  -3  -4 11191.6 1231.88   9
  -8   3   4 11585.8 1501.41   4
   8  -3  -4 14354.9 1401.98   8
   8   3  -4 14314.0 1738.74   1
  -8  -3   4 11938.2 1434.61   7
   8  -3  -4 9262.02 1432.27   2
  -8  -3   3 62180.4 2778.48  10
  -8   3   3 64185.0 3417.33  10
  -8  -3   3 61626.8 3731.48   6
  -8   3   3 59177.7 3506.11   6
   8  -3  -3 63868.8 3162.58   9
   8   3  -3 63934.5 3808.66   1
  -8   3   3 67466.2 3523.75   4
   8  -3  -3 63404.1 3753.04   2
  -8  -3   3 61974.3 3319.76   7
  -8  -3   2 59017.3 3175.32   7
  -8  -3   2 62831.9 2977.66  10
  -8   3   2 59313.6 3344.61  10
  -8  -3   2 58213.8 3593.43   6
   8  -3  -2 62204.8 3196.05   9
   8   3  -2 58388.6 3743.31   1
  -8   3   2 59545.9 3179.63   4
   8  -3  -2 58775.8 3531.00   2
  -8  -3   1 81752.3 3824.68   7
  -8  -3   1 85345.4 3774.13  10
  -8   3   1 82188.5 4120.55  10
   8  -3  -1 85356.5 3946.81   9
   8   3  -1 78190.7 4442.29   1
   8  -3  -1 80443.2 4120.96   2
  -8  -3   0 3061.30 772.417   7
  -8  -3   0 1939.62 630.729  10
  -8   3   0 1076.60 569.358  10
   8   3   0 2207.47 564.397   9
   8   3   0 248.737 721.570   1
   8  -3   0 3497.90 798.862   9
   8  -3   0 2038.75 618.155   2
  -8  -3  -1 36776.4 2534.68   7
  -8  -3  -1 34021.0 2532.41  10
  -8   3  -1 36089.3 2764.66  10
   8   3   1 35496.3 2386.42   9
   8  -3   1 37297.1 2691.57   9
   8  -3   1 33623.8 2432.62   2
   8   3   1 36421.9 2845.42   1
   8  -3   2 7561.06 1088.65   2
  -8  -3  -2 8179.51 1344.60   7
  -8  -3  -2 6047.46 1102.16  10
   8   3   2 5224.98 1127.07   1
  -8   3  -2 7780.36 1316.87  10
   8   3   2 6337.02 1062.43   9
   8  -3   2 7653.35 1266.91   9
  -8  -3  -3 128211. 5514.08   7
  -8  -3  -3 121244. 5677.63  10
  -8   3  -3 127356. 5902.84  10
   8   3   3 136615. 5644.87   9
   8  -3   3 131207. 5846.33   9
   8  -3   3 137417. 5041.47   2
   8   3   3 123278. 5743.01   1
  -8  -3  -4 17244.1 1990.16   7
  -8  -3  -4 16295.3 2034.51  10
  -8   3  -4 14345.2 1906.74  10
  -8   3  -4 17285.2 1984.66   3
   8   3   4 17338.9 1997.82   9
   8  -3   4 17716.6 2056.28   9
   8   3   4 16067.5 1985.86   1
  -8  -3  -5 40693.5 3329.64  10
  -8   3  -5 41508.7 3381.71  10
  -8   3  -5 42814.5 3264.85   3
   8   3   5 40813.0 3220.20   9
   8  -3   5 39423.3 3278.32   9
   8   3   5 35050.3 3084.86   1
  -8  -3  -6 2417.02 927.816  10
  -8   3  -6 1124.35 591.971  10
  -8   3  -6 3004.42 1067.38   3
   8   3   6 1951.00 811.951   9
   8  -3   6 1738.39 913.661   9
  -8  -3  -7 24787.7 2812.45  10
  -8   3  -7 22345.6 2624.54  10
  -8   3  -7 23594.9 2655.49   3
   8   3   7 24543.9 2768.19   9
   8  -3   7 31382.3 3118.32   9
  -8  -3  -8 18098.7 2492.46  10
  -8   3  -8 14865.8 2196.62  10
  -8   3  -8 18342.8 2457.75   3
   8  -3   8 17962.7 2515.02   9
   8   3   8 16918.9 2402.04   9
  -8   3  -9 54392.5 4401.48  10
  -8   3  -9 42454.3 3952.98   3
   8  -4 -11 4604.63 1243.59   2
   8  -4 -11 7824.05 2157.38   8
  -8  -4  10 3967.14 1150.28   7
   8  -4 -10 1951.86 870.444   2
   8   4 -10 2732.30 947.584   2
   8  -4 -10 5061.55 1703.05   8
  -8   4  10 3458.67 1191.50   4
   8   4  -9 46500.4 3644.07   1
   8   4  -9 41160.4 3370.83   2
  -8   4   9 52868.3 4121.00   4
   8  -4  -9 45665.7 3798.07   2
   8  -4  -9 36379.2 3634.22   8
  -8  -4   9 55077.4 3971.26   7
   8  -4  -8-405.516 527.328   2
  -8  -4   8 462.178 685.005   7
   8   4  -8 1447.46 830.971   1
   8   4  -8-282.752 428.595   2
   8  -4  -8 362.724 858.856   8
  -8   4   8-161.310 461.151   4
   8  -4  -7 1304.23 727.081   2
  -8  -4   7 178.656 416.017   7
   8   4  -7 1000.46 692.698   1
   8  -4  -7 2398.53 1103.26   8
  -8   4   7 354.158 427.253   4
   8  -4  -6 2015.27 768.173   2
  -8  -4   6 2447.39 768.328   7
  -8  -4   6 4283.87 1128.87   6
  -8   4   6 3300.26 919.094   6
  -8   4   6 3153.00 770.108  10
   8   4  -6 2660.52 948.420   1
   8  -4  -6 3658.53 1088.55   8
  -8   4   6 3172.49 998.365   4
  -8   4   5 60987.4 3443.30  10
  -8  -4   5 58112.9 3792.90   6
  -8   4   5 59663.6 3567.80   6
   8   4  -5 59241.9 3829.90   1
   8  -4  -5 63631.4 3324.89   9
  -8   4   5 57833.4 3621.59   4
   8  -4  -5 49847.8 3588.40   2
   8  -4  -5 61137.6 3468.15   8
  -8  -4   5 60206.2 3639.95   7
  -8   4   4 42206.2 2867.32  10
  -8  -4   4 43335.2 3158.62   6
  -8   4   4 38468.3 2783.76   6
   8   4  -4 39896.3 3125.90   1
   8  -4  -4 43319.8 2708.66   9
  -8   4   4 39043.0 2794.40   4
   8  -4  -4 39825.7 3108.52   2
   8  -4  -4 45278.3 2735.24   8
  -8  -4   4 43394.1 2970.30   7
   8  -4  -3 10254.6 1523.84   2
  -8   4   3 10431.1 1402.97  10
  -8  -4   3 11104.9 1559.52   6
  -8   4   3 9583.48 1380.93   6
   8  -4  -3 11289.8 1373.09   9
  -8   4   3 12727.5 1471.12   4
   8  -4  -3 16339.1 1473.16   8
   8   4  -3 10379.0 1708.51   1
  -8  -4   3 11527.8 1521.25   7
   8  -4  -2-110.896 337.235   2
  -8  -4   2 370.774 514.518   7
  -8  -4   2-126.554 287.599  10
  -8   4   2-21.3769 337.790  10
  -8  -4   2 355.585 591.505   6
  -8   4   2 721.483 608.710   6
   8  -4  -2 177.577 452.730   9
  -8   4   2 835.615 542.439   4
   8   4  -2 1613.59 1053.93   1
  -8  -4   1 35731.3 2597.85   7
  -8  -4   1 37370.9 2457.75  10
  -8   4   1 37731.8 2813.70  10
  -8  -4   1 36420.3 2817.11   6
   8  -4  -1 36119.9 2613.10   9
   8   4  -1 38548.0 3254.39   1
   8  -4  -1 33004.5 2628.31   2
   8  -4   0 5643.03 1060.52   2
  -8  -4   0 5306.71 1064.40   7
  -8  -4   0 6711.90 1087.62  10
  -8   4   0 6688.61 1201.10  10
   8   4   0 7126.00 1516.25   1
   8  -4   0 7592.77 1253.14   9
   8  -4   1 6524.12 1101.09   2
  -8  -4  -1 6889.53 1216.25   7
  -8  -4  -1 7198.28 1209.18  10
  -8   4  -1 9396.67 1445.65  10
   8  -4   1 8644.75 1350.69   9
   8   4   1 4784.61 1095.56   1
  -8  -4  -2 23768.2 2284.94   7
  -8  -4  -2 19862.0 2087.01  10
  -8   4  -2 22715.8 2332.80  10
   8  -4   2 27079.8 2469.20   9
   8  -4   2 24122.2 2054.50   2
   8   4   2 22491.1 2393.76   1
   8  -4   3 3760.06 788.669   2
  -8  -4  -3 6329.10 1279.14   7
  -8  -4  -3 3972.48 987.357  10
  -8   4  -3 4260.24 1075.17  10
   8   4   3 3695.69 1056.64   1
   8   4   3 4532.57 989.961   9
   8  -4   3 4024.20 1007.74   9
  -8  -4  -4 26768.0 2605.05   7
  -8  -4  -4 22378.5 2394.45  10
  -8   4  -4 21637.4 2401.52  10
   8   4   4 19620.3 2171.45   9
   8  -4   4 26046.4 2600.11   9
   8   4   4 16486.7 2153.49   1
  -8  -4  -5 1929.01 1063.29   7
  -8  -4  -5 372.928 643.472  10
  -8   4  -5 478.212 381.344  10
  -8   4  -5 302.329 678.547   3
   8   4   5 128.073 543.863   9
   8  -4   5-275.085 477.903   9
   8   4   5-415.386 574.458   1
   8   4   6 8781.10 1636.38   1
  -8  -4  -6 9484.83 1667.46  10
  -8   4  -6 11002.4 1835.69  10
  -8   4  -6 10011.6 1745.69   3
   8   4   6 9533.29 1634.88   9
   8  -4   6 8520.19 1639.79   9
  -8  -4  -7 430.617 634.430  10
  -8   4  -7 1007.81 711.247  10
  -8   4  -7 714.145 713.950   3
   8   4   7 393.695 492.701   9
   8  -4   7 985.651 711.903   9
  -8  -4  -8 6030.57 1566.29  10
  -8   4  -8 4671.56 1246.81  10
   8   4   8 5830.75 1517.07   9
  -8   4  -8 4737.38 1328.15   3
   8  -4   8 6800.57 1622.40   9
   8   4   9 5824.00 1415.68   4
   8  -5 -11 670.855 602.677   2
   8  -5 -11 1281.51 1302.66   8
  -8  -5  10 11393.8 1935.47   7
   8  -5 -10 9930.52 1877.98   2
   8   5 -10 8233.77 1719.62   1
   8   5 -10 7454.60 1464.90   2
   8  -5 -10 8047.02 1989.22   8
  -8   5  10 9045.00 1863.32   4
   8  -5  -9 16937.8 2363.85   2
   8   5  -9 12892.3 2119.35   1
   8   5  -9 14533.9 2009.86   2
   8  -5  -9 17558.1 2551.27   8
  -8   5   9 17232.5 2424.17   4
  -8  -5   9 21077.3 2567.56   7
   8   5  -8 25966.8 2804.89   1
  -8   5   8 32766.0 3154.37   4
   8  -5  -8 26870.6 2963.98   8
   8  -5  -8 26603.2 2911.51   2
  -8  -5   8 30430.5 2956.07   7
   8  -5  -7 14413.9 2082.89   2
  -8  -5   7 12819.7 1847.88   7
   8   5  -7 14521.7 2042.38   1
  -8   5   7 16795.9 2174.11   4
   8  -5  -7 13357.6 1946.70   8
  -8   5   6 28208.2 2449.37  10
  -8  -5   6 24381.0 2535.15   6
  -8   5   6 29482.5 2505.59   6
   8   5  -6 27019.9 2728.92   1
  -8   5   6 29983.6 2729.59   4
   8  -5  -6 29813.8 2694.05   8
   8  -5  -6 26144.5 2699.14   2
  -8  -5   6 21741.1 2350.96   7
   8  -5  -5 1558.55 750.835   2
  -8  -5   5-256.440 389.305   7
  -8  -5   5-115.968 472.008   6
  -8   5   5 933.734 557.280   6
  -8   5   5 549.907 500.708  10
   8   5  -5 115.239 696.011   1
   8  -5  -5 1175.47 579.966   9
   8  -5  -5 802.144 682.292   8
  -8   5   5 465.013 509.364   4
  -8   5   4 63809.4 3753.65  10
  -8  -5   4 52247.5 3539.52   6
  -8   5   4 51614.8 3223.53   6
   8   5  -4 50120.2 3765.76   1
   8  -5  -4 57980.3 3417.46   9
  -8   5   4 59598.3 3507.56   4
   8  -5  -4 56478.7 3325.65   8
   8  -5  -4 55193.1 3807.35   2
  -8  -5   4 50883.1 3477.36   7
  -8   5   3 28678.6 2519.77  10
  -8  -5   3 29697.0 2577.11   6
  -8   5   3 32604.7 2479.10   6
   8   5  -3 29150.3 2889.18   1
   8  -5  -3 28447.1 2365.58   9
  -8   5   3 28633.6 2266.38   4
   8  -5  -3 29413.7 2217.71   8
   8  -5  -3 26833.6 2557.72   2
  -8  -5   3 33084.8 2690.69   7
  -8  -5   2 13791.6 1743.42   7
  -8   5   2 12461.4 1673.79  10
  -8  -5   2 16940.7 1936.06   6
  -8   5   2 15697.6 1722.39   6
   8  -5  -2 18698.9 1943.96   9
  -8   5   2 15961.5 1543.74   4
   8  -5  -2 13593.4 1806.36   2
   8   5  -2 12865.8 2021.71   1
   8  -5  -1 4930.98 1076.24   2
   8   5  -1 4841.60 1395.90   1
  -8  -5   1 4881.90 1060.36   7
  -8   5   1 3829.19 1039.04  10
  -8  -5   1 5423.44 1158.88   6
   8  -5  -1 4445.89 1014.77   9
  -8  -5   0 27059.8 2446.99   7
  -8  -5   0 24396.6 2143.74  10
  -8   5   0 24145.3 2425.22  10
   8   5   0 20595.6 2632.16   1
   8  -5   0 25130.5 2369.91   9
   8  -5   0 25149.3 2304.61   2
  -8  -5  -1 48404.8 3402.29   7
  -8  -5  -1 47572.8 3200.66  10
  -8   5  -1 48324.2 3492.18  10
   8  -5   1 50719.4 3484.34   9
   8   5   1 44621.4 3679.86   1
   8  -5   1 49073.6 3211.12   2
  -8  -5  -2 72756.3 4299.14   7
  -8  -5  -2 66909.5 4027.63  10
  -8   5  -2 64693.7 4172.83  10
   8  -5   2 62480.8 4043.85   9
   8   5   2 60999.9 4268.83   1
   8  -5   2 60740.4 3554.28   2
  -8  -5  -3 301.042 554.257   7
   8   5   3 1464.14 768.016   1
  -8  -5  -3 602.396 472.790  10
  -8   5  -3 1282.43 656.238  10
   8  -5   3 1814.10 743.821   9
  -8  -5  -4 1128.81 922.789   7
  -8  -5  -4 832.943 527.072  10
  -8   5  -4-85.7669 386.301  10
   8  -5   4-361.515 570.531   9
   8   5   4 688.541 619.373   1
   8   5   5 3458.80 1083.44   1
  -8  -5  -5 3814.30 1296.39   7
  -8  -5  -5 3193.59 1015.31  10
  -8   5  -5 1903.74 777.368  10
   8  -5   5 3469.08 1099.06   9
   8   5   6 17431.7 2408.96   1
  -8  -5  -6 19785.5 2533.49  10
  -8   5  -6 17501.5 2359.87  10
  -8  -5  -6 17725.8 2478.11   7
  -8   5  -6 19038.9 2488.71   3
   8  -5   6 16975.6 2361.26   9
   8   5   7 4312.02 1243.14   1
  -8  -5  -7 6029.80 1434.32  10
  -8   5  -7 8153.73 1654.07  10
  -8   5  -7 7639.52 1745.49   3
   8  -5   7 10009.2 1888.22   9
  -8   5  -8 1799.35 827.400  10
  -8   5  -8 307.653 585.589   3
   8   6 -10 4934.31 1492.85   1
   8  -6 -10 3945.19 1470.46   8
  -8  -6   9 137.131 479.199   7
   8  -6  -9 853.408 810.170   2
   8   6  -9 254.949 804.560   1
   8  -6  -9-797.168 927.593   8
  -8   6   9-732.054 618.852   4
  -8  -6   8 14441.9 2132.12   7
   8  -6  -8 12907.5 2067.90   2
   8   6  -8 8141.86 1736.42   1
   8  -6  -8 13881.7 2203.08   8
  -8   6   8 15017.9 2194.86   4
   8  -6  -7 14047.5 2157.39   2
  -8   6   7 17428.4 2079.39  10
   8   6  -7 16509.9 2327.72   1
  -8   6   7 17662.5 2269.23   4
   8  -6  -7 19355.4 2397.87   8
  -8  -6   7 17173.4 2295.75   7
  -8  -6   6 8428.36 1572.62   7
   8  -6  -6 10423.3 1789.74   2
  -8   6   6 9453.05 1549.53  10
   8   6  -6 7791.95 1666.39   1
   8  -6  -6 10488.2 1547.09   9
   8  -6  -6 12886.2 1885.84   8
  -8   6   6 10184.0 1643.92   4
  -8  -6   5 2131.79 818.401   7
   8  -6  -5 581.483 646.725   2
  -8  -6   5 1960.75 888.487   6
  -8   6   5 1133.86 631.426  10
   8   6  -5 334.902 651.230   1
   8  -6  -5 2662.46 826.479   9
   8  -6  -5 1720.93 704.599   8
  -8   6   5 2124.58 701.813   4
  -8   6   4 32994.6 2854.08  10
  -8  -6   4 34722.3 2849.30   6
   8   6  -4 27862.8 3007.01   1
   8  -6  -4 37454.5 2929.98   9
  -8   6   4 40049.2 2870.97   4
   8  -6  -4 35942.3 2777.53   8
   8  -6  -4 31875.7 3011.28   2
  -8  -6   4 30403.6 2824.66   7
   8  -6  -3 398.333 456.062   2
  -8  -6   3 102.254 430.532   7
  -8   6   3 171.588 370.726  10
  -8  -6   3 171.482 477.943   6
  -8   6   3 83.0037 397.248   6
   8  -6  -3 1261.54 615.672   9
   8   6  -3 440.097 863.937   1
  -8  -6   2 19885.9 2251.23   7
  -8   6   2 19764.7 2229.34  10
  -8  -6   2 22869.4 2258.56   6
  -8   6   2 24692.4 2101.58   6
   8  -6  -2 20561.3 2159.14   9
   8  -6  -2 18479.3 2169.02   2
   8   6  -2 18134.9 2468.18   1
   8   6  -1 10775.5 2016.28   1
  -8  -6   1 14149.9 1869.38   7
  -8   6   1 15736.1 2008.14  10
  -8  -6   1 16187.5 1878.05   6
   8  -6  -1 15075.3 1876.60   9
   8  -6  -1 15182.6 1958.14   2
  -8  -6   0 97324.3 5181.70   7
  -8   6   0 101687. 5396.44  10
  -8  -6   0 105798. 5002.39   6
   8  -6   0 109823. 5436.92   9
   8  -6   0 96035.7 5019.34   2
  -8  -6  -1 4282.87 1158.41   7
  -8   6  -1 5131.30 1170.18  10
   8   6   1 3525.14 1301.63   1
   8  -6   1 5327.29 1232.96   9
  -8  -6  -2 5051.63 1256.42   7
  -8   6  -2 4858.60 1182.88  10
   8  -6   2 5279.89 1194.09   9
   8   6   2 1289.21 791.992   1
  -8  -6  -3 47897.8 3759.52   7
  -8   6  -3 51583.5 3912.75  10
   8  -6   3 51618.7 3911.75   9
   8   6   3 46709.5 3891.06   1
  -8  -6  -4 77461.4 4981.67   7
  -8   6  -4 79034.9 4999.78  10
   8  -6   4 76079.5 4944.10   9
   8   6   4 70610.1 4877.00   1
  -8  -6  -5 1713.93 995.133   7
  -8   6  -5 1087.67 657.652  10
   8  -6   5 1695.37 778.977   9
   8   6   5 2349.90 1069.17   1
  -8  -6  -6 14293.8 2310.29   7
  -8   6  -6 17790.0 2421.14  10
   8  -6   6 11513.3 1984.40   9
   8   6   6 14765.0 2278.80   1
  -8  -6  -7 7777.36 1840.32   7
  -8   6  -7 11288.6 1991.21  10
   8   7  -9-143.506 843.516   1
   8  -7  -9 1412.19 1093.55   8
  -8   7   9 1244.41 757.699   4
  -8  -7   8 2327.09 1166.10   7
   8   7  -8 650.781 932.585   1
   8  -7  -8 827.745 980.279   8
  -8   7   8 534.668 553.713   4
  -8  -7   7 2501.49 1005.16   7
  -8   7   7 3516.99 1084.00  10
   8   7  -7 2258.20 999.334   1
   8  -7  -7 2911.02 1178.78   8
  -8   7   7 1320.49 692.636   4
  -8  -7   6 243.476 654.835   7
  -8   7   6 636.287 439.120  10
   8   7  -6-420.844 783.499   1
   8  -7  -6 310.684 489.934   9
   8  -7  -6-152.291 535.940   8
  -8   7   6 7.96485 264.646   4
  -8  -7   5 14511.5 2089.62   7
   8  -7  -5 16204.0 2231.03   2
  -8   7   5 13832.4 1943.97  10
  -8   7   5 15578.5 1961.55   4
   8   7  -5 16684.7 2468.03   1
   8  -7  -5 10617.5 1650.98   9
   8  -7  -5 18759.6 2238.77   8
  -8  -7   4 6248.49 1358.29   7
   8  -7  -4 4011.06 1179.79   2
  -8  -7   4 6381.97 1295.29   6
  -8   7   4 5255.29 1194.74  10
   8  -7  -4 5001.49 1157.54   9
   8   7  -4 4678.11 1461.49   1
   8  -7  -4 4771.29 1088.45   8
  -8  -7   3 14806.8 2059.72   7
  -8  -7   3 14072.5 1764.53   6
  -8   7   3 11739.6 1778.46  10
   8  -7  -3 13123.2 1833.33   9
   8   7  -3 10908.3 2123.78   1
  -8  -7   2 1866.67 926.365   7
  -8   7   2 1685.76 735.318  10
  -8  -7   2 1801.47 688.938   6
   8  -7  -2 3453.73 988.659   9
   8   7  -2 2302.16 1153.94   1
  -8  -7   1 224.126 655.513   7
   8   7  -1 52.7000 992.431   1
  -8   7   1 435.899 492.552  10
  -8  -7   1 1042.98 637.628   6
   8  -7  -1 961.086 608.247   9
  -8  -7   0 10189.9 1725.45   7
   8   7   0 8936.73 2053.14   1
  -8   7   0 9607.09 1706.88  10
   8  -7   0 9373.97 1620.81   9
  -8  -7  -1 2596.39 1135.77   7
  -8   7  -1 2164.95 954.003  10
   8   7   1 914.801 984.861   1
   8  -7   1 1434.85 860.793   9
  -8  -7  -2 1634.19 886.600   7
  -8   7  -2 915.966 802.577  10
   8  -7   2 2167.25 872.033   9
   8   7   2 975.701 894.322   1
   8   7   3 998.861 867.809   1
  -8  -7  -3 510.371 635.738   7
  -8   7  -3 1807.64 812.727  10
   8  -7   3 1008.41 663.441   9
  -8  -7  -4 5512.66 1509.59   7
  -8   7  -4 6069.84 1478.67  10
   8   7   4 4549.29 1327.75   1
   8  -7   4 5756.42 1370.53   9
  -8  -7  -5 1829.68 1165.07   7
  -8   7  -5 1181.43 612.013  10
   8  -7   5 3156.90 1121.02   9
   8   7   5 3885.83 1224.75   1
  -8  -7  -6 4620.28 1540.09   7
  -8   7  -6 2448.05 1031.59  10
  -8   8   8 47941.4 4148.08   4
   8  -8  -8 50859.5 4383.45   8
  -8  -8   7 4277.31 1300.32   7
  -8   8   7 3520.74 1137.81  10
   8   8  -7 2340.43 1149.91   1
   8  -8  -7 3633.23 1267.66   8
  -8   8   7 5316.16 1301.86   4
  -8  -8   6 772.516 772.669   7
  -8   8   6 1875.74 837.268  10
   8   8  -6 375.808 973.772   1
   8  -8  -6 1133.69 684.756   9
   8  -8  -6 1189.38 798.887   8
  -8  -8   5 167.985 623.208   7
  -8   8   5 1020.98 698.746  10
   8  -8  -5 168.161 380.714   9
   8   8  -5 983.830 1010.06   1
   8  -8  -5-160.013 608.701   8
  -8   8   4 80181.6 5156.68  10
   8   8  -4 82502.9 5838.28   1
   8  -8  -4 75395.8 4849.46   9
  -8  -8   4 86759.0 5401.70   7
  -8  -8   3 144.692 554.527   7
  -8   8   3-267.511 500.560  10
   8  -8  -3 160.433 402.789   9
  -8  -8   2 1237.92 916.424   7
  -8   8   2 960.960 610.793  10
   8  -8  -2 956.051 614.031   9
   8   8  -2-709.388 1127.54   1
   8   8  -1 3775.76 1777.89   1
  -8  -8   1 3406.15 1143.61   7
  -8   8   1 3569.83 1149.79  10
   8  -8  -1 3831.59 1078.01   9
  -8  -8   0 28321.9 3005.24   7
  -8   8   0 31292.4 3158.26  10
   8   8   0 30219.2 3657.57   1
   8  -8   0 24499.9 2786.35   9
  -8  -8  -1 2908.89 1197.43   7
  -8   8  -1 4464.26 1247.85  10
   8   8   1 4989.04 1761.29   1
   8  -8   1 788.061 550.484   9
  -8  -8  -2 808.220 717.421   7
  -8   8  -2 1538.07 788.792  10
   8  -8   2 1689.97 856.836   9
   8   8   2 154.276 990.427   1
   8   8   3 1760.53 991.730   1
  -8   8  -3 2865.25 1075.50  10
   8  -8   3 4151.94 1208.34   9
  -8   8  -4 20807.5 2722.16  10
  -8  -8  -4 14129.4 2316.84   7
   8   8   4 20478.5 2826.27   1
   8  -8   4 16189.9 2418.14   9
  -8   9   6 13603.3 2223.27  10
   8  -9  -6 14626.5 2179.23   9
   8  -9  -6 13867.6 2188.82   8
  -8   9   5 9378.06 1825.46  10
   8  -9  -5 9216.80 1807.19   9
   8  -9  -5 7698.69 1646.64   8
  -8  -9   4 1311.70 908.196   7
  -8   9   4 803.288 492.569  10
   8  -9  -4-450.183 542.346   9
   8   9  -4 1012.95 1224.34   1
  -8  -9   3 1081.37 885.952   7
  -8   9   3 457.585 554.685  10
   8  -9  -3 1326.74 743.629   9
   8   9  -3 1800.24 1614.36   1
  -8  -9   2 14011.4 2254.78   7
  -8   9   2 10738.8 1971.81  10
   8  -9  -2 13878.1 2128.36   9
   8   9  -2 18119.3 3131.63   1
   8   9  -1 469.353 987.574   1
  -8  -9   1 932.474 774.760   7
  -8   9   1 53.8610 450.839  10
   8  -9  -1-2.45491 426.960   9
  -8  -9   0 1226.16 862.263   7
   8   9   0 1929.64 1400.83   1
  -8   9   0-67.1916 608.075  10
   8  -9   0 333.898 459.827   9
  -8  -9  -1 2470.67 1189.97   7
  -8   9  -1-47.1717 601.374  10
   8   9   1 361.939 1042.25   1
   8  -9   1-10.2764 533.008   9
  -8  -9  -2 29001.8 3389.87   7
   8  -9   2 26940.7 3149.13   9
  -9   0  11 522.762 867.537   4
   9   0 -11-854.186 630.375   2
  -9   0  10 636.213 749.238   4
   9   0 -10 881.435 633.982   2
  -9   0   9 563.419 698.139   4
   9   0  -9-375.482 496.265   2
  -9   0   8-207.306 621.611   6
  -9   0   8 854.546 685.140   4
   9   0  -8 444.067 377.877   2
  -9   0   7 1170.01 830.251   6
  -9   0   7-35.7068 446.887   4
   9   0  -7-183.157 483.344   2
  -9   0   6 7749.96 1485.90   6
  -9   0   6 6222.67 1258.50   4
   9   0  -6 9684.87 1532.11   2
  -9   0   5 291.081 611.150   6
  -9   0   5 906.736 656.240   4
   9   0  -5-103.014 458.384   2
  -9   0   4 16052.0 1389.69  10
  -9   0   4 17816.1 2077.04   6
   9   0  -4 14826.1 1815.86   2
  -9   0   3-213.030 237.433  10
   9   0  -3 185.738 483.708   2
  -9   0   2 654.533 434.429  10
   9   0  -2 1220.21 512.787   1
   9   0  -2 666.639 451.233   2
  -9   0   1 513.853 415.499  10
   9   0  -1 385.475 350.920   9
   9   0  -1 20.1083 461.934   2
   9   0  -1-23.0984 285.896   1
  -9   0   0 48211.1 3078.09  10
   9   0   0 54512.1 2925.63   9
   9   0   0 47438.3 3087.30   2
   9   0   0 48369.3 2695.59   1
   9   0   1-56.6775 366.970   1
  -9   0  -1 23.2260 384.868  10
   9   0   1-599.599 388.122   9
   9   0   1-98.0849 294.886   2
  -9   0  -2 9678.54 1479.92  10
   9   0   2 11076.0 1442.33   9
   9   0   2 9838.63 1320.20   2
  -9   0  -3 12.1281 376.704  10
   9   0   3 583.731 559.186   9
   9   0   3 166.500 356.368   2
  -9   0  -4 46687.2 3561.46  10
   9   0   4 57646.9 3780.85   9
  -9   0  -5-1048.65 605.372  10
   9   0   5-157.715 383.457   9
  -9   0  -6 40747.1 3554.16  10
   9   0   6 36130.2 3316.66   9
  -9   0  -7-519.251 557.759  10
   9   0   7 396.092 460.225   9
  -9   0  -8 1861.35 900.269  10
   9   0   8 906.644 629.752   9
   9  -1 -11 4565.61 1180.60   2
  -9  -1  11 4784.78 1293.67   4
  -9   1  11 3769.56 1337.58   4
   9   1 -11 6275.44 1402.86   2
  -9  -1  10 36678.0 3560.84   4
   9   1 -10 35490.8 3264.41   2
  -9   1  10 38598.9 3640.48   4
   9  -1 -10 36269.6 3350.03   2
  -9  -1   9 2783.35 1094.59   4
  -9   1   9 2029.55 930.937   4
   9   1  -9-129.897 437.850   2
   9  -1  -9 1496.95 718.824   2
  -9  -1   8 17773.2 2302.78   6
  -9   1   8 19022.0 2353.77   6
   9   1  -8 16560.6 2126.88   2
  -9  -1   8 22918.9 2601.95   4
  -9   1   8 20829.2 2482.50   4
   9  -1  -8 15101.2 2061.40   2
  -9  -1   7 42156.2 3456.21   6
  -9   1   7 37654.6 3227.27   6
   9   1  -7 37494.1 3137.59   2
  -9  -1   7 39982.6 3363.29   4
  -9   1   7 37615.0 3228.74   4
   9  -1  -7 33316.4 3000.77   2
  -9  -1   7 40922.8 2807.41   7
  -9  -1   6 14709.9 2013.90   6
  -9   1   6 16913.4 2092.59   6
  -9   1   6 15599.3 2011.05   4
   9  -1  -6 13999.6 1882.94   2
   9   1  -6 14330.6 1851.40   2
  -9  -1   6 13688.5 1501.12   7
  -9  -1   5 2238.83 677.221   7
  -9  -1   5 1537.98 686.468   6
  -9   1   5 1797.01 831.273   6
  -9   1   5 3001.44 944.727   4
   9   1  -5 603.506 570.671   2
   9  -1  -5 2790.26 886.372   2
  -9   1   4 173227. 5577.42  10
  -9  -1   4 152747. 6598.38   6
  -9   1   4 153982. 6543.29   6
   9   1  -4 144199. 6328.16   2
  -9   1   4 163123. 6517.93   4
   9  -1  -4 158156. 6574.70   2
  -9  -1   4 157206. 5371.49   7
  -9  -1   3 13295.9 1309.61  10
  -9   1   3 13054.5 1393.67  10
  -9   1   3 15165.5 1890.86   6
  -9  -1   3 13753.5 1828.34   6
   9   1  -3 15322.2 1823.19   2
   9   1  -3 14832.2 1618.56   1
   9  -1  -3 13116.3 1701.93   2
  -9  -1   3 14028.5 1288.98   7
  -9  -1   2 94262.2 4027.17  10
  -9   1   2 89786.6 4130.31  10
  -9  -1   2 92356.1 4861.77   6
   9  -1  -2 99002.8 3780.79   9
   9   1  -2 91068.2 4646.50   2
   9  -1  -2 87182.1 4548.56   2
   9   1  -2 97354.7 4217.47   1
  -9  -1   2 92185.7 3571.89   7
   9   1  -1 850.451 506.122   1
  -9  -1   1 427.995 394.561  10
  -9   1   1 605.261 401.203  10
   9   1  -1 618.869 339.655   9
   9  -1  -1 486.203 302.702   9
   9   1  -1 985.005 606.166   2
   9  -1  -1 1215.59 559.645   2
  -9  -1   0 13910.9 1619.25  10
  -9   1   0 19318.7 1917.52  10
   9   1   0 18431.2 1643.58   9
   9  -1   0 19576.7 1746.34   9
   9   1   0 15492.5 1753.84   2
   9  -1   0 15355.3 1718.99   2
   9   1   0 19476.1 1773.50   1
  -9  -1  -1 68716.5 3840.67  10
  -9   1  -1 65137.4 3817.82  10
   9   1   1 68054.2 3525.03   9
   9  -1   1 73500.8 3732.21   9
   9   1   1 60290.7 3554.73   2
   9  -1   1 66615.2 3653.48   2
   9   1   1 72752.9 3709.62   1
  -9  -1  -2 58951.6 3672.33  10
  -9   1  -2 58521.8 3702.15  10
   9   1   2 57072.6 3399.75   9
   9  -1   2 57918.6 3477.06   9
   9   1   2 54397.0 3253.61   2
   9  -1   2 58563.0 3311.72   2
   9   1   2 55563.1 3360.41   1
  -9  -1  -3 343.051 344.710  10
  -9   1  -3 175.015 356.562  10
   9   1   3 80.5084 305.362   9
   9  -1   3 650.518 389.944   9
   9   1   3 5.02658 232.191   2
   9  -1   3 625.732 423.031   2
   9   1   3-296.989 468.659   1
  -9  -1  -4 26103.9 2632.64  10
  -9   1  -4 27642.2 2735.80  10
  -9   1  -4 26891.3 2314.18   3
   9   1   4 29089.8 2633.29   9
   9  -1   4 28739.4 2681.91   9
  -9  -1  -5 19123.3 2345.36  10
  -9   1  -5 22635.9 2551.36  10
   9   1   5 22430.2 2427.45   9
   9  -1   5 23506.6 2543.45   9
  -9  -1  -6 95274.3 5636.05  10
  -9   1  -6 92730.1 5558.72  10
   9   1   6 97602.4 5573.37   9
   9  -1   6 97235.7 5608.77   9
  -9  -1  -7 3321.66 1066.13  10
  -9   1  -7 2021.97 940.757  10
   9   1   7 2124.11 927.383   9
   9  -1   7 1765.82 813.327   9
  -9  -1  -8 5421.37 1482.08  10
  -9   1  -8 2894.94 1159.99  10
   9   1   8 2269.27 1014.70   9
   9  -1   8 3627.81 1284.36   9
   9  -2 -11 1588.82 801.570   2
   9   2 -11 601.249 586.534   2
   9  -2 -10 952.871 629.736   2
  -9  -2  10 588.973 640.711   4
  -9   2  10 466.896 722.206   4
   9   2 -10 23.7434 522.145   2
   9   2  -9 38381.3 3351.05   2
  -9  -2   9 34394.3 3339.84   4
  -9   2   9 41319.3 3637.49   4
   9  -2  -9 32997.9 3194.38   2
   9   2  -8 25774.4 2673.01   2
  -9   2   8 35824.5 3257.06   4
   9  -2  -8 29871.3 2961.97   2
  -9  -2   8 30161.9 2643.80   7
  -9  -2   7 4551.93 1014.99   7
  -9  -2   7 6954.83 1459.95   6
  -9   2   7 3858.40 1095.70   6
  -9   2   7 5759.22 1330.37   4
   9   2  -7 3996.94 1065.63   2
   9  -2  -7 3161.94 960.852   2
  -9  -2   6 2073.80 709.837   7
  -9  -2   6 2008.33 800.552   6
  -9   2   6 1851.24 853.897   6
   9   2  -6 1957.21 764.419   2
  -9   2   6 1081.07 674.934   4
   9  -2  -6 2725.24 896.741   2
  -9   2   5 36965.4 2393.84  10
  -9  -2   5 41877.4 3274.76   6
  -9   2   5 36582.1 3003.13   6
   9   2  -5 45519.0 3052.62   1
   9   2  -5 36981.2 3032.36   2
  -9   2   5 43028.4 3173.85   4
   9  -2  -5 39822.1 3163.03   2
  -9  -2   5 37212.1 2576.54   7
  -9   2   4 22982.5 1899.70  10
  -9  -2   4 22869.1 2380.79   6
  -9   2   4 24705.0 2401.10   6
   9   2  -4 23401.2 2335.55   2
   9   2  -4 23443.2 2255.10   1
  -9   2   4 23340.9 2233.83   4
   9  -2  -4 21690.6 2267.36   2
  -9  -2   4 22030.3 1858.68   7
  -9  -2   3 15534.6 1391.23  10
   9   2  -3 15273.9 1850.68   1
  -9   2   3 14967.6 1562.07  10
  -9   2   3 17394.0 1993.68   6
  -9  -2   3 14125.6 1866.38   6
   9  -2  -3 18066.1 1510.95   9
  -9   2   3 15531.9 1741.68   4
   9  -2  -3 14448.4 1817.00   2
  -9  -2   3 16267.2 1547.34   7
  -9  -2   2 8283.11 1076.41   7
  -9  -2   2 8245.44 1093.93  10
  -9   2   2 7136.69 1134.86  10
  -9  -2   2 7040.85 1398.16   6
   9   2  -2 7159.29 1316.16   1
   9  -2  -2 7484.54 1034.10   9
   9  -2  -2 6776.27 1210.45   2
  -9  -2   1 26611.1 1938.96   7
  -9  -2   1 30370.0 2250.70  10
  -9   2   1 29597.3 2388.26  10
   9  -2  -1 30063.0 2191.51   9
   9  -2  -1 25147.5 2287.94   2
   9   2  -1 28069.0 2384.79   1
   9   2   0 6126.18 1217.62   1
  -9  -2   0 7755.47 1042.39   7
  -9  -2   0 7053.59 1134.84  10
  -9   2   0 7037.73 1202.19  10
   9   2   0 8614.11 1106.42   9
   9  -2   0 7085.80 1122.58   9
   9  -2   0 7857.07 1216.14   2
  -9  -2  -1 43852.2 2647.16   7
  -9  -2  -1 37981.2 2828.30  10
  -9   2  -1 43887.1 3152.93  10
   9   2   1 45056.7 2801.86   9
   9  -2   1 43201.7 2933.82   9
   9  -2   1 44975.6 2953.77   2
   9   2   1 43679.4 3001.15   1
  -9  -2  -2 19686.8 1833.55   7
  -9  -2  -2 18039.8 1996.81  10
  -9   2  -2 24561.5 2392.80  10
   9   2   2 21473.6 2017.54   9
   9  -2   2 18601.1 1999.12   9
   9  -2   2 21041.6 1942.02   2
   9   2   2 20068.8 2065.45   1
  -9  -2  -3 6777.27 1170.80   7
  -9  -2  -3 5466.27 1181.63  10
  -9   2  -3 6603.65 1285.97  10
   9   2   3 4088.75 915.141   9
   9  -2   3 6975.29 1309.03   9
   9   2   3 4501.72 1030.19   1
  -9  -2  -4 3931.95 1023.91   7
  -9  -2  -4 1864.30 741.310  10
  -9   2  -4 2375.15 827.349  10
  -9   2  -4 1589.19 709.905   3
   9   2   4 1831.32 721.412   9
   9  -2   4 1870.58 824.984   9
   9   2   4 746.181 590.906   1
  -9  -2  -5 23065.7 2609.07  10
  -9   2  -5 32395.6 3058.37  10
  -9   2  -5 32433.2 2807.81   3
   9   2   5 33237.7 2973.04   9
   9  -2   5 27989.9 2815.78   9
  -9  -2  -6 273.768 536.801  10
  -9   2  -6 828.316 487.122  10
  -9   2  -6 2580.69 1132.33   3
   9   2   6 942.697 732.555   9
   9  -2   6 1344.89 710.444   9
  -9  -2  -7 9824.65 1861.90  10
  -9   2  -7 10511.6 1895.62  10
  -9   2  -7 10945.0 1829.65   3
   9   2   7 9910.05 1830.13   9
   9  -2   7 9465.04 1877.62   9
  -9  -2  -8 3953.89 1336.31  10
  -9   2  -8 7576.03 1730.75  10
  -9   2  -8 5401.13 1381.75   3
   9   2   8 4887.60 1327.39   9
   9  -2   8 4603.00 1347.16   9
   9  -3 -11 12389.9 2074.31   2
   9  -3 -10 6561.60 1500.49   2
  -9   3  10 6136.79 1548.54   4
   9   3 -10 10618.2 1794.06   2
   9  -3  -9 6253.30 1427.79   2
  -9  -3   9 4012.79 1099.84   7
  -9   3   9 5836.61 1391.99   4
   9   3  -9 4018.16 1062.94   2
   9   3  -8 26975.2 2772.93   2
  -9   3   8 32303.0 3149.94   4
   9  -3  -8 30096.0 3024.24   2
  -9  -3   8 33758.6 2877.41   7
   9  -3  -7-91.3188 575.882   2
  -9  -3   7 1175.82 654.353   7
  -9  -3   7 48.5107 498.516   6
  -9   3   7 669.349 536.216   6
   9   3  -7 250.124 427.701   2
  -9   3   7 305.684 563.794   4
  -9  -3   6 19706.2 2353.72   6
  -9   3   6 16293.5 2023.19   6
   9   3  -6 16839.9 1971.44   1
   9   3  -6 13088.6 1860.41   2
  -9   3   6 18012.2 2133.77   4
   9  -3  -6 16881.4 2153.37   2
  -9  -3   6 17740.0 1916.45   7
  -9  -3   5 3205.49 780.344   7
  -9   3   5 2017.60 643.025  10
  -9  -3   5 1930.86 852.934   6
  -9   3   5 3615.85 1001.86   6
   9   3  -5 4317.87 1154.15   1
  -9   3   5 4158.80 956.809   4
   9  -3  -5 3433.29 1032.59   2
  -9   3   4 8508.03 1243.44  10
  -9  -3   4 9273.50 1564.67   6
  -9   3   4 9496.11 1478.30   6
  -9   3   4 11955.9 1609.97   4
   9   3  -4 9629.81 1616.92   1
  -9  -3   4 12266.1 1509.96   7
   9  -3  -4 11068.2 1647.31   2
   9   3  -3 2196.93 928.299   1
  -9  -3   3 1905.71 645.314   7
  -9   3   3 1343.05 495.041  10
  -9  -3   3 2207.02 863.075   6
  -9   3   3 2092.00 954.112   6
   9  -3  -3 1532.71 512.046   9
  -9   3   3 1011.76 481.638   4
   9  -3  -3 1729.85 765.681   2
  -9  -3   2 25136.8 1952.25  10
  -9   3   2 26766.6 2316.31  10
  -9  -3   2 28932.4 2637.87   6
  -9   3   2 23497.3 2321.42   6
   9  -3  -2 29378.8 2218.93   9
   9   3  -2 24434.2 2521.47   1
   9  -3  -2 23754.7 2329.79   2
  -9  -3   2 23202.6 1989.51   7
  -9  -3   1 22006.1 1936.40   7
  -9  -3   1 20432.2 1861.09  10
  -9   3   1 23626.8 2242.26  10
   9  -3  -1 24976.2 2113.50   9
   9   3  -1 23768.4 2473.79   1
   9  -3  -1 22350.7 2187.86   2
  -9  -3   0 39125.4 2676.57   7
  -9  -3   0 43224.8 2905.70  10
  -9   3   0 42711.1 3121.23  10
   9   3   0 42516.7 2582.20   9
   9  -3   0 49056.8 3127.08   9
   9  -3   0 42525.6 3006.93   2
   9   3   0 43585.7 3234.23   1
   9  -3   1 4167.10 871.377   2
   9   3   1 5148.25 1148.76   1
  -9  -3  -1 2760.70 779.023   7
  -9  -3  -1 3862.75 959.877  10
  -9   3  -1 6592.33 1237.74  10
   9   3   1 5781.38 1001.62   9
   9  -3   1 5838.27 1114.23   9
   9  -3   2 9243.98 1317.42   2
  -9  -3  -2 8045.71 1314.18   7
  -9  -3  -2 8433.63 1401.33  10
  -9   3  -2 7066.62 1348.78  10
   9   3   2 8398.17 1290.66   9
   9   3   2 7477.18 1378.15   1
   9  -3   2 7613.61 1336.03   9
   9   3   3 14043.4 1882.23   1
  -9  -3  -3 12737.9 1816.33  10
  -9   3  -3 16092.3 2051.72  10
  -9  -3  -3 13190.8 1695.03   7
   9   3   3 12772.1 1696.31   9
   9  -3   3 14403.7 1879.77   9
  -9  -3  -4 1993.45 903.965   7
  -9  -3  -4 2412.50 895.047  10
  -9   3  -4 1154.52 647.214  10
   9   3   4 1917.91 714.952   9
   9  -3   4 2202.75 900.481   9
   9   3   4 835.463 560.053   1
  -9  -3  -5 41130.5 3313.99   7
  -9  -3  -5 41228.9 3525.35  10
  -9   3  -5 44307.9 3662.20  10
  -9   3  -5 40396.7 3305.16   3
   9   3   5 36879.1 3221.49   9
   9  -3   5 43670.4 3577.04   9
   9   3   5 32103.6 3095.31   1
  -9  -3  -6 9178.28 1720.24  10
  -9   3  -6 13728.2 2084.26  10
  -9   3  -6 9917.18 1697.95   3
   9   3   6 10568.8 1824.18   9
   9  -3   6 13619.2 2094.99   9
  -9  -3  -7 1839.89 945.425  10
  -9   3  -7 743.053 582.365  10
  -9   3  -7 3382.19 1098.23   3
   9   3   7 1983.68 944.061   9
   9  -3   7 1148.73 792.489   9
  -9   3  -8-686.128 622.505   3
  -9  -4  10 4713.73 1241.90   7
   9  -4 -10 3777.86 1228.94   2
   9   4 -10 4916.24 1235.23   2
  -9   4  10 7192.41 1643.94   4
  -9  -4   9 969.629 649.652   7
   9  -4  -9 834.146 791.504   2
   9   4  -9 537.323 544.432   2
  -9   4   9-128.931 586.168   4
   9  -4  -8 2471.39 1002.93   2
  -9  -4   8 3444.60 1108.57   7
   9   4  -8 2910.23 952.843   1
   9   4  -8 2892.81 982.134   2
  -9   4   8 2081.60 867.389   4
   9  -4  -7 614.180 643.824   2
  -9  -4   7 2404.44 868.995   7
  -9  -4   7 586.790 702.242   6
  -9   4   7 893.420 539.000   6
   9   4  -7 1489.01 679.665   1
  -9   4   7 1010.28 729.287   4
   9  -4  -6 242.599 402.765   2
  -9  -4   6-212.681 456.128   7
  -9  -4   6 225.522 553.490   6
  -9   4   6-386.047 477.978   6
   9   4  -6 1429.99 861.414   1
  -9   4   6 170.504 438.763   4
   9  -4  -5-208.619 467.977   2
  -9  -4   5 266.839 357.687   7
  -9   4   5 350.428 255.025  10
  -9  -4   5 561.242 616.536   6
  -9   4   5 344.546 609.824   6
   9   4  -5 1756.99 982.293   1
  -9   4   5 541.687 374.374   4
   9  -4  -4 8514.78 1500.13   2
  -9  -4   4 6077.92 1115.95   7
  -9   4   4 8132.69 1288.00  10
  -9  -4   4 8545.37 1535.93   6
  -9   4   4 7491.98 1298.30   6
   9  -4  -4 8608.69 1224.09   9
  -9   4   4 6706.75 1222.01   4
   9   4  -4 8168.12 1694.44   1
   9  -4  -3 178.407 435.905   2
  -9  -4   3 1427.48 709.586   7
  -9   4   3 1051.32 518.328  10
  -9  -4   3 553.047 489.008   6
  -9   4   3 1905.31 857.881   6
   9  -4  -3 1032.46 536.862   9
  -9   4   3 1998.46 728.519   4
   9   4  -3 1346.72 1002.73   1
  -9  -4   2 17640.5 1870.41   7
  -9  -4   2 15785.4 1569.09  10
   9   4  -2 16039.8 2199.87   1
  -9   4   2 17517.8 1965.41  10
  -9  -4   2 17579.8 2085.59   6
  -9   4   2 18059.6 2007.30   6
   9  -4  -2 15982.0 1753.86   9
  -9   4   2 19970.6 1826.90   4
   9  -4  -2 15724.2 1948.40   2
  -9  -4   1 15548.9 1757.33   7
  -9  -4   1 14363.2 1593.33  10
  -9   4   1 17978.6 2013.81  10
  -9  -4   1 14739.1 1938.97   6
   9   4  -1 11931.7 1926.94   1
   9  -4  -1 14059.3 1695.61   9
   9  -4  -1 13854.5 1769.79   2
  -9  -4   0 34808.7 2661.29   7
  -9  -4   0 33174.3 2579.45  10
  -9   4   0 37166.6 2975.66  10
   9  -4   0 34342.2 2752.64   9
   9   4   0 30448.5 2921.38   1
   9  -4   0 31570.1 2634.06   2
  -9  -4  -1 42973.9 3070.79   7
  -9  -4  -1 43069.8 3086.44  10
  -9   4  -1 36939.2 3117.58  10
   9  -4   1 52539.4 3511.76   9
   9  -4   1 45551.5 3105.50   2
   9   4   1 33799.1 3070.86   1
   9  -4   2 3348.82 912.736   2
  -9  -4  -2 2299.18 769.082   7
  -9  -4  -2 3811.92 1005.66  10
   9   4   2 2631.56 995.686   1
  -9   4  -2 3492.19 1035.28  10
   9  -4   2 2002.93 721.467   9
  -9  -4  -3 2806.42 964.011   7
  -9  -4  -3 2353.65 884.100  10
  -9   4  -3 1885.94 819.921  10
   9   4   3 3350.18 877.913   9
   9  -4   3 5782.62 1247.13   9
   9   4   3 2052.38 907.069   1
  -9  -4  -4 31488.8 2905.49   7
  -9  -4  -4 28195.0 2844.34  10
  -9   4  -4 32127.2 3097.36  10
   9   4   4 29870.0 2746.35   9
   9  -4   4 28025.9 2835.65   9
   9   4   4 29243.6 2943.02   1
   9   4   5-388.502 680.001   1
  -9  -4  -5-436.929 448.384  10
  -9   4  -5 75.2252 573.398  10
   9   4   5 118.753 417.264   9
   9  -4   5 364.560 437.505   9
  -9  -4  -6 12921.0 2110.70   7
  -9  -4  -6 10107.7 1839.72  10
  -9   4  -6 11028.9 1932.79  10
   9   4   6 16445.6 2376.31   1
  -9   4  -6 10167.6 1824.47   3
   9   4   6 10731.9 1885.42   9
   9  -4   6 14589.7 2178.28   9
  -9  -4  -7 7207.96 1643.87  10
  -9   4  -7 9189.50 1758.73  10
  -9   4  -7 7862.30 1693.79   3
   9   4   7 5335.49 1435.64   9
   9  -4   7 6687.03 1590.21   9
  -9   4  -8 19137.5 2653.46   3
   9   5 -10 6134.41 1379.23   2
  -9  -5   9-295.574 699.588   7
   9  -5  -9-203.516 491.643   2
   9   5  -9 881.753 545.935   2
  -9   5   9 602.351 774.509   4
  -9  -5   8 8995.18 1619.75   7
   9  -5  -8 8265.17 1668.14   2
   9   5  -8 8532.73 1722.06   1
  -9   5   8 8554.43 1705.16   4
   9   5  -7 22155.0 2626.54   1
  -9   5   7 25186.7 2721.48   4
   9  -5  -7 23907.2 2770.10   2
  -9  -5   7 22426.4 2521.20   7
   9  -5  -6-187.452 435.999   2
  -9  -5   6 404.207 576.440   7
  -9  -5   6 110.354 471.222   6
  -9   5   6 318.870 531.165   6
  -9   5   6 509.631 578.075  10
   9   5  -6 1238.48 978.351   1
  -9   5   6 607.409 574.370   4
   9  -5  -5 1202.94 642.910   2
  -9  -5   5 1247.96 637.602   7
  -9  -5   5 2606.47 937.683   6
  -9   5   5 889.418 543.561  10
  -9   5   5 2337.32 768.424   6
   9   5  -5 278.687 800.478   1
  -9   5   5 1029.16 556.538   4
  -9   5   4 38176.3 2986.89  10
  -9  -5   4 37642.6 3139.81   6
  -9   5   4 37748.2 2898.58   6
   9  -5  -4 37156.8 2798.73   9
   9   5  -4 36807.3 3390.72   1
  -9   5   4 34766.0 2772.84   4
   9  -5  -4 30415.6 2946.97   2
  -9  -5   4 37292.8 2992.11   7
  -9   5   3 16596.6 1994.04  10
  -9  -5   3 17477.2 2123.47   6
  -9   5   3 17544.7 1943.72   6
   9  -5  -3 17205.6 1887.06   9
  -9   5   3 18377.5 1860.66   4
   9  -5  -3 15902.7 2091.81   2
   9   5  -3 13131.1 2155.14   1
  -9  -5   3 16748.6 1961.89   7
   9  -5  -2 1488.03 714.564   2
   9   5  -2 2707.97 1171.66   1
  -9  -5   2 2030.32 712.270   7
  -9   5   2 2657.81 837.680  10
  -9  -5   2 890.689 537.632   6
  -9   5   2 1134.76 585.045   6
   9  -5  -2 1127.17 594.832   9
  -9  -5   1 14012.9 1813.97   7
   9  -5  -1 9797.34 1565.28   2
  -9  -5   1 10359.5 1393.34  10
   9   5  -1 11142.0 2086.31   1
  -9   5   1 10772.9 1643.66  10
  -9  -5   1 9672.60 1590.18   6
   9  -5  -1 10678.0 1573.00   9
  -9  -5   0 13745.1 1819.09   7
   9  -5   0 12507.8 1704.36   2
  -9  -5   0 8925.21 1372.06  10
  -9   5   0 9378.54 1562.30  10
   9   5   0 9090.42 1838.86   1
   9  -5   0 12420.3 1742.00   9
  -9  -5  -1 15416.8 1930.10   7
  -9  -5  -1 12412.4 1695.44  10
  -9   5  -1 14188.1 1957.94  10
   9  -5   1 14272.3 1894.97   9
   9  -5   1 14774.3 1826.96   2
   9   5   1 11168.1 1857.61   1
   9   5   2 1387.91 839.756   1
   9  -5   2 15.5915 294.387   2
  -9  -5  -2-455.232 544.013   7
  -9  -5  -2 418.756 476.167  10
  -9   5  -2 1442.99 801.983  10
   9  -5   2 1019.35 633.761   9
  -9  -5  -3 9818.30 1713.69   7
  -9  -5  -3 12164.6 1817.97  10
  -9   5  -3 12939.7 1954.24  10
   9   5   3 9303.47 1751.81   1
   9  -5   3 13245.5 1967.81   9
  -9  -5  -4 51812.8 3967.55   7
  -9  -5  -4 50152.8 3910.97  10
  -9   5  -4 48837.4 3931.67  10
   9  -5   4 49677.3 3958.20   9
   9   5   4 47309.0 3928.70   1
  -9  -5  -5 2502.59 1096.72   7
  -9  -5  -5 3919.85 1175.07  10
  -9   5  -5 3033.63 1083.43  10
   9   5   5 2775.61 1089.76   1
   9  -5   5 3921.54 1174.62   9
  -9  -5  -6 2831.76 1224.28   7
  -9  -5  -6 2248.61 910.212  10
  -9   5  -6 1918.20 831.063  10
   9  -5   6 2593.01 971.920   9
   9   5   6 1347.87 825.129   1
  -9  -5  -7 42748.1 3968.39   7
  -9  -6   9 4107.40 1234.74   7
   9   6  -9 3429.27 1277.25   1
  -9   6   9 3520.39 1195.66   4
  -9  -6   8 386.189 566.524   7
   9  -6  -8-495.807 616.136   2
   9   6  -8 715.054 904.377   1
  -9   6   8 420.293 489.269   4
   9   6  -7 45240.0 4030.51   1
  -9   6   7 49509.1 3916.83   4
   9  -6  -7 45173.8 3994.92   2
  -9  -6   7 48646.2 3893.36   7
  -9  -6   6 3428.05 1063.60   7
   9  -6  -6 5076.23 1278.73   2
  -9  -6   6 4682.09 1246.19   6
  -9   6   6 4505.19 1117.00  10
   9   6  -6 4753.75 1457.37   1
  -9   6   6 3805.60 1044.58   4
   9  -6  -5 16345.7 2293.10   2
  -9  -6   5 15371.0 2055.74   7
  -9   6   5 16089.4 2074.25  10
  -9  -6   5 17359.9 2202.09   6
  -9   6   5 16645.7 2034.92   4
   9   6  -5 15670.7 2422.30   1
   9  -6  -4 2293.70 947.444   2
  -9  -6   4 2444.74 1038.06   7
  -9   6   4 1843.78 779.521  10
  -9  -6   4 3155.57 1043.27   6
   9  -6  -4 2731.32 838.682   9
   9   6  -4 2934.08 1371.55   1
   9  -6  -3 14821.9 2115.15   2
  -9   6   3 19614.8 2314.18  10
  -9  -6   3 16848.8 2071.45   6
   9  -6  -3 17955.4 2087.88   9
   9   6  -3 14969.0 2405.92   1
  -9  -6   3 21253.3 2361.58   7
   9   6  -2 6757.97 1757.30   1
   9  -6  -2 5974.16 1350.28   2
  -9  -6   2 5407.64 1251.85   7
  -9   6   2 6045.90 1319.69  10
  -9  -6   2 6222.50 1256.42   6
  -9   6   2 6227.37 1186.19   6
   9  -6  -2 7351.37 1358.08   9
  -9  -6   1 65582.6 4208.34   7
  -9   6   1 67282.0 4415.26  10
  -9  -6   1 58105.5 3887.40   6
  -9   6   1 61036.4 3718.16   6
   9  -6  -1 66174.2 4211.13   9
   9   6  -1 52899.8 4539.43   1
   9  -6  -1 59707.0 4096.08   2
   9  -6   0 5956.29 1246.35   2
  -9  -6   0 6879.31 1414.79   7
  -9   6   0 5032.39 1236.32  10
  -9  -6   0 9570.19 1589.32   6
   9   6   0 4911.54 1528.60   1
   9  -6   0 7958.51 1470.42   9
   9  -6   1 6884.04 1300.70   2
  -9  -6  -1 9492.96 1719.15   7
  -9   6  -1 10469.8 1748.62  10
   9  -6   1 13021.9 1943.39   9
   9   6   1 9284.71 1806.44   1
   9   6   2 366.449 873.937   1
  -9  -6  -2-119.476 701.498   7
  -9   6  -2 447.947 419.228  10
   9  -6   2 762.531 733.255   9
  -9  -6  -3 55876.9 4164.04   7
  -9   6  -3 49657.5 4019.73  10
   9  -6   3 49446.6 3986.11   9
   9   6   3 48266.1 4062.69   1
  -9  -6  -4 2437.97 932.141  10
  -9  -6  -4 2394.60 1025.37   7
  -9   6  -4 3596.27 1187.51  10
   9  -6   4 2986.09 1089.94   9
   9   6   4 4096.44 1293.42   1
  -9  -6  -5 86.6631 383.572  10
  -9  -6  -5 1279.68 941.778   7
   9   6   5-605.787 641.055   1
  -9   6  -5-312.674 513.865  10
   9  -6   5 605.877 494.450   9
  -9  -6  -6 4919.83 1678.19   7
   9   7  -8-142.585 859.492   1
  -9   7   8 142.487 455.354   4
  -9  -7   7-270.332 544.258   7
   9  -7  -7 499.558 467.369   2
   9   7  -7 793.606 861.333   1
  -9   7   7 504.831 457.263   4
  -9  -7   6 11229.7 1902.11   7
   9  -7  -6 11518.7 2013.94   2
  -9   7   6 11938.8 1892.05  10
   9   7  -6 12748.9 2250.02   1
  -9   7   5 93605.2 5435.03  10
  -9  -7   5 83808.6 5030.49   6
   9   7  -5 83514.5 5822.79   1
   9  -7  -5 93156.8 5204.51   9
   9  -7  -5 91614.3 5733.59   2
  -9  -7   5 91011.3 5497.87   7
  -9  -7   4 370.405 572.807   7
   9  -7  -4 112.650 536.873   2
  -9  -7   4-168.076 468.290   6
  -9   7   4 312.626 618.232  10
   9  -7  -4 506.979 442.709   9
   9   7  -4 154.195 729.474   1
  -9  -7   3 14260.9 2164.03   7
   9  -7  -3 14105.9 2077.32   2
  -9   7   3 11653.5 1921.25  10
  -9  -7   3 14180.9 1894.36   6
   9  -7  -3 14487.9 1979.29   9
   9   7  -3 12114.4 2356.83   1
   9   7  -2 13580.5 2487.23   1
  -9  -7   2 12167.4 1926.99   7
   9  -7  -2 11762.9 1904.21   2
  -9   7   2 12686.8 1947.78  10
  -9  -7   2 11835.3 1699.02   6
   9  -7  -2 9729.13 1665.33   9
  -9  -7   1 6597.85 1502.20   7
   9   7  -1 6545.42 1931.36   1
  -9   7   1 6006.27 1397.57  10
  -9  -7   1 5328.72 1197.81   6
   9  -7  -1 6865.17 1373.99   9
  -9  -7   0 2902.43 1139.92   7
  -9   7   0 2243.47 855.867  10
   9   7   0 465.441 1099.27   1
   9  -7   0 909.165 720.077   9
  -9  -7  -1 1914.07 910.886   7
  -9   7  -1 1827.00 828.558  10
   9  -7   1 2115.85 851.347   9
   9   7   1 111.849 796.462   1
  -9  -7  -2-488.140 876.423   7
  -9   7  -2 290.650 592.072  10
   9  -7   2-150.356 539.917   9
   9   7   2-591.044 1091.32   1
  -9  -7  -3 32620.7 3350.66   7
  -9   7  -3 26559.5 3038.16  10
   9  -7   3 31647.4 3280.08   9
   9   7   3 27406.0 3192.87   1
  -9  -7  -4 8040.65 1742.55   7
  -9   7  -4 11187.8 2045.18  10
   9   7   4 9296.40 1921.55   1
   9  -7   4 8870.10 1787.63   9
  -9  -7  -5 1991.60 1114.99   7
  -9   8   6 2081.42 912.761  10
   9   8  -6 3655.49 1441.13   1
  -9  -8   5 11471.6 1997.78   7
  -9   8   5 11010.5 1897.29  10
   9  -8  -5 14237.0 2080.22   9
   9   8  -5 15752.5 2690.07   1
  -9  -8   4 834.434 792.005   7
  -9   8   4 994.008 681.965  10
   9  -8  -4 1572.47 743.533   9
   9   8  -4 1486.77 1134.65   1
  -9  -8   3 15385.0 2291.97   7
  -9   8   3 14532.5 2216.91  10
   9  -8  -3 15141.0 2173.68   9
   9   8  -2 20897.6 3200.29   1
  -9  -8   2 15196.7 2277.28   7
  -9   8   2 17371.5 2421.32  10
   9  -8  -2 20065.6 2503.51   9
  -9  -8   1 36860.6 3534.07   7
  -9   8   1 43123.7 3833.73  10
   9  -8  -1 38571.9 3551.19   9
   9   8  -1 39291.8 4258.07   1
  -9  -8   0 3594.61 1298.96   7
  -9   8   0 1072.15 714.083  10
   9   8   0 3404.86 1488.60   1
   9  -8   0 5570.35 1424.63   9
  -9  -8  -1 4869.43 1339.92   7
  -9   8  -1 6637.30 1608.78  10
   9  -8   1 8041.72 1651.92   9
   9   8   1 6482.50 1919.94   1
  -9  -8  -2 37330.3 3697.45   7
  -9   8  -2 39193.6 3776.75  10
   9  -8   2 44093.6 3933.43   9
   9   8   2 40438.2 4127.53   1
  -9  -8  -3 27764.6 3265.28   7
   9  -9  -5 9257.42 1825.29   9
   9  -9  -4 6963.81 1532.18   9
   9  -9  -3 1365.15 749.297   9
   9  -9  -2 25398.0 2985.39   9
   9  -9  -1 17898.4 2553.03   9
  10   0 -11 55.6969 360.094   2
 -10   0  10 774.679 671.718   4
  10   0 -10 287.534 511.257   2
 -10   0   9 1011.20 733.095   4
  10   0  -9-1010.95 705.019   2
 -10   0   8 225.118 768.896   6
 -10   0   8-343.001 736.377   4
  10   0  -8 97.4796 427.506   2
 -10   0   7 1199.35 904.356   6
 -10   0   7-347.569 551.190   4
  10   0  -7-112.245 388.776   2
 -10   0   6-187.489 725.648   6
  10   0  -6 1116.37 756.465   2
 -10   0   5-342.694 621.682   6
  10   0  -5-1566.01 739.230   2
 -10   0   4 13069.9 1889.98   6
  10   0  -4 13285.5 1860.83   2
 -10   0   3 361.773 295.847  10
 -10   0   3 181.697 607.446   6
  10   0  -3-189.833 456.521   2
 -10   0   2 85391.2 4070.50  10
 -10   0   2 77835.9 4668.58   6
  10   0  -2 75042.6 4410.71   2
 -10   0   1 94.5687 279.030  10
  10   0  -1 293.559 453.880   2
 -10   0   0 14044.8 1722.94  10
  10   0   0 14989.5 1588.95   9
  10   0   0 10642.3 1548.77   2
 -10   0  -1 524.876 413.723  10
  10   0   1-28.9433 302.283   9
  10   0   1 213.795 364.578   2
 -10   0  -2 16706.9 2053.94  10
  10   0   2 14042.4 1740.30   9
  10   0   2 20018.6 2016.48   2
 -10   0  -3 1185.80 762.977  10
  10   0   3-735.945 523.677   9
 -10   0  -4 990.271 618.496  10
  10   0   4-229.495 413.442   9
 -10   0  -5 154.295 518.352  10
  10   0   5-452.438 540.199   9
 -10   0  -6 31766.8 3326.09  10
  10   0   6 41428.2 3685.47   9
 -10   0  -7 1350.26 778.833  10
  10   0   7 506.737 459.293   9
  10  -1 -11 1993.55 762.978   2
  10   1 -11 2105.95 931.174   2
 -10  -1  10 887.980 588.044   4
 -10   1  10 2017.94 946.795   4
  10   1 -10 2128.91 875.634   2
  10  -1 -10 983.397 746.711   2
 -10  -1   9 49133.7 4188.95   4
  10   1  -9 50636.0 4031.78   2
 -10   1   9 54761.3 4423.66   4
  10  -1  -9 52759.2 4174.34   2
 -10  -1   8 20424.8 2586.42   6
 -10   1   8 21485.4 2651.47   6
 -10  -1   8 19668.4 2501.33   4
  10   1  -8 19066.3 2442.02   2
 -10   1   8 17016.2 2374.00   4
  10  -1  -8 21016.0 2552.32   2
 -10  -1   7 10785.5 1898.15   6
 -10   1   7 12664.0 1973.81   6
 -10   1   7 10822.7 1821.83   4
  10   1  -7 10214.4 1743.66   2
  10  -1  -7 11986.0 1850.97   2
 -10  -1   6 33723.0 3167.39   6
 -10   1   6 39610.0 3364.75   6
  10   1  -6 34208.7 3111.60   2
 -10   1   6 33733.1 3071.16   4
  10  -1  -6 32805.7 3061.43   2
 -10   1   5 17481.0 2209.74   6
 -10  -1   5 15363.0 2096.52   6
 -10   1   5 15214.2 1976.17   4
  10  -1  -5 17236.4 2138.22   2
  10   1  -5 15186.6 2029.96   2
 -10  -1   4 11501.1 1795.32   6
 -10   1   4 11895.7 1797.35   6
  10   1  -4 12813.7 1793.87   2
  10  -1  -4 11342.4 1719.76   2
 -10   1   3 30021.6 2290.89  10
 -10  -1   3 26837.3 2674.44   6
 -10   1   3 28438.6 2758.29   6
  10   1  -3 26866.3 2588.52   2
  10  -1  -3 28380.8 2661.62   2
 -10  -1   2 133.255 264.635  10
 -10   1   2 503.846 351.354  10
 -10  -1   2 1483.43 917.172   6
 -10   1   2 773.465 746.340   6
  10   1  -2-189.759 488.764   2
  10  -1  -2 927.554 574.898   2
 -10  -1   1 48971.8 3100.91  10
 -10   1   1 47843.0 3165.21  10
  10  -1  -1 53153.8 2964.40   9
  10   1  -1 46717.1 3358.37   2
  10  -1  -1 42591.2 3186.30   2
  10   1  -1 45597.2 2842.37   1
 -10  -1   0 3429.33 860.158  10
 -10   1   0 3895.62 953.948  10
  10   1   0 3868.18 817.122   9
  10  -1   0 4071.33 882.023   9
  10   1   0 3827.44 956.903   2
  10  -1   0 3621.28 930.198   2
  10   1   0 4113.25 894.534   1
 -10  -1  -1 12019.8 1658.90  10
 -10   1  -1 12849.5 1726.01  10
  10   1   1 13506.6 1603.84   9
  10  -1   1 14663.9 1696.24   9
  10   1   1 14561.2 1770.03   2
  10  -1   1 13749.9 1705.18   2
  10   1   1 10288.5 1400.32   1
  10   1   2 1571.30 646.549   1
 -10  -1  -2 1081.86 509.204  10
 -10   1  -2 1034.03 624.757  10
  10   1   2 1847.27 656.410   9
  10  -1   2 2937.31 793.714   9
  10   1   2 2132.74 696.181   2
  10  -1   2 1266.59 529.821   2
 -10  -1  -3 31567.6 2941.12  10
 -10   1  -3 34454.1 3093.56  10
  10   1   3 36846.9 2978.72   9
  10  -1   3 37066.5 3026.73   9
 -10   1  -4 1082.69 661.567  10
  10   1   4 325.850 531.829   9
  10  -1   4 742.240 490.560   9
 -10  -1  -5 11665.7 1924.33  10
 -10   1  -5 11850.8 1949.61  10
  10   1   5 9805.51 1706.22   9
  10  -1   5 10629.7 1780.81   9
 -10  -1  -6 14251.1 2227.06  10
 -10   1  -6 14877.5 2297.95  10
  10   1   6 11917.2 1953.74   9
  10  -1   6 9956.20 1841.33   9
  10   1   7 7700.66 1665.25   9
  10  -1   7 7285.40 1673.33   9
  10   2 -11 978.277 670.818   2
  10  -2 -10 957.189 757.098   2
 -10   2  10 928.996 782.338   4
  10   2 -10-134.229 611.725   2
  10   2  -9 20676.5 2568.40   2
 -10   2   9 20796.8 2722.99   4
  10  -2  -9 20326.5 2626.91   2
 -10  -2   8 1904.42 947.977   6
 -10   2   8 648.679 729.954   6
 -10   2   8 828.436 760.458   4
  10   2  -8 358.354 539.802   2
  10  -2  -8 1903.89 836.762   2
 -10   2   7 999.455 761.394   6
 -10   2   7 337.134 566.314   4
  10   2  -7 392.602 407.665   2
  10  -2  -7 493.337 531.460   2
 -10  -2   6 991.538 739.788   6
 -10   2   6-240.471 581.943   6
 -10   2   6 1249.21 705.825   4
  10   2  -6-1129.04 683.355   2
  10  -2  -6 872.924 667.192   2
 -10   2   5 17861.2 2201.55   6
 -10  -2   5 16390.2 2217.39   6
  10   2  -5 14730.0 2018.90   2
 -10   2   5 18178.0 2151.05   4
  10  -2  -5 17565.6 2212.15   2
 -10   2   4 14195.6 1574.16  10
 -10  -2   4 12840.2 1905.76   6
 -10   2   4 11573.7 1802.58   6
  10   2  -4 11936.7 1774.38   2
  10  -2  -4 12942.5 1878.55   2
 -10   2   3 7020.97 1142.29  10
 -10  -2   3 8034.23 1562.73   6
 -10   2   3 7121.36 1417.83   6
  10   2  -3 6182.80 1337.76   1
  10   2  -3 6222.40 1253.05   2
  10  -2  -3 5439.74 1186.26   2
 -10  -2   2 5396.36 967.360  10
 -10   2   2 5072.59 1021.60  10
 -10  -2   2 7501.06 1537.66   6
 -10   2   2 6410.14 1429.68   6
  10   2  -2 3382.38 956.610   2
  10   2  -2 5208.63 1125.98   1
  10  -2  -2 4444.63 1045.96   2
 -10  -2   1 38564.8 2720.57  10
 -10   2   1 38757.6 2914.52  10
  10  -2  -1 39595.6 2683.58   9
  10   2  -1 34793.4 2955.77   2
  10  -2  -1 36349.6 2962.05   2
  10   2  -1 39930.9 2885.53   1
 -10  -2   0 952.725 505.713  10
 -10   2   0 2656.77 799.023  10
  10   2   0 3027.99 888.858   1
  10   2   0 760.925 522.276   2
  10  -2   0 2077.46 610.039   9
  10  -2   0 1592.29 685.749   2
 -10  -2  -1 17981.9 2028.55  10
 -10   2  -1 21145.9 2295.40  10
  10   2   1 19098.9 1894.96   9
  10  -2   1 14769.5 1768.14   9
  10   2   1 20032.2 2135.17   2
  10  -2   1 18947.3 2025.01   2
  10   2   1 18969.8 2040.82   1
 -10  -2  -2 27996.2 2652.36  10
 -10   2  -2 21251.8 2417.64  10
  10   2   2 26628.4 2407.84   9
  10  -2   2 31291.2 2695.73   9
  10   2   2 27772.1 2492.42   2
  10  -2   2 25918.7 2312.97   2
  10   2   2 30962.6 2672.08   1
 -10  -2  -3 9647.60 1624.61  10
 -10   2  -3 9485.13 1681.87  10
  10   2   3 7252.28 1322.34   1
  10   2   3 8483.09 1455.50   9
  10  -2   3 10210.5 1647.56   9
  10   2   3 9387.23 1422.22   2
 -10  -2  -4 29143.4 2940.73  10
 -10   2  -4 31415.6 3098.53  10
  10   2   4 29508.4 2807.20   9
  10  -2   4 31679.8 2988.20   9
 -10   2  -5 1333.14 793.264  10
  10   2   5 345.261 554.541   9
  10  -2   5 94.2818 399.371   9
 -10  -2  -6 1545.78 820.969  10
 -10   2  -6 2440.77 1008.58  10
  10   2   6 1468.24 826.192   9
  10  -2   6 1771.19 735.040   9
  10   2   7 53594.4 4421.92   9
  10  -3 -10 356.887 762.927   2
  10   3 -10 1086.65 698.985   2
  10  -3  -9 6169.32 1527.50   2
 -10  -3   9 4931.90 1226.34   7
 -10   3   9 2394.17 950.223   4
  10   3  -9 5034.99 1305.89   2
  10  -3  -8 7736.16 1572.36   2
 -10  -3   8 8156.08 1459.86   7
 -10   3   8 4728.70 1328.84   4
  10   3  -8 7546.39 1564.01   2
 -10  -3   7 25312.0 2867.27   6
 -10   3   7 22423.8 2571.72   6
  10   3  -7 21950.1 2565.06   2
 -10   3   7 27271.7 2860.99   4
  10  -3  -7 25729.6 2850.98   2
 -10  -3   7 22690.2 2324.27   7
 -10  -3   6 3082.02 893.138   7
 -10  -3   6 2774.67 1104.19   6
 -10   3   6 3870.69 1056.70   6
  10   3  -6 3130.24 1033.99   2
 -10   3   6 3315.69 972.484   4
  10  -3  -6 1150.76 537.965   2
 -10  -3   5 732.567 428.549   7
 -10  -3   5 710.298 753.167   6
 -10   3   5-201.099 515.760   6
  10   3  -5-1132.97 663.811   2
 -10   3   5 68.3430 402.618   4
  10  -3  -5 445.192 491.839   2
 -10   3   4 21969.9 2104.70  10
 -10  -3   4 26353.4 2724.97   6
 -10   3   4 25905.2 2574.69   6
  10   3  -4 30828.4 2906.91   1
 -10   3   4 24647.9 2400.56   4
  10  -3  -4 23245.1 2555.67   2
 -10  -3   4 23744.1 2149.70   7
 -10   3   3 14744.9 1748.69  10
  10   3  -3 11979.7 1878.95   1
 -10  -3   3 12430.3 1826.04   6
 -10   3   3 12183.1 1747.45   6
  10  -3  -3 12305.4 1828.17   2
 -10  -3   3 12692.9 1518.80   7
 -10   3   2 12762.9 1654.79  10
 -10  -3   2 11419.9 1802.66   6
 -10   3   2 14504.3 1958.55   6
  10  -3  -2 10836.4 1428.34   9
  10   3  -2 11083.3 1766.64   1
  10  -3  -2 12889.9 1826.65   2
 -10  -3   2 12165.4 1491.28   7
 -10  -3   1 109.961 343.180   7
 -10  -3   1 257.297 415.063  10
 -10   3   1 23.6193 335.736  10
  10  -3  -1 898.378 567.971   9
  10   3  -1 163.576 576.030   1
  10  -3  -1 545.549 572.730   2
 -10  -3   0 26291.8 2376.87  10
 -10   3   0 27752.5 2639.20  10
  10  -3   0 32403.7 2640.62   9
  10  -3   0 26932.7 2523.49   2
  10   3   0 32516.2 2815.40   1
  10  -3   1 1985.13 741.832   2
 -10  -3  -1 2527.38 835.377  10
 -10   3  -1 1110.49 655.708  10
  10   3   1 2285.44 775.270   1
  10   3   1 2542.30 759.943   9
  10  -3   1 1234.04 562.348   9
  10  -3   2 218.843 292.352   2
 -10  -3  -2 1210.03 560.414  10
 -10   3  -2 2367.97 925.392  10
  10   3   2 1454.48 641.029   9
  10  -3   2 1163.04 526.246   9
  10   3   2 1627.63 809.808   1
 -10  -3  -3 3992.60 1128.99  10
 -10   3  -3 3099.74 1003.99  10
  10   3   3 3725.62 1054.62   1
  10   3   3 2324.65 730.167   9
  10  -3   3 3818.52 1069.69   9
 -10  -3  -4 37977.0 3388.00  10
 -10   3  -4 33583.3 3259.92  10
  10   3   4 32286.5 2958.62   9
  10  -3   4 37277.0 3325.30   9
  10   3   4 32276.2 3080.65   1
 -10  -3  -5 4083.11 1204.61  10
 -10   3  -5 4871.89 1315.17  10
  10   3   5 3527.74 1077.64   9
  10  -3   5 2641.79 1007.24   9
 -10  -3  -6 4547.48 1218.58  10
 -10   3  -6 2622.12 1030.80  10
  10   3   6 3930.88 1192.64   9
  10  -3   6 4766.30 1383.44   9
 -10  -4  10 28190.9 3043.26   7
  10  -4  -9 1121.96 904.765   2
 -10  -4   9 1240.65 731.931   7
 -10   4   9 1189.73 867.967   4
  10   4  -9 2155.88 997.507   2
  10   4  -8 39724.8 3598.48   2
 -10   4   8 41833.0 3745.02   4
  10  -4  -8 42292.4 3842.04   2
 -10  -4   8 43154.5 3516.23   7
 -10  -4   7 23501.3 2803.00   6
 -10   4   7 25455.6 2703.71   6
  10   4  -7 23817.4 2732.81   2
 -10   4   7 23490.0 2680.62   4
  10  -4  -7 26540.7 2977.97   2
 -10  -4   7 25385.5 2621.29   7
 -10  -4   6 21591.4 2603.45   6
 -10   4   6 19717.0 2349.20   6
 -10   4   6 19283.3 2315.68   4
  10  -4  -6 23281.2 2697.89   2
 -10  -4   6 21250.8 2289.54   7
  10  -4  -5 3091.93 969.681   2
 -10  -4   5 1729.97 710.558   7
 -10   4   5 2541.60 753.228  10
 -10  -4   5 1710.70 941.726   6
 -10   4   5 2354.95 863.946   6
 -10   4   5 2187.48 866.235   4
  10   4  -5 5333.98 1482.40   1
 -10   4   4 71731.8 4154.31  10
 -10  -4   4 72174.6 4663.90   6
 -10   4   4 74960.0 4463.69   6
  10   4  -4 69290.4 4698.19   1
 -10   4   4 75745.1 4333.06   4
  10  -4  -4 66909.2 4488.42   2
 -10  -4   4 70331.2 4073.14   7
 -10   4   3 29196.3 2613.35  10
 -10  -4   3 25469.7 2700.03   6
 -10   4   3 27361.6 2620.49   6
 -10   4   3 27290.2 2399.45   4
  10   4  -3 30375.9 3108.38   1
  10  -4  -3 20503.5 2397.05   2
 -10  -4   3 25674.6 2346.17   7
 -10   4   2 38758.9 3122.26  10
 -10  -4   2 39722.6 3340.18   6
 -10   4   2 38178.8 3116.09   6
  10  -4  -2 42054.5 2995.55   9
  10   4  -2 38537.5 3462.19   1
  10  -4  -2 39140.9 3256.18   2
 -10  -4   2 39779.8 2915.04   7
  10  -4  -1 8826.99 1491.72   2
 -10  -4   1 7888.82 1299.96   7
 -10  -4   1 7558.97 1218.65  10
 -10   4   1 8679.32 1474.23  10
 -10  -4   1 9196.94 1644.27   6
  10  -4  -1 10749.6 1537.16   9
  10   4  -1 5632.02 1311.57   1
 -10  -4   0 49767.4 3351.76   7
 -10  -4   0 50818.7 3393.43  10
 -10   4   0 57838.8 3957.25  10
  10  -4   0 55784.2 3692.34   9
  10  -4   0 51281.8 3595.98   2
  10   4   0 50273.2 3814.75   1
 -10  -4  -1 83385.2 4511.29   7
 -10  -4  -1 81643.8 4599.60  10
 -10   4  -1 82518.6 4952.67  10
  10  -4   1 90013.4 4934.75   9
  10  -4   1 79490.5 4482.67   2
  10   4   1 79612.7 4900.10   1
 -10  -4  -2 7278.34 1308.16   7
 -10  -4  -2 6959.79 1335.04  10
 -10   4  -2 8374.97 1562.98  10
  10   4   2 6042.70 1367.03   1
  10  -4   2 5808.68 1271.07   9
 -10  -4  -3 4449.96 1094.86   7
 -10  -4  -3 2731.62 849.343  10
 -10   4  -3 2872.94 980.637  10
  10   4   3 5653.12 1190.30   9
  10  -4   3 2396.74 891.538   9
  10   4   3 4258.48 1165.00   1
 -10   4  -4 19594.3 2526.05  10
 -10  -4  -4 16417.8 2273.83  10
  10   4   4 16327.6 2096.59   9
  10  -4   4 16159.7 2228.72   9
  10   4   4 13093.5 2088.09   1
 -10  -4  -5 17019.4 2378.49  10
 -10   4  -5 14773.6 2280.16  10
  10   4   5 14319.0 2108.54   9
  10  -4   5 18101.8 2468.48   9
  10   4   5 11552.5 2008.28   1
  10   4   6 22689.4 2758.66   9
  10  -4   6 27020.0 3096.90   9
 -10  -5   9 2090.10 1008.42   7
  10   5  -9 887.332 596.574   2
 -10  -5   8 1622.00 845.221   7
  10  -5  -8 1099.57 758.730   2
  10   5  -8 2014.35 830.590   2
 -10   5   8 1404.59 725.674   4
 -10  -5   7 37917.7 3574.51   6
 -10   5   7 27792.5 2821.24   6
 -10   5   7 32868.9 3218.28   4
  10  -5  -7 29788.5 3217.34   2
 -10  -5   7 32822.8 3104.82   7
  10  -5  -6 18316.8 2492.70   2
 -10  -5   6 20941.3 2581.15   6
 -10   5   6 20020.7 2289.29   6
  10   5  -6 22237.4 2792.43   1
 -10   5   6 13053.2 1930.57   4
 -10  -5   6 20286.0 2329.55   7
  10  -5  -5 1511.28 737.764   2
 -10  -5   5 2589.16 894.023   7
 -10   5   5 2222.70 741.637  10
 -10  -5   5 4024.68 1242.92   6
 -10   5   5 3438.55 1043.69   6
 -10   5   5 4100.26 1073.33   4
  10   5  -5 4774.45 1438.26   1
  10  -5  -4 8534.94 1661.73   2
 -10  -5   4 8274.69 1470.35   7
 -10   5   4 8354.79 1459.68  10
 -10  -5   4 9733.13 1744.75   6
 -10   5   4 10181.6 1617.67   6
  10   5  -4 10994.6 2167.53   1
  10  -5  -3 13402.4 1983.93   2
  10   5  -3 12521.0 2176.73   1
 -10   5   3 14416.8 1944.56  10
 -10  -5   3 13406.4 1971.10   6
 -10   5   3 14623.2 1902.12   6
  10  -5  -3 14220.5 1782.60   9
 -10  -5   3 14274.2 1909.51   7
 -10   5   2 23853.3 2549.91  10
 -10  -5   2 31261.7 2953.08   6
  10   5  -2 20691.4 2778.34   1
 -10   5   2 32219.6 2817.80   6
  10  -5  -2 28404.3 2605.40   9
  10  -5  -2 24014.3 2634.28   2
 -10  -5   2 27407.9 2598.98   7
  10  -5  -1 3518.80 998.838   2
 -10  -5   1 3110.04 880.549   7
 -10   5   1 4276.56 1065.55  10
 -10  -5   1 3739.05 1175.64   6
  10   5  -1 2927.12 1237.92   1
  10  -5  -1 3215.80 926.157   9
 -10  -5   0 20652.0 2259.48   7
 -10  -5   0 18224.1 2048.09  10
 -10   5   0 24815.2 2649.83  10
 -10  -5   0 19362.6 2352.67   6
  10  -5   0 21069.7 2339.30   9
  10  -5   0 16186.5 2061.85   2
  10   5   0 17795.9 2413.84   1
  10   5   1 3127.85 1199.67   1
  10  -5   1 3790.21 968.523   2
 -10  -5  -1 4294.85 1134.97   7
 -10  -5  -1 4135.68 1036.40  10
 -10   5  -1 3734.50 1092.48  10
  10  -5   1 4529.42 1128.82   9
 -10  -5  -2 21329.2 2434.87   7
 -10  -5  -2 24081.0 2577.70  10
 -10   5  -2 21847.7 2621.68  10
  10  -5   2 23684.5 2659.55   9
  10   5   2 23322.1 2740.85   1
 -10  -5  -3 4153.66 1081.38   7
 -10  -5  -3 7964.33 1562.84  10
 -10   5  -3 7785.46 1592.17  10
  10  -5   3 7803.84 1598.25   9
  10   5   3 7936.34 1664.30   1
 -10  -5  -4 20814.0 2547.27   7
 -10   5  -4 20564.1 2636.48  10
 -10  -5  -4 13474.4 2106.13  10
  10   5   4 17667.2 2483.51   1
  10  -5   4 15893.2 2263.23   9
 -10  -5  -5 1404.73 844.168   7
 -10  -5  -5 441.167 421.738  10
 -10   5  -5 1249.91 645.838  10
  10  -5   5 527.660 557.163   9
  10   5   5 1371.07 705.429   1
 -10  -6   8 3040.87 1167.49   7
 -10   6   8 3142.31 1107.53   4
 -10  -6   7 626.125 623.152   7
  10  -6  -7 690.701 881.381   2
  10   6  -7 429.087 1009.14   1
 -10   6   7 1232.72 699.888   4
 -10  -6   6 339.700 499.778   7
  10  -6  -6 725.804 777.445   2
 -10  -6   6 349.410 714.030   6
  10   6  -6 2396.58 1402.49   1
 -10   6   6 821.404 596.920   4
  10  -6  -5 754.824 683.828   2
 -10  -6   5-272.129 646.859   7
 -10  -6   5 607.579 742.062   6
 -10   6   5-370.263 474.904  10
  10   6  -5 1121.57 834.052   1
  10  -6  -4 3934.89 1176.98   2
 -10  -6   4 2400.16 1021.41   7
 -10   6   4 7245.73 1456.00  10
 -10  -6   4 2480.13 949.543   6
  10   6  -4 3812.33 1541.41   1
  10   6  -3 2778.72 1400.75   1
  10  -6  -3 3067.48 1061.48   2
 -10  -6   3 1981.33 829.418   7
 -10   6   3 3010.54 1015.60  10
 -10  -6   3 2747.00 1035.11   6
  10  -6  -3 2516.86 845.763   9
  10  -6  -2 1985.69 893.433   2
 -10  -6   2 894.248 608.850   7
  10   6  -2 1333.56 1089.12   1
 -10   6   2 1086.06 781.471  10
 -10  -6   2 1678.44 871.244   6
  10  -6  -2 38.8238 296.878   9
  10  -6  -1 12174.9 1873.73   2
 -10  -6   1 12522.9 1929.97   7
 -10   6   1 14930.3 2145.38  10
 -10  -6   1 11059.3 1750.40   6
  10   6  -1 13149.8 2342.34   1
  10  -6  -1 14989.0 2030.18   9
  10  -6   0-370.222 458.753   2
 -10  -6   0 872.682 645.836   7
 -10   6   0 492.749 500.866  10
 -10  -6   0 175.571 549.369   6
  10  -6   0 711.119 567.909   9
  10   6   0 909.244 959.489   1
  10  -6   1 259.627 404.673   2
 -10  -6  -1 2106.79 1026.65   7
 -10   6  -1 830.115 831.333  10
 -10  -6  -1 560.639 535.721   6
  10  -6   1 615.955 542.798   9
  10   6   1 1421.43 966.505   1
 -10  -6  -2 3997.50 1241.15   7
  10   6   2 4997.26 1484.55   1
 -10   6  -2 4882.31 1315.53  10
  10  -6   2 5074.04 1351.08   9
 -10  -6  -3-302.708 425.622  10
 -10  -6  -3-615.539 993.067   7
 -10   6  -3 147.467 445.566  10
  10   6   3-44.0503 528.531   1
  10  -6   3 1197.70 708.537   9
 -10  -6  -4 2547.29 982.040  10
 -10  -6  -4 1952.13 888.592   7
  10  -6   4 2631.72 1062.01   9
  10   6   4 1835.13 915.179   1
 -10  -6  -5 4967.25 1511.57   7
  10   7  -7 15882.5 2739.23   1
 -10  -7   6 6069.77 1522.34   7
  10   7  -6 7112.75 1849.83   1
 -10   7   5 23019.2 2683.13  10
 -10  -7   5 20303.8 2553.16   6
  10  -7  -5 23230.5 2924.71   2
  10   7  -5 18376.9 2870.02   1
 -10  -7   5 27262.8 2981.88   7
 -10  -7   4 2058.19 963.287   7
  10  -7  -4 3531.81 1251.52   2
 -10   7   4 1155.66 724.977  10
 -10  -7   4 1918.96 819.963   6
  10   7  -4 3175.52 1564.10   1
 -10   7   3 37907.0 3508.39  10
 -10  -7   3 38075.6 3329.02   6
  10  -7  -3 36904.2 3334.29   9
  10   7  -3 33733.3 3919.17   1
  10  -7  -3 42658.8 3842.29   2
 -10  -7   3 36935.0 3436.19   7
 -10  -7   2 1089.87 702.383   7
  10  -7  -2 3411.14 1154.96   2
  10   7  -2 3644.67 1673.96   1
 -10   7   2 1139.31 786.671  10
 -10  -7   2 479.051 566.147   6
  10  -7  -2 1129.25 661.948   9
 -10  -7   1 3259.24 976.575   7
 -10   7   1 5389.40 1385.69  10
  10   7  -1 4783.60 1801.89   1
  10  -7  -1 4548.42 1217.66   9
 -10  -7   0 1596.12 1003.07   7
 -10   7   0 564.965 581.629  10
  10  -7   0 721.568 884.486   9
  10   7   0 95.5059 753.478   1
 -10  -7  -1 38610.3 3570.11   7
 -10   7  -1 37727.5 3671.08  10
  10  -7   1 37724.9 3580.70   9
  10   7   1 34763.0 3758.21   1
  10   7   2 3383.85 1345.31   1
 -10  -7  -2 3643.68 1200.15   7
 -10   7  -2 2426.46 1029.44  10
 -10  -7  -3 22154.0 2832.91   7
 -10   8   5 162.206 508.520  10
 -10   8   4 12765.0 2130.49  10
  10   8  -3 1918.21 1356.79   1
 -10  -8   3 1285.70 808.195   7
 -10   8   3 330.107 565.519  10
  10  -8  -3 1705.99 824.279   9
 -10  -8   2 10781.1 1961.79   7
  10   8  -2 9196.24 2207.74   1
 -10   8   2 11949.2 2081.00  10
  10  -8  -2 10405.1 1858.97   9
 -10  -8   1-329.654 716.684   7
  10   8  -1 1699.07 1528.32   1
  10  -8  -1 537.201 566.013   9
 -10  -8   0 15404.9 2393.17   7
  10  -8   0 15140.5 2333.48   9
 -11   0   9 294.978 578.165   4
  11   0  -9 201.018 574.445   2
 -11   0   8 43362.5 3969.33   6
  11   0  -8 48495.9 4052.28   2
 -11   0   7-375.612 611.651   6
  11   0  -7 92.2060 432.961   2
 -11   0   6 8703.92 1709.44   6
  11   0  -6 9760.30 1744.55   2
 -11   0   5-13.4119 702.578   6
  11   0  -5 485.590 582.840   2
 -11   0   4 15904.7 2196.18   6
  11   0  -4 12336.7 1965.05   2
 -11   0   3 281.091 595.647   6
  11   0  -3 146.316 441.363   2
 -11   0   2 28418.4 2399.52  10
  11   0  -2 24161.9 2586.27   2
 -11   0   1 215.858 477.179  10
  11   0  -1-172.443 490.933   2
 -11   0   0 4813.38 1103.02  10
  11   0   0 4572.67 1075.18   2
 -11   0  -1-727.990 517.057  10
  11   0   1-182.725 332.784   9
  11   0   1 15.8266 512.501   2
 -11   0  -2 16525.4 2156.86  10
  11   0   2 16772.8 2017.10   9
  11   0   2 15953.6 1924.05   2
 -11   0  -3 352.568 480.978  10
  11   0   3 95.0317 325.354   9
 -11   0  -4 4381.25 1242.79  10
  11   0   4 4888.70 1234.30   9
 -11   0  -5 399.988 468.372  10
  11   0   5 400.518 560.199   9
  11   0   6 2175.25 1012.16   9
 -11   1   9 12328.7 2183.97   4
  11   1  -9 10643.0 1901.93   2
  11  -1  -9 14945.6 2308.83   2
 -11  -1   8 6314.55 1572.27   6
 -11   1   8 6767.16 1616.15   6
 -11   1   8 8494.25 1806.09   4
  11   1  -8 8475.43 1699.96   2
  11  -1  -8 7967.14 1658.56   2
 -11   1   7 23889.6 2849.20   6
 -11  -1   7 16060.6 2350.05   6
  11   1  -7 23704.3 2774.34   2
 -11   1   7 19973.1 2546.48   4
  11  -1  -7 18141.9 2471.05   2
 -11  -1   6 9311.11 1822.14   6
 -11   1   6 10341.5 1914.04   6
  11   1  -6 10282.2 1819.60   2
  11  -1  -6 6673.15 1556.82   2
 -11  -1   5 11388.6 1978.15   6
 -11   1   5 6110.91 1448.64   6
  11   1  -5 10434.7 1754.82   2
  11  -1  -5 11684.5 1888.12   2
 -11  -1   4 3079.57 1232.97   6
 -11   1   4 3998.97 1224.86   6
  11   1  -4 2853.73 1032.05   2
  11  -1  -4 3418.56 1093.44   2
 -11   1   3 11061.1 1477.53  10
 -11  -1   3 14892.4 2156.65   6
 -11   1   3 12302.8 1944.14   6
  11   1  -3 11540.5 1774.96   2
  11  -1  -3 9558.51 1631.52   2
 -11  -1   2 1942.63 637.885  10
 -11   1   2 1151.85 520.175  10
 -11  -1   2 3323.76 1170.16   6
 -11   1   2 2227.02 1019.30   6
  11   1  -2 483.774 489.249   2
  11  -1  -2 458.661 430.607   2
 -11  -1   1 71433.5 4019.91  10
 -11   1   1 61454.9 3883.22  10
  11   1  -1 66347.9 4271.92   2
  11  -1  -1 63352.0 4159.39   2
 -11  -1   0 1056.42 623.066  10
 -11   1   0 1056.06 646.472  10
  11   1   0 1152.02 671.706   2
  11  -1   0 532.166 481.386   2
 -11  -1  -1 8470.15 1475.76  10
 -11   1  -1 11100.2 1722.61  10
  11  -1   1 11721.2 1613.45   9
  11   1   1 8168.25 1455.80   2
  11  -1   1 10070.0 1572.22   2
 -11  -1  -2 8965.83 1566.56  10
 -11   1  -2 9501.75 1661.46  10
  11   1   2 8676.05 1444.69   9
  11  -1   2 11537.2 1686.97   9
  11   1   2 9822.03 1542.97   2
 -11  -1  -3 45051.8 3697.12  10
 -11   1  -3 45570.6 3745.85  10
  11  -1   3 43717.9 3458.03   9
 -11  -1  -4 1263.85 668.640  10
 -11   1  -4 1569.51 736.170  10
  11   1   4 260.407 439.344   9
  11  -1   4 991.123 686.816   9
 -11  -1  -5 272.324 446.689  10
 -11   1  -5 1096.02 720.889  10
  11   1   5 828.090 788.247   9
  11  -1   5 780.791 570.876   9
  11   1   6 6655.35 1541.80   9
  11  -1   6 3150.87 1141.87   9
  11   2  -9 21525.0 2741.68   2
 -11  -2   8 1821.87 999.122   6
 -11   2   8 1632.01 982.143   6
 -11   2   8 685.725 564.867   4
  11   2  -8-350.267 571.367   2
  11  -2  -8 666.587 664.524   2
 -11  -2   7 5220.26 1346.67   6
 -11   2   7 3983.59 1197.32   6
 -11   2   7 4622.79 1276.67   4
  11   2  -7 3217.04 1060.68   2
  11  -2  -7 3604.94 1222.70   2
 -11  -2   6 105646. 6132.58   6
 -11   2   6 96617.0 5693.09   6
  11   2  -6 99166.7 5784.56   2
 -11   2   6 98097.8 5636.09   4
  11  -2  -6 98855.7 5884.81   2
 -11  -2   5 24641.0 2800.79   6
 -11   2   5 23833.7 2687.27   6
  11   2  -5 21377.2 2559.33   2
  11  -2  -5 25058.5 2814.78   2
 -11  -2   4 1639.02 846.124   6
 -11   2   4 947.426 843.628   6
  11   2  -4 919.291 732.121   2
  11  -2  -4 1712.27 879.402   2
 -11   2   3 6031.69 1122.51  10
 -11  -2   3 6869.48 1447.45   6
 -11   2   3 9264.74 1691.58   6
  11   2  -3 5871.61 1368.30   2
  11  -2  -3 5545.29 1283.34   2
 -11   2   2 58929.9 3790.52  10
 -11  -2   2 64527.7 4496.76   6
 -11   2   2 65768.4 4448.50   6
  11   2  -2 60098.2 4190.75   2
  11  -2  -2 60140.9 4184.31   2
 -11  -2   1 29267.6 2502.16  10
 -11   2   1 29285.7 2676.99  10
  11   2  -1 28034.4 2752.88   2
  11  -2  -1 29587.7 2831.85   2
 -11  -2   0 3834.63 992.913  10
 -11   2   0 3137.70 933.442  10
  11  -2   0 4292.07 981.616   9
  11   2   0 3656.97 1017.38   2
  11  -2   0 5579.84 1220.25   2
 -11  -2  -1 3224.92 937.416  10
 -11   2  -1 1374.31 609.108  10
  11   2   1 1917.60 727.764   1
  11  -2   1 2912.00 849.273   9
  11   2   1 615.885 510.982   2
  11  -2   1 1039.19 572.555   2
 -11  -2  -2 19443.0 2314.49  10
 -11   2  -2 22442.1 2560.09  10
  11   2   2 19368.4 2134.55   9
  11  -2   2 15598.8 2004.89   9
  11   2   2 20684.4 2261.29   2
  11   2   2 19211.4 2214.66   1
 -11  -2  -3 11617.0 1873.45  10
 -11   2  -3 11321.9 1882.78  10
  11   2   3 9434.99 1575.22   9
  11  -2   3 8496.84 1562.99   9
  11   2   3 13719.8 1898.09   1
 -11  -2  -4 8129.15 1618.72  10
 -11   2  -4 10053.1 1854.48  10
  11   2   4 10609.1 1765.98   9
  11  -2   4 10497.4 1849.49   9
 -11  -2  -5 3543.30 1198.11  10
 -11   2  -5 2946.07 1025.45  10
  11   2   5 2869.12 977.449   9
  11  -2   5 2984.34 1072.79   9
  11   2   6 2059.89 1042.51   9
  11  -3  -8 2299.78 1032.34   2
 -11  -3   8 4423.51 1348.45   6
 -11   3   8 2467.22 1008.15   6
 -11   3   8 1926.80 937.571   4
  11   3  -8 4006.47 1220.17   2
  11  -3  -7 13926.8 2221.39   2
 -11  -3   7 9828.59 1858.17   6
 -11   3   7 15854.5 2325.08   6
 -11   3   7 14294.8 2152.50   4
  11   3  -7 12816.2 2059.66   2
 -11  -3   6 3358.60 1194.14   6
 -11   3   6 3649.87 1145.11   6
 -11   3   6 3578.38 1082.35   4
  11   3  -6 2805.84 1024.04   2
  11  -3  -6 4216.83 1271.22   2
 -11  -3   5 8674.52 1741.63   6
 -11   3   5 6513.04 1430.16   6
 -11   3   5 8335.29 1537.65   4
  11   3  -5 5736.49 1437.98   2
  11  -3  -5 6006.09 1478.88   2
 -11  -3   4 56.9877 561.784   6
 -11   3   4-170.888 803.452   6
  11   3  -4 999.143 850.130   2
  11  -3  -4 404.017 566.675   2
 -11   3   3 3994.96 1006.30  10
 -11  -3   3 2894.23 1160.53   6
 -11   3   3 2562.37 1027.45   6
  11   3  -3 1471.12 631.633   2
  11  -3  -3 3568.32 1076.54   2
 -11   3   2 30267.0 2733.68  10
 -11  -3   2 33360.2 3228.38   6
 -11   3   2 31319.5 3019.22   6
  11   3  -2 31518.1 3030.47   2
  11  -3  -2 32312.1 3051.90   2
  11   3  -1 11709.8 1745.33   1
 -11  -3   1 9724.24 1445.49  10
 -11   3   1 10545.5 1664.98  10
 -11  -3   1 10923.7 1895.51   6
  11  -3  -1 9342.35 1623.79   2
  11  -3   0 2081.17 815.523   2
 -11  -3   0 1950.40 709.462  10
 -11   3   0 2283.21 864.952  10
  11   3   0 2778.46 1034.21   1
  11  -3   0 1491.49 675.639   9
  11  -3   1 173.927 500.431   2
 -11  -3  -1 750.334 529.532  10
 -11   3  -1 1598.09 804.850  10
  11  -3   1-787.345 503.019   9
  11   3   1 393.110 677.946   1
 -11  -3  -2 36627.9 3256.11  10
 -11   3  -2 46296.9 3785.38  10
  11  -3   2 33965.1 3099.41   9
  11   3   2 36411.1 3121.85   2
  11   3   2 35699.8 3180.54   1
  11   3   3 1101.07 692.589   1
 -11  -3  -3 1744.97 872.781  10
 -11   3  -3 3019.23 1133.53  10
  11   3   3 1191.85 632.742   9
  11  -3   3 902.763 690.645   9
 -11  -3  -4 43.5964 394.364  10
 -11   3  -4 291.467 606.432  10
  11   3   4 114.089 594.314   9
  11  -3   4-2.35135 358.795   9
  11   3   4-23.0791 702.729   1
 -11  -3  -5 3963.35 1228.83  10
  11   3   5 2047.93 909.146   9
  11  -3   5 3391.87 1222.99   9
 -11   4   8 12177.8 2129.83   4
  11  -4  -7 1598.24 902.648   2
 -11  -4   7 209.737 586.238   6
 -11   4   7 1799.65 862.212   6
 -11   4   7 1733.85 922.527   4
  11   4  -7 362.908 625.989   2
 -11  -4   6 22669.4 2832.62   6
 -11   4   6 19864.3 2468.28   6
  11   4  -6 19284.5 2545.01   2
 -11   4   6 19486.7 2435.23   4
  11  -4  -6 19067.9 2566.19   2
  11  -4  -5 198.243 594.224   2
 -11  -4   5-252.351 528.235   6
 -11   4   5-356.448 709.344   6
  11   4  -5 181.094 530.191   2
 -11   4   5 792.600 537.896   4
  11  -4  -4 5312.83 1359.64   2
 -11   4   4 6157.84 1237.82  10
 -11  -4   4 4659.27 1286.17   6
 -11   4   4 5836.82 1373.03   6
  11  -4  -3 6746.70 1474.87   2
 -11   4   3 7321.36 1376.60  10
 -11  -4   3 10382.7 1848.83   6
 -11   4   3 7416.12 1569.00   6
  11   4  -3 9483.36 1840.49   1
 -11   4   2 17448.3 2177.93  10
 -11  -4   2 17775.5 2374.83   6
 -11   4   2 16912.6 2232.13   6
  11   4  -2 18582.0 2486.97   1
  11  -4  -2 16699.9 2224.69   2
  11  -4  -1 10239.7 1726.13   2
 -11   4   1 11740.9 1813.50  10
 -11  -4   1 10968.5 1958.45   6
  11  -4  -1 9080.31 1498.73   9
  11   4  -1 9534.45 1758.50   1
 -11  -4   0 35573.5 2945.43  10
 -11   4   0 41323.9 3498.68  10
  11  -4   0 28628.6 2755.67   9
  11  -4   0 38108.3 3233.95   2
  11   4   0 40758.7 3497.13   1
  11  -4   1-164.068 427.628   2
 -11  -4  -1 1813.83 783.020  10
 -11   4  -1 973.133 623.008  10
  11   4   1 463.103 544.259   1
  11  -4   1 132.709 361.320   9
 -11  -4  -2 18792.8 2360.08  10
 -11   4  -2 25335.7 2840.78  10
  11  -4   2 25489.2 2734.57   9
  11   4   2 17438.8 2347.00   1
 -11  -4  -3 93.8072 399.567  10
 -11   4  -3-134.768 447.195  10
  11   4   3-384.462 553.769   1
  11  -4   3 233.155 439.367   9
 -11  -4  -4 14109.5 2194.40  10
 -11   4  -4 14449.3 2273.47  10
  11   4   4 13033.4 2136.44   1
  11  -4   4 15205.5 2273.20   9
 -11  -5   8 1549.71 911.815   7
 -11  -5   7 1742.42 852.179   7
 -11  -5   7 2410.95 1141.00   6
 -11   5   7 1318.77 825.967   4
  11  -5  -6 56.1267 495.032   2
 -11  -5   6 108.185 445.230   7
 -11  -5   6-247.869 743.685   6
 -11   5   6-112.503 547.833   6
 -11   5   6 42.2222 407.311   4
  11  -5  -5 732.899 672.952   2
 -11  -5   5-162.729 419.979   7
 -11  -5   5 961.971 879.906   6
 -11   5   5-175.207 526.807   6
  11   5  -4 15315.0 2546.12   1
 -11   5   4 16395.4 2113.80  10
 -11  -5   4 23525.5 2785.41   6
 -11   5   4 15696.4 2106.81   6
  11  -5  -4 20580.3 2628.87   2
 -11  -5   4 17015.9 2115.20   7
  11  -5  -3-28.3557 460.097   2
 -11  -5   3 906.096 617.374   7
 -11   5   3 78.9266 431.905  10
  11   5  -3 1324.26 1102.90   1
 -11  -5   3-124.928 700.050   6
 -11   5   3 446.766 750.017   6
  11  -5  -2 1288.36 818.086   2
 -11  -5   2 1435.72 606.094   7
 -11   5   2 2397.06 1014.72  10
 -11  -5   2 1583.57 797.121   6
 -11   5   2 1569.57 869.083   6
  11   5  -2 3168.15 1388.64   1
  11  -5  -1 37.1969 610.539   2
 -11   5   1 758.430 516.342  10
 -11  -5   1 1111.00 758.130   6
 -11   5   1 168.542 769.699   6
  11  -5  -1 1842.83 738.813   9
  11   5  -1-760.675 1109.99   1
  11  -5   0 5998.05 1326.63   2
 -11   5   0 9157.19 1712.93  10
 -11  -5   0 13036.7 2048.25   6
  11  -5   0 11995.6 1870.75   9
  11   5   0 10247.3 1869.94   1
 -11  -5  -1 4459.44 1170.02  10
  11   5   1 4565.47 1361.21   1
 -11   5  -1 3888.86 1161.46  10
  11  -5   1 3108.01 959.278   9
 -11  -5  -2 799.668 555.984  10
 -11   5  -2 709.020 633.196  10
  11  -5   2 114.304 452.407   9
  11   5   2-29.4150 581.053   1
  11   5   3 8368.26 1751.98   1
 -11  -5  -3 8056.45 1617.90  10
 -11   5  -3 9963.95 1886.40  10
  11  -5   3 8016.22 1712.13   9
 -11  -6   6 2281.30 938.435   7
 -11  -6   6 2021.82 958.070   6
 -11  -6   5 11792.7 1947.44   7
 -11  -6   5 14573.7 2243.23   6
  11   6  -5 12031.7 2289.74   1
  11  -6  -4 9915.76 1972.65   2
 -11  -6   4 6960.25 1483.23   7
  11   6  -4 7113.59 1850.41   1
 -11   6   4 10362.5 1770.18  10
 -11  -6   4 7540.32 1614.69   6
  11  -6  -3 6600.35 1547.51   2
 -11  -6   3 5662.73 1382.54   7
  11   6  -3 8078.11 2019.50   1
 -11   6   3 3127.89 1051.49  10
 -11  -6   3 3713.30 1220.57   6
  11  -6  -2 3855.21 1196.70   2
 -11  -6   2 2009.17 979.790   7
 -11   6   2 3337.21 1092.36  10
 -11  -6   2 391.049 716.865   6
  11   6  -2 693.531 1028.02   1
  11  -6  -1 2891.72 1037.90   2
 -11  -6   1 3336.32 1047.33   7
 -11   6   1 4445.55 1216.28  10
 -11  -6   1 5878.40 1415.44   6
  11  -6  -1 5897.25 1368.16   9
  11   6  -1 3364.70 1212.50   1
  11  -6   0 7589.28 1556.26   2
 -11  -6   0 7421.17 1519.98   7
 -11   6   0 7182.18 1618.74  10
 -11  -6   0 7608.32 1659.36   6
  11  -6   0 5996.37 1401.25   9
  11   6   0 7835.77 1782.92   1
  11   6   1 586.655 629.082   1
 -11  -6  -1 1236.97 763.577   7
 -11   6  -1 84.9454 353.637  10
 -11  -6  -1 844.097 838.588   6
  11  -6   1 1659.56 946.982   9
  11   6   2 1201.27 1018.70   1
  11  -6   2 2536.68 1091.96   9
 -11   7   5 24355.5 2893.64  10
 -11  -7   5 32204.6 3308.36   6
  11   7  -5 25945.5 3523.68   1
 -11  -7   4-41.3441 489.172   7
  11   7  -4 560.863 1164.07   1
 -11   7   4 138.849 448.998  10
 -11  -7   4-223.755 542.439   6
 -11   7   3 77841.1 5322.26  10
 -11  -7   3 81958.6 5227.24   6
  11   7  -3 80941.1 6214.03   1
 -11  -7   3 77046.8 5189.13   7
 -11  -7   2 19.1745 541.132   7
  11  -7  -2 462.231 567.647   2
 -11   7   2-532.406 580.792  10
  11   7  -2 300.846 1187.24   1
  11  -7  -2-252.912 376.670   9
 -11  -7   1 4663.41 1309.93   7
  11  -7  -1 6244.19 1451.30   2
  11  -7  -1 6368.46 1532.54   9
  11   7  -1 7731.33 1977.17   1
 -11  -7   0 3539.72 1169.13   7
  11  -7   0 6567.45 1500.22   9
 -11  -7  -1 67305.4 4866.54   7
 -12   0   7-24.1904 713.142   6
  12   0  -7 36.7874 407.444   2
 -12   0   6 19727.7 2700.68   6
  12   0  -6 15683.5 2346.22   2
 -12   0   5-94.9157 652.995   6
  12   0  -5 1426.35 908.793   2
 -12   0   4 28941.2 3184.01   6
  12   0  -4 28536.6 3045.06   2
 -12   0   3 497.928 903.459   6
  12   0  -3 775.582 762.528   2
 -12   0   2 29170.3 3142.06   6
  12   0  -2 22788.6 2650.91   2
 -12   0   1-323.776 364.637  10
  12   0  -1 738.229 600.274   2
 -12   0   0 77.5794 352.590  10
  12   0   0 55.7520 489.579   2
 -12   0  -1-436.322 501.068  10
  12   0   1-1075.24 613.451   2
 -12   0  -2 1591.67 736.749  10
 -12   0  -3-739.786 602.556  10
  12   0   3-97.5873 419.785   9
  12   0   4 682.810 696.682   9
 -12  -1   7 26900.4 3187.07   6
 -12   1   7 29483.4 3260.73   6
  12   1  -7 29355.0 3243.08   2
  12  -1  -7 28157.9 3249.42   2
 -12  -1   6 4982.79 1514.74   6
 -12   1   6 3978.06 1253.32   6
  12   1  -6 4486.32 1316.55   2
  12  -1  -6 3321.77 1143.02   2
 -12  -1   5-220.522 749.021   6
 -12   1   5-290.775 573.587   6
  12   1  -5 522.549 640.275   2
  12  -1  -5-780.097 662.136   2
 -12  -1   4 44806.6 3934.71   6
 -12   1   4 50162.5 4121.64   6
  12   1  -4 51875.2 4147.96   2
  12  -1  -4 46321.8 3903.66   2
 -12  -1   3 25111.1 2961.52   6
 -12   1   3 21236.1 2705.61   6
  12   1  -3 23233.2 2729.99   2
  12  -1  -3 28440.8 2958.46   2
 -12   1   2 1193.87 590.946  10
 -12  -1   2 2470.39 1154.04   6
 -12   1   2 898.000 803.043   6
  12   1  -2 614.275 503.641   2
  12  -1  -2 1864.81 843.952   2
 -12  -1   1 8482.09 1443.50  10
 -12   1   1 9041.30 1513.01  10
 -12  -1   1 10637.7 1999.44   6
  12   1  -1 5919.57 1378.08   2
  12  -1  -1 9634.22 1685.31   2
 -12  -1   0 61979.7 4139.81  10
 -12   1   0 71729.0 4530.09  10
  12   1   0 56652.8 4143.25   2
  12  -1   0 64220.0 4364.62   2
 -12  -1  -1 19786.2 2382.79  10
 -12   1  -1 20086.1 2435.79  10
  12   1   1 20690.1 2363.58   2
  12  -1   1 18450.6 2251.65   2
 -12  -1  -2 7123.06 1524.50  10
 -12   1  -2 5052.41 1280.94  10
  12  -1   2 3474.45 996.629   9
 -12  -1  -3 6010.09 1458.13  10
 -12   1  -3 4267.46 1223.26  10
  12  -1   3 3618.44 1100.72   9
  12   1   4 37084.4 3432.98   9
  12  -1   4 38934.4 3599.96   9
 -12   2   7 12059.4 2098.87   6
 -12  -2   6 3350.08 1324.39   6
 -12   2   6 899.271 884.559   6
  12   2  -6 1501.38 863.414   2
  12  -2  -6 860.103 628.277   2
 -12  -2   5 14874.3 2362.20   6
 -12   2   5 17733.3 2431.07   6
  12   2  -5 14124.4 2199.98   2
  12  -2  -5 17876.4 2525.89   2
 -12  -2   4 3317.39 1324.38   6
 -12   2   4 1915.16 924.263   6
  12   2  -4 1867.92 682.669   2
  12  -2  -4 1057.42 689.000   2
 -12   2   3 736.416 594.012   6
  12   2  -3 218.417 693.891   2
  12  -2  -3 49.4121 658.076   2
 -12   2   2 4240.01 1061.26  10
 -12  -2   2 7502.90 1695.08   6
 -12   2   2 7919.84 1680.89   6
  12   2  -2 5146.74 1283.64   2
  12  -2  -2 5156.05 1303.04   2
 -12   2   1 45033.2 3526.94  10
 -12  -2   1 49273.2 4133.24   6
  12   2  -1 38046.4 3443.29   2
  12  -2  -1 43929.3 3636.58   2
 -12  -2   0 4395.81 1096.10  10
 -12   2   0 4601.15 1164.33  10
  12   2   0 5181.40 1264.43   2
  12  -2   0 5363.28 1267.09   2
 -12  -2  -1 5760.46 1264.45  10
 -12   2  -1 8039.58 1598.94  10
  12   2   1 8623.25 1598.39   2
 -12  -2  -2 2558.55 900.461  10
 -12   2  -2 2197.44 909.521  10
  12  -2   2 2507.03 830.779   9
 -12  -2  -3 7089.84 1563.13  10
 -12   2  -3 8438.74 1715.24  10
  12  -2   3 6922.25 1436.56   9
  12   2   4 6968.71 1496.18   9
  12  -2   4 6704.67 1480.97   9
 -12   3   7 2.56980 643.768   6
 -12   3   7-68.8298 478.546   4
  12  -3  -6 749.348 489.399   2
 -12  -3   6 389.848 487.973   6
 -12   3   6-19.7302 547.568   6
  12   3  -6 1237.62 879.264   2
 -12  -3   5 3389.36 1299.38   6
 -12   3   5 2324.45 861.575   6
  12   3  -5 4934.86 1405.95   2
  12  -3  -5 3655.99 1176.26   2
 -12  -3   4 22705.9 2849.38   6
 -12   3   4 21534.6 2656.04   6
  12   3  -4 20214.9 2600.89   2
  12  -3  -4 21146.5 2679.07   2
 -12  -3   3 3736.66 1312.77   6
 -12   3   3 4106.76 1204.71   6
  12   3  -3 5888.60 1499.69   2
  12  -3  -3 4117.12 1270.52   2
 -12   3   2 1592.65 748.322  10
 -12  -3   2 2769.95 1212.47   6
  12   3  -2 3166.46 1075.60   2
  12  -3  -2 1479.02 828.586   2
 -12   3   1 21174.0 2471.92  10
 -12  -3   1 23945.3 2887.66   6
  12   3  -1 23822.4 2764.70   2
  12  -3  -1 20781.8 2534.16   2
  12  -3   0 673.259 506.445   2
 -12  -3   0-212.191 378.816  10
 -12   3   0 839.745 728.798  10
  12   3   0-101.566 481.272   2
 -12  -3  -1 14767.1 2078.87  10
 -12   3  -1 13611.4 2094.61  10
  12  -3   1 11396.2 1773.74   9
  12   3   1 13097.7 1979.00   2
 -12  -3  -2 851.839 752.866  10
 -12   3  -2 1237.07 760.199  10
  12  -3   2 460.176 497.604   9
 -12  -3  -3 3910.83 1146.23  10
  12  -3   3 2166.94 873.524   9
  12   3   3 4410.77 1185.72   1
 -12   4   7 4260.30 1335.89   6
 -12   4   7 5760.45 1424.59   4
 -12   4   6 32390.1 3273.34   6
 -12   4   6 28402.0 3056.59   4
  12  -4  -5 9479.93 1930.15   2
 -12  -4   5 9032.96 1837.17   6
 -12   4   5 5562.69 1391.42   6
  12   4  -5 9199.77 1877.97   2
  12  -4  -4 15389.9 2318.86   2
 -12  -4   4 14158.0 2280.45   6
 -12   4   4 15925.4 2260.19   6
  12   4  -4 15122.6 2350.25   2
  12  -4  -3-155.568 513.947   2
 -12   4   3 260.292 544.429  10
 -12  -4   3 1082.63 1009.26   6
 -12   4   3 667.640 716.124   6
  12   4  -3 475.371 410.305   2
  12  -4  -2 17392.4 2368.71   2
 -12   4   2 19079.9 2390.76  10
 -12  -4   2 18419.7 2580.17   6
 -12   4   2 17891.9 2386.95   6
  12  -4  -1 1004.53 559.747   2
 -12   4   1 1483.80 950.690  10
 -12  -4   1 2239.46 1094.24   6
 -12   4   1 2254.47 1090.47   6
 -12   4   0 20408.0 2565.71  10
 -12  -4   0 23664.2 2900.94   6
  12  -4   0 19247.1 2427.70   2
 -12  -4  -1 3318.11 969.086  10
 -12   4  -1 5710.14 1368.02  10
  12  -4   1 2525.71 867.389   9
  12   4   1 4860.74 1341.57   1
 -12  -4  -2 39458.0 3572.76  10
  12  -4   2 37659.6 3492.17   9
  12   4   2 43392.4 3774.19   1
  12   4   3 12162.9 2029.00   1
  12  -4   3 12137.6 2036.43   9
 -12   5   5 16911.5 2355.01   6
 -12  -5   4 1555.97 883.872   6
 -12   5   4 539.374 628.547   6
  12  -5  -3 13.0178 512.253   2
 -12   5   3-999.692 633.008  10
 -12  -5   3 545.248 965.002   6
 -12   5   3 22.6207 593.029   6
 -12   5   2 24973.2 2824.24  10
 -12  -5   2 24236.8 2884.37   6
 -12   5   2 23980.9 2733.36   6
  12  -5  -2 23207.5 2800.12   2
  12   5  -1 20353.6 2726.43   1
 -12   5   1 23814.5 2816.81  10
 -12   5   1 19433.7 2551.57   6
 -12  -5   1 18942.8 2619.46   6
  12  -5  -1 19258.8 2539.95   2
 -12   5   0-50.4898 517.173  10
 -12  -5   0 84.5832 588.989   6
 -12  -5  -1-517.023 902.197   6
  12  -5   1 1007.13 666.662   9
 -12  -5  -2 1934.83 825.375  10
  12  -5   2 3671.20 1189.96   9
  12   5   2 2680.17 1049.52   1
 -12   6   3 6845.59 1567.48  10
 -12  -6   3 5159.52 1492.69   6
 -12  -6   2-244.989 781.476   6
  12   6  -2-1297.52 1035.77   1
  12  -6  -1 11305.7 1981.04   2
 -12  -6   1 11519.1 2054.11   6
  12   6  -1 12025.6 2214.93   1
 -12  -6   0 1744.84 1045.41   6
  12  -6   0 293.186 463.559   9
 -13   0   4 24532.0 3028.99   6
  13   0  -4 26303.9 3088.53   2
 -13   0   3 380.137 786.022   6
  13   0  -3 426.632 589.292   2
 -13   0   2-183.192 784.534   6
  13   0  -2-1063.89 740.782   2
 -13   0   1 2012.04 1191.83   6
  13   0  -1-167.565 352.798   2
 -13   0   0 1828.52 835.850  10
  13   0   0 2728.10 915.454   2
 -13   0  -1 644.644 532.333  10
 -13   0  -2-502.825 562.020  10
 -13   1   4 35478.7 3590.89   6
  13   1  -4 28235.7 3237.09   2
  13  -1  -4 32998.8 3475.29   2
 -13  -1   3 5678.75 1585.15   6
 -13   1   3 5475.82 1438.63   6
  13   1  -3 4174.59 1200.17   2
  13  -1  -3 5194.16 1383.46   2
 -13  -1   2 2114.87 1061.14   6
 -13   1   2 1407.98 1097.92   6
  13   1  -2 2572.16 1015.75   2
  13  -1  -2 2394.81 982.856   2
 -13   1   1 4597.81 1155.16  10
 -13   1   1 5427.50 1563.52   6
  13   1  -1 5865.96 1418.83   2
  13  -1  -1 8675.84 1704.47   2
 -13  -1   0 14852.5 2074.51  10
 -13   1   0 13347.3 2031.78  10
  13   1   0 15135.5 2223.93   2
  13  -1   0 16457.8 2299.63   2
 -13  -1  -1-424.060 621.799  10
 -13   1  -1-688.763 544.921  10
 -13  -1  -2 2442.38 1017.31  10
 -13   2   4 32935.1 3484.26   6
 -13   2   3 23123.6 2918.74   6
  13   2  -3 25658.7 3009.70   2
  13  -2  -3 21918.2 2822.29   2
 -13  -2   2-692.873 699.859   6
  13   2  -2-160.848 433.085   2
  13  -2  -2 98.4281 482.143   2
 -13   2   1 1091.91 660.134  10
  13   2  -1 198.669 386.805   2
  13  -2  -1 408.819 495.873   2
 -13   2   0 27013.0 2922.58  10
  13   2   0 26983.9 2984.39   2
  13  -2   0 23453.0 2742.85   2
 -13  -2  -1 50356.1 4032.50  10
 -13   2  -1 53427.9 4297.41  10
 -13   3   3 13631.6 2237.28   6
  13  -3  -2 732.011 643.419   2
 -13   3   2 3077.88 1319.11   6
  13  -3  -1 2608.08 1038.42   2
 -13   3   1 3317.64 1071.72  10
  13   3  -1 2596.85 1005.17   2
 -13   3   0 943.359 640.791  10
  13   3   0 620.841 626.786   2
 -13   4   2 7646.30 1646.24  10
  13  -4  -1 13475.8 2166.88   2
 -13   4   1 14638.0 2233.13  10
   0   0   0    0.00    0.00   0
;
_shelx_hkl_checksum              86826
_shelx_res_file
;
TITL shelxt_a.res in P2(1)/c
    shelx.res
    created by SHELXL-2016/6 at 12:17:14 on 06-Feb-2020
CELL  0.71073   9.1944   8.3134   9.3798   90.000   98.924   90.000
ZERR     2.00   0.0001   0.0001   0.0002    0.000    0.001    0.000
LATT   1
SYMM  - X, 1/2 + Y, 1/2 - Z
SFAC  O    K    MN   P    H
UNIT  32 4 6 8 8
FMAP   2
OMIT -3 60
PLAN   20
BOND   $H
EQIV $1 -x+1, -y+1, -z+1
HTAB O8 O7_$1
EQIV $2 x, -y+1/2, z-1/2
HTAB O8 O3_$2
LIST   6
L.S.  10
SIZE  0.076x0.093x0.141
ACTA
WGHT    0.016000    0.600000
EXTI    0.002589
FVAR       5.31459
MN1   3    0.860357    0.640985    0.501505    11.00000    0.01057    0.00931 =
         0.00987    0.00045    0.00151   -0.00041
MN2   3    1.000000    0.500000    1.000000    10.50000    0.01177    0.00897 =
         0.00956   -0.00093   -0.00128    0.00192
K1    2    0.425104    0.771275    0.518661    11.00000    0.01832    0.02351 =
         0.02092   -0.00139   -0.00018    0.00230
P1    4    0.896430    0.304382    0.710560    11.00000    0.00876    0.00766 =
         0.00716    0.00010    0.00152   -0.00006
P2    4    0.693899    0.562320    0.768400    11.00000    0.00764    0.01138 =
         0.00922   -0.00069    0.00088    0.00118
O1    1    0.990808    0.297199    0.858497    11.00000    0.01504    0.01092 =
         0.00902   -0.00023   -0.00186    0.00159
O2    1    0.956408    0.423800    0.611903    11.00000    0.01297    0.01111 =
         0.01133    0.00290    0.00419    0.00062
O3    1    0.860368    0.143300    0.639717    11.00000    0.01382    0.00962 =
         0.01310   -0.00212    0.00245   -0.00049
O4    1    0.814990    0.624901    0.885378    11.00000    0.01258    0.01280 =
         0.01323   -0.00236   -0.00203    0.00069
O5    1    0.688654    0.646767    0.625364    11.00000    0.01550    0.01896 =
         0.01171    0.00419    0.00304    0.00499
O6    1    0.738666    0.374697    0.739978    11.00000    0.00979    0.01054 =
         0.01617   -0.00271    0.00367   -0.00009
O7    1    0.546890    0.548529    0.817908    11.00000    0.01024    0.02100 =
         0.01884   -0.00161    0.00521    0.00109
O8    1    0.720265    0.507735    0.336142    11.00000    0.01462    0.03018 =
         0.02113   -0.01181    0.00162   -0.00012
H1    5    0.629140    0.502728    0.296747    11.00000    0.04691
H2    5    0.766475    0.477197    0.272981    11.00000    0.03641
HKLF 4
REM  shelxt_a.res in P2(1)/c
REM R1 =  0.0233 for    1878 Fo > 4sig(Fo)  and  0.0271 for all    2062 data
REM    124 parameters refined using      0 restraints
END
WGHT      0.0166      0.6046
REM Highest difference peak  0.411,  deepest hole -0.454,  1-sigma level  0.088
Q1    1   0.6835  0.5835  0.6710  11.00000  0.05    0.41
Q2    1   0.7220  0.4539  0.7677  11.00000  0.05    0.38
Q3    1   0.9314  0.3634  0.6671  11.00000  0.05    0.37
Q4    1   0.9389  0.3112  0.7959  11.00000  0.05    0.34
Q5    1   1.0214  0.3887  0.5886  11.00000  0.05    0.34
Q6    1   0.8858  0.2001  0.6960  11.00000  0.05    0.32
Q7    1   0.7591  0.5994  0.8333  11.00000  0.05    0.31
Q8    1   0.6171  0.6027  0.8165  11.00000  0.05    0.31
Q9    1   0.5854  0.5316  0.7532  11.00000  0.05    0.29
Q10   1   0.7599  0.6775  0.5996  11.00000  0.05    0.29
Q11   1   0.9255  0.3717  0.5964  11.00000  0.05    0.28
Q12   1   0.7163  0.5839  0.5789  11.00000  0.05    0.28
Q13   1   0.6611  0.6001  0.5643  11.00000  0.05    0.27
Q14   1   0.7436  0.5334  0.4264  11.00000  0.05    0.27
Q15   1   0.5772  0.4951  0.8266  11.00000  0.05    0.25
Q16   1   0.8193  0.1077  0.6780  11.00000  0.05    0.25
Q17   1   1.0135  0.6065  1.0182  11.00000  0.05    0.25
Q18   1   0.8509  0.5378  0.5039  11.00000  0.05    0.24
Q19   1   0.4671  0.8042  0.3949  11.00000  0.05    0.24
Q20   1   0.8568  0.1704  0.5706  11.00000  0.05    0.24
;
_shelx_res_checksum              52112
loop_
_space_group_symop_operation_xyz
'x, y, z'
'-x, y+1/2, -z+1/2'
'-x, -y, -z'
'x, -y-1/2, z-1/2'
loop_
_atom_site_type_symbol
_atom_site_label
_atom_site_fract_x
_atom_site_fract_y
_atom_site_fract_z
_atom_site_U_iso_or_equiv
_atom_site_adp_type
_atom_site_calc_flag
_atom_site_occupancy
_atom_site_disorder_assembly
_atom_site_disorder_group
Mn Mn1 0.86036(3) 0.64098(4) 0.50150(3) 0.00993(8) Uani d 1 . .
Mn Mn2 1.000000 0.500000 1.000000 0.01041(10) Uani d 1 . .
K K1 0.42510(5) 0.77127(6) 0.51866(5) 0.02126(11) Uani d 1 . .
P P1 0.89643(5) 0.30438(6) 0.71056(5) 0.00783(10) Uani d 1 . .
P P2 0.69390(5) 0.56232(6) 0.76840(5) 0.00946(11) Uani d 1 . .
O O1 0.99081(15) 0.29720(17) 0.85850(14) 0.0121(3) Uani d 1 . .
O O2 0.95641(14) 0.42380(17) 0.61190(14) 0.0116(3) Uani d 1 . .
O O3 0.86037(15) 0.14330(16) 0.63972(15) 0.0121(3) Uani d 1 . .
O O4 0.81499(15) 0.62490(17) 0.88538(15) 0.0133(3) Uani d 1 . .
O O5 0.68865(15) 0.64677(18) 0.62536(15) 0.0153(3) Uani d 1 . .
O O6 0.73867(14) 0.37470(17) 0.73998(15) 0.0120(3) Uani d 1 . .
O O7 0.54689(15) 0.54853(19) 0.81791(16) 0.0164(3) Uani d 1 . .
O O8 0.72027(18) 0.5077(2) 0.33614(18) 0.0221(4) Uani d 1 . .
H H1 0.629(4) 0.503(4) 0.297(3) 0.047(10) Uiso d 1 . .
H H2 0.766(3) 0.477(4) 0.273(3) 0.036(9) Uiso d 1 . .
loop_
_atom_site_aniso_label
_atom_site_aniso_U_11
_atom_site_aniso_U_22
_atom_site_aniso_U_33
_atom_site_aniso_U_12
_atom_site_aniso_U_13
_atom_site_aniso_U_23
Mn1 0.01057(14) 0.00931(14) 0.00987(14) -0.00041(11) 0.00151(10) 0.00045(11)
Mn2 0.01177(19) 0.00897(19) 0.00956(19) 0.00192(15) -0.00128(15) -0.00093(15)
K1 0.0183(2) 0.0235(3) 0.0209(2) 0.00230(19) -0.00018(17) -0.00139(19)
P1 0.0088(2) 0.0077(2) 0.0072(2) -0.00006(17) 0.00152(16) 0.00010(17)
P2 0.0076(2) 0.0114(2) 0.0092(2) 0.00118(17) 0.00088(17) -0.00069(18)
O1 0.0150(7) 0.0109(6) 0.0090(6) 0.0016(5) -0.0019(5) -0.0002(5)
O2 0.0130(6) 0.0111(7) 0.0113(6) 0.0006(5) 0.0042(5) 0.0029(5)
O3 0.0138(6) 0.0096(6) 0.0131(7) -0.0005(5) 0.0025(5) -0.0021(5)
O4 0.0126(6) 0.0128(7) 0.0132(7) 0.0007(5) -0.0020(5) -0.0024(5)
O5 0.0155(7) 0.0190(8) 0.0117(7) 0.0050(6) 0.0030(5) 0.0042(6)
O6 0.0098(6) 0.0105(6) 0.0162(7) -0.0001(5) 0.0037(5) -0.0027(5)
O7 0.0102(6) 0.0210(8) 0.0188(7) 0.0011(6) 0.0052(5) -0.0016(6)
O8 0.0146(7) 0.0302(9) 0.0211(8) -0.0001(7) 0.0016(6) -0.0118(7)
loop_
_atom_type_symbol
_atom_type_description
_atom_type_scat_dispersion_real
_atom_type_scat_dispersion_imag
_atom_type_scat_source
O O 0.0106 0.0060 'International Tables Vol C Tables 4.2.6.8 and 6.1.1.4'
K K 0.2009 0.2494 'International Tables Vol C Tables 4.2.6.8 and 6.1.1.4'
Mn Mn 0.3368 0.7283 'International Tables Vol C Tables 4.2.6.8 and 6.1.1.4'
P P 0.1023 0.0942 'International Tables Vol C Tables 4.2.6.8 and 6.1.1.4'
H H 0.0000 0.0000 'International Tables Vol C Tables 4.2.6.8 and 6.1.1.4'
loop_
_geom_angle_atom_site_label_1
_geom_angle_atom_site_label_2
_geom_angle_atom_site_label_3
_geom_angle_site_symmetry_1
_geom_angle_site_symmetry_2
_geom_angle_site_symmetry_3
_geom_angle
_geom_angle_publ_flag
O5 Mn1 O8 . . . 89.62(6) ?
O5 Mn1 O1 . . 2_756 96.25(6) ?
O8 Mn1 O1 . . 2_756 171.42(6) ?
O5 Mn1 O2 . . 3_766 166.64(6) ?
O8 Mn1 O2 . . 3_766 86.75(6) ?
O1 Mn1 O2 2_756 . 3_766 88.90(5) ?
O5 Mn1 O2 . . . 92.28(5) ?
O8 Mn1 O2 . . . 93.91(6) ?
O1 Mn1 O2 2_756 . . 92.11(5) ?
O2 Mn1 O2 3_766 . . 75.17(5) ?
O5 Mn1 O4 . . 4_575 98.62(5) ?
O8 Mn1 O4 . . 4_575 92.93(6) ?
O1 Mn1 O4 2_756 . 4_575 80.03(5) ?
O2 Mn1 O4 3_766 . 4_575 94.40(5) ?
O2 Mn1 O4 . . 4_575 167.16(5) ?
O4 Mn2 O4 . . 3_767 180.00(7) ?
O4 Mn2 O1 . . 3_767 83.16(5) ?
O4 Mn2 O1 3_767 . 3_767 96.84(5) ?
O4 Mn2 O1 . . . 96.84(5) ?
O4 Mn2 O1 3_767 . . 83.16(5) ?
O1 Mn2 O1 3_767 . . 180.0 ?
O4 Mn2 O3 . . 2_756 86.15(5) ?
O4 Mn2 O3 3_767 . 2_756 93.85(5) ?
O1 Mn2 O3 3_767 . 2_756 88.48(5) ?
O1 Mn2 O3 . . 2_756 91.52(5) ?
O4 Mn2 O3 . . 4_566 93.85(5) ?
O4 Mn2 O3 3_767 . 4_566 86.15(5) ?
O1 Mn2 O3 3_767 . 4_566 91.52(5) ?
O1 Mn2 O3 . . 4_566 88.48(5) ?
O3 Mn2 O3 2_756 . 4_566 180.0 ?
O5 K1 O7 . . 2_656 96.55(5) ?
O5 K1 O7 . . 4_575 91.45(4) ?
O7 K1 O7 2_656 . 4_575 85.03(5) ?
O5 K1 O3 . . 3_666 168.64(5) ?
O7 K1 O3 2_656 . 3_666 94.54(4) ?
O7 K1 O3 4_575 . 3_666 87.05(4) ?
O5 K1 O6 . . 3_666 118.05(4) ?
O7 K1 O6 2_656 . 3_666 143.36(4) ?
O7 K1 O6 4_575 . 3_666 82.57(4) ?
O3 K1 O6 3_666 . 3_666 50.59(4) ?
O5 K1 O6 . . 2_656 110.82(4) ?
O7 K1 O6 2_656 . 2_656 50.37(4) ?
O7 K1 O6 4_575 . 2_656 130.79(5) ?
O3 K1 O6 3_666 . 2_656 78.34(4) ?
O6 K1 O6 3_666 . 2_656 119.17(5) ?
O5 K1 O8 . . 3_666 88.48(5) ?
O7 K1 O8 2_656 . 3_666 113.02(5) ?
O7 K1 O8 4_575 . 3_666 161.85(5) ?
O3 K1 O8 3_666 . 3_666 89.46(4) ?
O6 K1 O8 3_666 . 3_666 81.47(4) ?
O6 K1 O8 2_656 . 3_666 65.52(4) ?
O5 K1 O7 . . . 47.13(4) ?
O7 K1 O7 2_656 . . 90.338(19) ?
O7 K1 O7 4_575 . . 137.53(5) ?
O3 K1 O7 3_666 . . 135.42(4) ?
O6 K1 O7 3_666 . . 121.42(4) ?
O6 K1 O7 2_656 . . 71.12(4) ?
O8 K1 O7 3_666 . . 48.62(4) ?
O5 K1 P2 . . 2_656 114.02(4) ?
O7 K1 P2 2_656 . 2_656 25.28(3) ?
O7 K1 P2 4_575 . 2_656 102.33(4) ?
O3 K1 P2 3_666 . 2_656 77.27(3) ?
O6 K1 P2 3_666 . 2_656 127.55(3) ?
O6 K1 P2 2_656 . 2_656 28.72(3) ?
O8 K1 P2 3_666 . 2_656 94.24(3) ?
O7 K1 P2 . . 2_656 89.85(3) ?
O5 K1 P1 . . 3_666 143.46(4) ?
O7 K1 P1 2_656 . 3_666 119.89(3) ?
O7 K1 P1 4_575 . 3_666 94.18(3) ?
O3 K1 P1 3_666 . 3_666 25.84(3) ?
O6 K1 P1 3_666 . 3_666 28.21(3) ?
O6 K1 P1 2_656 . 3_666 92.32(3) ?
O8 K1 P1 3_666 . 3_666 75.50(3) ?
O7 K1 P1 . . 3_666 123.91(3) ?
P2 K1 P1 2_656 . 3_666 99.948(16) ?
O5 K1 P2 . . . 22.55(3) ?
O7 K1 P2 2_656 . . 92.66(3) ?
O7 K1 P2 4_575 . . 113.31(3) ?
O3 K1 P2 3_666 . . 158.93(3) ?
O6 K1 P2 3_666 . . 123.90(3) ?
O6 K1 P2 2_656 . . 91.23(3) ?
O8 K1 P2 3_666 . . 69.51(3) ?
O7 K1 P2 . . . 24.64(2) ?
P2 K1 P2 2_656 . . 102.233(14) ?
P1 K1 P2 3_666 . . 139.542(19) ?
O5 K1 K1 . . 3_676 95.41(4) ?
O7 K1 K1 2_656 . 3_676 42.67(3) ?
O7 K1 K1 4_575 . 3_676 42.36(3) ?
O3 K1 K1 3_666 . 3_676 91.06(3) ?
O6 K1 K1 3_666 . 3_676 117.04(3) ?
O6 K1 K1 2_656 . 3_676 90.75(3) ?
O8 K1 K1 3_666 . 3_676 155.64(4) ?
O7 K1 K1 . . 3_676 120.39(3) ?
P2 K1 K1 2_656 . 3_676 62.208(15) ?
P1 K1 K1 3_666 . 3_676 112.74(2) ?
P2 K1 K1 . . 3_676 107.494(19) ?
O3 P1 O2 . . . 112.82(8) ?
O3 P1 O1 . . . 115.01(8) ?
O2 P1 O1 . . . 111.87(8) ?
O3 P1 O6 . . . 104.65(7) ?
O2 P1 O6 . . . 106.63(8) ?
O1 P1 O6 . . . 104.90(8) ?
O3 P1 K1 . . 3_666 56.81(5) ?
O2 P1 K1 . . 3_666 95.57(6) ?
O1 P1 K1 . . 3_666 151.53(6) ?
O6 P1 K1 . . 3_666 57.87(5) ?
O7 P2 O5 . . . 113.88(8) ?
O7 P2 O4 . . . 113.26(8) ?
O5 P2 O4 . . . 113.54(8) ?
O7 P2 O6 . . . 103.75(8) ?
O5 P2 O6 . . . 105.75(8) ?
O4 P2 O6 . . . 105.45(8) ?
O7 P2 K1 . . 2_646 51.72(6) ?
O5 P2 K1 . . 2_646 151.51(6) ?
O4 P2 K1 . . 2_646 94.87(6) ?
O6 P2 K1 . . 2_646 62.30(5) ?
O7 P2 K1 . . . 71.09(6) ?
O5 P2 K1 . . . 42.99(5) ?
O4 P2 K1 . . . 131.05(6) ?
O6 P2 K1 . . . 121.24(5) ?
K1 P2 K1 2_646 . . 118.296(15) ?
P1 O1 Mn2 . . . 119.85(8) ?
P1 O1 Mn1 . . 2_746 142.37(9) ?
Mn2 O1 Mn1 . . 2_746 97.78(5) ?
P1 O2 Mn1 . . 3_766 120.92(8) ?
P1 O2 Mn1 . . . 131.85(8) ?
Mn1 O2 Mn1 3_766 . . 104.83(5) ?
P1 O3 Mn2 . . 2_746 127.28(8) ?
P1 O3 K1 . . 3_666 97.35(6) ?
Mn2 O3 K1 2_746 . 3_666 112.06(5) ?
P2 O4 Mn2 . . . 129.10(8) ?
P2 O4 Mn1 . . 4_576 134.88(8) ?
Mn2 O4 Mn1 . . 4_576 95.97(5) ?
P2 O5 Mn1 . . . 123.93(8) ?
P2 O5 K1 . . . 114.45(7) ?
Mn1 O5 K1 . . . 121.03(6) ?
P1 O6 P2 . . . 128.33(9) ?
P1 O6 K1 . . 3_666 93.92(6) ?
P2 O6 K1 . . 3_666 114.82(7) ?
P1 O6 K1 . . 2_646 125.74(7) ?
P2 O6 K1 . . 2_646 88.98(6) ?
K1 O6 K1 3_666 . 2_646 104.55(4) ?
P2 O7 K1 . . 2_646 103.00(7) ?
P2 O7 K1 . . 4_576 130.29(8) ?
K1 O7 K1 2_646 . 4_576 94.97(5) ?
P2 O7 K1 . . . 84.27(6) ?
K1 O7 K1 2_646 . . 154.61(6) ?
K1 O7 K1 4_576 . . 98.64(4) ?
Mn1 O8 K1 . . 3_666 108.55(7) ?
Mn1 O8 H1 . . . 140(2) ?
K1 O8 H1 3_666 . . 72(2) ?
Mn1 O8 H2 . . . 111(2) ?
K1 O8 H2 3_666 . . 113(2) ?
H1 O8 H2 . . . 105(3) ?
? ? ? ? ? ? ? ?
loop_
_geom_bond_atom_site_label_1
_geom_bond_atom_site_label_2
_geom_bond_site_symmetry_1
_geom_bond_site_symmetry_2
_geom_bond_distance
_geom_bond_publ_flag
Mn1 O5 . . 2.1008(14) y
Mn1 O8 . . 2.1615(16) y
Mn1 O1 . 2_756 2.1739(14) y
Mn1 O2 . 3_766 2.1945(13) y
Mn1 O2 . . 2.1974(14) y
Mn1 O4 . 4_575 2.2377(14) y
Mn2 O4 . . 2.1355(14) y
Mn2 O4 . 3_767 2.1355(14) n
Mn2 O1 . 3_767 2.1393(14) n
Mn2 O1 . . 2.1393(14) y
Mn2 O3 . 2_756 2.3037(13) n
Mn2 O3 . 4_566 2.3037(13) y
K1 O5 . . 2.6819(15) y
K1 O7 . 2_656 2.7580(16) y
K1 O7 . 4_575 2.7745(15) y
K1 O3 . 3_666 2.8967(14) y
K1 O6 . 3_666 2.9141(15) y
K1 O6 . 2_656 3.0314(14) y
K1 O8 . 3_666 3.0962(19) y
K1 O7 . . 3.4039(16) y
K1 P2 . 2_656 3.4233(7) n
K1 P1 . 3_666 3.4331(7) n
K1 P2 . . 3.5800(7) n
K1 K1 . 3_676 4.0781(10) n
P1 O3 . . 1.5088(14) y
P1 O2 . . 1.5180(14) y
P1 O1 . . 1.5194(14) y
P1 O6 . . 1.6267(14) y
P2 O7 . . 1.5002(14) y
P2 O5 . . 1.5084(14) y
P2 O4 . . 1.5281(14) y
P2 O6 . . 1.6454(15) y
O8 H1 . . 0.86(3) y
O8 H2 . . 0.82(3) y
? ? ? ? ? ?
loop_
_geom_hbond_atom_site_label_D
_geom_hbond_atom_site_label_H
_geom_hbond_atom_site_label_A
_geom_hbond_site_symmetry_D
_geom_hbond_site_symmetry_H
_geom_hbond_site_symmetry_A
_geom_hbond_distance_DH
_geom_hbond_distance_HA
_geom_hbond_distance_DA
_geom_hbond_angle_DHA
_geom_hbond_publ_flag
O8 H1 O7 . . 3_666 0.86(3) 1.85(3) 2.691(2) 165(3) y
O8 H2 O3 . . 4_565 0.82(3) 1.91(3) 2.714(2) 166(3) y
? ? ? ? ? ? ? ? ? ? ?

_cod_database_fobs_code 2021990
