#------------------------------------------------------------------------------
#$Date: 2019-02-14 05:36:51 +0200 (Thu, 14 Feb 2019) $
#$Revision: 213640 $
#$URL: file:///home/coder/svn-repositories/cod/cif/2/02/14/2021494.cif $
#------------------------------------------------------------------------------
#
# This file is available in the Crystallography Open Database (COD),
# http://www.crystallography.net/. The original data for this entry
# were provided by IUCr Journals, http://journals.iucr.org/.
#
# The file may be used within the scientific community so long as
# proper attribution is given to the journal article from which the
# data were obtained.
#
data_2021494
loop_
_publ_author_name
'Losev, Evgeniy A.'
'Boldyreva, Elena'
_publ_section_title
;
 Concomitant cocrystal and salt: no interconversion in the solid state
;
_journal_coeditor_code           KU3233
_journal_issue                   3
_journal_name_full               'Acta Crystallographica Section C'
_journal_page_first
;
;
_journal_paper_doi               10.1107/S2053229619001372
_journal_volume                  75
_journal_year                    2019
_chemical_formula_iupac          'C3 H7.5 N O2 +, C4 H5.5 O6 -'
_chemical_formula_moiety         'C3 H7.5 N O2 +, C4 H5.5 O6 -'
_chemical_formula_sum            'C7 H13 N O8'
_chemical_formula_weight         239.18
_chemical_name_common            '\b-Alanine--<i>DL</i>-tartaric acid (1/1)'
_chemical_name_systematic        '\b-Alaninium <i>DL</i>-tartarate'
_space_group_crystal_system      triclinic
_space_group_IT_number           2
_space_group_name_Hall           '-P 1'
_space_group_name_H-M_alt        'P -1'
_symmetry_space_group_name_Hall  '-P 1'
_symmetry_space_group_name_H-M   'P -1'
_atom_sites_solution_hydrogens   mixed
_atom_sites_solution_primary     iterative
_audit_creation_method
;
Olex2 1.2
(compiled 2018.05.29 svn.r3508 for OlexSys, GUI svn.r5506)
;
_cell_angle_alpha                108.338(8)
_cell_angle_beta                 96.669(8)
_cell_angle_gamma                92.426(7)
_cell_formula_units_Z            2
_cell_length_a                   4.9010(4)
_cell_length_b                   8.5623(7)
_cell_length_c                   11.9502(11)
_cell_measurement_reflns_used    2072
_cell_measurement_temperature    125
_cell_measurement_theta_max      29.4940
_cell_measurement_theta_min      2.5200
_cell_volume                     471.13(7)
_computing_cell_refinement
;
CrysAlis PRO (Agilent, 2014)
;
_computing_data_collection
;
CrysAlis PRO (Agilent, 2014)
;
_computing_data_reduction
;
CrysAlis PRO (Agilent, 2014)
;
_computing_molecular_graphics
;
OLEX2 (Dolomanov <i>et al.</i>,  2009)
;
_computing_publication_material
;
OLEX2 (Dolomanov <i>et al.</i>,  2009)
;
_computing_structure_refinement
;
SHELXL2018 (Sheldrick, 2015b)
;
_computing_structure_solution
;
olex2.solve (Bourhis <i>et al.</i>,  2015)
;
_diffrn_ambient_temperature      125
_diffrn_detector                 'CCD plate'
_diffrn_measured_fraction_theta_full 0.999
_diffrn_measured_fraction_theta_max 0.999
_diffrn_measurement_device_type  'Stoe IPDS'
_diffrn_measurement_method       '\w scans'
_diffrn_radiation_monochromator  graphite
_diffrn_radiation_probe          x-ray
_diffrn_radiation_type           MoK\a
_diffrn_radiation_wavelength     0.71073
_diffrn_reflns_av_R_equivalents  0.0651
_diffrn_reflns_av_unetI/netI     0.0723
_diffrn_reflns_limit_h_max       5
_diffrn_reflns_limit_h_min       -6
_diffrn_reflns_limit_k_max       10
_diffrn_reflns_limit_k_min       -10
_diffrn_reflns_limit_l_max       14
_diffrn_reflns_limit_l_min       -14
_diffrn_reflns_number            5820
_diffrn_reflns_theta_full        25.242
_diffrn_reflns_theta_max         26.364
_diffrn_reflns_theta_min         2.515
_diffrn_source                   'Enhance (Mo) X-ray Source'
_exptl_absorpt_coefficient_mu    0.156
_exptl_absorpt_correction_T_max  1.00000
_exptl_absorpt_correction_T_min  0.96172
_exptl_absorpt_correction_type   gaussian
_exptl_absorpt_process_details
;
(CrysAlis PRO; Agilent, 2014)
;
_exptl_crystal_colour            colourless
_exptl_crystal_density_diffrn    1.686
_exptl_crystal_description       ' '
_exptl_crystal_F_000             252
_exptl_crystal_size_max          0.4336
_exptl_crystal_size_mid          0.071
_exptl_crystal_size_min          0.034
_refine_diff_density_max         0.392
_refine_diff_density_min         -0.327
_refine_ls_extinction_method     none
_refine_ls_goodness_of_fit_ref   1.025
_refine_ls_hydrogen_treatment    mixed
_refine_ls_matrix_type           full
_refine_ls_number_parameters     154
_refine_ls_number_reflns         1922
_refine_ls_number_restraints     0
_refine_ls_restrained_S_all      1.025
_refine_ls_R_factor_all          0.0938
_refine_ls_R_factor_gt           0.0516
_refine_ls_shift/su_max          0.000
_refine_ls_shift/su_mean         0.000
_refine_ls_structure_factor_coef Fsqd
_refine_ls_weighting_details
'w=1/[\s^2^(Fo^2^)+(0.0746P)^2^+0.0066P] where P=(Fo^2^+2Fc^2^)/3'
_refine_ls_weighting_scheme      calc
_refine_ls_wR_factor_gt          0.1241
_refine_ls_wR_factor_ref         0.1403
_reflns_number_gt                1286
_reflns_number_total             1922
_reflns_threshold_expression     'I > 2\s(I)'
_cod_data_source_file            ku3233sup1.cif
_cod_data_source_block           125_salt_heating
_cod_original_cell_volume        471.14(8)
_cod_database_code               2021494
_shelx_space_group_comment
;
The symmetry employed for this shelxl refinement is uniquely defined
by the following loop, which should always be used as a source of
symmetry information in preference to the above space-group names.
They are only intended as comments.
;
_shelx_estimated_absorpt_t_min   0.935
_shelx_estimated_absorpt_t_max   0.995
_shelx_hkl_file
;
   0   0  -2 67.3435 3.34157   1
   0   0   2 73.9728 3.47369   1
   0   0  -3 115.769 5.19660   1
   0   0   3 121.766 5.27607   1
   0   0   4 61.3335 4.60497   1
   0   0  -4 57.1816 4.50724   1
   0   0  -5 297.963 10.5401   1
   0   0   5 336.556 11.0494   1
   0   0   6 120.233 7.68543   1
   0   0  -6 108.916 7.42560   1
   0   0   7 60.6932 6.46740   1
   0   0  -7 53.1438 6.33726   1
   0   0   8 45.3242 6.50658   1
   0   0  -8 38.5956 6.19055   1
   0   0   9 141.611 10.7921   1
   0   0  -9 103.273 9.69102   1
   0   0 -10-2.93675 5.89928   1
   0   0  10 5.25566 5.57009   1
   0   0  11 64.7332 9.69562   1
   0   0 -11 58.8205 9.97695   1
   0   0 -12 18.8729 9.01219   1
   0   0  12 7.71853 7.79743   1
   0   0 -13 11.7214 10.2503   2
   0   0 -13-2.86052 9.63412   1
   0   0  13 30.0238 10.2504   1
   0   0 -14 18.1978 12.9792   1
   0   0 -14 46.4573 14.6993   2
   0   0  14 10.8227 11.6371   1
   0   0  15 19.7400 13.6615   1
   0   0 -15 22.2123 14.8138   1
   0   0 -15 3.74490 15.7960   2
   0   0 -15 13.9269 16.4319   2
   0  -1  16 31.1769 13.6543   1
   0   1 -16-7.36164 16.0005   2
   0   1 -15 7.34382 13.8096   2
   0   1 -15 8.04451 13.0755   1
   0  -1  15-16.2545 11.8283   1
   0   1 -14 7.13937 11.0303   1
   0  -1  14 13.6598 10.1315   1
   0   1 -14 7.29072 11.6052   2
   0  -1  13 103.840 12.6261   1
   0   1 -13 82.1215 12.0023   1
   0   1 -12 20.2144 8.53483   1
   0   1 -12 28.1724 9.77152   2
   0  -1  12 21.0988 8.04062   1
   0   1 -11 24.0303 7.93473   2
   0   1 -11 13.9016 6.92229   1
   0  -1  11 17.3647 6.67892   1
   0   1 -10 36.8294 7.75535   2
   0   1 -10 36.0715 6.93366   1
   0  -1  10 31.4997 6.71255   1
   0  -1   9-4.64036 4.43158   1
   0   1  -9-0.57388 4.25475   1
   0   1  -9-0.38066 4.75006   2
   0   1  -8 25.7212 5.59753   2
   0  -1   8 14.0922 4.37516   1
   0   1  -8 17.3472 4.59939   1
   0   1  -7 23.3677 4.82602   2
   0   1  -7 23.3422 4.39089   1
   0  -1   7 20.9858 4.12438   1
   0   1  -6 6.71882 3.30406   2
   0   1  -6 6.87067 3.02656   1
   0  -1   6 7.04346 2.92100   1
   0   1  -5 16.0455 2.94539   1
   0   1  -5 12.9903 3.24251   2
   0  -1   5 19.5269 3.09921   1
   0   1  -4 5.59401 2.04559   1
   0  -1   4 10.0750 2.21764   1
   0   1  -4 8.01436 2.63911   2
   0  -1   3 2165.38 17.3810   1
   0   1  -3 2106.04 17.6307   1
   0   1  -3 2137.85 21.3373   2
   0  -1   2 294.264 5.25274   1
   0  -1   2 314.193 7.18257   2
   0   1  -2 285.314 5.19817   1
   0   1  -2 304.359 7.10989   2
   0  -1   1 10.7950 1.75871   2
   0   1  -1 11.2627 1.40576   1
   0  -1   1 8.87255 1.33201   1
   0   1  -1 9.82408 1.71603   2
   0  -1   0 189.705 4.96649   2
   0  -1   0 196.370 5.06830   1
   0   1   0 192.560 4.98559   1
   0   1   0 181.717 4.88567   2
   0  -1  -1 109.940 4.79074   1
   0   1   1 110.903 4.51410   2
   0   1   1 109.468 4.77046   1
   0  -1  -1 110.523 4.48731   2
   0   1   2 41.5614 3.84615   1
   0  -1  -2 42.7516 3.59214   2
   0  -1  -2 38.8228 3.75396   1
   0   1   3 249.877 9.09251   1
   0  -1  -3 246.938 9.06425   1
   0  -1  -4 157.198 8.26427   1
   0   1   4 165.960 8.38464   1
   0   1   5 30.4380 4.74515   1
   0  -1  -5 28.6276 4.80597   1
   0   1   6 333.407 13.7353   1
   0  -1  -6 317.115 13.5170   1
   0  -1  -7 996.433 25.2404   1
   0   1   7 1124.57 26.5184   1
   0   1   8 0.53050 4.85096   1
   0  -1  -8 4.10130 5.08762   1
   0   1   9 5.19288 6.04216   1
   0  -1  -9 14.8691 6.55856   1
   0  -1 -10 2.34823 6.83740   1
   0   1  10 2.37414 6.44984   1
   0   1  11 7.23620 8.78680   1
   0  -1 -11 20.1203 9.09734   1
   0  -1 -12 8.85277 10.1316   2
   0   1  12 27.3315 10.3552   1
   0  -1 -13 25.0941 11.9476   1
   0  -1 -13 20.2989 11.3807   2
   0   1  13-7.02223 11.2013   1
   0  -1 -14-2.44156 13.7387   2
   0   1  14 18.6932 13.7125   1
   0  -1 -14-1.21487 14.1160   1
   0  -1 -15 5.77244 17.5983   2
   0  -1 -15-2.71280 17.0141   1
   0   1  15-0.50986 15.5743   1
   0  -2  16 90.4929 15.4766   1
   0  -2  16 120.071 16.3281   1
   0  -2  15 64.9488 12.1035   1
   0  -2  15 66.1366 12.7846   1
   0   2 -15 36.5187 15.3633   2
   0  -2  14 31.1954 9.50391   1
   0   2 -14 13.8134 11.3418   2
   0  -2  14 8.97697 8.52483   1
   0  -2  13 50.3395 9.52476   1
   0  -2  13 46.3765 9.41248   1
   0   2 -13 70.9149 12.3407   2
   0   2 -12 2.29773 8.02236   2
   0  -2  12 4.74708 6.07345   1
   0  -2  11 205.829 12.3307   1
   0   2 -11 205.229 14.7607   2
   0  -2  10 106.390 8.60990   1
   0   2 -10 105.437 10.5666   2
   0  -2   9 2.41971 3.69527   1
   0   2  -9-2.05199 5.07755   2
   0   2  -8 131.985 9.73576   2
   0  -2   8 134.567 7.94788   1
   0  -2   7 58.7434 5.12161   1
   0  -2   7 59.5551 5.10516   1
   0   2  -7 53.9343 6.28225   2
   0  -2   6 163.511 7.02661   1
   0   2  -6 175.712 9.34913   2
   0  -2   6 174.415 7.28051   1
   0  -2   5 98.1231 6.54196   2
   0  -2   5 99.2805 5.12936   1
   0  -2   5 97.3910 4.97865   1
   0   2  -5 108.129 6.99010   2
   0  -2   4 51.2277 4.65637   2
   0  -2   4 48.5147 3.34915   1
   0   2  -4 52.2967 4.77684   2
   0  -2   4 46.3323 3.47627   1
   0  -2   3 112.451 4.48255   1
   0   2  -3 110.408 4.46245   1
   0   2  -3 114.308 5.98455   2
   0  -2   3 114.269 5.98355   2
   0  -2   2 2870.74 21.8905   1
   0   2  -2 2859.50 21.8429   1
   0  -2   2 2951.31 26.5843   2
   0   2  -2 2891.60 26.3808   2
   0  -2   1 14.9472 2.78877   2
   0   2  -1 12.9008 2.34759   1
   0   2  -1 13.3238 2.59026   2
   0  -2   1 12.3226 2.36989   1
   0  -2   0 20.3468 3.06329   1
   0  -2   0 17.3398 2.93588   2
   0   2   0 20.7528 3.02966   2
   0   2   0 16.6942 2.89343   1
   0   2   1 193.903 7.93061   1
   0   2   1 204.808 7.87875   2
   0  -2  -1 189.112 8.05011   1
   0  -2  -1 193.470 7.59687   2
   0  -2  -2 85.2518 6.19282   1
   0   2   2 80.9956 5.71499   2
   0   2   2 80.7430 6.07118   1
   0  -2  -2 84.4817 5.75414   2
   0   2   3 418.093 13.7188   1
   0  -2  -3 425.528 12.9957   2
   0  -2  -3 406.871 13.6698   1
   0   2   4 1182.78 24.6253   1
   0  -2  -4 1130.96 24.1362   1
   0  -2  -4 1176.40 23.0110   2
   0   2   5-0.71336 3.85638   1
   0  -2  -5-1.44688 3.45150   2
   0  -2  -5 0.94386 3.90985   1
   0  -2  -6 109.176 9.68429   1
   0  -2  -6 137.609 9.87837   2
   0   2   6 140.896 10.5123   1
   0  -2  -7 3.84657 5.08991   1
   0   2   7 3.86242 5.18760   1
   0  -2  -7 4.31911 4.79298   2
   0  -2  -8 52.9629 8.32148   2
   0  -2  -8 48.9784 8.60072   1
   0   2   8 51.2641 8.53162   1
   0  -2  -9 49.0348 9.87852   1
   0   2   9 61.1905 9.82471   1
   0  -2  -9 60.7844 9.65813   2
   0  -2 -10 95.4843 12.0877   2
   0   2  10 110.082 12.5228   1
   0  -2 -10 72.3907 11.5879   1
   0  -2 -11 52.5339 11.5988   1
   0  -2 -11 70.1861 12.1551   2
   0   2  11 54.0605 11.5329   1
   0  -2 -12 40.2475 14.0655   1
   0  -2 -12 37.7257 11.9271   2
   0   2  12 47.0953 12.3444   1
   0  -2 -13 7.93640 13.8764   1
   0   2  13 17.6391 13.3156   1
   0  -2 -13 30.8466 15.0322   2
   0  -2 -14 36.9848 18.2977   1
   0   2  14-16.3368 17.3796   1
   0  -2 -14 7.83256 16.4844   2
   0  -3  16 6.49038 11.1175   1
   0  -3  16 3.77469 11.8870   1
   0  -3  15 79.9173 12.1219   1
   0  -3  15 73.9908 12.3375   1
   0   3 -15 102.715 17.9824   2
   0  -3  14-3.76378 8.18993   1
   0   3 -14 16.2511 11.6281   2
   0  -3  14-0.63836 7.81671   1
   0  -3  13 128.068 10.8862   1
   0  -3  13 120.524 10.7726   1
   0   3 -13 137.982 15.2489   2
   0  -3  12 26.8864 6.67567   1
   0   3 -12 22.6410 8.89760   2
   0  -3  12 30.5947 6.83407   1
   0  -3  11 3.22836 4.78920   1
   0  -3  11-1.61104 4.44509   1
   0   3 -11 2.68598 6.97253   2
   0   3 -10 22.5950 6.83010   2
   0  -3  10 25.1256 5.14208   1
   0  -3  10 25.8959 5.17109   1
   0  -3   9 52.2254 5.68894   1
   0   3  -9 59.3353 8.00681   2
   0  -3   9 53.1798 5.70084   1
   0  -3   8 29.0431 4.21002   1
   0   3  -8 20.6696 5.74768   2
   0  -3   8 31.7929 4.35151   1
   0   3  -7 555.124 18.0460   2
   0  -3   7 544.140 13.0839   1
   0  -3   7 546.179 13.3247   1
   0   3  -6 14.8361 4.23591   2
   0  -3   6 14.1064 4.15084   2
   0  -3   6 11.5210 2.79891   1
   0  -3   6 15.1747 3.17207   1
   0  -3   5 88.9674 5.07299   1
   0   3  -5 93.3073 7.06287   2
   0   3  -5 91.2713 5.15873   1
   0  -3   5 92.9805 7.04276   2
   0   3  -4 160.687 6.50425   1
   0  -3   4 170.825 8.69775   2
   0  -3   4 171.847 6.67459   1
   0   3  -4 177.765 8.89823   2
   0  -3   3 292.389 10.6867   2
   0  -3   3 280.592 8.60400   1
   0   3  -3 292.634 10.6901   2
   0   3  -3 289.900 8.73675   1
   0  -3   2 0.02606 2.10964   1
   0   3  -2-0.61702 2.19756   1
   0   3  -2-1.65544 2.74443   2
   0  -3   2-2.75803 2.76721   2
   0  -3   1 57.9230 5.09522   2
   0   3  -1 61.1111 5.37218   2
   0  -3   1 59.4850 4.91853   1
   0   3  -1 61.8185 5.05748   1
   0   3   0 13.6043 3.28910   1
   0   3   0 14.1147 3.58025   2
   0  -3   0 14.9263 3.56189   2
   0  -3   0 19.3434 3.75099   1
   0  -3  -1 1295.96 24.1484   1
   0   3   1 1329.56 23.4146   2
   0   3   1 1317.87 23.6004   1
   0  -3  -1 1322.59 23.0958   2
   0  -3  -2 719.002 19.3005   1
   0   3   2 761.706 18.6580   2
   0   3   2 763.648 19.4355   1
   0  -3  -2 757.990 18.4381   2
   0   3   3 0.91363 3.55297   1
   0   3   3 10.0891 4.17032   2
   0  -3  -3 6.79973 4.35282   1
   0  -3  -3 2.21142 3.61312   2
   0  -3  -4 44.5678 6.27238   2
   0  -3  -4 46.4826 6.67170   1
   0   3   4 39.8210 6.16032   1
   0   3   5 36.4761 6.79547   1
   0  -3  -5 36.2021 6.84557   1
   0  -3  -5 36.1765 6.38002   2
   0   3   6 38.6002 7.71274   1
   0  -3  -6 42.0308 7.16141   2
   0  -3  -6 39.1527 7.81475   1
   0  -3  -7 64.8870 9.68709   1
   0   3   7 64.6041 9.44781   1
   0  -3  -7 68.7604 9.04060   2
   0   3   8 153.950 13.8200   1
   0  -3  -8 166.392 13.6137   2
   0  -3  -8 135.660 13.5508   1
   0  -3  -9-11.1119 8.13044   2
   0  -3  -9-7.30921 8.78262   1
   0   3   9-6.56960 8.68297   1
   0  -3 -10 22.8448 9.89702   2
   0   3  10 15.5481 9.27744   1
   0  -3 -10 19.2799 10.0489   1
   0  -3 -11 46.2067 12.0567   2
   0   3  11 61.7353 14.0140   1
   0  -3 -11 33.5420 12.6160   1
   0   3  12-3.27925 13.1349   1
   0  -3 -12-2.99036 12.0322   2
   0  -3 -12-5.67760 15.3640   1
   0  -3 -13 1.57617 16.2177   2
   0  -3 -13 19.6629 16.6035   1
   0   3  13 6.81967 16.5515   1
   0   4 -16-6.36827 16.7541   2
   0  -4  16-19.0342 10.4254   1
   0  -4  16 22.7053 10.5877   1
   0   4 -15 70.7919 16.8717   2
   0  -4  15 57.0313 10.2408   1
   0  -4  15 55.5609 10.2189   1
   0  -4  14 10.3975 7.15173   1
   0  -4  14 11.3342 6.69265   1
   0   4 -14-2.28731 11.7159   2
   0   4 -13-2.72827 9.83890   2
   0  -4  13 11.0233 6.55631   1
   0  -4  13-0.78423 5.87750   1
   0   4 -12 9.29387 8.82760   2
   0  -4  12 11.0411 5.55611   1
   0  -4  12 9.78169 5.29128   1
   0  -4  11 55.8239 6.60686   1
   0  -4  11 56.4363 6.54629   1
   0   4 -11 47.2350 9.44365   2
   0  -4  10 27.8121 5.17806   1
   0  -4  10 18.7914 4.63238   1
   0   4 -10 23.8484 7.32828   2
   0  -4   9 33.4521 4.81354   1
   0   4  -9 41.9934 7.66961   2
   0  -4   9 31.7429 4.74479   1
   0  -4   8 9.09787 3.21833   1
   0  -4   8 14.5005 5.61890   2
   0   4  -8 9.49026 5.07649   2
   0  -4   8 8.78557 3.39294   1
   0  -4   7 6.84334 2.98032   1
   0   4  -7 4.55571 4.53422   2
   0  -4   7 14.3848 5.15571   2
   0  -4   7 6.62861 3.38140   1
   0  -4   6 595.372 18.7864   2
   0  -4   6 586.482 13.9136   1
   0   4  -6 562.875 18.3210   2
   0   4  -6 558.386 13.6622   1
   0  -4   5 169.070 10.1473   2
   0  -4   5 157.983 7.57918   1
   0   4  -5 166.557 7.75130   1
   0   4  -5 155.489 9.76369   2
   0   4  -4 4.32885 2.85078   1
   0  -4   4 6.39792 3.88320   2
   0  -4   4 0.56177 2.60221   1
   0   4  -4 5.91660 3.78669   2
   0   4  -3 100.553 6.59737   1
   0  -4   3 97.1918 6.45283   1
   0  -4   3 105.594 7.79265   2
   0   4  -3 86.7201 7.15898   2
   0   4  -2 34.5877 5.15131   2
   0   4  -2 33.8097 4.59620   1
   0  -4   2 31.4126 5.10667   2
   0  -4   2 32.6044 4.58542   1
   0   4  -1 333.844 12.5399   1
   0  -4   1 353.491 13.4018   2
   0   4  -1 334.942 13.1117   2
   0  -4   1 331.654 12.6868   1
   0   4   0 16.4406 4.34865   1
   0  -4   0 21.6182 4.89692   1
   0  -4   0 28.0984 5.05546   2
   0   4   0 19.9012 4.45638   2
   0   4   1 429.736 15.7160   1
   0  -4  -1 449.917 15.8144   2
   0  -4  -1 430.466 16.2585   1
   0   4   1 453.806 16.1040   2
   0  -4  -2 91.2389 8.10104   2
   0   4   2 78.8959 7.69630   2
   0  -4  -2 82.1708 8.44268   1
   0   4   2 81.4341 7.93136   1
   0   4   3 203.953 12.2145   2
   0   4   3 201.194 12.3555   1
   0  -4  -3 214.157 13.1336   1
   0  -4  -3 218.479 12.2896   2
   0   4   4 221.807 13.6282   1
   0  -4  -4 232.426 13.3874   2
   0  -4  -4 200.710 13.4459   1
   0   4   5 271.505 15.8902   1
   0  -4  -5 255.102 15.7907   1
   0  -4  -5 292.823 15.6085   2
   0   4   6 9.20941 6.52798   1
   0  -4  -6 0.13746 6.94836   1
   0  -4  -6 6.32607 6.39120   2
   0   4   7 133.944 13.5782   1
   0  -4  -7 147.130 13.2199   2
   0  -4  -7 127.450 14.1438   1
   0  -4  -8 15.1525 8.49673   2
   0  -4  -8 2.69274 8.08495   1
   0   4   8 23.2413 8.72971   1
   0  -4  -9 6.93159 10.1561   1
   0   4   9 0.05669 8.70914   1
   0  -4  -9 3.54126 9.12977   2
   0  -4 -10 2.92577 11.2178   1
   0   4  10-15.3406 10.3769   1
   0  -4 -10 6.61951 10.8416   2
   0  -4 -11-15.8028 13.2067   1
   0  -4 -11 19.0346 13.4606   2
   0   4  11-2.47769 13.2801   1
   0  -4 -12 0.55762 15.7273   2
   0  -4 -12 19.4653 17.2793   1
   0   4  12 11.8918 15.2915   1
   0   4  13 47.4161 13.8708   1
   0  -4 -13 53.5236 14.3341   2
   0  -4 -13 49.0111 14.5154   1
   0  -5  16 8.98688 7.79075   1
   0   5 -16 25.3668 18.5902   2
   0  -5  16 7.89038 7.96837   1
   0   5 -15 15.4343 14.3553   2
   0  -5  15-0.55215 7.01319   1
   0  -5  15 6.14525 7.14055   1
   0   5 -14 29.2012 11.9313   2
   0  -5  14 9.26764 6.33109   1
   0  -5  14 9.33814 6.26919   1
   0  -5  13 1.83761 5.78788   1
   0  -5  13-4.34602 5.47512   1
   0   5 -13 12.3001 10.7815   2
   0  -5  12 54.9258 6.81421   1
   0   5 -12 48.6835 11.1224   2
   0  -5  12 44.0309 6.44956   1
   0  -5  11 0.02158 4.44368   1
   0   5 -11 7.39646 7.14691   2
   0  -5  11 2.50349 4.21377   1
   0  -5  10 2.55856 4.08121   1
   0  -5  10-0.20753 3.95368   1
   0   5 -10 1.73902 6.45535   2
   0  -5   9 61.6700 6.39678   1
   0   5  -9 64.7163 9.08896   2
   0  -5   9 65.1961 6.27014   1
   0  -5   9 67.3310 9.41338   2
   0  -5   8 324.912 11.8392   1
   0  -5   8 330.319 16.6259   2
   0  -5   8 315.849 12.2959   1
   0   5  -8 319.531 16.4725   2
   0   5  -7 91.2926 9.35450   2
   0  -5   7 92.8551 9.52090   2
   0  -5   7 89.6714 6.77966   1
   0   5  -7 93.7609 6.94859   1
   0  -5   6 93.7121 6.89812   1
   0  -5   6 106.289 9.60179   2
   0   5  -6 93.0294 9.02835   2
   0   5  -6 96.5478 7.03432   1
   0   5  -5 0.72717 3.88194   2
   0  -5   5 15.2630 3.98453   1
   0   5  -5 9.50301 3.73906   1
   0  -5   5 5.24410 4.39516   2
   0   5  -4 213.360 10.3503   1
   0   5  -4 208.682 11.9322   2
   0  -5   4 213.059 12.1008   2
   0  -5   4 213.139 10.2987   1
   0  -5   3 56.9556 7.05177   2
   0   5  -3 52.5025 6.90042   2
   0   5  -3 50.8657 5.96442   1
   0  -5   3 51.9636 6.00723   1
   0  -5   2 37.2009 6.15524   2
   0  -5   2 30.6397 5.42225   1
   0   5  -2 35.0628 6.04544   2
   0   5  -2 31.4104 5.45658   1
   0  -5   1 98.2521 8.67539   2
   0   5  -1 85.0279 8.28907   2
   0  -5   1 85.7879 8.19696   1
   0   5  -1 99.1460 8.44231   1
   0  -5   0 701.590 21.4188   2
   0   5   0 770.093 22.3703   1
   0   5   0 739.250 22.3892   2
   0   5   1 327.522 15.4784   1
   0  -5  -1 356.738 16.0967   2
   0  -5  -1 342.006 16.4589   1
   0   5   1 321.592 15.5429   2
   0  -5  -2 17.5080 5.76128   2
   0   5   2 18.4632 5.92443   1
   0   5   2 25.5351 6.42091   2
   0  -5  -2 28.4971 7.01383   1
   0  -5  -3 1.65754 5.92281   1
   0   5   3 0.89136 5.36363   2
   0   5   3 2.66341 5.40900   1
   0  -5  -3 13.2062 5.73562   2
   0  -5  -4 11.8520 6.95716   1
   0   5   4 6.02393 6.06811   1
   0  -5  -4 14.1316 6.07648   2
   0  -5  -5 436.825 22.4103   1
   0  -5  -5 512.118 22.2989   2
   0   5   5 473.904 22.5557   1
   0  -5  -6 87.8462 11.3439   2
   0  -5  -6 68.6782 11.9058   1
   0   5   6 79.4211 12.1154   1
   0  -5  -7 8.71461 8.21938   2
   0   5   7 11.3226 9.63980   1
   0  -5  -7 21.2015 9.96124   1
   0  -5  -8 90.8630 13.0912   2
   0  -5  -8 64.1283 13.7603   1
   0   5   8 65.7648 12.6397   1
   0  -5  -9 51.4707 13.5146   2
   0  -5  -9 40.8908 14.8801   1
   0   5   9 50.6854 13.4603   1
   0  -5 -10 26.5415 14.4332   2
   0   5  10 17.1113 14.3153   1
   0  -5 -10 4.86010 14.2393   1
   0   5  11-11.6761 16.7882   1
   0  -5 -11 26.4054 14.9137   2
   0  -5 -11 10.1701 17.9945   1
   0  -5 -12 100.404 19.0733   1
   0   5  12 67.6723 16.4019   1
   0  -5 -12 130.845 18.6792   2
   0  -6  16 3.31709 5.24902   1
   0   6 -16-12.1416 18.0535   2
   0  -6  16-4.94708 4.97596   1
   0  -6  15 5.10533 5.62225   1
   0  -6  15 9.08928 6.02505   1
   0  -6  14 16.5381 5.85842   1
   0   6 -14 5.48631 12.9887   2
   0  -6  14 11.1845 5.59806   1
   0  -6  13 22.8140 5.92977   1
   0   6 -13 26.0133 12.5762   2
   0  -6  13 13.3842 5.71747   1
   0   6 -12 89.4251 13.7607   2
   0  -6  12 99.8057 8.46267   1
   0  -6  12 98.4186 8.42001   1
   0  -6  11 98.4629 8.28179   1
   0  -6  11 108.184 8.52814   1
   0   6 -11 98.1319 13.3157   2
   0  -6  10 1.67952 4.39439   1
   0  -6  10-2.70834 7.31827   2
   0  -6  10-2.53247 4.60891   1
   0  -6   9 156.587 9.41379   1
   0  -6   9 155.030 9.92744   1
   0  -6   9 163.676 13.8540   2
   0   6  -9 154.682 13.3501   2
   0  -6   8 41.3370 5.93934   1
   0   6  -8 42.6227 8.31874   2
   0   6  -8 34.8158 5.68701   1
   0  -6   8 45.9360 8.73271   2
   0   6  -7 192.100 10.6077   1
   0  -6   7 208.138 14.1858   2
   0   6  -7 202.907 14.1969   2
   0  -6   7 193.023 10.5058   1
   0   6  -6 0.24792 3.91150   1
   0  -6   6-0.79836 5.50060   2
   0   6  -6 6.45210 5.91509   2
   0  -6   6-0.49015 3.73230   1
   0  -6   5 198.194 13.3901   2
   0   6  -5 173.183 10.4966   1
   0   6  -5 194.695 13.3829   2
   0  -6   5 185.849 10.8403   1
   0   6  -4 3.18541 5.00228   2
   0  -6   4 3.17326 4.52612   1
   0  -6   4-5.23875 5.28839   2
   0   6  -4 5.33695 4.33908   1
   0   6  -3 66.7126 8.69288   2
   0  -6   3 63.6302 7.74930   1
   0   6  -3 67.9303 7.62729   1
   0  -6   3 75.4919 8.96074   2
   0   6  -2 76.0197 8.23333   1
   0  -6   2 80.8156 8.86528   1
   0  -6   2 90.7858 9.59252   2
   0   6  -2 82.2514 9.31086   2
   0  -6   1 313.369 16.3187   1
   0   6  -1 319.243 15.7848   1
   0   6  -1 333.000 16.6734   2
   0  -6   1 329.471 16.6591   2
   0   6   0 64.6628 8.64457   1
   0  -6   0 77.3332 9.43532   2
   0   6   0 74.7873 9.55972   2
   0  -6   0 54.8821 8.28311   1
   0   6   1 30.2382 7.30741   1
   0   6   1 15.8451 6.95117   2
   0  -6  -1 24.8997 6.93685   2
   0  -6  -1 11.1522 6.73052   1
   0   6   2 4.98921 6.73771   2
   0  -6  -2-4.24785 6.54310   1
   0  -6  -2 6.02496 6.19370   2
   0   6   2-7.10205 6.18867   1
   0   6   3 62.3857 10.1904   2
   0  -6  -3 77.9287 10.3411   2
   0  -6  -3 66.3702 11.2881   1
   0   6   3 80.9724 10.9942   1
   0   6   4 69.4889 10.9815   1
   0  -6  -4 74.9300 12.0786   1
   0  -6  -4 68.6091 11.0281   2
   0  -6  -5 88.3780 12.0996   2
   0   6   5 79.4568 12.2210   1
   0  -6  -5 83.7852 13.0652   1
   0  -6  -6 42.0970 11.2880   2
   0   6   6 33.8153 11.7657   1
   0  -6  -6 17.9357 11.1192   1
   0   6   7 102.502 15.3124   1
   0  -6  -7 133.120 16.4856   2
   0  -6  -7 120.153 16.9371   1
   0  -6  -8 43.2792 12.3538   2
   0   6   8 10.9875 11.8268   1
   0  -6  -8 18.0280 13.5541   1
   0  -6  -9 13.3897 16.9856   1
   0  -6  -9 11.3066 14.5513   2
   0   6   9 28.2918 15.4868   1
   0   6  10-0.07956 16.9989   1
   0  -6 -10-22.7663 19.7551   1
   0  -6 -10-4.43515 16.7910   2
   0  -7  15 6.08287 4.49004   1
   0  -7  15 8.52430 4.46890   1
   0   7 -14 15.1288 14.4445   2
   0  -7  14 7.46804 5.47668   1
   0  -7  14 4.97028 5.73031   1
   0  -7  13 21.8535 6.36599   1
   0  -7  13 32.0554 6.49720   1
   0   7 -13 19.5066 12.4388   2
   0  -7  12 13.7370 5.99075   1
   0   7 -12 8.97474 10.6056   2
   0  -7  12 24.1471 6.45863   1
   0  -7  11 84.0027 8.80050   1
   0   7 -11 87.1493 13.2897   2
   0  -7  11 91.5193 13.5247   2
   0  -7  11 80.4648 8.16631   1
   0  -7  10 654.722 27.7779   2
   0  -7  10 600.724 18.5827   1
   0  -7  10 575.199 19.2914   1
   0   7 -10 607.973 27.3591   2
   0   7  -9 42.7003 9.59945   2
   0  -7   9 27.7986 6.05895   1
   0  -7   9 30.5934 9.44937   2
   0   7  -9 26.3618 6.51999   1
   0  -7   8 5.00470 7.54116   2
   0   7  -8 2.64873 4.96827   1
   0  -7   8 8.53874 5.24691   1
   0   7  -8 12.8170 8.06255   2
   0  -7   7 8.91761 7.31437   2
   0   7  -7-5.18586 7.38245   2
   0  -7   7 7.98509 5.36898   1
   0   7  -7 4.55084 5.35535   1
   0  -7   6 23.6791 6.54146   1
   0   7  -6 10.5751 5.52764   1
   0   7  -6 15.7726 7.69781   2
   0  -7   6 16.7990 7.60224   2
   0  -7   5 115.639 11.7433   2
   0  -7   5 104.856 9.91709   1
   0   7  -5 112.578 10.0203   1
   0   7  -5 108.935 11.5167   2
   0  -7   4 55.5898 9.32187   2
   0  -7   4 55.4446 8.43716   1
   0   7  -4 57.5550 9.65303   2
   0   7  -4 66.3316 8.70051   1
   0  -7   3-6.08532 6.50399   2
   0  -7   3-4.59370 6.02167   1
   0   7  -3 2.15673 5.40195   1
   0   7  -3 6.17082 6.41456   2
   0   7  -2 63.5980 9.12740   1
   0   7  -2 66.0393 9.67090   2
   0  -7   2 64.0643 9.59911   2
   0  -7   2 55.4593 9.25673   1
   0   7  -1-2.62483 6.17415   1
   0  -7   1 2.13228 6.70561   2
   0   7  -1-0.26984 6.75931   2
   0  -7   1-6.19977 6.46000   1
   0   7   0 9.85071 6.78633   1
   0  -7   0 4.61013 6.70941   2
   0   7   0 7.37732 7.15923   2
   0  -7   0 5.75367 6.97850   1
   0   7   1 12.6702 7.75659   2
   0  -7  -1 15.1257 7.64970   1
   0   7   1 17.3068 8.07541   1
   0  -7  -1 7.67187 7.30113   2
   0  -7  -2 9.27035 7.91848   2
   0  -7  -2 5.06840 8.32241   1
   0   7   2 9.28282 8.31530   2
   0   7   2 0.91461 8.02666   1
   0   7   3 58.2083 11.1029   1
   0   7   3 43.5081 10.1295   2
   0  -7  -3 40.2603 10.8679   1
   0  -7  -3 40.5797 10.4078   2
   0  -7  -4 19.5025 10.0475   2
   0  -7  -4-6.78561 9.41822   1
   0   7   4 0.98799 8.92113   1
   0  -7  -5 23.9231 12.2265   1
   0   7   5 19.0772 11.5304   1
   0  -7  -5 32.5244 11.5176   2
   0   7   6-8.08450 11.7660   1
   0  -7  -6 20.5526 14.5091   1
   0  -7  -6 30.1175 12.0309   2
   0  -7  -7 43.2170 16.9451   1
   0   7   7 27.4333 14.6298   1
   0  -7  -7 26.9136 12.4017   2
   0  -7  -8 31.4957 18.8137   1
   0   7   8 4.61153 16.2479   1
   0  -7  -8-2.70722 15.0250   2
   0  -7  -9 34.2930 22.2929   1
   0  -7  -9 16.2982 18.0306   2
   0   7   9 35.4638 20.0917   1
   0   8 -15 1.70264 17.4897   2
   0  -8  15 2.91928 2.81366   1
   0  -8  14 50.9202 6.64138   1
   0  -8  14 56.1903 6.89437   1
   0   8 -14 50.3636 16.8582   2
   0   8 -13 152.900 20.5868   2
   0  -8  13 143.843 10.7380   1
   0  -8  13 138.841 10.2289   1
   0  -8  12 29.1447 7.72434   1
   0   8 -12 44.0630 14.1033   2
   0  -8  12 43.0397 13.4989   2
   0  -8  12 25.8076 7.43494   1
   0   8 -11-14.3377 10.2433   2
   0  -8  11-3.32450 6.87804   1
   0  -8  11 3.09556 6.36873   1
   0  -8  11 11.4265 11.7469   2
   0  -8  10 52.6315 12.4939   2
   0  -8  10 40.2212 7.68939   1
   0   8 -10 51.5134 12.4030   2
   0   8 -10 39.6547 8.31840   1
   0   8  -9 44.2226 12.0083   2
   0  -8   9 60.0750 9.00181   1
   0   8  -9 52.7643 8.67586   1
   0  -8   9 80.4840 13.6775   2
   0   8  -8 2.48660 6.22514   1
   0  -8   8-0.92283 8.80674   2
   0  -8   8-4.76042 7.11617   1
   0   8  -7 22.7935 7.54571   1
   0  -8   7 38.9539 8.15420   1
   0   8  -7 30.4261 9.82801   2
   0  -8   7 27.3825 10.0188   2
   0   8  -6-4.47013 6.23750   1
   0   8  -6-4.10094 8.12199   2
   0  -8   6 4.06961 6.73594   1
   0  -8   6-10.2284 7.82407   2
   0   8  -5 117.367 13.8324   2
   0  -8   5 126.496 13.8469   2
   0  -8   5 113.183 12.0372   1
   0   8  -5 121.059 11.9274   1
   0  -8   4 6.61222 6.92553   1
   0  -8   4 1.05316 7.91212   2
   0   8  -4 13.7335 7.27886   1
   0   8  -4 22.1519 9.33067   2
   0   8  -3 281.381 18.9779   2
   0  -8   3 245.662 17.1217   1
   0   8  -3 309.172 18.1632   1
   0  -8   3 312.965 19.5392   2
   0   8  -2 76.8045 11.0579   1
   0  -8   2 82.8797 12.4373   2
   0  -8   2 73.6723 11.1485   1
   0   8  -2 81.1430 12.1314   2
   0  -8   1 2.57774 7.64774   1
   0  -8   1 11.4269 8.68436   2
   0   8  -1-5.74419 8.44042   2
   0   8  -1 3.29310 7.99857   1
   0  -8   0 31.4890 10.4701   1
   0  -8   0 44.8211 10.5589   2
   0   8   0 44.2271 11.3735   2
   0   8   0 30.0955 9.73064   1
   0   8   1 20.4649 10.5100   1
   0  -8  -1 6.06377 9.45278   2
   0   8   1 21.8834 11.0463   2
   0  -8  -1 14.0685 10.4475   1
   0  -8  -2 9.99284 10.9543   1
   0   8   2 8.41583 10.2274   2
   0   8   2 28.3206 10.7587   1
   0  -8  -2 9.08506 9.41742   2
   0   8   3-4.77507 10.7375   2
   0  -8  -3-2.04995 11.8547   1
   0   8   3-8.06878 12.1805   1
   0  -8  -3-8.15424 11.8410   2
   0  -8  -4 8.17483 12.4375   1
   0   8   4-21.5736 12.6812   1
   0  -8  -4 8.10410 12.6088   2
   0  -8  -5-11.9806 14.9174   1
   0   8   5-14.6086 13.5566   1
   0  -8  -6 11.0162 17.4423   1
   0  -8  -6 30.6771 15.6393   2
   0   8   6-26.6391 16.5952   1
   0   8   7-33.0835 18.5151   1
   0  -8  -7 20.9253 16.5880   2
   0  -8  -8-25.2499 20.0483   1
   0  -9  14 12.2636 6.73218   1
   0  -9  14-4.53871 6.22008   1
   0   9 -14-2.60354 18.9485   2
   0   9 -13 12.3201 18.1903   2
   0  -9  13 5.89354 8.07447   1
   0  -9  13 0.88368 7.74875   1
   0  -9  13 15.0877 16.5393   2
   0  -9  12 5.38803 8.59851   1
   0   9 -12-16.5665 13.5020   2
   0  -9  12 17.9552 9.58206   1
   0  -9  12 3.39345 15.4796   2
   0   9 -11 1.99184 14.0158   2
   0  -9  11-19.3116 14.9581   2
   0  -9  11 18.3463 8.33679   1
   0   9 -10 33.0762 9.57439   1
   0  -9  10 37.7671 9.73725   1
   0  -9  10 39.4370 14.0718   2
   0   9 -10 37.5591 13.5390   2
   0   9  -9-1.53934 11.8506   2
   0   9  -9 3.55852 7.96045   1
   0  -9   9-16.7776 11.6977   2
   0  -9   9 14.8606 8.98413   1
   0  -9   8 9.29523 11.3123   2
   0  -9   8-2.39627 8.72431   1
   0   9  -8 3.31472 10.7782   2
   0   9  -8 7.47252 8.03600   1
   0   9  -7 75.8513 14.0517   2
   0  -9   7 52.6806 10.5800   1
   0   9  -7 85.5065 11.6635   1
   0  -9   7 69.3243 13.6915   2
   0  -9   6 183.628 15.5648   1
   0   9  -6 206.628 15.9819   1
   0   9  -6 193.949 18.9092   2
   0  -9   6 215.144 19.4568   2
   0  -9   5 7.05069 8.18739   1
   0   9  -5 2.22224 7.74840   1
   0  -9   5-3.39643 8.96492   2
   0   9  -5 7.32393 10.6539   2
   0   9  -4 52.4512 10.9529   1
   0  -9   4 44.5851 11.8253   2
   0  -9   4 50.1135 10.8863   1
   0   9  -4 34.7825 11.7198   2
   0   9  -3 27.2073 10.0526   1
   0  -9   3 40.2904 11.2604   2
   0   9  -3 6.05403 10.2412   2
   0  -9   3 17.4006 10.2536   1
   0   9  -2 96.0735 13.5585   1
   0   9  -2 97.8753 16.0366   2
   0  -9   2 117.290 15.4608   1
   0  -9   2 128.196 15.7855   2
   0   9  -1-2.16435 9.78242   1
   0  -9   1-6.61007 10.6072   2
   0   9  -1-3.87584 10.2398   2
   0  -9   1-1.30143 10.1138   1
   0   9   0 14.4437 10.9184   1
   0  -9   0 10.9283 11.4375   1
   0  -9   0-4.20902 12.0013   2
   0   9   0 7.27035 11.2320   2
   0  -9  -1 5.63641 11.1234   2
   0   9   1-12.2977 11.5269   2
   0   9   1-7.16783 11.6827   1
   0  -9  -1-1.54077 12.0594   1
   0   9   2 21.7604 13.6630   2
   0  -9  -2 10.9270 13.6788   1
   0   9   2 7.38800 12.3341   1
   0  -9  -2 9.43316 12.6761   2
   0  -9  -3 27.6044 15.7157   2
   0   9   3-16.9350 14.9781   1
   0   9   3 0.43924 14.8591   2
   0  -9  -3 1.89586 14.4165   1
   0  -9  -4 18.5401 15.2392   2
   0   9   4 12.2526 16.3910   1
   0  -9  -4 25.9874 17.4338   1
   0  -9  -5-0.31127 17.8910   2
   0   9   5 9.43710 17.4098   1
   0  -9  -5 36.3664 20.3531   1
   0  -9  -6 28.8422 18.9528   2
   0   9   6 68.4827 23.2473   1
   0  -9  -6 20.9349 22.9742   1
   0  10 -13 52.9567 15.5957   2
   0 -10  13 22.1080 14.6292   2
   0 -10  12 4.30476 11.4035   1
   0  10 -12-1.67728 19.1466   2
   0 -10  12-11.1513 10.8950   1
   0  10 -11 33.6899 11.8420   1
   0 -10  11 18.9277 10.3616   1
   0 -10  11 9.34664 16.2279   2
   0  10 -11 42.3309 17.3202   2
   0 -10  10 31.5166 17.2591   2
   0  10 -10 4.64815 16.4925   2
   0 -10  10-5.83798 10.1084   1
   0 -10   9 55.2396 16.7108   2
   0  10  -9 38.4257 15.5766   2
   0  10  -9 28.1343 10.6313   1
   0 -10   9 32.5182 12.2398   1
   0  10  -8-10.2126 14.6269   2
   0  10  -8 18.3637 10.7115   1
   0 -10   8 34.7738 14.8307   2
   0 -10   8 2.21462 10.7308   1
   0 -10   7 9.54618 13.9382   2
   0  10  -7 22.9668 14.5026   2
   0 -10   7 24.9637 11.0488   1
   0  10  -7 44.6151 12.1523   1
   0  10  -6 23.1439 10.7400   1
   0 -10   6 5.80959 10.5654   1
   0 -10   6 7.63457 13.5839   2
   0  10  -6 6.62674 12.9515   2
   0  10  -5 2.78755 10.4979   1
   0  10  -5 1.10888 11.9485   2
   0 -10   5 11.5334 11.4636   1
   0 -10   5 7.08995 13.4134   2
   0 -10   4 138.500 17.6539   1
   0  10  -4 133.167 19.3549   2
   0  10  -4 165.199 18.4960   1
   0 -10   4 181.351 20.1727   2
   0  10  -3 17.8787 12.6353   1
   0  10  -3 6.74751 12.5942   2
   0 -10   3 37.0246 12.6816   1
   0 -10   3 37.6996 14.2695   2
   0 -10   2 32.0674 13.7238   2
   0 -10   2 13.9309 13.0057   1
   0  10  -2 64.7177 14.8955   1
   0  10  -2 32.9883 14.7522   2
   0 -10   1 42.0759 15.4081   1
   0 -10   1 44.3172 14.2946   2
   0  10  -1 9.43774 13.5599   2
   0  10   0 18.8025 14.6453   2
   0 -10   0 17.2606 14.7345   2
   0 -10   0 3.67758 15.0207   1
   0  10   0 23.2835 15.4181   1
   0  10   1 50.6640 17.7528   1
   0 -10  -1 48.7803 17.7121   2
   0 -10  -1 34.6329 17.5976   1
   0  10   1 88.3613 19.4919   2
   0 -10  -2 5.39102 17.3946   1
   0 -10  -2 27.0821 15.3134   2
   0  10   2-13.2323 17.7964   2
   0  10   2 23.5730 17.6045   1
   0 -10  -3-17.7723 17.6864   2
   0  10   3-9.84822 19.5229   1
   0 -10  -3 17.6906 21.3313   1
   0  11 -11 85.1667 17.5543   2
   0  11 -11 51.0763 10.8482   1
   0 -11  11 71.8342 11.6456   1
   0 -11  11 78.0036 17.0483   2
   0 -11  10-2.34393 14.1733   1
   0  11 -10 26.7078 14.5151   1
   0 -11  10 16.7599 20.3595   2
   0  11 -10-27.0056 20.0787   2
   0  11  -9 34.1617 19.1452   2
   0 -11   9 52.9042 18.7566   2
   0  11  -9 20.0544 12.9620   1
   0 -11   9 23.7274 14.1393   1
   0  11  -8 48.9081 15.6720   1
   0 -11   8 45.5200 19.4433   2
   0 -11   8 44.5748 14.0475   1
   0  11  -8 61.1767 18.4026   2
   0 -11   7-7.53614 17.3555   2
   0  11  -7 0.32199 16.6706   2
   0 -11   7-8.95674 13.8086   1
   0  11  -7 13.1771 14.4332   1
   0 -11   6 5.43018 16.9930   2
   0  11  -6 30.9511 15.0154   1
   0 -11   6 15.1325 14.8987   1
   0  11  -5 78.8593 16.5372   1
   0 -11   5 51.2585 19.7015   2
   0 -11   5 49.7540 17.4739   1
   0  11  -5 49.7821 17.9854   2
   0 -11   4 47.6345 17.5049   2
   0  11  -4 12.9937 14.2562   1
   0  11  -4 9.19717 17.4343   2
   0 -11   3-9.93447 15.7355   2
   0 -11   3 61.3818 17.5700   1
   0  11  -3 26.7565 15.6043   1
   0  11  -3-29.5332 16.6984   2
   0 -11   2 113.313 20.6420   2
   0  11  -2 85.0875 22.5381   2
   0  11  -2 53.6642 16.8728   1
   0 -11   2 45.3390 18.8461   1
   0 -11   1-29.8518 20.8534   2
   0 -11   1-2.84202 19.4051   1
   0  11  -1 31.9506 17.9573   1
   0  11  -1-17.6849 19.7892   2
   0 -11   0 56.2680 22.6592   2
   0 -11   0-1.67147 20.3199   1
   0  11   0 21.3580 18.8580   2
   0  11   0 10.1290 19.9468   1
   0  11   1 10.2817 18.2672   2
   0  11   1-2.88883 16.6157   1
   0 -11  -1 7.14014 18.9993   1
   1 -11  -1 58.5540 20.8264   2
   1 -11  -1 0.09070 20.6101   1
  -1  11   1 28.2026 20.2286   1
  -1  11   1 25.2033 19.4239   2
   1 -11   0-10.0537 19.2409   2
   1 -11   0 8.65666 18.1317   1
  -1  11   0 33.7601 20.0499   2
  -1  11   0 8.07476 18.5663   1
  -1  11  -1 43.2268 18.3272   2
   1 -11   1 5.44496 16.7191   2
   1 -11   1 74.3106 20.6010   1
  -1  11  -1 60.8985 17.6603   1
   1 -11   2 4.24768 16.1012   1
   1 -11   2 3.26811 18.1693   2
  -1  11  -2 19.9041 17.6023   2
  -1  11  -2-7.49160 15.9061   1
  -1  11  -3-6.21798 17.0813   2
   1 -11   3 16.4550 17.8762   2
   1 -11   3 44.8307 16.1061   1
  -1  11  -3 26.5969 13.5584   1
   1 -11   4 18.6145 14.4651   1
   1 -11   4 1.52262 17.9329   2
  -1  11  -4 10.1181 16.7116   2
  -1  11  -5 2.35212 13.1352   1
  -1  11  -5 21.5751 17.7324   2
   1 -11   5 49.6405 20.1574   2
   1 -11   5 22.7830 14.6485   1
   1 -11   6-0.33902 12.9573   1
  -1  11  -6 11.0646 13.3686   1
  -1  11  -6 27.3493 17.1320   2
   1 -11   6 17.8172 17.2751   2
  -1  11  -7-16.7483 12.7465   1
   1 -11   7-5.18446 12.4629   1
   1 -11   7-25.7127 18.3668   2
  -1  11  -8 4.11073 19.5588   2
   1 -11   8-20.3227 19.0502   2
  -1  11  -8-19.4622 11.7762   1
   1 -11   8 21.2099 12.0414   1
  -1  11  -9-8.67656 18.1809   2
  -1  11  -9-17.1886 12.6602   1
   1 -11   9 5.82551 12.2433   1
   1 -11   9 25.2337 19.2570   2
  -1  11 -10-1.12891 10.7340   1
   1 -11  10 2.24029 11.1766   1
   1 -11  10-5.48867 19.9831   2
  -1  11 -10-11.1235 19.7936   2
   1 -10  -4 30.8790 21.1042   1
   1 -10  -4 10.3645 19.0075   2
  -1  10   4-25.5658 19.1604   1
  -1  10   3-6.41251 19.8743   1
   1 -10  -3-38.9768 22.3305   1
  -1  10   3-16.9536 19.2425   2
   1 -10  -2 62.7762 16.9176   2
  -1  10   2 108.767 20.6727   1
  -1  10   2 95.9245 21.2757   2
  -1  10   1 22.3442 16.4052   1
  -1  10   1 29.5120 16.3325   2
   1 -10  -1 40.8333 18.3856   1
  -1  10   0 64.1933 17.4316   2
   1 -10   0 56.8737 17.6592   2
   1 -10   0 20.9694 14.6787   1
  -1  10   0 29.3409 14.3460   1
   1 -10   1 70.6349 15.2416   1
   1 -10   1 42.0790 14.2023   2
  -1  10  -1 48.3567 15.2269   2
  -1  10  -1 26.1827 12.8756   1
   1 -10   2 8.40594 12.2621   1
   1 -10   2-8.57314 13.2701   2
  -1  10  -2 0.36583 11.9617   1
  -1  10  -2-1.99238 12.6817   2
   1 -10   3-1.16673 12.7364   2
   1 -10   3 2.74547 11.5272   1
  -1  10  -3 17.0736 12.8728   2
  -1  10  -3-9.96814 10.7818   1
   1 -10   4-7.06998 11.3893   1
  -1  10  -4 10.6503 10.3120   1
  -1  10  -4 6.52333 12.7315   2
   1 -10   4 14.2604 13.3045   2
   1 -10   5 24.1271 10.9806   1
  -1  10  -5 15.1861 14.8596   2
  -1  10  -5 48.9131 11.6315   1
  -1  10  -6-1.42731 9.49828   1
   1 -10   6 2.20482 12.5368   2
   1 -10   6-10.3673 10.5362   1
  -1  10  -6-16.1787 12.5332   2
   1 -10   7-9.42892 13.1874   2
  -1  10  -7 8.64055 12.9967   2
  -1  10  -7-2.15426 9.55787   1
   1 -10   7 6.97969 9.39835   1
  -1  10  -8 54.3083 10.7604   1
  -1  10  -8 50.7702 15.4040   2
   1 -10   8 40.8983 15.3806   2
   1 -10   8 43.8600 10.3072   1
  -1  10  -9 17.6898 9.14183   1
   1 -10   9 40.2855 16.7918   2
  -1  10  -9 14.4115 16.1035   2
   1 -10   9 6.34595 8.86975   1
   1 -10  10-6.45468 15.8362   2
  -1  10 -10-10.8344 7.72473   1
   1 -10  10 8.97840 8.21037   1
   1 -10  11 20.7368 5.74465   1
   1 -10  11 4.59892 6.27449   1
   1 -10  11 27.1599 17.1555   2
  -1  10 -11 19.9251 18.1434   2
   1 -10  12 15.3553 19.9403   2
  -1  10 -12 10.8108 18.8556   2
   1  -9  -6-18.0351 20.6810   1
   1  -9  -6 10.0515 16.8981   2
   1  -9  -5 29.1974 17.6985   1
   1  -9  -5 4.06436 16.1155   2
  -1   9   4 41.3282 17.1310   1
   1  -9  -4 95.6111 17.7128   2
   1  -9  -4 57.6963 19.1232   1
  -1   9   4 65.8781 18.8039   2
  -1   9   3 11.2774 13.2203   1
  -1   9   3 17.0762 13.7417   2
   1  -9  -3 4.67662 13.2944   2
   1  -9  -3-2.11259 14.5492   1
   1  -9  -2 17.1431 13.5161   1
   1  -9  -2 11.9679 11.3255   2
  -1   9   2-21.3918 12.7280   2
  -1   9   2 27.5565 12.7234   1
   1  -9  -1 17.1607 13.4127   1
   1  -9  -1 38.2936 13.7316   2
  -1   9   1 12.3660 12.0368   2
  -1   9   1 1.57586 11.7989   1
   1  -9   0-9.81026 12.4593   2
   1  -9   0 2.18660 10.4196   1
  -1   9   0 15.7761 11.6885   2
  -1   9   0-3.61372 11.0663   1
  -1   9  -1 74.7374 14.1485   2
   1  -9   1 79.2654 13.1847   1
   1  -9   1 107.082 15.0839   2
  -1   9  -1 83.1486 13.1021   1
  -1   9  -2 3.98143 8.61216   1
  -1   9  -2 23.5443 11.2725   2
   1  -9   2 4.99341 9.36934   1
   1  -9   2 20.2048 10.0808   2
   1  -9   3-9.12429 10.1008   2
  -1   9  -3 6.81881 7.94840   1
   1  -9   3 5.65868 8.31882   1
  -1   9  -3 1.14972 10.5507   2
   1  -9   4 39.7115 12.4892   2
   1  -9   4 42.0333 10.0744   1
  -1   9  -4 52.5745 12.7613   2
  -1   9  -4 33.3235 9.39330   1
  -1   9  -5 35.3080 9.44710   1
   1  -9   5 57.1572 13.7145   2
  -1   9  -5 54.7235 12.7068   2
   1  -9   5 36.8692 9.80292   1
  -1   9  -6 19.7427 11.2074   2
   1  -9   6 7.91431 10.9659   2
  -1   9  -6 14.1017 7.63403   1
   1  -9   6 0.75325 7.46618   1
   1  -9   7 6.81593 10.5349   2
  -1   9  -7-1.39874 11.8932   2
  -1   9  -7-8.50584 7.93097   1
   1  -9   7-1.00284 7.16924   1
   1  -9   8 115.934 16.7384   2
   1  -9   8 70.6311 9.56570   1
  -1   9  -8 89.7133 9.87258   1
  -1   9  -8 88.1026 15.5594   2
  -1   9  -9 41.9417 14.5794   2
  -1   9  -9 36.5256 8.03469   1
   1  -9   9 57.8336 15.6444   2
   1  -9   9 36.7907 7.87412   1
   1  -9  10 36.8716 6.32896   1
  -1   9 -10 61.8223 16.2873   2
   1  -9  10 57.0333 14.8944   2
   1  -9  11 26.8289 3.61964   1
  -1   9 -11 30.9420 15.4609   2
  -1   9 -12 76.2954 18.2888   2
   1  -9  12 61.6599 17.9327   2
  -1   9 -13 13.2123 18.2339   2
   1  -8  -8 26.2167 18.6980   2
  -1   8   8-1.77430 19.2638   1
   1  -8  -8-7.84921 20.7527   1
   1  -8  -7-27.8217 15.7624   2
  -1   8   7-4.61980 17.9386   1
   1  -8  -7 1.70815 19.7593   1
   1  -8  -6 107.068 17.4155   2
  -1   8   6 82.1061 18.7563   1
   1  -8  -6 82.9461 20.3978   1
   1  -8  -5 29.3260 14.5220   1
   1  -8  -5 60.3545 14.5298   2
  -1   8   5 23.2736 13.3436   1
  -1   8   4-5.51741 10.9117   1
   1  -8  -4-5.32603 12.6189   1
   1  -8  -4-10.5043 10.9998   2
  -1   8   4-15.8051 10.6761   2
  -1   8   3 31.8551 11.3277   1
  -1   8   3 50.8689 13.0408   2
   1  -8  -3 28.9995 11.1110   2
   1  -8  -3 21.2035 12.1276   1
  -1   8   2 4.36307 9.89530   2
  -1   8   2 14.3557 9.42606   1
   1  -8  -2-3.50364 9.21315   2
   1  -8  -2 4.11179 10.1884   1
   1  -8  -1 179.936 16.5863   2
  -1   8   1 141.075 15.1276   1
   1  -8  -1 188.900 17.5308   1
  -1   8   1 158.403 16.1149   2
  -1   8   0 9.44286 8.16366   1
   1  -8   0 4.60083 8.26771   2
  -1   8   0 1.45602 8.87834   2
   1  -8   0 1.69763 7.90521   1
   1  -8   1 53.4524 10.7565   2
  -1   8  -1 34.7412 10.2368   2
   1  -8   1 34.6038 9.34490   1
  -1   8  -1 26.5772 8.94686   1
   1  -8   2 92.8391 12.0943   1
   1  -8   2 102.223 12.9286   2
  -1   8  -2 90.1357 12.8814   2
  -1   8  -2 88.3820 11.3465   1
   1  -8   3 464.651 21.3058   1
  -1   8  -3 434.137 20.3152   1
  -1   8  -3 485.029 24.2995   2
  -1   8  -4 2.08214 7.94965   2
   1  -8   4-3.83050 6.33172   1
  -1   8  -4 6.02810 6.49696   1
   1  -8   4 13.1254 8.13286   2
   1  -8   5 12.9926 6.94820   1
  -1   8  -5 18.2702 9.75405   2
   1  -8   5 9.92015 9.10620   2
  -1   8  -5 15.4298 6.53577   1
   1  -8   6 226.442 13.6676   1
  -1   8  -6 248.296 18.6588   2
   1  -8   6 269.715 19.0546   2
  -1   8  -6 239.829 13.6119   1
   1  -8   7-8.01007 8.97879   2
   1  -8   7-1.78068 5.66774   1
  -1   8  -7-4.59995 5.58807   1
  -1   8  -7 14.9212 9.20128   2
  -1   8  -8 4.25446 5.20496   1
   1  -8   8-4.56530 9.23713   2
  -1   8  -8-1.21522 9.04551   2
   1  -8   8 2.41024 5.42009   1
   1  -8   9-0.11917 9.78554   2
  -1   8  -9 17.4172 10.6145   2
   1  -8   9 2.89512 4.55522   1
  -1   8  -9 0.99675 4.52934   1
  -1   8 -10 30.5317 12.5739   2
   1  -8  10 42.2089 13.4370   2
   1  -8  10 28.8626 4.05802   1
   1  -8  10 18.9773 4.10343   1
  -1   8 -11 25.4947 12.9737   2
   1  -8  11 33.1988 12.8096   2
  -1   8 -12-10.0362 12.5090   2
  -1   8 -13-20.9105 14.9542   2
  -1   8 -14 3.20956 18.7765   2
  -1   7   9 16.4017 18.8389   1
   1  -7  -9 26.6687 21.3780   1
   1  -7  -9 52.7328 17.6186   2
  -1   7   8 53.6899 18.8922   1
   1  -7  -8 61.1582 16.4997   2
   1  -7  -8 44.4435 18.5388   1
   1  -7  -7 77.3538 15.3109   2
   1  -7  -7 74.2545 16.9023   1
  -1   7   7 82.5783 16.7545   1
   1  -7  -6 46.8460 12.7991   2
  -1   7   6 40.3570 14.1434   1
   1  -7  -6 53.1836 15.6717   1
  -1   7   5 23.8677 11.0274   1
   1  -7  -5 23.7702 11.9965   1
   1  -7  -5 35.3510 10.6711   2
   1  -7  -4 2.81279 8.19985   2
   1  -7  -4-1.19596 9.44609   1
  -1   7   4-3.92112 8.91136   2
  -1   7   4 0.57822 9.61343   1
  -1   7   3 12.7060 8.68643   2
   1  -7  -3 10.3903 8.13522   2
  -1   7   3 8.58870 7.91659   1
   1  -7  -3 18.5614 9.68659   1
  -1   7   2 36.9138 9.52005   2
  -1   7   2 31.4881 9.19318   1
   1  -7  -2 41.9251 10.6764   1
   1  -7  -2 40.5537 9.67946   2
  -1   7   1 405.167 21.2237   2
  -1   7   1 391.779 20.2785   1
   1  -7  -1 380.577 20.7033   1
   1  -7  -1 415.085 20.9077   2
  -1   7   0 23.7455 7.78248   1
   1  -7   0 30.8433 7.95566   1
   1  -7   0 26.0678 8.01702   2
  -1   7   0 26.6883 8.31496   2
  -1   7  -1 68.4448 9.41169   1
   1  -7   1 79.2771 10.5287   2
   1  -7   1 74.3847 9.88806   1
  -1   7  -1 82.0199 10.5336   2
   1  -7   2-9.18240 6.28511   2
   1  -7   2 2.40959 5.45759   1
  -1   7  -2 5.21703 6.51669   2
  -1   7  -2-2.89529 5.28914   1
  -1   7  -3-1.83683 6.46642   2
   1  -7   3-5.41910 5.79497   1
  -1   7  -3-3.33375 5.20916   1
   1  -7   3-1.92599 6.14246   2
   1  -7   4 66.7404 9.98528   2
  -1   7  -4 60.1883 9.64926   2
   1  -7   4 58.9282 7.88531   1
  -1   7  -4 67.3837 8.03278   1
  -1   7  -5-0.42786 4.72681   1
  -1   7  -5-3.34987 6.49677   2
   1  -7   5 5.44710 6.97600   2
   1  -7   5 3.64164 4.70716   1
  -1   7  -6 166.023 10.0629   1
   1  -7   6 160.967 10.1383   1
   1  -7   6 178.046 14.9436   2
  -1   7  -6 169.042 14.5815   2
  -1   7  -7 17.1525 8.90203   2
   1  -7   7 21.0630 8.85363   2
   1  -7   7 7.23876 4.25720   1
  -1   7  -7 9.21560 4.20707   1
   1  -7   8 22.4288 4.65397   1
  -1   7  -8 31.7940 9.43493   2
   1  -7   8 30.2336 9.75846   2
  -1   7  -8 24.0677 4.74752   1
   1  -7   9 4.93637 2.87115   1
   1  -7   9 4.41469 3.03338   1
   1  -7   9 5.18424 8.78338   2
  -1   7  -9 0.27196 8.85567   2
   1  -7  10 324.477 21.5394   2
  -1   7 -10 312.765 21.9640   2
  -1   7 -11-7.22453 10.2043   2
  -1   7 -12 24.8646 13.4818   2
  -1   7 -13 17.4360 13.4991   2
  -1   7 -14 15.4998 16.7277   2
  -1   7 -15-9.62623 18.2152   2
   1  -6 -11-13.8368 17.0103   1
  -1   6  11-19.8666 18.5348   1
   1  -6 -10 16.8612 14.8789   2
  -1   6  10 15.5279 16.2379   1
   1  -6 -10 0.52925 18.7291   1
   1  -6  -9 100.049 16.7996   2
  -1   6   9 89.8573 17.4897   1
   1  -6  -9 76.2522 19.9956   1
  -1   6   8 53.9209 15.2239   1
   1  -6  -8 67.8060 13.0394   2
   1  -6  -8 38.1370 14.0382   1
   1  -6  -7 71.4345 15.3197   1
   1  -6  -7 83.9719 12.8783   2
  -1   6   7 70.9573 13.8204   1
  -1   6   6 6.72848 10.1555   1
   1  -6  -6 4.84902 8.57280   2
   1  -6  -6 6.00840 10.3315   1
   1  -6  -5 11.9756 9.26465   1
  -1   6   5-6.73480 9.15806   1
   1  -6  -5 6.29422 7.75431   2
   1  -6  -4 75.6049 11.6559   1
  -1   6   4 78.8913 10.8844   2
   1  -6  -4 93.2667 10.9338   2
  -1   6   4 74.0080 11.5372   1
  -1   6   3 10.7087 7.11500   1
   1  -6  -3 8.50811 7.79524   1
   1  -6  -3 13.1880 7.16700   2
  -1   6   3-2.34238 6.06443   2
  -1   6   2 64.3689 9.50733   2
   1  -6  -2 64.4676 9.73466   1
   1  -6  -2 71.8182 9.20996   2
  -1   6   2 84.9118 10.3285   1
  -1   6   1 118.627 11.2569   2
  -1   6   1 88.0493 9.80120   1
   1  -6  -1 100.102 10.9103   1
   1  -6  -1 129.253 11.4238   2
   1  -6   0-0.70086 5.39014   1
  -1   6   0 10.0743 5.92111   2
   1  -6   0 3.66342 5.40140   2
  -1   6   0 4.56698 5.26019   1
  -1   6  -1 416.909 18.4503   2
   1  -6   1 408.208 18.1842   2
   1  -6   1 368.404 16.8029   1
  -1   6  -1 396.646 16.7620   1
   1  -6   2 0.96828 4.36881   1
   1  -6   2 9.91519 5.28225   2
  -1   6  -2 7.62611 4.65027   1
  -1   6  -2 7.59691 5.84480   2
  -1   6  -3 30.1564 7.13158   2
   1  -6   3 27.0260 5.72238   1
  -1   6  -3 26.6113 5.48134   1
   1  -6   3 21.1772 6.50542   2
  -1   6  -4 14.1042 6.08594   2
  -1   6  -4 12.9072 4.34004   1
   1  -6   4 11.3010 6.22000   2
   1  -6   4 5.80600 4.09794   1
  -1   6  -5 160.858 12.7249   2
  -1   6  -5 144.800 8.50618   1
   1  -6   5 147.511 8.80799   1
   1  -6   5 170.134 12.9372   2
   1  -6   6 289.183 10.8780   1
  -1   6  -6 324.024 17.7085   2
   1  -6   6 343.925 17.9960   2
  -1   6  -6 290.578 10.6710   1
   1  -6   7 62.5191 5.12850   1
  -1   6  -7 63.0112 5.04735   1
  -1   6  -7 88.9013 10.5506   2
   1  -6   7 85.5327 10.5729   2
   1  -6   8 27.6535 3.23587   1
   1  -6   8 17.4819 2.93479   1
   1  -6   8 27.4270 7.80325   2
   1  -6   9 40.7629 9.55680   2
  -1   6  -9 43.7171 10.1672   2
  -1   6 -10 25.1106 9.47886   2
  -1   6 -11 15.5260 9.72006   2
  -1   6 -12-11.6696 9.86125   2
  -1   6 -13 55.4414 14.9888   2
  -1   6 -14 53.4151 16.8027   2
  -1   6 -15-10.3851 19.5150   2
   1  -5 -12-3.12392 22.1342   1
   1  -5 -12 19.8160 16.2410   2
  -1   5  12-2.22028 18.9764   1
   1  -5 -11 0.79066 14.4060   2
  -1   5  11 21.9105 15.2764   1
   1  -5 -11 1.18698 18.0645   1
   1  -5 -10 97.8290 16.0888   2
  -1   5  10 69.9591 16.8649   1
   1  -5 -10 88.5956 17.2998   1
   1  -5  -9 48.5532 14.7981   1
  -1   5   9 65.0754 14.3258   1
   1  -5  -9 67.4399 12.5058   2
   1  -5  -8 31.5596 11.9627   1
  -1   5   8 22.9049 10.5454   1
   1  -5  -8 41.1491 10.1708   2
  -1   5   7 27.8894 10.4124   1
   1  -5  -7 19.5203 9.81911   1
   1  -5  -7 32.0087 9.11554   2
   1  -5  -6 13.2576 9.09673   1
   1  -5  -6-1.16922 6.42900   2
  -1   5   6 12.8846 8.65052   1
  -1   5   5 10.6624 7.08087   1
   1  -5  -5 15.5307 6.66721   2
   1  -5  -5 9.84098 7.16788   1
  -1   5   4 63.3593 9.46147   1
   1  -5  -4 71.0480 8.83409   2
   1  -5  -4 66.4831 10.2758   1
  -1   5   4 61.9972 8.81088   2
  -1   5   3 2.64393 4.83807   2
  -1   5   3 2.15467 5.75471   1
   1  -5  -3-2.43764 5.76568   1
   1  -5  -3-3.74758 4.61904   2
  -1   5   2 121.398 10.0996   2
  -1   5   2 123.726 10.9478   1
   1  -5  -2 130.346 10.2159   2
   1  -5  -2 125.750 11.1644   1
  -1   5   1 105.811 9.24113   2
   1  -5  -1 116.918 9.44979   2
  -1   5   1 117.212 9.87148   1
   1  -5  -1 110.697 9.80193   1
  -1   5   0 23.8266 5.22925   1
  -1   5   0 19.8436 5.36758   2
   1  -5   0 22.6404 5.42535   2
   1  -5   0 23.4294 5.59651   1
  -1   5  -1 13.9610 4.96832   2
   1  -5   1 16.9931 4.94539   1
  -1   5  -1 23.4265 4.82378   1
   1  -5   1 24.7876 5.59702   2
   1  -5   2 25.1556 4.84606   1
   1  -5   2 25.9335 5.67563   2
  -1   5  -2 24.6880 4.63982   1
  -1   5  -2 29.2292 6.01221   2
  -1   5  -3 194.018 11.9176   2
  -1   5  -3 195.409 9.40078   1
   1  -5   3 198.112 11.9806   2
   1  -5   3 184.613 9.39873   1
   1  -5   4 116.214 9.90600   2
  -1   5  -4 123.307 10.0689   2
   1  -5   4 113.800 7.04885   1
  -1   5  -4 118.235 6.98237   1
   1  -5   5 97.6389 9.45286   2
  -1   5  -5 91.7823 5.67524   1
   1  -5   5 102.189 6.09041   1
  -1   5  -5 96.5535 9.49757   2
   1  -5   6 15.2546 2.79603   1
  -1   5  -6 18.1037 2.86054   1
   1  -5   6 17.6677 6.33602   2
  -1   5  -6 13.2572 5.57220   2
   1  -5   7-0.77956 1.39832   1
  -1   5  -7 0.53621 5.71019   2
   1  -5   7 3.29770 5.59322   2
   1  -5   7-0.20609 1.47658   1
  -1   5  -8 254.861 16.1549   2
   1  -5   8 263.851 15.9628   2
  -1   5  -9 4.22421 7.03085   2
  -1   5 -10 57.4296 10.8147   2
  -1   5 -11 261.819 19.5128   2
  -1   5 -12 53.6097 12.6750   2
  -1   5 -13 187.242 18.9838   2
  -1   5 -14 10.5121 14.4592   2
  -1   5 -15 18.0554 18.0335   2
  -1   5 -16 32.1820 13.4643   2
   1  -4 -13 12.4037 16.2059   2
   1  -4 -13-20.2896 19.5305   1
  -1   4  13 18.1510 19.2331   1
  -1   4  12-10.9007 17.9319   1
   1  -4 -12 53.5401 15.0662   2
   1  -4 -11 16.1652 11.7310   2
   1  -4 -11 13.0034 13.8045   1
  -1   4  11 11.0264 14.9098   1
   1  -4 -10 28.9678 10.6134   2
   1  -4 -10 1.37677 12.2195   1
  -1   4  10 19.6961 12.5598   1
  -1   4   9 12.7117 9.92482   1
   1  -4  -9 23.7319 10.5377   1
   1  -4  -9 20.7195 8.45237   2
  -1   4   8 84.8771 12.6082   1
   1  -4  -8 100.497 11.3204   2
   1  -4  -8 94.5884 13.4261   1
   1  -4  -7 2.28696 7.51628   1
   1  -4  -7 11.1544 6.50407   2
  -1   4   7 13.5905 8.62756   1
  -1   4   6 27.8495 8.27068   1
   1  -4  -6 35.9100 7.20951   2
   1  -4  -6 30.3299 8.59780   1
  -1   4   5 147.628 12.5574   1
   1  -4  -5 152.575 10.8563   2
   1  -4  -5 126.590 12.1200   1
  -1   4   4 7.71368 5.60944   1
  -1   4   4 3.18029 4.33225   2
   1  -4  -4 5.38735 4.46211   2
   1  -4  -4-1.50400 5.36201   1
  -1   4   3 651.494 21.9246   1
   1  -4  -3 643.662 22.0709   1
   1  -4  -3 656.562 19.2437   2
  -1   4   3 652.895 19.4616   2
  -1   4   2 227.710 11.5849   2
   1  -4  -2 225.716 12.7362   1
  -1   4   2 236.160 12.9240   1
   1  -4  -2 243.853 11.6834   2
   1  -4  -1 119.412 8.31190   2
  -1   4   1 114.781 8.82872   1
  -1   4   1 112.292 8.21981   2
   1  -4  -1 111.770 8.66203   1
  -1   4   0 71.3760 6.79340   2
   1  -4   0 69.6144 6.53977   2
  -1   4   0 77.6673 6.90266   1
   1  -4   0 71.9039 6.78286   1
   1  -4   1 121.324 7.69491   1
  -1   4  -1 122.255 7.65426   1
  -1   4  -1 130.723 8.59078   2
   1  -4   1 122.271 8.35289   2
  -1   4  -2 187.343 10.2303   2
  -1   4  -2 174.911 8.08220   1
   1  -4   2 195.707 10.4363   2
   1  -4   2 176.314 8.27690   1
  -1   4  -3 162.538 9.79817   2
   1  -4   3 149.742 9.62526   2
  -1   4  -3 157.365 6.93959   1
   1  -4   3 155.443 7.06047   1
  -1   4  -4 55.4824 6.81003   2
  -1   4  -4 60.7692 4.07342   1
   1  -4   4 60.7717 6.83848   2
   1  -4   4 58.7434 4.11833   1
  -1   4  -5 44.3052 6.34795   2
   1  -4   5 51.1817 6.75776   2
  -1   4  -5 38.1187 2.73674   1
   1  -4   5 42.2578 2.87377   1
  -1   4  -6 231.495 13.2246   2
   1  -4   6 217.811 12.6834   2
   1  -4   7 11.9527 5.50815   2
  -1   4  -7 7.37157 5.40843   2
  -1   4  -8 106.111 10.9567   2
  -1   4  -9 11.4531 6.73959   2
  -1   4 -10 14.5116 7.55006   2
  -1   4 -11 48.2232 10.5005   2
  -1   4 -12-10.9027 10.2009   2
  -1   4 -13-5.38460 11.3478   2
  -1   4 -14-10.2876 13.5069   2
  -1   4 -15 11.3052 16.8436   2
  -1   4 -16 42.5924 18.7338   2
  -1   3  14 25.8532 14.3903   1
   1  -3 -14 53.5226 16.4226   1
   1  -3 -14 60.8626 13.4553   2
   1  -3 -13-13.3513 14.3922   2
   1  -3 -13 16.1357 15.8027   1
  -1   3  13 41.5627 16.5410   1
   1  -3 -12 32.2033 15.7814   1
   1  -3 -12 33.1910 11.9788   2
  -1   3  12 0.21057 13.4104   1
   1  -3 -11-7.36765 9.60174   2
  -1   3  11 7.59218 11.9286   1
   1  -3 -11-5.73034 12.4592   1
   1  -3 -10 9.24566 8.39675   2
   1  -3 -10 16.9303 10.6267   1
  -1   3  10 10.4144 10.4412   1
  -1   3   9 61.9977 11.4438   1
   1  -3  -9 62.0801 12.0198   1
   1  -3  -9 74.5822 10.2790   2
  -1   3   8 24.2297 7.99050   1
   1  -3  -8 27.8779 6.99521   2
   1  -3  -8 27.3525 8.32128   1
  -1   3   7-3.12027 6.34403   1
   1  -3  -7 4.66084 4.86565   2
   1  -3  -7 3.85634 6.54901   1
   1  -3  -6 11.3353 5.93921   1
  -1   3   6 15.3617 6.14032   1
   1  -3  -6 7.95197 4.48102   2
   1  -3  -5 259.812 12.0978   2
  -1   3   5 261.016 14.5850   1
   1  -3  -5 262.128 14.7982   1
  -1   3   4 220.171 10.6711   2
   1  -3  -4 236.734 10.8783   2
  -1   3   4 232.583 12.8851   1
   1  -3  -4 225.736 13.0534   1
  -1   3   3 88.5857 6.82595   2
   1  -3  -3 95.9875 6.93621   2
  -1   3   3 100.187 8.46400   1
   1  -3  -3 99.3380 8.61779   1
  -1   3   2 29.9723 5.00363   1
  -1   3   2 25.9867 4.32599   2
   1  -3  -2 30.4230 5.22573   1
   1  -3  -2 28.3743 4.25698   2
   1  -3  -1 134.730 7.38811   2
  -1   3   1 139.792 8.23237   1
  -1   3   1 128.845 7.33881   2
   1  -3  -1 128.531 8.12381   1
   1  -3   0 135.386 7.37055   2
  -1   3   0 143.352 7.64873   1
   1  -3   0 142.530 7.69957   1
  -1   3   0 132.516 7.32715   2
  -1   3  -1 355.026 10.5033   1
   1  -3   1 346.258 11.5111   2
  -1   3  -1 342.866 11.5572   2
   1  -3   1 350.849 10.3955   1
  -1   3  -2 2649.14 32.4829   2
   1  -3   2 2700.75 32.8248   2
  -1   3  -2 2737.78 24.7356   1
   1  -3   2 2731.02 24.7662   1
  -1   3  -3 46.6327 3.00570   1
   1  -3   3 48.7043 5.48215   2
   1  -3   3 48.6481 3.10959   1
  -1   3  -3 45.9303 5.39006   2
  -1   3  -4 113.595 8.18502   2
   1  -3   4 109.087 7.89171   2
  -1   3  -5 21.4253 4.77536   2
   1  -3   5 27.0388 5.08409   2
  -1   3  -6 72.9243 7.85482   2
  -1   3  -7 48.7215 7.36791   2
  -1   3  -8 56.7332 8.20362   2
   1  -3   8 41.6193 2.14232   1
   1  -3   8 48.7156 2.20593   1
  -1   3  -9 107.071 10.8539   2
   1  -3   9 88.0015 3.96807   1
   1  -3   9 81.2777 3.88671   1
   1  -3  10 8.91944 2.52753   1
  -1   3 -10 9.11035 7.24228   2
   1  -3  10 6.81467 2.40544   1
   1  -3  11 135.014 6.56011   1
   1  -3  11 133.313 6.68613   1
   1  -3  12 2.32922 3.52757   1
   1  -3  12 2.67130 3.35191   1
   1  -3  13-1.45987 4.04522   1
  -1   3 -13-13.2963 10.0616   2
   1  -3  13-3.32076 4.13853   1
  -1   3 -14 2.12851 13.1476   2
   1  -3  14 5.34444 5.11300   1
   1  -3  14 1.73574 4.86235   1
   1  -3  15 96.8479 8.22595   1
   1  -3  15 97.5016 8.11763   1
  -1   3 -16-6.32112 16.7374   2
   1  -3  16 1.59032 4.80517   1
   1  -3  16 1.31323 4.80868   1
   1  -2 -14 60.9437 15.8181   2
   1  -2 -14 12.9987 17.9770   1
  -1   2  14-0.52104 18.3157   1
   1  -2 -13 4.69931 11.8117   2
   1  -2 -13 11.9002 13.9581   1
  -1   2  13 14.9007 15.2486   1
   1  -2 -12-2.40386 9.17336   2
  -1   2  12 15.6561 11.1111   1
   1  -2 -12 24.7966 13.2549   1
   1  -2 -11 8.65726 9.78461   1
  -1   2  11 29.3466 11.4615   1
   1  -2 -11 26.7816 8.84841   2
   1  -2 -10 31.8466 10.1418   1
   1  -2 -10 42.5057 8.59019   2
  -1   2  10 52.7986 10.4125   1
   1  -2  -9 254.062 14.3956   2
  -1   2   9 243.452 16.9124   1
   1  -2  -9 219.087 16.4512   1
   1  -2  -8 13.3983 5.46324   2
  -1   2   8 19.2781 7.38740   1
   1  -2  -8 12.2999 6.56275   1
  -1   2   7 73.0236 9.17455   1
   1  -2  -7 82.6822 9.50216   1
   1  -2  -7 90.6030 7.94310   2
   1  -2  -6 62.6138 6.33189   2
   1  -2  -6 59.9617 8.05261   1
  -1   2   6 75.5068 8.63942   1
   1  -2  -5 867.761 18.8525   2
   1  -2  -5 846.039 23.5236   1
  -1   2   5 892.952 23.8367   1
  -1   2   4 149.670 9.61854   1
   1  -2  -4 137.070 9.43548   1
   1  -2  -4 143.822 7.40264   2
   1  -2  -3 220.188 8.22417   2
  -1   2   3 218.596 8.27863   2
  -1   2   3 228.611 10.7614   1
   1  -2  -3 224.206 10.7738   1
   1  -2  -2 2706.12 32.9457   1
   1  -2  -2 2651.71 25.7655   2
  -1   2   2 2672.29 32.3799   1
  -1   2   2 2596.91 25.9146   2
   1  -2  -1 1139.34 16.4028   2
  -1   2   1 1180.36 19.6051   1
  -1   2   1 1154.88 16.6079   2
   1  -2  -1 1185.10 19.8123   1
  -1   2   0 904.863 15.2158   1
   1  -2   0 883.863 15.1657   1
   1  -2   0 867.940 14.5104   2
  -1   2   0 890.206 14.8012   2
  -1   2  -1 476.903 11.5102   2
   1  -2   1 478.146 11.5725   2
   1  -2   1 459.845 9.41695   1
  -1   2  -1 486.766 9.59124   1
  -1   2  -2 1224.74 11.7896   1
   1  -2   2 1214.75 11.8519   1
   1  -2   2 1175.64 19.1965   2
  -1   2  -2 1192.83 19.5861   2
  -1   2  -3 797.644 17.3100   2
   1  -2   3 762.072 16.7335   2
  -1   2  -4 841.028 19.2085   2
  -1   2  -5 5.40582 3.70211   2
   1  -2   6 2.58396 1.04731   1
  -1   2  -6 4.76133 4.18681   2
  -1   2  -7 13.9932 5.10329   2
   1  -2   7 14.3868 2.23954   1
  -1   2  -7 8.82563 2.12009   1
  -1   2  -8 351.418 16.7971   2
   1  -2   8 322.248 9.15537   1
  -1   2  -9-1.21026 5.66711   2
   1  -2   9 0.60538 2.99565   1
  -1   2  -9 2.13560 3.15972   1
  -1   2 -10 5.80220 3.90419   1
   1  -2  10 10.1239 3.93710   1
  -1   2 -10 10.1996 6.90213   2
   1  -2  11 20.5910 4.98927   1
  -1   2 -11 19.6310 8.86638   2
  -1   2 -11 18.1986 5.43841   1
  -1   2 -12 137.502 15.3857   2
   1  -2  12 93.9307 8.39199   1
  -1   2 -13 20.3107 12.0893   2
   1  -2  13 12.1627 6.38240   1
   1  -2  14-2.66346 7.18102   1
   1  -2  14 2.02750 7.60300   1
  -1   2 -14-9.54679 14.1308   2
   1  -2  15 20.2507 8.83340   1
   1  -2  15 24.0373 9.28288   1
  -1   2 -15 32.9365 16.1830   2
  -1   1  15 10.8107 17.6444   1
   1  -1 -15-8.78535 14.8840   2
   1  -1 -15 34.6397 16.7379   2
   1  -1 -15-4.82484 18.5061   1
  -1   1  14 71.6683 17.2878   1
   1  -1 -14 100.931 15.7888   2
   1  -1 -14 49.2645 14.4583   2
   1  -1 -14 57.9875 16.6676   1
  -1   1  13-11.8373 12.2706   1
   1  -1 -13-14.4747 10.7008   2
   1  -1 -13-4.97308 13.2955   1
   1  -1 -12 29.2218 11.0298   1
   1  -1 -12 10.7348 8.68541   2
  -1   1  11 21.7010 8.85668   1
   1  -1 -11 18.3259 9.64157   1
   1  -1 -11 31.8280 8.54707   2
   1  -1 -10 9.27363 7.94124   1
   1  -1 -10 9.11944 6.02145   2
  -1   1  10 2.23141 6.76852   1
   1  -1  -9 30.4568 6.46191   2
   1  -1  -9 15.5528 7.35323   1
  -1   1   9 37.5506 8.20971   1
   1  -1  -8 39.0152 6.11903   2
  -1   1   8 36.7568 7.37108   1
   1  -1  -8 34.7845 7.41504   1
   1  -1  -7 318.772 12.3690   2
   1  -1  -7 288.374 14.9723   1
  -1   1   7 318.439 15.4296   1
   1  -1  -6 6.87810 3.26990   2
  -1   1   6 5.89865 4.25756   1
   1  -1  -6 11.8662 4.66573   1
   1  -1  -5 180.338 10.3684   1
   1  -1  -5 183.187 7.73042   2
  -1   1   5 185.738 10.4507   1
   1  -1  -4 156.443 6.25662   2
  -1   1   4 178.849 9.55562   1
   1  -1  -4 163.744 9.27460   1
   1  -1  -3 219.198 9.59323   1
   1  -1  -3 211.934 6.19666   2
  -1   1   3 219.269 9.47607   1
   1  -1  -2 1147.84 12.0661   2
   1  -1  -2 1145.13 19.1627   1
  -1   1   2 1144.65 12.2017   2
  -1   1   2 1170.57 19.2062   1
   1  -1  -1 1824.47 14.7337   2
  -1   1   1 1822.99 14.7786   2
   1  -1  -1 1835.04 21.4078   1
  -1   1   1 1834.10 21.2922   1
  -1   1   0 1.86840 1.61179   2
   1  -1   0 4.43371 1.94221   1
  -1   1   0 2.93931 1.87183   1
   1  -1   0 3.39105 1.69439   2
   1  -1   1 122.672 5.26379   2
  -1   1  -1 124.430 5.35826   2
  -1   1  -1 124.013 4.04956   1
  -1   1  -1 127.736 4.24825   1
  -1   1  -2 73.6053 4.93292   2
  -1   1  -2 71.3507 2.53484   1
   1  -1   2 64.1173 2.41598   1
   1  -1   3 0.20956 0.84853   1
  -1   1  -3 0.01600 0.88906   1
   1  -1   4 8.54193 1.58694   1
  -1   1  -4 8.19245 1.59869   1
  -1   1  -5 725.906 11.8121   1
   1  -1   5 770.012 11.8420   1
  -1   1  -6 377.397 9.96137   1
   1  -1   6 423.386 10.3456   1
   1  -1   7 126.501 6.75966   1
  -1   1  -7 113.533 6.56603   1
  -1   1  -8 3.24553 3.43989   1
   1  -1   8 3.46686 3.17005   1
   1  -1   9 103.509 7.73479   1
  -1   1  -9 83.4420 7.32449   1
   1  -1  10-2.88101 4.36016   1
  -1   1 -10 2.20061 4.56729   1
  -1   1 -10 6.99367 7.44049   2
   1  -1  11 51.8423 7.63690   1
  -1   1 -11 51.9798 10.4265   2
  -1   1 -11 33.3500 7.06685   1
   1  -1  12 1.94630 6.28148   1
  -1   1 -12 5.95001 6.62428   1
  -1   1 -12 14.7586 9.44808   2
  -1   1 -13 104.436 12.2360   1
   1  -1  13 115.614 11.2658   1
  -1   1 -13 142.802 18.0434   2
   1  -1  14-1.59374 8.97838   1
  -1   1 -14 17.0995 15.1834   2
  -1   1 -14-0.94406 9.98033   1
   1  -1  15 64.7945 12.2962   1
  -1   1 -15 65.6728 19.4743   2
  -1   1 -15 23.2145 12.6792   1
   1   0 -15 0.21993 14.5147   2
   1   0 -15 2.07214 13.8065   2
  -1   0  15 33.8830 14.9522   1
   1   0 -15 5.74261 16.3387   1
  -1   0  14-2.41149 13.0710   1
   1   0 -14 8.75942 11.1798   2
   1   0 -14 2.24150 11.6510   2
   1   0 -14 5.08794 13.3272   1
   1   0 -13 50.6802 11.0540   2
  -1   0  13 27.2990 11.5906   1
   1   0 -13 31.8221 12.5954   1
   1   0 -13 30.9618 9.68779   2
   1   0 -12 15.9937 9.35863   1
  -1   0  12 31.2400 10.0174   1
   1   0 -12 35.5627 8.90445   2
   1   0 -11 454.734 22.4087   1
   1   0 -11 523.566 20.2642   2
  -1   0  11 512.307 23.2090   1
   1   0 -10 22.9981 7.68708   1
  -1   0  10 32.9277 8.22897   1
  -1   0   9-1.12029 5.66755   1
   1   0  -9-0.45650 5.37159   1
   1   0  -8 113.568 10.1324   1
  -1   0   8 99.2256 9.34099   1
  -1   0   7 5.27088 4.40592   1
   1   0  -7 1.00863 4.25731   1
   1   0  -6 95.2406 8.05799   1
  -1   0   6 93.4865 7.68774   1
   1   0  -5 12.3551 3.92224   1
  -1   0   5 16.0281 3.91811   1
  -1   0   4 649.872 16.1002   1
   1   0  -4 636.220 16.1854   1
   1   0  -3 761.756 16.1986   1
  -1   0   3 768.527 15.9723   1
   1   0  -2 107.764 6.00545   1
  -1   0   2 102.793 5.70606   1
  -1   0   1 37.3162 3.36038   1
  -1   0   1 38.9003 3.55322   1
  -1   0   0 1631.21 16.8527   1
   1   0   0 1589.20 16.6984   1
  -1   0  -1 1.83964 1.61366   1
   1   0   1 3.34465 1.69293   1
  -1   0  -2 303.639 7.41503   1
   1   0   2 314.612 7.48183   1
  -1   0  -3 8.47509 2.25085   1
   1   0   3 10.3729 2.29602   1
  -1   0  -4 702.655 13.8179   1
   1   0   4 688.683 13.3448   1
   1   0   5 17.8974 3.33452   1
  -1   0  -5 14.8903 3.23376   1
  -1   0  -6 16.7568 3.75663   1
   1   0   6 24.8049 4.13744   1
   1   0   7 105.199 7.44383   1
  -1   0  -7 96.3195 7.57397   1
  -1   0  -8 14.5592 4.79391   1
   1   0   8 11.9081 4.62281   1
  -1   0  -9 16.0472 5.67658   1
   1   0   9 13.4028 5.15286   1
   1   0  10 94.2474 9.29161   1
  -1   0 -10 90.8354 9.83129   1
   1   0  11 18.4973 7.42470   1
  -1   0 -11 26.1528 8.19394   1
  -1   0 -12 79.4502 11.3609   1
   1   0  12 111.578 12.2815   1
   1   0  13 81.7370 11.9140   1
  -1   0 -13 53.4378 11.9441   1
   1   0  14 0.40903 11.1104   1
  -1   0 -14 3.16107 11.5142   1
  -1   0 -14-20.5169 15.0494   2
  -1   0 -15 7.22072 13.9563   1
   1   0  15 27.4671 13.9430   1
  -1   0 -15 54.7824 19.8136   2
  -1  -1  16 10.6253 16.5102   1
  -1  -1  16 0.56819 15.9298   1
   1   1 -16 44.1676 17.0464   2
   1   1 -16 8.59828 15.1651   2
  -1  -1  15 4.86486 13.5219   1
   1   1 -14 87.2032 12.8294   2
  -1  -1  14 60.0473 13.4420   1
  -1  -1  13 6.06308 9.50779   1
   1   1 -13 10.0003 10.7240   1
   1   1 -13 18.3713 9.31420   2
   1   1 -12 98.6896 11.1613   2
   1   1 -12 71.3060 12.0009   1
  -1  -1  12 72.2976 11.1883   1
   1   1 -11 47.9204 8.12842   2
  -1  -1  11 47.7860 8.96994   1
   1   1 -11 40.6502 9.24600   1
   1   1 -10 73.8091 8.23471   2
  -1  -1  10 73.4830 9.35552   1
   1   1 -10 78.5309 9.95071   1
  -1  -1   9 2.77674 4.80944   1
   1   1  -9 2.39621 5.44085   1
   1   1  -9-3.82248 4.10211   2
  -1  -1   8 23.4835 5.45810   1
   1   1  -8 21.2092 4.52123   2
   1   1  -8 20.5849 5.75799   1
   1   1  -7 29.5736 5.69561   1
  -1  -1   7 31.5764 5.48835   1
   1   1  -7 26.9808 4.13217   2
   1   1  -6 134.042 6.64076   2
   1   1  -6 141.314 9.07901   1
  -1  -1   6 144.355 8.89202   1
   1   1  -5 642.352 16.9963   1
   1   1  -5 619.204 11.8689   2
  -1  -1   5 635.276 16.5530   1
  -1  -1   4 4101.58 37.7962   1
  -1  -1   4 4080.58 38.8902   1
   1   1  -4 3994.86 25.6555   2
  -1  -1   3 4164.23 36.9802   1
  -1  -1   3 4091.28 22.1156   2
  -1  -1   3 4137.87 35.3102   1
   1   1  -3 4098.05 22.0785   2
  -1  -1   2 4.87357 1.46101   2
   1   1  -2 3.63012 1.40434   2
  -1  -1   2 1.48110 2.16086   1
  -1  -1   1 8.03129 1.87621   2
   1   1  -1 3.77993 1.69112   2
   1   1  -1 3.18274 2.25511   1
  -1  -1   1 4.91566 2.34240   1
  -1  -1   0 54.4305 3.81957   2
   1   1   0 51.5419 4.03914   1
  -1  -1   0 54.8512 4.11031   1
   1   1   1 260.993 8.38170   1
  -1  -1  -1 273.375 8.64507   1
   1   1   2 372.388 10.5743   1
  -1  -1  -2 396.201 10.8572   1
   1   1   3 15.7911 3.33989   1
  -1  -1  -3 23.1700 3.78261   1
   1   1   4 576.565 15.0347   1
  -1  -1  -4 577.741 15.5440   1
   1   1   5 38.6814 5.13968   1
  -1  -1  -5 35.3948 5.13704   1
   1   1   6 124.695 8.60994   1
  -1  -1  -6 133.315 9.18333   1
   1   1   7 11.5175 4.62703   1
  -1  -1  -7 10.7239 4.97631   1
   1   1   8 132.548 10.1759   1
  -1  -1  -8 131.836 10.7866   1
   1   1   9 59.2864 8.54521   1
  -1  -1  -9 61.3880 8.78532   1
   1   1  10 64.0188 9.19347   1
  -1  -1 -10 72.5686 10.1011   1
  -1  -1 -11 20.7371 8.61047   1
   1   1  11 14.8926 7.86461   1
  -1  -1 -12-17.7519 10.4990   1
   1   1  12 7.08623 8.84880   1
   1   1  13 11.7231 10.9952   1
  -1  -1 -13 40.6488 13.2174   1
  -1  -1 -13 34.4195 15.7674   2
  -1  -1 -14 10.7881 19.0657   2
  -1  -1 -14 39.2418 14.5358   1
   1   1  14 37.3020 13.3862   1
  -1  -2  16-1.14597 14.0188   1
   1   2 -16-13.0524 15.8601   2
  -1  -2  16 31.6470 14.4404   1
  -1  -2  15 13.2503 12.4992   1
  -1  -2  15-11.7958 11.4686   1
   1   2 -15 15.1111 13.0933   2
  -1  -2  14 22.0611 9.88891   1
   1   2 -14 18.8840 10.4874   2
  -1  -2  14 34.5644 11.2091   1
  -1  -2  13 9.83126 9.07217   1
  -1  -2  13 5.23928 8.13399   1
   1   2 -13-1.05522 8.29872   2
  -1  -2  12 2.64837 7.20317   1
   1   2 -12-4.96281 7.23079   2
  -1  -2  12-0.89928 6.91959   1
  -1  -2  11-0.68133 6.09874   1
  -1  -2  11 0.81067 5.85413   1
   1   2 -11 3.77762 5.92403   2
  -1  -2  10 16.0915 6.13476   1
   1   2 -10 19.8081 5.74874   2
  -1  -2  10 11.3826 5.79222   1
   1   2  -9 4.67265 4.09283   2
  -1  -2   9 8.81149 5.08263   1
  -1  -2   9 2.92587 4.49400   1
   1   2  -8 4.78847 3.80542   2
  -1  -2   8 4.38521 4.18147   1
  -1  -2   8 4.60338 4.04099   1
   1   2  -7 66.1641 5.87192   2
  -1  -2   7 73.0127 7.07390   1
  -1  -2   7 66.4584 6.66607   1
  -1  -2   6 141.112 8.77181   1
  -1  -2   6 142.589 8.51340   1
   1   2  -6 130.857 7.02849   2
  -1  -2   5 107.874 7.06436   1
  -1  -2   5 103.662 7.41070   1
   1   2  -5 102.398 5.77135   2
  -1  -2   5 99.9098 5.68863   2
   1   2  -4 175.206 6.82425   2
  -1  -2   4 184.728 7.02605   2
  -1  -2   4 176.316 8.32417   1
   1   2  -4 170.356 8.27369   1
  -1  -2   3 174.575 7.99621   1
  -1  -2   3 182.818 6.71891   2
   1   2  -3 179.957 6.68599   2
   1   2  -3 170.431 7.91433   1
  -1  -2   2 17.3416 3.40130   1
   1   2  -2 14.0163 3.27003   1
   1   2  -2 11.6999 2.56943   2
  -1  -2   2 16.4143 2.82139   2
  -1  -2   1 351.122 9.87785   2
   1   2  -1 365.861 10.1465   2
  -1  -2   1 361.704 11.0730   1
   1   2  -1 356.867 10.9890   1
   1   2   0 2.67369 2.68007   1
   1   2   0 2.89123 2.50022   2
  -1  -2   0 5.30788 2.73843   2
  -1  -2   0 4.82870 2.92164   1
   1   2   1 1364.60 22.5782   1
  -1  -2  -1 1376.34 22.6834   1
  -1  -2  -1 1354.90 22.3934   2
  -1  -2  -2 3169.66 36.9256   2
  -1  -2  -2 3209.96 36.5760   1
   1   2   2 3245.03 36.5273   1
   1   2   3 790.507 19.2798   1
  -1  -2  -3 791.352 20.1111   2
  -1  -2  -3 790.809 19.6764   1
  -1  -2  -4 34.0185 5.66908   1
   1   2   4 38.1680 5.38320   1
  -1  -2  -4 34.9478 5.80109   2
  -1  -2  -5 18.5000 5.34193   1
  -1  -2  -5 12.3727 5.10030   2
   1   2   5 11.2793 4.44065   1
  -1  -2  -6-0.84227 5.02613   2
   1   2   6 10.1455 4.98313   1
  -1  -2  -6 5.38936 5.10491   1
   1   2   7 23.3664 6.38347   1
  -1  -2  -7 10.8150 6.30504   2
  -1  -2  -7 20.0745 6.40515   1
  -1  -2  -8 13.2038 6.57868   2
   1   2   8 15.9336 6.81795   1
  -1  -2  -8 24.7082 7.57714   1
   1   2   9 39.9103 8.69965   1
  -1  -2  -9 51.5435 10.3753   2
  -1  -2  -9 48.9658 9.76116   1
  -1  -2 -10 8.08183 8.61512   1
  -1  -2 -10 1.52830 8.97827   2
   1   2  10 13.9991 7.96384   1
   1   2  11 2.71003 8.91766   1
  -1  -2 -11 3.14100 10.7551   2
  -1  -2 -11 10.8419 10.1521   1
  -1  -2 -12-1.53292 13.1297   2
  -1  -2 -12-0.29048 12.4133   1
   1   2  12-10.3348 12.1079   1
   1   2  13 26.7403 13.8138   1
  -1  -2 -13 1.83280 14.9800   1
  -1  -2 -13 5.04773 16.6805   2
  -1  -2 -14-14.1065 14.8858   1
   1   2  14-24.5938 14.7589   1
  -1  -2 -14-24.7054 16.9994   2
  -1  -3  16 9.39190 13.4824   1
  -1  -3  16 8.91473 13.9251   1
   1   3 -16-7.74795 16.2300   2
   1   3 -15 26.3785 13.3361   2
  -1  -3  15 21.2018 11.9475   1
  -1  -3  15 52.0566 13.6375   1
  -1  -3  14 6.27287 8.80958   1
   1   3 -14 7.90393 9.76486   2
  -1  -3  14-4.27542 9.35971   1
  -1  -3  13 15.3423 8.76868   1
   1   3 -13 29.3646 9.23152   2
  -1  -3  13 18.6247 8.05834   1
  -1  -3  12-3.37853 6.43986   1
  -1  -3  12 11.1545 7.47746   1
   1   3 -12 7.25493 7.37651   2
   1   3 -11 185.808 12.9404   2
  -1  -3  11 187.997 13.0246   1
  -1  -3  11 197.174 13.4270   1
  -1  -3  10 8.48280 5.52030   1
  -1  -3  10 5.37554 5.55398   1
   1   3 -10 8.01210 5.47371   2
  -1  -3   9 387.745 16.1690   1
  -1  -3   9 405.616 16.2126   1
   1   3  -9 385.582 15.3264   2
   1   3  -8 27.0651 5.17330   2
  -1  -3   8 34.0925 5.64908   1
  -1  -3   8 34.6521 6.01415   1
  -1  -3   7 16.2096 4.70491   1
   1   3  -7 16.9386 4.22849   2
  -1  -3   7 14.1929 4.22843   1
  -1  -3   7 11.3692 3.86474   2
   1   3  -6 77.6896 6.34881   2
  -1  -3   6 74.8330 6.61690   1
  -1  -3   6 76.4784 6.28551   2
   1   3  -5 263.081 10.2221   2
  -1  -3   5 225.582 10.2698   1
  -1  -3   5 254.038 10.1708   2
   1   3  -5 251.349 10.8644   1
  -1  -3   4 247.967 9.66792   2
   1   3  -4 238.034 9.47180   2
  -1  -3   4 232.460 10.1891   1
   1   3  -4 233.691 10.2401   1
  -1  -3   3 547.602 14.0451   2
   1   3  -3 526.107 13.7965   2
   1   3  -3 526.357 14.8864   1
  -1  -3   3 536.745 15.0380   1
  -1  -3   2 550.728 14.3355   2
  -1  -3   2 564.114 15.4904   1
   1   3  -2 553.902 15.3541   1
   1   3  -2 545.854 14.2749   2
  -1  -3   1 12.6255 3.58619   2
  -1  -3   1 19.4232 4.13710   1
   1   3  -1 16.2535 3.97613   1
   1   3  -1 18.2459 3.86118   2
  -1  -3   0 1232.52 23.0993   2
  -1  -3   0 1168.82 23.3023   1
   1   3   0 1222.88 23.7473   1
   1   3   0 1216.56 23.1240   2
   1   3   1 247.159 11.5474   1
  -1  -3  -1 243.224 11.3517   2
   1   3   1 255.102 11.6177   2
  -1  -3  -1 253.581 11.6722   1
  -1  -3  -2 0.56368 3.51603   2
   1   3   2 4.30032 3.85391   1
  -1  -3  -2 1.91969 3.87189   1
   1   3   3 9.59648 4.20445   1
  -1  -3  -3 13.5497 4.85195   2
  -1  -3  -3 13.9665 5.11011   1
  -1  -3  -4 26.8986 6.28927   1
  -1  -3  -4 26.4112 5.94157   2
   1   3   4 34.3126 6.36268   1
  -1  -3  -5 85.1573 9.43538   2
  -1  -3  -5 70.3020 8.90996   1
   1   3   5 76.7204 8.79779   1
   1   3   6 457.205 19.6341   1
  -1  -3  -6 521.302 21.6328   2
  -1  -3  -6 458.149 20.4213   1
  -1  -3  -7 11.2005 7.10855   1
  -1  -3  -7 13.4257 6.75266   2
   1   3   7 12.6281 6.76917   1
   1   3   8 523.271 23.2560   1
  -1  -3  -8 500.647 23.5728   1
   1   3   9 19.5882 9.42102   1
  -1  -3  -9 20.0339 9.31088   1
  -1  -3  -9 31.4051 10.8148   2
  -1  -3 -10 18.1774 10.3259   1
   1   3  10 16.2400 10.2189   1
  -1  -3 -11-20.0542 14.1184   1
  -1  -3 -11 16.5431 12.1678   2
   1   3  11 0.34694 11.7444   1
  -1  -3 -12-22.7414 15.8922   2
  -1  -3 -12 3.11297 14.3261   1
  -1  -3 -13-11.9412 18.2378   2
   1   3  13 21.1174 17.3146   1
   1   4 -16 29.9199 14.2318   2
  -1  -4  16 27.4645 12.5588   1
  -1  -4  16 7.52534 12.3396   1
  -1  -4  15 40.7363 12.0466   1
   1   4 -15 17.4590 12.8378   2
  -1  -4  14 42.7554 10.2767   1
  -1  -4  14 49.8886 10.3794   1
   1   4 -14 42.3039 11.5647   2
  -1  -4  13 12.1029 8.09352   1
  -1  -4  13 12.5787 8.39234   1
   1   4 -13 6.04452 8.16675   2
  -1  -4  12 6.64600 6.64667   1
   1   4 -12 4.76280 7.23749   2
  -1  -4  12 7.38562 7.23902   1
  -1  -4  11 135.679 11.3812   1
  -1  -4  11 121.617 10.8190   1
   1   4 -11 122.421 11.4393   2
  -1  -4  10 45.6037 7.19142   1
  -1  -4  10 46.4541 7.34243   1
   1   4 -10 48.7516 8.07743   2
  -1  -4   9 114.042 9.36744   1
   1   4  -9 110.761 9.75083   2
  -1  -4   9 124.996 10.1980   1
  -1  -4   8 93.2911 8.31638   1
  -1  -4   8 87.2106 8.31292   2
  -1  -4   8 90.7667 8.69012   1
   1   4  -8 89.4621 8.31059   2
   1   4  -7 179.733 10.4981   2
   1   4  -7 189.551 10.7962   1
  -1  -4   7 193.164 10.9379   2
  -1  -4   7 191.909 10.7816   1
  -1  -4   6 40.5762 5.72400   1
  -1  -4   6 41.4724 5.78835   2
   1   4  -6 39.1736 5.69666   1
   1   4  -6 37.9730 5.42628   2
   1   4  -5 51.6041 6.21222   1
   1   4  -5 45.7391 5.80955   2
  -1  -4   5 48.4161 5.86656   1
  -1  -4   5 43.8311 5.72658   2
  -1  -4   4 9.54372 3.87204   2
   1   4  -4 3.53790 3.55061   2
  -1  -4   4 5.49537 3.60910   1
   1   4  -4 5.97843 3.81974   1
  -1  -4   3 44.5274 5.71249   2
   1   4  -3 39.2643 5.39493   2
  -1  -4   3 44.6094 5.75297   1
   1   4  -3 50.2940 6.07833   1
   1   4  -2 817.897 20.3687   2
  -1  -4   2 824.866 21.1042   1
   1   4  -2 887.491 21.8027   1
  -1  -4   2 857.058 20.7595   2
  -1  -4   1 11.4335 4.22145   2
   1   4  -1 14.0504 4.51267   2
   1   4  -1 10.6342 4.38231   1
  -1  -4   1 11.1065 4.42664   1
   1   4   0 37.7551 5.91232   2
  -1  -4   0 40.8494 6.02684   1
  -1  -4   0 51.2030 6.50189   2
   1   4   0 42.9447 6.26669   1
  -1  -4  -1 23.0697 5.35341   2
   1   4   1 28.1963 5.61185   2
  -1  -4  -1 16.2999 5.21594   1
   1   4   1 27.7294 5.67973   1
   1   4   2-2.72634 4.62095   1
  -1  -4  -2 0.94744 4.27915   2
  -1  -4  -2 1.65022 4.58510   1
  -1  -4  -3 13.6607 5.77076   2
   1   4   3 18.4010 5.82859   1
  -1  -4  -3 16.0915 5.93768   1
  -1  -4  -4-0.26735 4.90375   2
   1   4   4-2.15037 5.57006   1
  -1  -4  -4 5.87301 5.45907   1
  -1  -4  -5 227.543 15.4590   1
  -1  -4  -5 229.271 15.3456   2
   1   4   5 231.327 15.1365   1
  -1  -4  -6 31.7423 8.28427   2
  -1  -4  -6 37.7619 9.29150   1
   1   4   6 42.9612 8.61151   1
   1   4   7 13.6334 8.59547   1
  -1  -4  -7 4.12368 7.65215   1
  -1  -4  -7 9.71782 8.24972   2
  -1  -4  -8 8.89813 9.79019   2
   1   4   8 17.5351 9.67383   1
  -1  -4  -8 1.79675 9.85652   1
  -1  -4  -9 11.1777 10.3363   1
   1   4   9 22.4808 10.5748   1
  -1  -4  -9 3.88163 11.5518   2
   1   4  10 24.2789 11.6329   1
  -1  -4 -10-5.64883 12.6650   2
  -1  -4 -10 6.99981 11.9547   1
  -1  -4 -11 8.22631 15.4100   2
  -1  -4 -11 36.8493 15.9410   1
   1   4  11 11.6063 14.0412   1
  -1  -4 -12 43.0627 19.2235   1
  -1  -4 -12 3.34507 19.2471   2
   1   4  12-15.2074 18.4666   1
   1   5 -16-4.04165 15.1992   2
  -1  -5  16 30.2701 12.0286   1
  -1  -5  16 4.65220 12.3226   1
  -1  -5  15 18.7043 10.6969   1
   1   5 -15 23.6256 13.7801   2
  -1  -5  15 33.8529 11.6709   1
   1   5 -14 24.4488 11.2031   2
  -1  -5  14 12.5551 9.24429   1
  -1  -5  14 9.00432 9.32499   1
   1   5 -13 110.649 13.8049   2
  -1  -5  13 131.094 12.4027   1
  -1  -5  13 119.389 12.4097   1
  -1  -5  12 35.1247 8.47716   1
   1   5 -12 21.8009 9.16092   2
  -1  -5  12 25.1384 7.72511   1
  -1  -5  11 137.165 11.4355   1
  -1  -5  11 134.425 11.4054   1
   1   5 -11 139.183 12.5992   2
   1   5 -10 163.519 12.6956   2
  -1  -5  10 173.208 12.9296   2
  -1  -5  10 182.460 12.7848   1
  -1  -5  10 173.114 11.9833   1
  -1  -5   9-0.85221 4.72340   1
   1   5  -9-5.79360 5.59626   2
  -1  -5   9 4.45260 5.89560   2
  -1  -5   9-2.75677 5.13255   1
   1   5  -8 95.7915 9.35426   2
  -1  -5   8 94.7799 9.46915   2
  -1  -5   8 101.482 9.10338   1
   1   5  -8 91.5827 8.71442   1
   1   5  -7 49.2446 7.16986   2
  -1  -5   7 58.2134 7.69269   2
  -1  -5   7 62.2183 7.34370   1
   1   5  -7 56.6945 7.27321   1
  -1  -5   6 99.9445 8.92071   2
   1   5  -6 98.0559 8.89300   2
  -1  -5   6 94.3223 8.45109   1
   1   5  -6 94.8609 8.50034   1
   1   5  -5 110.998 9.05430   1
  -1  -5   5 105.089 8.89485   1
  -1  -5   5 104.525 8.90421   2
   1   5  -5 96.8763 8.67873   2
   1   5  -4-3.38288 4.43085   2
   1   5  -4 0.88721 4.02327   1
  -1  -5   4 0.20076 4.05252   2
  -1  -5   4 4.48763 4.06653   1
  -1  -5   3 394.770 16.0229   2
   1   5  -3 364.418 15.5211   2
  -1  -5   3 349.654 15.3278   1
   1   5  -3 397.547 16.1938   1
   1   5  -2 28.3309 5.87463   2
  -1  -5   2 32.1362 6.06200   1
   1   5  -2 27.0732 5.95350   1
  -1  -5   2 26.1637 5.78371   2
  -1  -5   1 6.82198 4.71490   2
   1   5  -1 7.77780 4.87554   1
  -1  -5   1 4.95982 4.71009   1
   1   5  -1 11.2333 5.23834   2
   1   5   0 0.94484 4.52510   2
  -1  -5   0 4.04328 5.09025   1
  -1  -5   0 6.17962 4.92759   2
   1   5   0-3.51348 4.54532   1
  -1  -5  -1 131.816 10.8930   2
  -1  -5  -1 139.048 11.7786   1
   1   5   1 135.499 11.3525   1
   1   5   1 145.465 11.5663   2
  -1  -5  -2 415.931 19.9562   1
  -1  -5  -2 454.147 19.7487   2
   1   5   2 453.188 20.1297   2
   1   5   2 438.690 19.7427   1
  -1  -5  -3 73.1814 10.4297   1
   1   5   3 86.3725 10.4229   1
  -1  -5  -3 88.1461 10.5683   2
   1   5   4 194.708 15.1393   1
  -1  -5  -4 189.670 15.3271   1
  -1  -5  -4 210.312 15.4344   2
  -1  -5  -5 49.5413 10.4328   1
   1   5   5 57.8931 10.3720   1
  -1  -5  -5 68.3733 11.0824   2
  -1  -5  -6 0.79873 7.88126   2
   1   5   6 2.52000 8.31381   1
  -1  -5  -6 10.0213 9.04293   1
  -1  -5  -7-9.69315 10.7175   1
  -1  -5  -7-2.89958 9.50489   2
   1   5   7-1.30498 9.96886   1
  -1  -5  -8 27.3422 12.3373   2
   1   5   8-6.99433 11.7825   1
  -1  -5  -8-1.37636 11.5793   1
  -1  -5  -9 56.1138 14.5390   2
   1   5   9 15.6493 12.7213   1
  -1  -5  -9 42.6364 15.7164   1
  -1  -5 -10 23.8056 15.8204   2
  -1  -5 -10-6.52430 16.8077   1
   1   5  10-26.0532 14.9885   1
   1   5  11 36.7459 20.3404   1
  -1  -5 -11 89.9177 23.5302   1
   1   6 -16-9.05753 16.1957   2
  -1  -6  16 8.24402 12.6287   1
  -1  -6  16 22.8426 13.1378   1
  -1  -6  15 28.9534 10.8199   1
  -1  -6  15 43.2861 11.3983   1
  -1  -6  14 1.43148 10.0874   1
   1   6 -14-7.38960 11.2047   2
  -1  -6  14 10.9575 9.81781   1
   1   6 -13 8.89656 10.0047   2
  -1  -6  13 16.2830 8.15040   1
  -1  -6  13 18.7293 8.25251   1
   1   6 -12 48.3566 10.6081   2
  -1  -6  12 67.6815 10.5464   1
  -1  -6  12 51.6734 8.93539   1
   1   6 -11 95.1671 12.1549   2
  -1  -6  11 101.580 12.3829   2
  -1  -6  11 94.1820 11.0436   1
  -1  -6  11 86.7150 10.3323   1
  -1  -6  10 121.532 10.9505   1
  -1  -6  10 124.534 12.5485   2
  -1  -6  10 127.881 11.8151   1
   1   6 -10 108.903 11.7989   2
   1   6  -9 25.7164 6.85537   1
   1   6  -9 44.1682 8.65254   2
  -1  -6   9 34.5465 8.24528   2
  -1  -6   9 31.9830 7.35378   1
  -1  -6   8 9.08382 6.58872   2
   1   6  -8 10.4528 5.97896   1
   1   6  -8 6.40654 6.36254   2
  -1  -6   8 15.8075 6.09166   1
   1   6  -7 99.0501 9.60234   1
   1   6  -7 104.791 10.5777   2
  -1  -6   7 124.037 11.3040   2
  -1  -6   7 112.940 10.0714   1
   1   6  -6-2.60207 5.22819   2
  -1  -6   6 5.08144 5.16580   1
   1   6  -6-0.13285 5.14000   1
  -1  -6   6-3.41198 5.28347   2
   1   6  -5 236.673 13.8288   1
  -1  -6   5 214.971 13.2552   1
   1   6  -5 220.694 13.9043   2
  -1  -6   5 230.730 13.9708   2
   1   6  -4 198.347 12.9569   1
  -1  -6   4 197.758 13.1676   2
  -1  -6   4 191.518 12.8334   1
   1   6  -4 197.221 13.1541   2
   1   6  -3-1.35406 5.17831   1
   1   6  -3-5.20599 5.40817   2
  -1  -6   3-0.39537 5.24380   2
  -1  -6   3-0.35583 4.58776   1
  -1  -6   2 0.82306 5.42410   1
   1   6  -2 2.86591 5.61870   2
  -1  -6   2 7.80649 5.59049   2
   1   6  -2 3.90376 5.14776   1
  -1  -6   1 7.69480 5.74764   1
   1   6  -1 0.19701 5.54824   2
  -1  -6   1 11.8335 6.39189   2
   1   6  -1 8.22297 5.79305   1
  -1  -6   0 13.6075 6.94440   1
   1   6   0 16.4292 7.16464   2
  -1  -6   0 19.1922 7.04450   2
   1   6   0 9.76936 6.47874   1
   1   6   1 170.475 13.8796   2
   1   6   1 176.383 14.2249   1
  -1  -6  -1 145.801 13.8023   1
  -1  -6  -1 169.868 13.4685   2
  -1  -6  -2 47.2563 9.87772   1
  -1  -6  -2 63.1003 10.0873   2
   1   6   2 54.3904 9.72036   1
   1   6   2 51.4842 9.49761   2
  -1  -6  -3-6.94901 6.41358   2
   1   6   3-3.87510 7.03888   1
   1   6   4 24.1366 9.38935   1
  -1  -6  -4 24.5839 9.77883   1
  -1  -6  -4 25.9847 9.21146   2
  -1  -6  -5 41.4684 11.5845   2
  -1  -6  -5 21.7824 10.3474   1
   1   6   5 25.0541 10.6866   1
  -1  -6  -6 7.82570 11.2816   1
  -1  -6  -6-4.12881 9.65299   2
   1   6   6 7.06961 9.99446   1
   1   6   7 32.3402 12.5407   1
  -1  -6  -7-8.02864 13.2522   1
  -1  -6  -7 16.9782 13.3053   2
  -1  -6  -8 57.6150 16.8004   1
   1   6   8 89.1912 17.0612   1
  -1  -6  -8 72.7389 15.7025   2
  -1  -6  -9 5.91630 15.1562   2
   1   6   9 29.6003 16.0258   1
  -1  -6 -10 36.5624 19.0560   2
  -1  -6 -10 13.6065 20.9240   1
   1   6  10 34.0013 20.2153   1
   1   7 -15 101.070 17.9633   2
  -1  -7  15 104.333 14.2224   1
  -1  -7  15 72.5097 12.7539   1
  -1  -7  14 16.9962 10.9025   1
  -1  -7  14 23.0512 10.7069   1
   1   7 -14 48.6218 15.4450   2
   1   7 -13 64.5086 13.9709   2
  -1  -7  13 76.1338 11.2173   1
  -1  -7  13 84.8392 11.9835   1
  -1  -7  12 11.2413 8.89180   1
   1   7 -12 10.9939 9.87874   2
  -1  -7  12 22.8673 11.2605   2
  -1  -7  12 11.5409 8.24065   1
   1   7 -11 1.82185 8.98205   2
  -1  -7  11 9.72801 9.01013   2
  -1  -7  11-3.38773 7.95691   1
  -1  -7  11 4.58692 8.31293   1
   1   7 -10 1.06101 8.56531   2
  -1  -7  10 10.4756 7.53068   1
  -1  -7  10 8.68073 8.84951   2
  -1  -7   9 1.44303 7.49414   2
   1   7  -9 13.1642 8.06953   2
   1   7  -9 8.90731 7.11896   1
  -1  -7   9 18.0439 7.09257   1
  -1  -7   8 22.9665 8.50069   2
  -1  -7   8 21.5527 7.28343   1
   1   7  -8 31.0637 8.11054   1
   1   7  -8 19.5195 8.24088   2
  -1  -7   7 45.9702 8.56673   1
   1   7  -7 40.3912 8.90027   2
   1   7  -7 50.5134 8.94986   1
  -1  -7   7 56.3902 9.74379   2
  -1  -7   6 10.1669 6.98813   2
   1   7  -6 19.4269 7.94023   2
  -1  -7   6 18.8119 7.27756   1
   1   7  -6 1.05253 6.29112   1
  -1  -7   5 104.906 11.0197   1
   1   7  -5 116.824 12.0579   2
  -1  -7   5 109.517 11.7755   2
   1   7  -5 111.088 11.2246   1
   1   7  -4 86.5830 11.0903   2
  -1  -7   4 73.2242 10.1464   1
  -1  -7   4 97.8125 11.3711   2
   1   7  -4 93.2746 10.7281   1
   1   7  -3 57.9505 9.96188   2
  -1  -7   3 46.4042 8.87979   1
   1   7  -3 49.3043 8.83727   1
  -1  -7   3 40.3307 8.33300   2
  -1  -7   2 18.6999 7.45986   2
   1   7  -2 18.1170 7.80478   1
  -1  -7   2 8.59704 6.96794   1
   1   7  -2 28.3544 8.59560   2
  -1  -7   1 8.69804 7.73982   1
   1   7  -1 3.90290 6.39294   1
   1   7  -1-5.83527 6.54564   2
  -1  -7   1 7.48040 7.21279   2
   1   7   0 49.0472 9.74895   2
  -1  -7   0 50.7932 10.2820   2
   1   7   0 38.2980 9.27961   1
  -1  -7   0 37.2526 9.98678   1
  -1  -7  -1 58.5256 11.2058   2
  -1  -7  -1 53.6270 11.5287   1
   1   7   1 52.4984 11.1619   2
   1   7   1 55.9018 10.8027   1
  -1  -7  -2 211.535 18.1298   1
  -1  -7  -2 249.791 18.5879   2
   1   7   2 228.181 18.5055   2
   1   7   2 237.048 18.4166   1
   1   7   3 50.3803 11.5582   1
  -1  -7  -3 40.4641 11.1064   2
  -1  -7  -3 27.0062 11.3966   1
  -1  -7  -4-9.31754 11.2386   1
  -1  -7  -4 16.6131 10.2588   2
   1   7   4 0.24894 9.65261   1
  -1  -7  -5 5.60838 11.9742   2
  -1  -7  -5 13.9042 12.5817   1
   1   7   5-7.43551 11.5245   1
  -1  -7  -6 0.53215 13.9942   1
   1   7   6 4.04982 12.3701   1
  -1  -7  -6 2.90106 13.7934   2
  -1  -7  -7 141.891 20.3008   2
   1   7   7 115.242 19.7701   1
  -1  -7  -7 131.252 21.3777   1
  -1  -7  -8 23.3748 19.4632   1
  -1  -7  -8-3.41831 18.5400   2
   1   7   8-16.8618 17.7424   1
  -1  -7  -9 68.6608 15.5639   2
   1   7   9 58.8375 15.4146   1
  -1  -7  -9 52.2956 15.3019   1
  -1  -8  15 12.7746 12.4678   1
   1   8 -15 1.73324 17.0116   2
  -1  -8  15 4.96497 12.0073   1
  -1  -8  14 19.8309 11.3349   1
   1   8 -14 28.1230 15.0680   2
  -1  -8  14 44.0011 11.6225   1
   1   8 -13 71.9334 16.1031   2
  -1  -8  13 109.186 18.4078   2
  -1  -8  13 83.3827 13.6324   1
  -1  -8  13 99.7451 14.1672   1
  -1  -8  12 2.37943 9.58094   1
   1   8 -12 41.2090 13.0083   2
  -1  -8  12 11.6446 11.2365   2
  -1  -8  12 11.1067 9.69857   1
  -1  -8  11 5.12310 8.30881   1
  -1  -8  11-10.0449 10.8033   2
   1   8 -11-14.5238 11.3343   2
  -1  -8  11-15.1499 9.46310   1
  -1  -8  10 16.8315 8.95425   1
   1   8 -10 9.01075 8.25688   1
  -1  -8  10 43.3665 11.9567   2
   1   8 -10 21.4141 10.1525   2
   1   8  -9 0.79116 8.11566   1
  -1  -8   9-9.80047 9.00472   2
   1   8  -9-0.16156 8.63791   2
  -1  -8   9 8.49872 8.09011   1
   1   8  -8 41.6719 9.58067   1
  -1  -8   8 44.6725 9.64587   1
   1   8  -8 52.6388 11.4013   2
  -1  -8   8 45.1024 11.6708   2
   1   8  -7 55.1008 10.0094   1
  -1  -8   7 52.0246 10.7979   2
  -1  -8   7 37.2848 8.83654   1
   1   8  -7 47.6162 10.7470   2
   1   8  -6 203.663 16.5362   2
   1   8  -6 236.450 16.6089   1
  -1  -8   6 213.601 16.9528   2
  -1  -8   6 170.067 14.5256   1
   1   8  -5 3.32566 7.58217   2
  -1  -8   5 1.88492 7.66988   1
  -1  -8   5 1.93287 7.57651   2
   1   8  -5-8.70817 7.94652   1
  -1  -8   4 38.6403 9.62422   1
   1   8  -4 24.8415 9.28071   1
   1   8  -4 29.0653 9.31317   2
  -1  -8   4 33.9811 10.0278   2
  -1  -8   3 66.1739 11.4776   1
  -1  -8   3 67.0889 12.1304   2
   1   8  -3 69.3462 12.5245   2
   1   8  -3 64.6859 11.1930   1
  -1  -8   2 145.720 14.8996   2
  -1  -8   2 116.277 13.8609   1
   1   8  -2 123.293 14.8236   2
   1   8  -2 148.720 14.9378   1
  -1  -8   1-1.46766 8.80058   2
   1   8  -1 0.21880 7.97948   1
  -1  -8   1 3.74372 8.81346   1
   1   8  -1 3.71109 8.31192   2
   1   8   0 14.5339 10.4587   2
  -1  -8   0-5.98025 9.09580   2
  -1  -8   0-19.1279 10.9608   1
   1   8   0-0.63144 8.46212   1
  -1  -8  -1 19.4431 10.8162   2
   1   8   1 20.5927 10.8027   2
  -1  -8  -1 22.5062 11.3130   1
   1   8   1 25.2476 10.3021   1
  -1  -8  -2-3.73852 10.6005   2
   1   8   2 25.4805 11.0990   2
  -1  -8  -2 9.12134 11.2013   1
   1   8   2-7.87430 11.3796   1
  -1  -8  -3 19.5973 12.6612   2
  -1  -8  -3 26.9756 14.6155   1
   1   8   3 19.0484 12.8074   1
  -1  -8  -4 3.20055 12.8342   2
   1   8   4 42.1626 15.3442   1
  -1  -8  -4 32.0162 15.3287   1
  -1  -8  -5 11.8325 15.6027   2
  -1  -8  -5-3.86492 15.0500   1
   1   8   5 20.7797 14.4831   1
  -1  -8  -6 9.61316 17.1475   2
   1   8   6 47.8102 18.5705   1
  -1  -8  -6 28.2763 17.6128   1
  -1  -8  -7-12.6897 18.4269   2
  -1  -8  -7-2.32776 20.8265   1
   1   8   7 1.57389 20.0336   1
  -1  -9  14 11.1220 12.3643   1
  -1  -9  14-2.90122 13.0486   1
  -1  -9  13 56.9735 13.7696   1
  -1  -9  13 69.3661 12.9441   1
   1   9 -13 43.3894 17.0522   2
  -1  -9  13 32.6591 15.0195   2
  -1  -9  12 38.8099 12.0175   1
   1   9 -12 13.5900 15.0493   2
  -1  -9  12 31.6693 15.7525   2
  -1  -9  12 19.4759 12.5256   1
   1   9 -11 0.96411 11.0609   1
  -1  -9  11 1.41394 10.1760   1
   1   9 -11-4.37764 13.4152   2
  -1  -9  11-6.30298 13.9381   2
  -1  -9  10-6.09665 10.0475   1
   1   9 -10 23.6114 10.4997   1
  -1  -9  10-11.7095 12.2636   2
   1   9 -10 5.95707 12.4757   2
  -1  -9   9 195.237 19.6641   2
  -1  -9   9 156.511 15.7972   1
   1   9  -9 188.830 17.1755   1
   1   9  -9 197.245 19.3618   2
  -1  -9   8 43.4400 11.5936   1
   1   9  -8 21.5092 9.98544   1
  -1  -9   8 47.3360 13.3430   2
   1   9  -8 9.14841 10.4268   2
   1   9  -7 53.0761 13.1763   2
  -1  -9   7 65.2818 13.4175   2
  -1  -9   7 70.8079 12.2203   1
   1   9  -7 71.9356 12.3991   1
   1   9  -6 61.3565 12.0547   1
  -1  -9   6 50.7363 11.1632   1
   1   9  -6 51.3972 13.4552   2
  -1  -9   6 49.8155 12.5690   2
   1   9  -5 73.3088 13.2052   2
   1   9  -5 69.6095 12.6333   1
  -1  -9   5 66.3793 13.1915   2
  -1  -9   5 61.1680 12.8685   1
   1   9  -4 67.5485 14.1823   2
  -1  -9   4 73.4335 13.1361   1
  -1  -9   4 70.5023 13.9098   2
   1   9  -4 86.5140 13.9356   1
  -1  -9   3 1.27781 10.7266   2
   1   9  -3-8.43190 11.2950   2
   1   9  -3-15.7682 10.9553   1
  -1  -9   3-0.99109 11.0554   1
   1   9  -2 13.2518 10.3872   1
  -1  -9   2 8.80981 12.1032   1
   1   9  -2-8.07775 12.0723   2
  -1  -9   2-11.7619 10.7595   2
   1   9  -1 18.6199 12.0052   1
   1   9  -1-9.87111 12.6907   2
  -1  -9   1 7.15144 11.2644   2
  -1  -9   1-2.19945 11.7629   1
   1   9   0 27.8461 13.7319   2
   1   9   0 9.23569 12.2340   1
  -1  -9   0 27.2310 13.5913   2
  -1  -9   0 13.0523 13.3484   1
  -1  -9  -1 39.0910 14.1241   2
  -1  -9  -1 8.27697 13.1354   1
   1   9   1 6.79194 14.1698   2
   1   9   1 23.4306 12.4293   1
  -1  -9  -2-12.4057 14.0227   2
   1   9   2 3.18895 14.9603   1
  -1  -9  -2 21.9313 14.1751   1
  -1  -9  -3 23.4393 17.3922   1
  -1  -9  -3 10.8506 15.6129   2
   1   9   3-7.99036 15.1027   1
  -1  -9  -4-33.5187 18.9363   1
  -1  -9  -4-25.6504 18.3713   2
   1   9   4-35.0176 18.2106   1
   1   9   5 56.1325 21.5681   1
  -1  -9  -5 91.4790 24.8561   1
  -1 -10  12 7.36294 13.5138   1
   1  10 -12-11.3127 17.8101   2
  -1 -10  12-16.0711 18.3057   2
  -1 -10  11-3.85052 12.8183   1
   1  10 -11 5.81927 12.7054   1
   1  10 -11 8.79270 15.4796   2
  -1 -10  11 17.5031 16.8296   2
  -1 -10  10 66.1667 15.0728   1
   1  10 -10 75.5864 19.5232   2
   1  10 -10 57.5019 15.3159   1
  -1 -10   9 2.28144 12.4687   1
   1  10  -9 6.97726 15.2922   2
  -1 -10   9 19.6258 14.2266   2
   1  10  -9 25.4315 13.4719   1
  -1 -10   8 34.3767 15.2661   2
   1  10  -8 1.54270 14.6125   2
   1  10  -8 30.1560 12.7403   1
  -1 -10   8-6.24093 12.6346   1
  -1 -10   7 8.99685 12.2647   1
   1  10  -7 17.7633 14.1263   2
  -1 -10   7-8.89853 13.3877   2
   1  10  -7-10.2167 12.5272   1
  -1 -10   6 17.2230 12.7222   2
   1  10  -6 5.47217 13.9479   2
   1  10  -6 12.9265 12.5151   1
  -1 -10   6 19.6894 13.1841   1
  -1 -10   5 36.9366 13.7902   2
   1  10  -5 14.1470 12.1275   1
   1  10  -5 10.6607 13.7417   2
  -1 -10   5 33.1074 14.2538   1
   1  10  -4 98.4040 16.0567   1
   1  10  -4 65.0891 15.9831   2
  -1 -10   4 65.9675 15.4689   2
  -1 -10   4 83.4484 15.7172   1
   1  10  -3 64.3610 17.5045   2
   1  10  -3 81.3814 16.0157   1
  -1 -10   3 96.2972 17.2364   2
  -1 -10   3 48.6426 15.7108   1
   1  10  -2 92.2713 17.2187   2
  -1 -10   2 87.9628 17.6465   1
  -1 -10   2 116.307 19.2065   2
   1  10  -2 99.9626 17.8580   1
   1  10  -1 58.4358 16.4844   2
  -1 -10   1 20.8062 17.0855   1
   1  10  -1 37.7815 16.0623   1
   1  10   0-8.43128 17.2122   2
   1  10   0-12.3251 14.4625   1
  -1 -10   0 6.45208 15.6426   2
  -1 -10   0-0.08249 16.3797   1
   1  10   1 5.54452 17.6286   2
   1  10   1 0.48771 16.4219   1
  -1 -10  -1-22.6576 17.4543   2
  -1 -10  -1-16.9392 17.8409   1
  -1 -10  -2 24.6317 17.8529   2
  -1 -10  -2 57.4338 20.8047   1
   1  10   2 26.0341 19.6688   1
  -1 -10  -3 37.9049 23.0040   1
   1  10   3 82.2551 22.1960   1
   1  11 -10 12.7263 16.9421   1
   1  11 -10-19.8622 18.8867   2
  -1 -11  10-18.7674 16.5072   1
  -1 -11  10 39.1323 20.7892   2
   1  11  -9 2.82928 18.0310   2
   1  11  -9-8.89150 16.8708   1
  -1 -11   9 3.10247 19.5544   2
  -1 -11   9-17.6170 16.8584   1
   1  11  -8 20.4181 19.7631   2
   1  11  -8 46.8802 16.4254   1
  -1 -11   8 34.0587 18.5271   2
  -1 -11   8 45.7794 16.3249   1
   1  11  -7 38.8774 17.0119   2
  -1 -11   7 18.5307 15.2195   1
   1  11  -7-1.85176 15.1697   1
   1  11  -6-7.21472 17.8804   2
  -1 -11   6 20.3790 16.7710   1
   1  11  -6 25.9961 16.4605   1
  -1 -11   6-29.8567 17.5619   2
   1  11  -5 25.9733 17.0660   2
  -1 -11   5 46.9630 18.7289   2
   1  11  -5 27.6974 16.3577   1
  -1 -11   5 34.0408 17.2092   1
  -1 -11   4 29.9348 16.4605   2
   1  11  -4 2.35093 16.0849   1
  -1 -11   4 16.6374 18.9267   1
   1  11  -4 10.6870 17.3660   2
  -1 -11   3 21.5426 18.6849   1
   1  11  -3-0.25245 19.8969   2
   1  11  -3-0.62732 17.1119   1
   1  11  -2 24.7803 18.7284   2
   1  11  -2 29.3088 19.1217   1
  -1 -11   2 4.83882 18.6326   1
   1  11  -1-25.3139 20.5855   1
   1  11  -1 25.0795 20.7524   2
  -1 -11   1-9.15155 19.3389   2
  -1 -11   1 24.2618 20.1881   1
   1  11   0 13.5536 17.9998   1
  -2  11   0 29.8112 18.9042   2
   2 -11   0 30.8023 19.8641   2
   2 -11   0 11.2976 17.7343   1
  -2  11   0 74.9047 21.6252   1
  -2  11  -1 27.8338 20.6509   2
   2 -11   1 26.8502 20.0949   2
  -2  11  -1 5.54363 17.8810   1
   2 -11   1-19.5557 17.6663   1
   2 -11   2 7.59678 17.1718   1
  -2  11  -2-1.82191 19.4896   2
   2 -11   2-10.9691 18.9029   2
  -2  11  -2 5.46066 16.8259   1
   2 -11   3 0.20114 15.5816   1
  -2  11  -3 1.31139 19.5180   2
   2 -11   3-28.9332 19.5968   2
  -2  11  -3 2.34077 15.6276   1
   2 -11   4-3.57899 15.5940   1
   2 -11   4 1.23177 18.6435   2
  -2  11  -4 25.7694 17.9522   2
  -2  11  -4 27.1842 13.8249   1
   2 -11   5 37.9791 14.8574   1
  -2  11  -5 27.3912 18.2468   2
  -2  11  -5 20.4513 13.0666   1
  -2  11  -6 17.5931 12.4517   1
   2 -11   6-18.5535 13.9758   1
  -2  11  -6-10.6538 20.6240   2
   2 -11   6-26.2542 19.5605   2
  -2  11  -7 38.7732 21.3560   2
  -2  11  -7-1.03782 12.4874   1
   2 -11   7 6.58497 12.9179   1
   2 -11   8 41.4390 12.2053   1
  -2  11  -8 40.8098 21.7290   2
   2 -11   8 57.9568 23.3415   2
  -2  11  -8 39.5341 11.1326   1
  -2  11  -9 46.1619 6.27567   1
   2 -11   9 49.5331 6.55862   1
  -2  10   3 118.050 22.3635   1
   2 -10  -3 110.898 23.3811   2
   2 -10  -3 111.865 25.0708   1
  -2  10   3 117.156 22.8714   2
   2 -10  -2 29.4770 17.2982   1
   2 -10  -2 51.8474 17.6905   2
  -2  10   2 60.7011 19.3071   2
  -2  10   2 13.6343 16.7291   1
   2 -10  -1-13.5322 17.5325   1
  -2  10   1 27.0502 16.3486   2
   2 -10  -1 41.0652 16.7947   2
  -2  10   1 9.10857 15.1572   1
  -2  10   0 3.98993 14.4352   2
  -2  10   0-2.97111 13.1377   1
   2 -10   0-23.9829 13.4717   2
   2 -10   0-8.56619 14.1531   1
  -2  10  -1-18.5033 14.0130   1
  -2  10  -1-17.9287 15.2075   2
   2 -10   1 3.79442 13.2054   1
   2 -10   1 11.2042 15.6636   2
   2 -10   2 12.8258 13.7096   1
  -2  10  -2 25.7557 14.0731   2
  -2  10  -2 42.4288 12.7207   1
   2 -10   2 28.7633 14.6793   2
  -2  10  -3 9.54975 11.1580   1
   2 -10   3-10.8948 11.7836   1
  -2  10  -3-0.07191 13.7538   2
   2 -10   3-20.0316 15.6711   2
   2 -10   4 3.49476 11.3787   1
  -2  10  -4 23.9459 14.1148   2
   2 -10   4 25.8238 14.1445   2
  -2  10  -4 21.3536 11.2946   1
  -2  10  -5 31.0476 14.9986   2
  -2  10  -5 19.4162 10.1382   1
   2 -10   5 1.88268 13.6330   2
   2 -10   5 6.98981 10.8771   1
   2 -10   6 39.2828 11.0553   1
   2 -10   6 21.1837 15.0790   2
  -2  10  -6 34.4531 10.0457   1
  -2  10  -6 27.9746 14.7243   2
   2 -10   7 9.68414 9.34303   1
  -2  10  -7 8.87230 15.5795   2
  -2  10  -7 14.3110 9.27188   1
   2 -10   7-4.57928 15.3167   2
  -2  10  -8 20.6646 17.5388   2
   2 -10   8 5.88072 16.0509   2
   2 -10   8-5.95271 7.56332   1
  -2  10  -8 6.59932 7.75671   1
   2 -10   9-4.17732 4.86023   1
  -2  10  -9 12.8023 4.63867   1
  -2  10 -10 5.32209 18.5529   2
   2 -10  10-0.24749 17.2950   2
   2 -10  11 9.93050 19.7237   2
  -2  10 -11 38.9393 22.4355   2
   2  -9  -6-5.92626 18.1380   1
  -2   9   6 19.6976 17.0128   1
   2  -9  -6 6.04507 13.9022   2
   2  -9  -5 52.0960 20.0475   1
  -2   9   5 23.8697 18.8338   1
   2  -9  -5 68.5963 18.1688   2
   2  -9  -4 13.9121 17.0861   1
   2  -9  -4-17.4797 13.7625   2
  -2   9   4 19.1602 15.5831   1
  -2   9   4 11.8015 14.4220   2
   2  -9  -3 104.073 17.9827   2
  -2   9   3 83.6654 17.1133   2
  -2   9   3 70.5632 17.6253   1
   2  -9  -3 85.1542 19.8328   1
   2  -9  -2 5.23788 12.5029   2
  -2   9   2-11.5587 13.8405   2
   2  -9  -2-3.85981 12.9518   1
  -2   9   2 7.13726 12.7256   1
  -2   9   1 2.43953 11.6994   2
   2  -9  -1-18.3050 13.2623   1
  -2   9   1 7.24957 12.4549   1
   2  -9  -1 13.6903 11.0248   2
  -2   9   0 44.0904 13.0960   2
   2  -9   0 37.8836 12.2646   1
   2  -9   0 60.2736 13.8814   2
  -2   9   0 57.0584 13.7183   1
  -2   9  -1 73.6420 14.1351   2
   2  -9   1 68.3504 13.8382   2
  -2   9  -1 54.9164 12.5098   1
   2  -9   1 68.6144 14.0236   1
  -2   9  -2 16.8620 11.9476   2
   2  -9   2-10.3923 9.23641   1
  -2   9  -2 9.08009 9.57367   1
   2  -9   2 2.08695 11.1472   2
   2  -9   3 13.5609 9.70617   1
  -2   9  -3 27.3082 11.5962   2
  -2   9  -3 27.5360 9.12344   1
   2  -9   3 13.4428 11.5627   2
   2  -9   4 16.3099 9.28684   1
  -2   9  -4 15.7002 12.3343   2
   2  -9   4 37.8343 12.3496   2
  -2   9  -4 27.3298 9.12447   1
  -2   9  -5 70.5248 14.4319   2
   2  -9   5 63.4627 13.8705   2
  -2   9  -5 51.8329 9.30716   1
   2  -9   5 47.2342 9.94035   1
  -2   9  -6 6.40419 7.13163   1
   2  -9   6-2.37454 7.13516   1
  -2   9  -6 12.0168 12.9705   2
   2  -9   6 7.70222 12.5038   2
  -2   9  -7-19.3096 11.9711   2
   2  -9   7 11.3983 13.2955   2
  -2   9  -7 0.99250 6.38579   1
   2  -9   7 4.07930 6.72172   1
   2  -9   8 30.1269 5.54989   1
  -2   9  -8 38.9098 6.10083   1
   2  -9   9-0.99876 14.2932   2
  -2   9 -10 27.6114 16.5033   2
   2  -9  10 21.4786 14.9793   2
  -2   9 -11 20.1255 18.0346   2
  -2   9 -12 96.0641 23.1139   2
  -2   8   7 27.6349 19.1832   1
   2  -8  -7 11.0427 15.2070   2
   2  -8  -7-3.05131 21.6681   1
   2  -8  -6-14.6891 16.0981   1
  -2   8   6 26.8979 17.1139   1
   2  -8  -6 12.1162 13.0963   2
   2  -8  -5 77.9541 15.2312   2
  -2   8   5 112.411 18.4642   1
  -2   8   5 113.016 16.4971   2
   2  -8  -5 102.694 18.4374   1
   2  -8  -4-9.31594 14.0837   1
  -2   8   4 16.3375 12.0523   2
   2  -8  -4 32.4087 11.5935   2
  -2   8   4 11.3582 12.7878   1
  -2   8   3 4.58094 10.8700   1
  -2   8   3 5.65134 10.7793   2
   2  -8  -3-15.2728 9.80748   2
   2  -8  -3 13.9962 11.7974   1
   2  -8  -2 71.0224 12.9640   2
   2  -8  -2 31.0753 12.0276   1
  -2   8   2 43.8006 11.7248   2
  -2   8   2 32.6571 11.1285   1
  -2   8   1 106.685 14.8859   2
   2  -8  -1 107.116 13.9055   2
  -2   8   1 104.824 14.0154   1
   2  -8  -1 96.2329 14.2680   1
   2  -8   0 8.41962 9.05233   1
  -2   8   0 11.0555 8.95943   2
  -2   8   0 3.43366 8.21391   1
   2  -8   0 0.36023 9.12586   2
   2  -8   1 32.2515 9.60665   1
  -2   8  -1 28.0635 9.05130   1
   2  -8   1 36.0320 10.1309   2
  -2   8  -1 53.9392 11.5191   2
  -2   8  -2 7.91367 6.90727   1
   2  -8   2 6.00192 7.81357   1
  -2   8  -2-2.17504 8.86147   2
   2  -8   2-7.47026 9.44141   2
  -2   8  -3 26.4459 9.79354   2
  -2   8  -3 12.3326 6.84531   1
   2  -8   3 18.3405 9.69940   2
   2  -8   3 21.5651 8.21938   1
   2  -8   4 10.7217 7.17432   1
  -2   8  -4 12.5519 8.82131   2
  -2   8  -4 10.2814 6.36261   1
   2  -8   4 18.9746 10.0942   2
   2  -8   5 14.0633 6.60565   1
  -2   8  -5 8.79668 9.18072   2
   2  -8   5 25.7880 10.7572   2
  -2   8  -5 15.7818 6.46739   1
  -2   8  -6 14.8948 10.1477   2
   2  -8   6 1.47803 9.63280   2
  -2   8  -6 3.36281 5.63234   1
   2  -8   6 2.63952 5.55656   1
  -2   8  -7 63.5457 12.6200   2
   2  -8   7 60.0790 12.6250   2
   2  -8   7 38.9803 5.69894   1
  -2   8  -7 48.7428 6.14837   1
  -2   8  -8 1.83500 1.78037   1
  -2   8  -8-5.02170 10.5490   2
   2  -8   8 0.60990 2.06585   1
   2  -8   8 8.64433 9.96904   2
  -2   8  -9 6.85332 11.6887   2
   2  -8   9-4.71102 10.3744   2
  -2   8 -10-12.9131 12.8851   2
   2  -8  10-2.84248 12.3167   2
  -2   8 -11 43.2528 16.8971   2
  -2   8 -12 24.1095 16.9332   2
  -2   8 -13 32.1853 18.6712   2
   2  -7  -9-0.72623 15.2737   2
   2  -7  -9 55.2493 22.6913   1
  -2   7   9 6.85985 20.3818   1
  -2   7   8 42.7662 17.6270   1
   2  -7  -8 24.5285 20.0489   1
   2  -7  -8 59.1983 14.6658   2
  -2   7   7-4.69880 14.9404   1
   2  -7  -7 5.59464 12.2042   2
   2  -7  -7 1.06396 15.2665   1
  -2   7   6-3.94003 13.2835   1
   2  -7  -6-16.6477 13.2495   1
   2  -7  -6 15.1667 9.96617   2
  -2   7   5 8.27752 12.1722   1
  -2   7   5 0.76876 10.3289   2
   2  -7  -5-8.29693 8.71804   2
   2  -7  -5 14.7569 12.4848   1
   2  -7  -4 69.3875 11.6497   2
  -2   7   4 64.0879 13.0323   1
  -2   7   4 81.1117 12.6345   2
   2  -7  -4 63.5392 13.7599   1
  -2   7   3-5.35828 8.70973   1
  -2   7   3-10.2052 9.09331   2
   2  -7  -3 8.65834 8.62384   2
   2  -7  -3 8.49368 9.91017   1
  -2   7   2-2.48236 8.44862   1
   2  -7  -2 5.27283 7.95522   1
  -2   7   2-10.5161 8.00222   2
   2  -7  -2-4.68676 7.91144   2
  -2   7   1 323.735 18.8668   2
  -2   7   1 302.227 18.9610   1
   2  -7  -1 274.883 18.2899   1
  -2   7   0 152.514 13.8574   2
  -2   7   0 161.565 13.9870   1
   2  -7   0 179.300 14.2723   2
   2  -7   0 147.765 13.7062   1
  -2   7  -1 26.0662 7.30585   1
   2  -7   1 20.0750 7.55009   1
   2  -7   1 32.3738 8.36374   2
  -2   7  -1 28.4467 8.22887   2
  -2   7  -2-3.85071 5.91094   1
   2  -7   2-4.70417 5.64585   1
  -2   7  -2 1.31079 7.07562   2
   2  -7   2 9.71010 6.93276   2
  -2   7  -3 221.728 15.8807   2
   2  -7   3 215.508 15.9875   2
  -2   7  -3 183.834 12.1289   1
   2  -7   3 180.697 12.2381   1
   2  -7   4 8.41545 5.21407   1
  -2   7  -4 19.2817 8.03070   2
  -2   7  -4 16.1067 5.49662   1
   2  -7   4 21.5846 8.50519   2
  -2   7  -5 25.5444 8.95105   2
   2  -7   5 27.5393 9.09480   2
  -2   7  -5 19.7718 5.19964   1
   2  -7   5 23.1926 5.46357   1
   2  -7   6 129.771 14.0755   2
  -2   7  -6 132.727 14.1139   2
   2  -7   6 101.262 7.27582   1
  -2   7  -6 102.573 7.17680   1
  -2   7  -7 12.5376 2.62284   1
   2  -7   7 12.0848 2.60578   1
  -2   7  -7 21.6290 9.01680   2
   2  -7   7 28.6558 8.86980   2
   2  -7   8 133.408 15.6311   2
  -2   7  -8 145.599 15.9848   2
   2  -7   9 2.68197 9.91633   2
  -2   7  -9-3.66545 9.36307   2
  -2   7 -10 29.4636 12.6075   2
  -2   7 -11 53.8027 15.2034   2
  -2   7 -12 26.1337 14.3555   2
  -2   7 -13 122.522 21.3036   2
  -2   7 -14 57.5364 20.8698   2
   2  -6 -10-15.4458 15.1290   2
   2  -6 -10-38.8913 22.7101   1
  -2   6  10-8.91175 17.7327   1
   2  -6  -9-11.5047 11.6858   2
  -2   6   9 11.5760 15.9844   1
   2  -6  -8 17.6024 10.6378   2
   2  -6  -8 4.31558 14.9218   1
  -2   6   8 21.5681 13.2862   1
   2  -6  -7 25.1673 9.69493   2
   2  -6  -7 8.66466 13.4572   1
  -2   6   7 9.98584 12.1917   1
   2  -6  -6 12.0059 10.5198   1
   2  -6  -6-2.15910 8.22958   2
  -2   6   6 11.1073 10.7353   1
  -2   6   5 6.75305 7.46335   2
   2  -6  -5 13.0430 9.46175   1
   2  -6  -5 17.0725 8.30787   2
  -2   6   5 4.40920 9.76199   1
  -2   6   4 28.4200 8.34655   2
   2  -6  -4 30.2398 8.43224   2
   2  -6  -4 40.8243 10.9543   1
  -2   6   4 21.3848 10.0417   1
  -2   6   3 65.4744 9.48948   2
   2  -6  -3 67.5107 9.46288   2
   2  -6  -3 69.1697 11.1952   1
  -2   6   3 61.5738 10.7646   1
   2  -6  -2 10.3539 7.43365   1
  -2   6   2 4.57852 6.35880   2
   2  -6  -2-3.31302 5.71971   2
  -2   6   2-0.27180 6.19237   1
   2  -6  -1 0.54480 6.38815   1
  -2   6   1 1.82118 5.62098   2
   2  -6  -1-3.38798 5.66575   2
  -2   6   1-0.49320 5.98347   1
  -2   6   0 26.7079 7.18190   2
   2  -6   0 29.5282 7.03145   1
   2  -6   0 31.1507 7.15100   2
  -2   6   0 26.1954 6.64953   1
  -2   6  -1 174.367 12.8821   2
  -2   6  -1 158.693 11.6021   1
   2  -6   1 156.863 11.6526   1
   2  -6   1 169.228 12.6761   2
  -2   6  -2 9.46364 6.49521   2
   2  -6   2 21.5033 5.76461   1
   2  -6   2 9.17649 6.20772   2
  -2   6  -2 16.9470 5.36873   1
  -2   6  -3 257.414 15.7134   2
  -2   6  -3 259.442 12.1818   1
   2  -6   3 240.781 12.1748   1
   2  -6   3 275.941 16.1722   2
  -2   6  -4 2.30529 3.60120   1
  -2   6  -4-0.57634 6.20131   2
   2  -6   4-0.24258 5.82742   2
   2  -6   4 2.36819 3.75224   1
  -2   6  -5 64.4283 9.78997   2
   2  -6   5 76.6978 10.0990   2
  -2   6  -5 60.9040 5.42477   1
   2  -6   5 68.7719 5.90194   1
  -2   6  -6 7.79455 2.30743   1
  -2   6  -6 3.49212 7.44569   2
   2  -6   6 9.12226 2.42485   1
   2  -6   6 16.2284 7.24664   2
   2  -6   7 40.0686 9.63042   2
  -2   6  -7 45.4621 9.83890   2
  -2   6  -8 25.2008 9.38033   2
   2  -6   8 31.7971 9.44467   2
  -2   6  -9 11.3434 8.97247   2
  -2   6 -10-0.06022 10.4228   2
  -2   6 -11 13.3269 12.2608   2
  -2   6 -12 4.92230 13.7386   2
  -2   6 -13-15.5435 14.3017   2
  -2   6 -14 2.12537 18.5949   2
   2  -5 -12 71.7061 11.9753   2
   2  -5 -12 60.1057 16.1991   1
  -2   5  12 36.7933 14.3284   1
   2  -5 -11 31.3227 12.8843   2
  -2   5  11-8.31037 19.1609   1
   2  -5 -10 44.6293 18.0259   1
   2  -5 -10 74.9368 13.8802   2
  -2   5  10 40.7619 17.2948   1
   2  -5  -9-4.76722 13.1027   1
   2  -5  -9-0.35232 9.04835   2
  -2   5   9 4.38241 12.7975   1
   2  -5  -8 18.4786 11.4101   1
   2  -5  -8 3.79887 8.06210   2
  -2   5   8 17.6671 11.5376   1
   2  -5  -7 2.41756 10.0030   1
   2  -5  -7 7.05303 7.53157   2
  -2   5   7-1.22324 9.63460   1
   2  -5  -6 154.080 12.1969   2
  -2   5   6 153.947 15.7055   1
   2  -5  -6 156.144 16.3365   1
  -2   5   5 110.859 10.6310   2
  -2   5   5 121.475 13.4654   1
   2  -5  -5 115.683 10.5182   2
   2  -5  -5 115.837 13.2921   1
  -2   5   4-7.86954 5.26977   2
   2  -5  -4 5.54054 7.17500   1
   2  -5  -4 6.26577 5.51334   2
  -2   5   4 8.13287 7.42480   1
  -2   5   3 244.139 13.7329   2
   2  -5  -3 257.189 13.7244   2
  -2   5   3 240.636 15.9013   1
   2  -5  -3 236.978 16.1741   1
   2  -5  -2 48.5343 6.93029   2
  -2   5   2 41.6735 7.03553   2
  -2   5   2 46.5928 8.14374   1
   2  -5  -2 54.4402 8.62947   1
  -2   5   1 28.6720 6.87567   1
   2  -5  -1 23.6875 5.75065   2
  -2   5   1 19.4358 5.71620   2
   2  -5  -1 27.1896 6.77899   1
  -2   5   0 737.708 22.3071   1
  -2   5   0 762.833 22.4800   2
   2  -5   0 779.424 22.4897   2
   2  -5   0 796.889 23.3616   1
  -2   5  -1 142.729 10.7446   2
   2  -5   1 155.132 11.0199   2
  -2   5  -1 146.964 10.0835   1
   2  -5   1 142.936 10.0318   1
  -2   5  -2 245.810 13.6461   2
  -2   5  -2 229.916 11.2334   1
   2  -5   2 241.384 13.5434   2
   2  -5   2 247.789 11.6553   1
   2  -5   3 30.0564 6.45316   2
  -2   5  -3 32.0505 4.83559   1
  -2   5  -3 30.0126 6.60404   2
   2  -5   3 32.7104 4.83838   1
  -2   5  -4 46.0308 4.57211   1
  -2   5  -4 36.9169 7.31994   2
   2  -5   4 41.8088 4.52826   1
   2  -5   4 52.8304 7.99904   2
  -2   5  -5 117.132 11.1067   2
   2  -5   5 126.654 11.3110   2
  -2   5  -5 103.400 4.71858   1
   2  -5   5 100.167 4.84217   1
  -2   5  -6 25.9925 7.37667   2
   2  -5   6 34.3932 7.56617   2
  -2   5  -7 28.8661 8.15012   2
  -2   5  -8 15.7724 8.20918   2
  -2   5  -9 77.7250 12.4482   2
  -2   5 -10 181.112 17.4975   2
  -2   5 -11 161.671 17.5795   2
  -2   5 -12 43.3716 13.6173   2
  -2   5 -13 11.3793 15.0375   2
  -2   5 -14 42.5429 17.4305   2
  -2   5 -15 9.28192 19.4937   2
   2  -4 -13 51.7203 14.8496   1
   2  -4 -13 38.8822 9.38587   2
  -2   4  13 56.2170 15.3124   1
  -2   4  12 30.7050 18.4938   1
   2  -4 -12 65.3576 20.4731   1
   2  -4 -11 10.5171 10.9900   2
   2  -4 -11 14.4511 16.5580   1
  -2   4  11-21.8941 14.7905   1
   2  -4 -10 58.3499 10.7271   2
  -2   4  10 30.4893 13.7760   1
   2  -4 -10 13.2896 12.9320   1
   2  -4  -9 14.7015 11.2170   1
   2  -4  -9-0.88269 7.36681   2
  -2   4   9 12.2258 11.2756   1
   2  -4  -8 13.6677 9.22513   1
   2  -4  -8 14.8536 7.13295   2
  -2   4   8 12.9934 9.68059   1
   2  -4  -7 17.9567 9.98261   1
   2  -4  -7 13.6687 6.26333   2
  -2   4   7 1.33634 7.73308   1
   2  -4  -6 1.86456 4.93008   2
   2  -4  -6 3.87352 6.95090   1
  -2   4   6 1.21869 7.25197   1
  -2   4   5 39.9052 8.34492   1
  -2   4   5 43.9235 6.66361   2
   2  -4  -5 38.5289 6.07918   2
   2  -4  -5 36.1034 8.54806   1
   2  -4  -4 2.04006 5.69690   1
  -2   4   4-0.90810 4.28831   2
   2  -4  -4 5.84654 4.37865   2
  -2   4   4 0.80456 5.53920   1
   2  -4  -3 134.570 8.94020   2
  -2   4   3 134.779 9.15676   2
   2  -4  -3 144.704 11.7259   1
  -2   4   3 136.356 11.4264   1
   2  -4  -2 64.6415 6.61401   2
  -2   4   2 56.1577 6.38755   2
   2  -4  -2 59.7882 7.79315   1
  -2   4   2 62.8866 7.73817   1
   2  -4  -1 337.919 13.2672   2
  -2   4   1 314.996 12.9688   2
   2  -4  -1 326.129 14.7231   1
  -2   4   1 319.506 14.4573   1
  -2   4   0 94.7631 7.93124   1
  -2   4   0 85.7240 7.40552   2
   2  -4   0 85.2698 7.48291   2
   2  -4   0 79.9458 7.49770   1
  -2   4  -1 703.269 18.1236   1
  -2   4  -1 704.774 19.7240   2
   2  -4   1 701.847 19.5948   2
   2  -4   1 684.691 18.1221   1
  -2   4  -2 4.44551 4.20927   2
  -2   4  -2 1.19708 2.99039   1
   2  -4   2 2.03929 3.03056   1
   2  -4   2-0.71616 3.81408   2
  -2   4  -3 269.139 13.3976   2
   2  -4   3 274.073 13.4517   2
   2  -4   3 273.706 9.42705   1
  -2   4  -3 274.222 9.40182   1
  -2   4  -4 169.973 5.90661   1
   2  -4   4 175.535 11.5133   2
  -2   4  -4 192.363 12.2132   2
   2  -4   4 175.087 6.30291   1
  -2   4  -5 82.0137 9.18740   2
   2  -4   5 84.1855 9.01767   2
  -2   4  -6 65.1148 8.95464   2
  -2   4  -7 593.774 23.6078   2
  -2   4  -8 4.43618 7.10339   2
  -2   4  -9 8.86916 8.54945   2
  -2   4 -10 64.8384 11.7820   2
  -2   4 -11-3.06560 10.0285   2
  -2   4 -12 7.55371 12.1877   2
  -2   4 -13-4.51524 13.8054   2
  -2   4 -14 3.58846 15.9285   2
  -2   4 -15-4.49788 19.5742   2
   2  -3 -13 18.8864 12.4833   2
  -2   3  13-24.5323 18.4944   1
   2  -3 -13 0.43404 19.5238   1
   2  -3 -12 38.6987 18.3804   1
   2  -3 -12 24.1256 10.8388   2
  -2   3  12 1.65973 14.8777   1
   2  -3 -11-6.05083 12.9211   1
   2  -3 -11 6.79353 8.30413   2
  -2   3  11 28.8511 13.4484   1
   2  -3 -10 1.25520 6.63918   2
  -2   3  10-6.91378 11.2591   1
   2  -3  -9-10.4427 8.70347   1
   2  -3  -9 11.6848 6.52257   2
  -2   3   9 0.97676 9.29519   1
   2  -3  -8 60.7552 7.77450   2
   2  -3  -8 52.2936 11.2642   1
  -2   3   8 56.7854 10.8051   1
   2  -3  -7 116.294 8.83491   2
   2  -3  -7 108.725 12.5513   1
  -2   3   7 106.423 12.0997   1
   2  -3  -6 186.851 9.97946   2
   2  -3  -6 179.068 14.3611   1
  -2   3   6 186.508 14.2237   1
   2  -3  -5 2.94340 3.48524   2
  -2   3   5 5.76920 5.72452   1
   2  -3  -5 7.19077 5.74455   1
  -2   3   4 25.9031 4.40521   2
   2  -3  -4 28.8147 4.40880   2
   2  -3  -4 26.1300 6.68036   1
  -2   3   4 24.5998 6.39221   1
   2  -3  -3 9.61275 5.01096   1
   2  -3  -3 6.67311 3.14958   2
  -2   3   3 6.26489 3.36527   2
  -2   3   3 9.56318 4.56335   1
  -2   3   2 52.1780 5.20748   2
   2  -3  -2 45.4282 4.85203   2
   2  -3  -2 49.2307 6.55204   1
  -2   3   2 49.7838 6.60359   1
   2  -3  -1 51.8260 5.22006   2
  -2   3   1 50.3828 5.08503   2
   2  -3  -1 52.4129 6.31653   1
  -2   3   1 50.0216 6.13568   1
  -2   3   0 30.7515 4.54699   2
   2  -3   0 23.3459 4.11716   2
   2  -3   0 24.8552 4.54824   1
  -2   3   0 27.5696 4.61701   1
  -2   3  -1 45.2137 5.38133   2
   2  -3   1 43.5255 4.89843   1
  -2   3  -1 43.1431 4.70775   1
   2  -3   1 46.2550 5.32238   2
  -2   3  -2 39.0953 5.43809   2
   2  -3   2 31.8146 5.03734   2
   2  -3   2 37.0279 4.11816   1
  -2   3  -2 34.8874 3.91386   1
  -2   3  -3 216.425 6.88426   1
  -2   3  -3 226.457 11.6834   2
   2  -3   3 222.946 11.3031   2
  -2   3  -3 222.531 7.06703   1
  -2   3  -4 786.164 9.23498   1
  -2   3  -4 788.948 22.2051   2
  -2   3  -5 11.5441 5.14476   2
  -2   3  -6-0.49581 5.07859   2
  -2   3  -7 225.901 14.7277   2
  -2   3  -8 10.9415 6.77511   2
  -2   3  -9 20.5938 8.89251   2
  -2   3 -10 69.7440 11.8271   2
  -2   3 -11 21.2101 10.3578   2
  -2   3 -12 5.01479 11.8740   2
  -2   3 -13-2.81751 13.6856   2
  -2   3 -14 46.9922 17.9190   2
  -2   3 -15-27.1366 19.5785   2
   2  -2 -14 5.21453 19.3156   1
   2  -2 -14 21.3134 11.8308   2
  -2   2  14-27.7154 19.8228   1
   2  -2 -14 52.6909 13.6844   2
   2  -2 -13 25.4833 17.0049   1
  -2   2  13 73.2343 18.8262   1
   2  -2 -13 50.3360 12.0229   2
   2  -2 -12 5.65462 12.9002   1
   2  -2 -12 0.43252 8.42415   2
  -2   2  12 8.92872 11.6517   1
   2  -2 -11-11.1025 10.9973   1
   2  -2 -11 3.57051 7.15149   2
  -2   2  11 5.36773 10.1825   1
   2  -2 -10 87.7449 9.28074   2
   2  -2 -10 65.8763 13.2786   1
  -2   2  10 89.3339 13.8472   1
   2  -2  -9 162.450 10.2272   2
   2  -2  -9 135.594 14.7272   1
  -2   2   9 126.452 13.9005   1
   2  -2  -8 12.4644 4.38740   2
  -2   2   8 8.73996 6.96706   1
   2  -2  -8 11.4288 7.95525   1
   2  -2  -7 23.2606 4.32731   2
   2  -2  -7 14.9107 6.88084   1
  -2   2   7 28.3910 7.68084   1
   2  -2  -6 2.88279 5.75970   1
   2  -2  -6 3.24888 2.98564   2
  -2   2   6-2.28311 5.64373   1
   2  -2  -5 217.621 8.11562   2
   2  -2  -5 209.227 13.3910   1
  -2   2   5 207.514 13.1082   1
   2  -2  -4 8.77223 5.02793   1
  -2   2   4 14.2075 5.02127   1
  -2   2   4 13.9044 2.89372   2
   2  -2  -4 14.0448 2.82236   2
   2  -2  -3 10.9477 4.71904   1
  -2   2   3 7.83758 2.53024   2
  -2   2   3 12.4555 4.65455   1
   2  -2  -3 1.88683 2.15266   2
   2  -2  -2 44.3875 3.84934   2
  -2   2   2 42.9727 3.81059   2
   2  -2  -2 49.1032 6.14139   1
  -2   2   2 43.6810 5.83001   1
  -2   2   1 788.548 14.6599   2
   2  -2  -1 769.389 14.3678   2
   2  -2  -1 787.472 19.1310   1
  -2   2   1 806.895 19.0374   1
  -2   2   0 86.6763 5.67979   2
   2  -2   0 79.7656 5.44352   2
   2  -2   0 90.0197 6.53697   1
  -2   2   0 95.6186 6.51269   1
  -2   2  -1 342.631 11.5328   2
   2  -2   1 330.576 11.0517   2
  -2   2  -1 331.834 10.4240   1
  -2   2  -2 18.6734 4.06826   2
  -2   2  -2 17.5967 2.89522   1
  -2   2  -2 14.8896 2.82060   1
  -2   2  -3 66.6260 3.84219   1
  -2   2  -3 61.9643 6.45151   2
  -2   2  -3 62.9291 3.91793   1
  -2   2  -4 354.460 14.5586   2
  -2   2  -4 357.917 6.91765   1
  -2   2  -4 326.102 6.84768   1
  -2   2  -5 4.48308 1.04909   1
  -2   2  -5 6.08626 1.12390   1
  -2   2  -5 9.24047 4.74173   2
  -2   2  -6 2.47242 4.60622   2
  -2   2  -7-4.22612 6.02743   2
   2  -2   8 148.776 4.44494   1
  -2   2  -8 140.117 4.41281   1
  -2   2  -9 5.90815 1.93028   1
   2  -2   9 6.22141 1.87396   1
   2  -2  10 0.04956 2.16411   1
  -2   2 -10 0.89274 8.71456   2
  -2   2 -10 3.43372 2.38184   1
  -2   2 -11 67.8085 5.13971   1
   2  -2  11 86.8329 5.28139   1
  -2   2 -12 96.4172 16.5094   2
   2  -2  12 35.0888 4.57236   1
   2  -2  13 6.65444 3.57987   1
   2  -2  13 5.14545 3.90741   1
   2  -2  14 18.0146 4.05124   1
   2  -2  14 10.8089 4.01062   1
  -2   2 -15-17.7942 18.1812   2
   2  -1 -15 18.0248 13.0378   2
   2  -1 -15 8.11330 13.1996   2
  -2   1  15 40.1832 19.6049   1
   2  -1 -14-11.2278 10.4301   2
   2  -1 -14 2.44408 10.3316   2
  -2   1  14-18.5848 15.2883   1
   2  -1 -14 25.3942 17.2869   1
   2  -1 -13 14.3916 8.69298   2
   2  -1 -13-3.17062 8.13849   2
   2  -1 -13 24.3330 15.6026   1
   2  -1 -12 245.626 14.4382   2
   2  -1 -12 250.660 14.8684   2
   2  -1 -12 202.825 20.3396   1
  -2   1  12 239.954 20.7250   1
   2  -1 -11 4.26254 10.0514   1
   2  -1 -11 14.5098 6.25217   2
  -2   1  11 11.3176 9.42637   1
   2  -1 -11 5.43370 5.48752   2
   2  -1 -10 11.5337 8.87482   1
  -2   1  10 20.4944 8.79832   1
   2  -1 -10 24.3844 5.82682   2
   2  -1  -9 201.965 10.1261   2
   2  -1  -9 180.764 15.7390   1
  -2   1   9 171.805 14.7732   1
   2  -1  -8 161.109 8.19376   2
   2  -1  -8 157.452 13.7172   1
  -2   1   8 163.724 13.4197   1
   2  -1  -7 142.471 6.77289   2
   2  -1  -7 139.800 12.2554   1
  -2   1   7 143.831 12.0477   1
   2  -1  -6 266.068 7.64105   2
   2  -1  -6 289.095 15.6817   1
  -2   1   6 281.060 15.0119   1
   2  -1  -5 188.374 5.34913   2
   2  -1  -5 202.007 12.5734   1
  -2   1   5 191.610 12.0640   1
   2  -1  -4 73.2202 2.81981   2
   2  -1  -4 78.4329 7.86493   1
  -2   1   4 84.7838 8.02636   1
   2  -1  -3 77.5256 2.83851   2
  -2   1   3 77.8935 2.90587   2
   2  -1  -3 87.5317 7.81111   1
  -2   1   3 89.4210 7.52826   1
  -2   1   2 215.588 5.58381   2
   2  -1  -2 231.365 11.0905   1
  -2   1   2 218.963 10.5260   1
  -2   1   1-1.17828 2.75865   1
  -2   1   1 1.60001 1.85713   2
  -2   1   0 248.245 8.29224   2
  -2   1   0 254.797 9.87644   1
  -2   1   0 257.713 9.59664   1
  -2   1  -1 7.17218 2.89683   2
  -2   1  -1 5.44195 2.41483   1
  -2   1  -1 7.45258 2.80663   1
   2  -1   2 1.27152 2.09248   1
  -2   1  -2 1.01962 2.12913   1
  -2   1  -2 0.61673 2.84211   2
  -2   1  -3 149.303 6.23303   1
   2  -1   3 171.092 6.63920   1
   2  -1   4 911.723 14.6054   1
  -2   1  -4 960.022 15.0119   1
  -2   1  -5 91.2732 5.34290   1
   2  -1   5 83.4845 4.97485   1
  -2   1  -6 85.4757 5.52829   1
   2  -1   6 78.6185 5.13888   1
   2  -1   7 28.1199 4.01713   1
  -2   1  -7 20.9276 3.88639   1
   2  -1   8 109.357 6.90060   1
  -2   1  -8 96.0697 6.82505   1
   2  -1   9 12.5265 4.35352   1
  -2   1  -9 11.5649 4.53871   1
   2  -1  10 105.007 8.10593   1
  -2   1 -10 79.1970 7.55596   1
  -2   1 -11-3.02848 5.59657   1
  -2   1 -11-8.44914 10.2827   2
   2  -1  11 2.75626 5.28722   1
  -2   1 -12 0.94878 6.81899   1
  -2   1 -12-6.59601 11.6125   2
   2  -1  12 1.01913 6.30416   1
  -2   1 -13 13.3299 8.30915   1
   2  -1  13 3.21466 7.69622   1
   2  -1  14-4.34077 8.67943   1
  -2   1 -14 3.70555 17.8756   2
  -2   1 -14 3.62590 10.0399   1
   2   0 -15-17.3696 12.2487   2
   2   0 -15-7.03595 12.3732   2
   2   0 -14-12.6980 9.32228   2
  -2   0  14 6.85073 14.5679   1
   2   0 -14-8.24835 9.07844   2
   2   0 -13 10.1462 7.65343   2
  -2   0  13-8.81517 10.5652   1
   2   0 -13 2.15450 7.42797   2
   2   0 -13-17.6532 12.9759   1
   2   0 -12 4.13598 6.01360   2
  -2   0  12-5.53702 10.5104   1
   2   0 -12 4.84633 6.23115   2
   2   0 -12-8.68051 11.0445   1
   2   0 -11 43.6834 6.84706   2
   2   0 -11 42.1082 6.92575   2
  -2   0  11 43.8916 11.2324   1
   2   0 -11 31.7956 11.0780   1
   2   0 -10 35.2150 5.63641   2
   2   0 -10 38.9850 5.86233   2
  -2   0  10 45.8946 10.0146   1
   2   0 -10 31.4481 9.86138   1
   2   0  -9 3.15170 3.41346   2
  -2   0   9-3.54371 6.15887   1
   2   0  -9 4.73923 3.35517   2
   2   0  -9 9.39916 7.12829   1
   2   0  -8 105.359 6.01679   2
   2   0  -8 105.510 6.06281   2
   2   0  -8 103.396 11.2689   1
  -2   0   8 109.904 11.0782   1
   2   0  -7 556.650 10.6122   2
   2   0  -7 542.138 10.5528   2
   2   0  -7 563.362 21.9973   1
  -2   0   7 587.290 21.6164   1
   2   0  -6 6.64313 1.37895   2
  -2   0   6 9.21817 4.99100   1
   2   0  -6 8.00873 5.08319   1
   2   0  -6 6.31348 1.40896   2
   2   0  -5 739.129 22.3359   1
  -2   0   5 739.321 21.7188   1
  -2   0   4 1.32290 3.71145   1
  -2   0   3 13.6238 4.20733   1
  -2   0   3 8.91300 3.81490   1
  -2   0   2 161.456 4.22362   2
  -2   0   2 172.719 9.56348   1
  -2   0   2 169.968 9.01399   1
  -2   0   1 84.4232 6.30568   1
  -2   0   1 76.0061 6.25824   1
   2   0   0 1521.06 23.3008   1
  -2   0   0 1537.59 23.3938   1
  -2   0  -1 1320.75 21.0593   1
   2   0   1 1318.84 21.0593   1
   2   0   2 79.1853 5.59231   1
  -2   0  -2 89.4188 5.87943   1
  -2   0  -3 239.331 9.25647   1
   2   0   3 231.524 9.04337   1
   2   0   4 338.241 11.1374   1
  -2   0  -4 349.874 11.3764   1
   2   0   5 1.44938 2.93726   1
  -2   0  -5-3.75294 3.33200   1
  -2   0  -6 54.6683 5.94482   1
   2   0   6 59.7274 5.82214   1
   2   0   7 29.1355 5.04564   1
  -2   0  -7 32.7642 5.56860   1
  -2   0  -8 4.18804 4.71152   1
   2   0   8 4.70419 4.25117   1
  -2   0  -9 15.7633 6.18340   1
   2   0   9 12.9130 5.24070   1
   2   0  10 190.366 12.3929   1
  -2   0 -10 218.499 13.5597   1
  -2   0 -11 20.1095 8.27612   1
   2   0  11 14.8009 7.45287   1
  -2   0 -12 12.7235 8.75137   1
   2   0  12 6.66653 8.04752   1
  -2   0 -13-20.5781 10.0710   1
  -2   0 -13 15.9716 14.8310   2
   2   0  13-0.87300 9.34819   1
  -2   0 -14-23.8464 12.2775   1
  -2   0 -14-26.0049 17.4529   2
   2   0  14-9.73547 11.0586   1
   2   1 -16 73.8539 10.9972   2
  -2  -1  16 90.2558 15.9912   1
   2   1 -16 79.2717 11.0841   2
   2   1 -15 70.6210 12.6405   2
   2   1 -15 65.5953 12.1524   2
  -2  -1  15 60.5005 15.6599   1
  -2  -1  15 87.4622 18.5206   1
   2   1 -14 83.8678 11.3206   2
   2   1 -14 78.9096 11.7171   2
  -2  -1  14 61.6691 15.2235   1
  -2  -1  14 69.8625 15.0539   1
   2   1 -13 40.1997 8.79018   2
  -2  -1  13 42.2614 12.7382   1
  -2  -1  13 42.4702 12.2997   1
   2   1 -12 45.7603 7.71582   2
  -2  -1  12 34.9570 10.2915   1
  -2  -1  12 56.3536 11.4050   1
  -2  -1  11 0.49550 7.88248   1
   2   1 -11 5.09409 4.91579   2
   2   1 -10 36.5052 5.42124   2
  -2  -1  10 37.6751 8.57015   1
   2   1  -9 120.725 7.16947   2
  -2  -1   9 122.561 11.6365   1
  -2  -1   9 123.647 11.9167   1
  -2  -1   8 10.7140 5.72081   1
   2   1  -8 5.24402 2.83182   2
  -2  -1   8 9.90105 5.94887   1
  -2  -1   7 353.451 16.2633   1
   2   1  -7 355.139 8.41204   2
  -2  -1   7 368.666 16.9934   1
   2   1  -6 241.568 5.57027   2
  -2  -1   6 227.998 12.7114   1
  -2  -1   6 257.939 13.8393   1
  -2  -1   5 192.181 11.6145   1
  -2  -1   5 204.850 11.5195   1
  -2  -1   4 6.87067 4.03453   1
  -2  -1   4 3.43906 4.02873   1
  -2  -1   3 317.546 12.7910   1
  -2  -1   3 325.729 6.38853   2
  -2  -1   2 266.852 7.33185   2
   2   1  -2 273.859 11.4466   1
  -2  -1   2 274.992 11.4868   1
  -2  -1   1 1363.41 24.1613   1
  -2  -1   1 1360.47 18.8408   2
   2   1  -1 1387.01 24.4355   1
   2   1   0 114.318 7.43885   1
  -2  -1   0 121.878 7.58955   1
   2   1   1 1143.93 21.7546   1
  -2  -1  -1 1160.36 21.9994   1
   2   1   2 28.3792 4.51075   1
  -2  -1  -2 32.3920 4.68172   1
  -2  -1  -3 52.8873 5.71419   1
   2   1   3 55.9650 5.80850   1
   2   1   4 191.949 10.0367   1
  -2  -1  -4 194.370 10.2092   1
   2   1   5 4.86548 3.92068   1
  -2  -1  -5-0.97353 3.91693   1
  -2  -1  -6 127.492 9.66435   1
   2   1   6 132.358 9.46557   1
  -2  -1  -7 207.584 12.5587   1
   2   1   7 198.682 11.9725   1
   2   1   8 596.372 20.6837   1
  -2  -1  -8 539.274 20.3290   1
  -2  -1  -9 11.5667 6.77059   1
   2   1   9 20.7430 7.33824   1
  -2  -1 -10-3.66883 7.40818   1
   2   1  10 2.04730 7.48616   1
  -2  -1 -11 13.8376 9.82163   1
   2   1  11 13.6864 9.15149   1
  -2  -1 -12 2.46681 10.2325   1
   2   1  12-14.4097 11.0732   1
  -2  -1 -13-21.7882 13.7035   1
   2   1  13 15.6668 11.8921   1
   2   2 -16 85.4219 15.2604   2
  -2  -2  16 54.0688 19.8867   1
  -2  -2  16 85.7921 20.4054   1
   2   2 -16 65.1027 14.3609   2
  -2  -2  15 27.0054 15.0934   1
  -2  -2  15 8.25542 13.8213   1
   2   2 -15 28.7084 10.8629   2
  -2  -2  14 6.39758 12.0406   1
   2   2 -14-5.12109 8.60898   2
  -2  -2  14 11.6163 11.8021   1
   2   2 -13 4.41109 6.95606   2
  -2  -2  13 2.57727 9.28739   1
  -2  -2  13 1.52432 10.4591   1
  -2  -2  12 1.02142 8.70539   1
   2   2 -12-1.45059 5.79645   2
  -2  -2  12-2.85510 7.83794   1
   2   2 -11 73.0218 7.61890   2
  -2  -2  11 53.4032 10.7697   1
  -2  -2  11 59.2765 9.72860   1
   2   2 -10 189.342 9.86152   2
  -2  -2  10 187.834 14.6719   1
  -2  -2  10 183.861 14.1790   1
   2   2  -9 237.736 9.91395   2
  -2  -2   9 256.374 15.7178   1
  -2  -2   9 264.069 15.6235   1
   2   2  -8 240.338 8.99106   2
  -2  -2   8 219.470 13.8894   1
  -2  -2   8 234.542 13.9349   1
   2   2  -7 231.385 8.01983   2
  -2  -2   7 249.264 13.8118   1
  -2  -2   7 250.041 14.2311   1
  -2  -2   6 527.886 18.7356   1
   2   2  -6 495.708 10.7210   2
  -2  -2   6 491.063 10.5549   2
  -2  -2   6 530.683 19.6342   1
   2   2  -5 122.298 5.42007   2
  -2  -2   5 125.713 5.50641   2
  -2  -2   5 122.447 9.28876   1
  -2  -2   5 126.026 9.96305   1
   2   2  -4 116.153 8.78191   1
  -2  -2   4 117.958 5.48927   2
  -2  -2   4 111.555 8.60386   1
   2   2  -4 113.382 5.41975   2
  -2  -2   3 0.80506 2.16647   2
   2   2  -3 1.87013 3.41544   1
   2   2  -3 2.09884 2.28099   2
  -2  -2   3-2.41587 3.64441   1
  -2  -2   2 139.970 6.88228   2
   2   2  -2 139.394 8.98769   1
  -2  -2   2 150.128 9.28941   1
  -2  -2   1 46.9246 4.94108   2
   2   2  -1 47.6494 5.93486   1
  -2  -2   1 48.5604 5.90721   1
   2   2   0 108.148 8.03725   1
  -2  -2   0 106.669 8.04362   1
  -2  -2   0 100.656 7.15123   2
  -2  -2  -1 373.655 13.8872   2
  -2  -2  -1 371.154 14.2367   1
   2   2   1 370.961 14.1326   1
  -2  -2  -2 17.1096 4.56208   1
  -2  -2  -2 18.2747 4.92363   2
   2   2   2 22.0989 4.90821   1
   2   2   3 5.38076 3.83820   1
  -2  -2  -3 4.24217 4.45021   2
  -2  -2  -3 2.53402 4.08487   1
  -2  -2  -4 34.4186 6.14274   1
   2   2   4 27.9832 5.59686   1
  -2  -2  -5 175.586 12.0430   1
   2   2   5 163.657 11.1602   1
  -2  -2  -6 261.193 14.9988   1
   2   2   6 248.721 14.1708   1
  -2  -2  -7 39.5550 8.06889   1
   2   2   7 47.0076 8.16091   1
  -2  -2  -8-1.17377 7.12288   1
   2   2   8 10.4913 7.01568   1
  -2  -2  -9 9.66664 9.90005   2
  -2  -2  -9 17.9150 8.88710   1
   2   2   9 23.6723 8.64700   1
  -2  -2 -10 14.1005 9.49180   1
  -2  -2 -10 19.0218 12.4270   2
   2   2  10 11.7972 9.59419   1
  -2  -2 -11 18.3148 13.5954   2
  -2  -2 -11-12.7889 12.1150   1
   2   2  11 22.7351 10.7274   1
  -2  -2 -12-4.49851 17.5225   2
   2   2  12-20.7398 12.7447   1
  -2  -2 -12 5.23104 13.2195   1
  -2  -2 -13 8.04671 15.4255   1
  -2  -2 -13 12.8862 18.6925   2
   2   2  13 2.60955 15.0319   1
  -2  -3  16-12.9293 15.7686   1
   2   3 -16 3.76021 12.5953   2
  -2  -3  16 21.0659 17.0628   1
   2   3 -15 5.14855 10.5284   2
  -2  -3  15-2.98492 13.5370   1
  -2  -3  15 14.4261 13.6319   1
   2   3 -14 4.00125 8.38926   2
  -2  -3  14-5.66832 11.2173   1
  -2  -3  14 5.74026 11.1261   1
   2   3 -13 37.1722 8.68257   2
  -2  -3  13 35.8144 11.5363   1
  -2  -3  13 49.5188 12.2594   1
  -2  -3  12 38.2197 10.4442   1
   2   3 -12 16.3731 6.54096   2
  -2  -3  12 17.2063 9.35698   1
   2   3 -11 113.476 9.16467   2
  -2  -3  11 120.524 12.4579   1
  -2  -3  11 122.814 12.6638   1
  -2  -3  10 10.8570 6.92484   1
   2   3 -10 12.2350 4.84863   2
  -2  -3  10 10.6171 6.36846   1
   2   3  -9 121.674 8.22378   2
  -2  -3   9 117.193 11.0693   1
  -2  -3   9 121.717 11.8971   1
   2   3  -8 207.859 9.56609   2
  -2  -3   8 205.631 13.3424   1
  -2  -3   8 198.614 13.5970   1
  -2  -3   7-1.26155 4.64106   1
   2   3  -7-0.08533 3.03961   2
  -2  -3   7-0.62798 3.17786   2
  -2  -3   7-4.49451 5.74557   1
  -2  -3   6 10.7243 5.06389   1
   2   3  -6 10.1611 3.30554   2
  -2  -3   6 11.5507 3.38796   2
  -2  -3   5 631.196 14.8985   2
  -2  -3   5 601.295 19.7691   1
   2   3  -5 620.494 14.7811   2
   2   3  -5 647.569 20.6569   1
   2   3  -4 42.5574 4.88927   2
  -2  -3   4 48.4156 6.55860   1
  -2  -3   4 39.6089 4.64233   2
   2   3  -4 48.0500 6.63383   1
   2   3  -3 1460.86 23.9351   2
  -2  -3   3 1466.34 23.8950   2
   2   3  -3 1494.94 29.8754   1
  -2  -3   3 1494.09 29.8011   1
   2   3  -2 106.510 7.43109   2
  -2  -3   2 115.007 7.62098   2
   2   3  -2 113.718 8.88191   1
  -2  -3   2 100.187 8.52344   1
   2   3  -1 109.941 8.84406   1
  -2  -3   1 102.788 7.71325   2
  -2  -3   1 109.605 8.86925   1
   2   3   0 210.200 11.9019   1
  -2  -3   0 221.725 11.4703   2
  -2  -3   0 215.318 12.0398   1
  -2  -3  -1 3.53356 4.02381   2
   2   3   1-0.47233 3.83110   1
  -2  -3  -1 8.69704 4.56081   1
   2   3   2 7.86561 4.91710   1
  -2  -3  -2 5.94348 4.68095   1
  -2  -3  -2 8.39789 5.09944   2
  -2  -3  -3 47.9416 7.56181   2
  -2  -3  -3 44.4898 7.31794   1
   2   3   3 37.0120 6.74816   1
  -2  -3  -4 66.5488 8.62084   1
  -2  -3  -4 79.7221 9.82830   2
   2   3   4 71.1499 8.72813   1
  -2  -3  -5 54.2123 9.46460   2
  -2  -3  -5 61.5755 9.32215   1
   2   3   5 49.8944 8.43225   1
  -2  -3  -6 138.952 13.3293   2
   2   3   6 117.871 11.7120   1
  -2  -3  -6 123.943 12.4713   1
  -2  -3  -7 0.74782 7.14784   1
   2   3   7 5.33321 6.81460   1
  -2  -3  -7-7.54879 8.18061   2
  -2  -3  -8 2.65349 8.78916   2
  -2  -3  -8-8.59389 8.73762   1
   2   3   8 3.09948 8.66477   1
  -2  -3  -9 68.0169 14.6247   2
   2   3   9 76.1608 13.1057   1
  -2  -3  -9 86.3151 14.1481   1
  -2  -3 -10 1.11107 14.3965   2
  -2  -3 -10 4.26082 11.3409   1
   2   3  10 9.30690 11.1673   1
  -2  -3 -11 6.06770 15.6695   2
  -2  -3 -11-16.6453 14.7849   1
   2   3  11 5.99494 13.9338   1
  -2  -3 -12-5.82566 16.4007   1
  -2  -3 -12 31.3037 19.8973   2
  -2  -4  16-0.43011 15.1839   1
   2   4 -16 31.7219 14.4847   2
  -2  -4  16 21.2304 16.9793   1
  -2  -4  15 29.4156 13.7149   1
  -2  -4  15 39.1949 13.8731   1
   2   4 -15 29.0713 11.1994   2
  -2  -4  14 17.3081 10.6271   1
  -2  -4  14 38.5108 12.0554   1
   2   4 -14 13.5632 8.83733   2
  -2  -4  13 25.7418 10.4587   1
  -2  -4  13 34.6267 11.4789   1
   2   4 -13 31.1018 8.65254   2
   2   4 -12 43.8340 8.09780   2
  -2  -4  12 39.4133 10.0318   1
  -2  -4  12 33.8763 9.86985   1
  -2  -4  11 27.2495 8.69181   1
   2   4 -11 17.1265 6.57726   2
  -2  -4  11 2.87767 7.61696   1
  -2  -4  10 17.0652 8.05800   1
  -2  -4  10 17.8697 7.25850   1
   2   4 -10 21.9689 6.05076   2
  -2  -4   9 25.3349 7.80208   1
  -2  -4   9 25.3014 5.74360   2
   2   4  -9 18.9101 5.36871   2
  -2  -4   9 26.9071 7.28682   1
   2   4  -8 4.75586 4.29945   2
  -2  -4   8 9.08571 4.47469   2
  -2  -4   8 3.88043 5.42748   1
  -2  -4   8 15.1797 6.82650   1
   2   4  -7 36.7722 5.62101   2
  -2  -4   7 47.2025 7.50259   1
   2   4  -7 43.4616 7.28791   1
  -2  -4   7 45.1790 5.95554   2
  -2  -4   6 473.920 15.3875   2
   2   4  -6 468.123 15.3464   2
  -2  -4   6 465.637 18.7552   1
   2   4  -6 487.760 19.2748   1
   2   4  -5 37.6401 5.48316   2
  -2  -4   5 37.5980 5.52143   2
   2   4  -5 43.6241 7.08956   1
  -2  -4   5 38.6859 6.76881   1
   2   4  -4 99.3108 7.84941   2
  -2  -4   4 110.281 8.17608   2
   2   4  -4 111.150 9.74588   1
  -2  -4   4 99.0464 9.32454   1
   2   4  -3 74.9382 7.23620   2
  -2  -4   3 77.0098 7.24588   2
   2   4  -3 70.2227 8.08075   1
  -2  -4   3 71.9072 8.19467   1
  -2  -4   2 81.7798 7.64805   2
   2   4  -2 82.0708 8.67497   1
   2   4  -2 92.2267 8.15873   2
  -2  -4   2 92.0862 9.15993   1
   2   4  -1-4.35069 4.24906   2
  -2  -4   1 6.58231 4.42156   2
   2   4  -1 7.54143 4.81270   1
  -2  -4   1 6.59270 5.21696   1
  -2  -4   0 145.573 11.3152   1
  -2  -4   0 154.043 10.9684   2
   2   4   0 148.175 11.2768   1
  -2  -4  -1 98.8936 9.72672   2
  -2  -4  -1 84.6612 9.36323   1
   2   4   1 101.470 9.81146   1
  -2  -4  -2 231.635 14.6937   1
  -2  -4  -2 238.898 14.7457   2
   2   4   2 227.665 14.4086   1
   2   4   3 30.2224 7.49609   1
  -2  -4  -3 21.9297 7.51281   1
  -2  -4  -3 26.8630 7.08854   2
  -2  -4  -4 519.278 23.0513   1
  -2  -4  -4 547.606 23.6261   2
   2   4   4 504.136 22.1186   1
  -2  -4  -5 6.34955 7.04245   2
  -2  -4  -5 11.3419 8.03682   1
   2   4   5 5.38632 7.36909   1
  -2  -4  -6 7.53509 8.35096   2
  -2  -4  -6 4.14885 7.94630   1
   2   4   6 1.56893 7.72641   1
  -2  -4  -7 13.5686 9.69569   2
  -2  -4  -7 1.61080 9.16641   1
   2   4   7 0.57920 9.50102   1
  -2  -4  -8-1.55413 10.4998   1
   2   4   8-3.39022 9.80811   1
  -2  -4  -8 2.94393 10.8915   2
  -2  -4  -9 75.4013 16.0238   2
  -2  -4  -9 63.3336 14.6299   1
   2   4   9 44.0403 13.2598   1
  -2  -4 -10 36.9910 16.2472   2
  -2  -4 -10 37.2828 16.6744   1
  -2  -4 -11-14.1733 18.1932   2
  -2  -4 -11 25.2989 16.8331   1
   2   4  11-33.3840 18.6089   1
   2   5 -16 58.0845 15.6251   2
  -2  -5  16 49.4501 17.3816   1
  -2  -5  16 57.4519 17.2847   1
  -2  -5  15 64.9563 15.4079   1
   2   5 -15 37.9353 11.7758   2
  -2  -5  15 43.7306 13.8097   1
  -2  -5  14 20.8101 11.7965   1
   2   5 -14 3.38313 9.51511   2
  -2  -5  14-2.51767 11.2952   1
   2   5 -13 3.58038 8.45873   2
  -2  -5  13 3.06779 10.1452   1
  -2  -5  13 17.9128 10.2775   1
   2   5 -12-4.43830 7.06424   2
  -2  -5  12 14.4561 8.60565   1
  -2  -5  12 6.06130 8.89361   1
  -2  -5  11 7.02692 8.26260   1
   2   5 -11-0.54953 6.31957   2
  -2  -5  11 17.4333 8.52604   1
  -2  -5  10 0.65712 7.88858   1
   2   5 -10 3.49632 6.12494   2
  -2  -5  10 11.2892 7.08081   1
  -2  -5  10-2.63024 5.73663   2
   2   5  -9 1.73218 5.38950   2
  -2  -5   9-5.61225 6.39693   1
  -2  -5   9 2.75108 5.45753   2
  -2  -5   9 7.55930 7.40263   1
   2   5  -8 1.43023 5.22448   2
  -2  -5   8 1.70133 5.82659   1
  -2  -5   8 4.02024 5.05996   2
   2   5  -8 8.98102 6.77045   1
  -2  -5   7 242.214 13.2563   2
   2   5  -7 249.420 13.3176   2
   2   5  -7 272.860 15.9575   1
  -2  -5   7 264.524 15.6443   1
  -2  -5   6 25.8277 6.01875   2
  -2  -5   6 21.7672 6.44718   1
   2   5  -6 21.9261 5.84047   2
   2   5  -6 27.0329 7.15618   1
   2   5  -5 56.7482 7.34208   2
  -2  -5   5 65.0939 7.73963   2
   2   5  -5 62.6552 8.61047   1
  -2  -5   5 49.5293 7.97520   1
   2   5  -4 1.33576 5.35694   1
   2   5  -4 1.84775 4.67308   2
  -2  -5   4 1.91787 4.63935   2
  -2  -5   4 3.76018 5.39382   1
  -2  -5   3 24.1788 6.04114   2
   2   5  -3 32.1240 6.99108   1
   2   5  -3 16.1607 5.73595   2
  -2  -5   3 27.5525 6.93946   1
   2   5  -2 291.931 15.1440   2
  -2  -5   2 305.369 15.4316   2
   2   5  -2 292.939 16.1872   1
  -2  -5   2 274.462 15.8162   1
  -2  -5   1 28.8985 7.11573   1
   2   5  -1 30.2830 7.00335   2
  -2  -5   1 31.6502 6.78825   2
   2   5  -1 29.5710 6.86492   1
   2   5   0 13.2947 6.29746   1
  -2  -5   0 5.30648 5.35913   2
  -2  -5   0-1.47229 5.49542   1
   2   5   0 6.85802 5.74479   2
  -2  -5  -1 109.669 11.3131   2
   2   5   1 100.877 11.2638   1
  -2  -5  -1 102.892 11.1867   1
   2   5   2 3.97924 6.73739   1
  -2  -5  -2 9.47806 6.81182   2
  -2  -5  -2-7.22084 6.37914   1
   2   5   3 12.4903 7.49557   1
  -2  -5  -3 4.77701 7.05159   2
  -2  -5  -3 10.2682 7.95117   1
  -2  -5  -4 19.6215 8.92143   2
  -2  -5  -4 17.6022 9.05687   1
   2   5   4 26.3176 9.26073   1
  -2  -5  -5 0.11245 9.04559   2
  -2  -5  -5 12.8385 8.81230   1
   2   5   5 12.9221 8.77631   1
  -2  -5  -6-5.55171 10.3444   2
  -2  -5  -6-3.47938 10.7765   1
   2   5   6-16.5974 10.1158   1
  -2  -5  -7 13.6624 12.8960   2
  -2  -5  -7 11.7429 12.1758   1
   2   5   7-20.9363 12.4390   1
  -2  -5  -8 84.7069 16.7565   2
  -2  -5  -8 66.3871 16.0562   1
   2   5   8 58.0118 15.3313   1
  -2  -5  -9 118.971 21.6584   2
   2   5   9 60.1656 17.6394   1
  -2  -5  -9 112.245 19.7734   1
  -2  -5 -10-27.6298 18.0075   2
  -2  -5 -10 12.1013 19.3912   1
   2   5  10-0.74844 16.1679   1
  -2  -6  16 42.3435 10.5250   1
  -2  -6  16 21.3102 8.74770   1
   2   6 -15-6.77802 13.1787   2
  -2  -6  15 9.84775 14.0647   1
  -2  -6  15 33.3621 13.8050   1
  -2  -6  14-8.81309 11.6250   1
   2   6 -14-1.17703 10.6447   2
  -2  -6  14 11.5423 12.3685   1
  -2  -6  13 32.3468 11.5448   1
   2   6 -13 20.1473 10.2511   2
  -2  -6  13 12.8970 10.0235   1
  -2  -6  12 13.9403 9.87364   1
  -2  -6  12 4.60216 9.01441   1
   2   6 -12 0.25295 8.79622   2
  -2  -6  11-6.32646 9.93658   1
  -2  -6  11-3.85745 8.53463   1
   2   6 -11-9.01605 7.65679   2
  -2  -6  11-5.00614 7.69009   2
   2   6 -10 33.4006 8.46560   2
  -2  -6  10 42.5347 8.89751   2
  -2  -6  10 65.9573 11.8006   1
  -2  -6  10 46.1782 10.2929   1
  -2  -6   9 5.31986 6.81412   1
   2   6  -9 17.6490 7.55669   2
   2   6  -9 7.61895 7.44680   1
  -2  -6   9 4.98701 6.60273   2
   2   6  -8 22.5920 6.99036   2
  -2  -6   8 30.1232 7.97725   2
  -2  -6   8 33.4748 8.68027   1
   2   6  -8 37.1563 8.72457   1
   2   6  -7 79.5005 9.54937   2
  -2  -6   7 73.2045 9.54681   2
   2   6  -7 91.1167 11.0720   1
  -2  -6   7 87.4333 10.8518   1
   2   6  -6 4.31119 5.63419   2
  -2  -6   6 10.6385 6.17652   2
   2   6  -6 14.3332 7.03077   1
  -2  -6   6 13.4482 7.12523   1
  -2  -6   5 60.0979 8.82146   2
   2   6  -5 70.8891 9.91017   1
   2   6  -5 73.4618 9.47570   2
  -2  -6   5 68.8548 9.86610   1
   2   6  -4 71.6190 9.37599   2
  -2  -6   4 76.2596 9.45761   2
   2   6  -4 67.7193 9.66799   1
  -2  -6   4 73.7182 9.96825   1
   2   6  -3 176.512 13.3261   2
   2   6  -3 176.884 13.8434   1
  -2  -6   3 166.333 13.5888   1
  -2  -6   3 180.027 13.3448   2
   2   6  -2 213.197 14.8080   2
  -2  -6   2 204.731 15.3127   1
  -2  -6   2 215.272 14.5333   2
   2   6  -2 217.834 15.6282   1
   2   6  -1 224.810 15.4602   2
  -2  -6   1 248.183 16.1430   2
  -2  -6   1 218.118 15.8717   1
   2   6  -1 244.010 16.8180   1
  -2  -6   0 322.657 19.5374   1
  -2  -6   0 378.136 19.9076   2
   2   6   0 369.706 20.4865   1
   2   6   0 347.646 19.7660   2
   2   6   1 27.3121 8.77353   1
  -2  -6  -1 13.4180 7.81483   1
  -2  -6  -1 19.8858 8.30871   2
  -2  -6  -2 56.4465 10.8797   2
  -2  -6  -2 45.8887 11.3251   1
   2   6   2 48.5489 10.5324   1
  -2  -6  -3-4.18226 9.03511   2
   2   6   3 10.4703 8.88673   1
  -2  -6  -3 6.96012 9.26577   1
  -2  -6  -4 8.66452 9.80299   2
  -2  -6  -4 3.04383 9.73899   1
   2   6   4 12.2102 9.87929   1
  -2  -6  -5 83.0632 14.5549   2
  -2  -6  -5 46.8959 14.5070   1
   2   6   5 64.7774 13.8438   1
  -2  -6  -6 98.3193 17.0679   1
   2   6   6 97.9923 16.3622   1
  -2  -6  -6 117.463 17.7303   2
  -2  -6  -7-7.47000 15.5822   2
  -2  -6  -7 20.9423 15.3784   1
   2   6   7 24.1095 14.8332   1
  -2  -6  -8 140.446 22.2828   2
  -2  -6  -8 95.4500 19.1323   1
  -2  -6  -9-32.6512 18.8169   1
  -2  -6  -9-3.45114 19.0299   2
   2   6   9 30.4304 18.9443   1
  -2  -7  15 56.3535 15.8584   1
   2   7 -15 43.7788 15.3581   2
  -2  -7  15 87.6745 18.8446   1
  -2  -7  14-1.11123 12.5674   1
   2   7 -14-13.0590 12.6886   2
  -2  -7  14 26.2088 13.2679   1
  -2  -7  13 1.61248 12.1047   1
   2   7 -13 33.2771 12.4917   2
  -2  -7  13 38.1860 13.3125   1
  -2  -7  12 13.7651 11.4927   1
  -2  -7  12 12.7350 9.96289   1
   2   7 -12-4.73113 9.95102   2
  -2  -7  12-11.5209 9.82422   2
   2   7 -11 48.8496 11.5647   2
  -2  -7  11 54.1293 11.3911   2
  -2  -7  11 52.3614 12.3104   1
  -2  -7  11 51.5389 12.8465   1
   2   7 -10 8.28346 8.76078   2
  -2  -7  10 25.4247 8.88812   2
  -2  -7  10 3.43703 9.01921   1
   2   7  -9 102.201 12.6705   1
   2   7  -9 98.0930 12.2017   2
  -2  -7   9 121.437 14.0328   1
  -2  -7   9 128.166 13.6188   2
   2   7  -8 3.38821 7.78677   1
   2   7  -8 7.10480 7.90579   2
  -2  -7   8-8.06900 8.04304   2
  -2  -7   8-2.43075 8.27171   1
  -2  -7   7 48.0672 9.20592   2
   2   7  -7 40.1292 9.04607   2
  -2  -7   7 45.4188 9.36210   1
   2   7  -7 26.4368 8.62840   1
   2   7  -6 2.95525 7.77023   1
   2   7  -6 11.9830 7.33457   2
  -2  -7   6 6.08004 7.58400   2
  -2  -7   6 10.1917 7.49272   1
   2   7  -5 0.58889 7.16234   2
  -2  -7   5 11.5757 7.04194   2
  -2  -7   5 0.44262 7.49559   1
   2   7  -5 6.27643 7.87022   1
   2   7  -4 22.3163 8.49950   2
  -2  -7   4 25.6492 8.23992   2
  -2  -7   4 39.6380 9.61737   1
   2   7  -4 45.5774 10.0492   1
   2   7  -3 11.0354 7.64602   2
  -2  -7   3 3.44552 7.92570   1
  -2  -7   3 2.95537 7.01655   2
   2   7  -3-3.52353 6.89810   1
  -2  -7   2 1.20618 8.10746   1
   2   7  -2 4.70054 7.87658   2
  -2  -7   2-4.41062 7.21198   2
   2   7  -2 2.28118 7.89515   1
   2   7  -1 209.479 17.3173   2
  -2  -7   1 196.829 17.3471   1
  -2  -7   1 219.825 16.9586   2
   2   7  -1 211.805 17.3447   1
  -2  -7   0 21.7857 10.0287   1
   2   7   0 45.9730 11.0288   2
   2   7   0 39.3277 10.3644   1
  -2  -7   0 45.2100 10.5732   2
  -2  -7  -1 33.7329 10.9811   1
   2   7   1 37.5694 11.6802   1
  -2  -7  -1 31.1959 11.1685   2
   2   7   2-9.48706 10.5180   1
  -2  -7  -2 9.90279 9.16280   2
  -2  -7  -2-7.41763 10.2028   1
   2   7   3 28.3488 12.3224   1
  -2  -7  -3-3.09445 10.6938   2
  -2  -7  -3 4.66931 11.6740   1
   2   7   4 9.99785 12.6551   1
  -2  -7  -4 16.5535 13.5190   2
  -2  -7  -4 27.1581 13.1747   1
  -2  -7  -5 117.596 18.5639   2
  -2  -7  -5 102.740 17.4181   1
   2   7   5 85.8443 16.9787   1
  -2  -7  -6 118.153 21.8811   2
  -2  -7  -6 114.123 21.3695   1
  -2  -7  -7 65.4489 18.8939   2
  -2  -7  -7 59.4465 19.8917   1
   2   8 -14 31.0949 15.6160   2
  -2  -8  14 43.8453 17.0579   1
  -2  -8  14 40.4786 15.1136   1
  -2  -8  13 23.2354 15.2766   1
   2   8 -13 12.5874 13.8380   2
  -2  -8  13 35.3843 14.0194   2
  -2  -8  13 18.7949 13.0167   1
   2   8 -12 2.06977 12.5294   2
  -2  -8  12 0.88111 11.9808   2
  -2  -8  12-7.60133 12.6431   1
  -2  -8  12-12.9483 12.8872   1
   2   8 -11 78.1279 14.7946   2
  -2  -8  11 50.0364 13.4908   2
  -2  -8  11 78.8819 13.8589   1
   2   8 -10 6.02302 10.3287   2
  -2  -8  10 10.6894 10.3168   2
  -2  -8  10 0.22041 10.7669   1
   2   8 -10 7.35568 10.9390   1
   2   8  -9 27.5738 11.5165   2
   2   8  -9 28.4715 10.5690   1
  -2  -8   9 40.1862 12.4162   1
  -2  -8   9 21.8385 10.3480   2
   2   8  -8 48.3272 10.9866   2
  -2  -8   8 53.9224 11.7966   2
  -2  -8   8 68.0701 11.9042   1
   2   8  -8 38.5583 11.8130   1
   2   8  -7 1.09125 8.56092   2
   2   8  -7 11.2764 9.20013   1
  -2  -8   7 6.98033 9.63546   1
  -2  -8   7 21.2894 9.58709   2
   2   8  -6 19.9247 10.0106   1
   2   8  -6-1.70330 9.13375   2
  -2  -8   6 9.15288 9.69787   1
  -2  -8   6 6.01304 8.76109   2
   2   8  -5 92.7038 13.5077   2
  -2  -8   5 104.166 13.8110   2
   2   8  -5 94.7566 13.9829   1
  -2  -8   5 118.916 14.8522   1
   2   8  -4 44.5514 11.4822   1
  -2  -8   4 24.2733 10.4127   1
   2   8  -4 14.6005 9.78065   2
  -2  -8   4 25.7931 10.5486   2
   2   8  -3 95.0166 14.3677   2
   2   8  -3 101.193 14.5187   1
  -2  -8   3 100.355 14.2671   2
  -2  -8   3 93.6318 14.3622   1
   2   8  -2 264.973 20.3556   1
   2   8  -2 289.513 21.5638   2
  -2  -8   2 237.392 19.8928   1
  -2  -8   2 309.037 21.4055   2
  -2  -8   1 17.3662 11.6296   1
   2   8  -1 9.42996 10.5920   2
   2   8  -1 10.5043 9.58861   1
  -2  -8   1-5.00761 10.3351   2
   2   8   0 6.88528 11.2568   1
  -2  -8   0 0.80355 11.5759   2
   2   8   0 36.9892 12.0764   2
  -2  -8   0 9.26913 10.9474   1
  -2  -8  -1 17.6147 11.8488   2
   2   8   1 10.2784 12.4971   1
  -2  -8  -1-5.42548 12.7976   1
   2   8   2 57.4545 15.9741   1
  -2  -8  -2 55.4504 14.9959   2
  -2  -8  -2 28.9909 14.6754   1
   2   8   3 16.2234 13.3216   1
  -2  -8  -3 30.8108 14.8394   2
  -2  -8  -3 47.2031 16.7282   1
  -2  -8  -4 84.1420 20.5356   2
  -2  -8  -4 41.7863 18.9917   1
   2   8   4 90.5170 19.1843   1
   2   8   5 4.55124 16.9412   1
  -2  -8  -5 15.9855 18.5309   2
  -2  -8  -5-34.9907 19.5957   1
  -2  -8  -6 27.6514 21.0864   2
   2   8   6 12.4157 18.8776   1
  -2  -8  -6 4.21551 20.6974   1
   2   9 -13 14.1716 16.6448   2
  -2  -9  13-30.0892 17.1836   1
  -2  -9  13 23.9789 16.2323   2
  -2  -9  13 5.98146 16.9101   1
   2   9 -12 3.01271 14.7454   2
  -2  -9  12-22.7631 15.5186   1
  -2  -9  12 6.43971 15.1138   2
  -2  -9  12 13.4681 15.7187   1
   2   9 -11 68.7523 16.5031   2
   2   9 -11 54.9590 16.5879   1
  -2  -9  11 89.8158 17.7042   2
  -2  -9  11 72.9460 16.4695   1
   2   9 -10 8.55688 13.2320   2
  -2  -9  10 37.9467 14.1777   1
  -2  -9  10-3.22287 13.5820   2
   2   9 -10 18.6643 12.1488   1
   2   9  -9 78.1725 14.6985   2
  -2  -9   9 85.2664 14.9473   1
  -2  -9   9 68.6124 14.7020   2
   2   9  -9 72.8907 15.0744   1
   2   9  -8 18.4373 12.1592   2
  -2  -9   8 9.77807 12.2460   2
   2   9  -8 19.1039 11.9286   1
  -2  -9   8 10.5779 11.2960   1
   2   9  -7 5.47035 11.6898   1
  -2  -9   7 9.78134 11.4791   1
   2   9  -7-17.5519 11.9741   2
  -2  -9   7 12.1376 11.6921   2
  -2  -9   6 7.01788 11.0312   1
   2   9  -6 28.0522 13.2458   2
  -2  -9   6 3.91301 12.1027   2
   2   9  -6 11.8662 12.4744   1
   2   9  -5 72.4174 15.1913   1
   2   9  -5 66.1766 14.8386   2
  -2  -9   5 63.0308 14.6553   1
  -2  -9   5 48.7702 12.6102   2
  -2  -9   4 13.5423 12.0429   1
   2   9  -4 18.0832 11.9246   2
  -2  -9   4 18.5455 11.6881   2
   2   9  -4-0.58775 11.8190   1
   2   9  -3 12.9177 12.9926   2
  -2  -9   3 2.50672 11.4136   2
  -2  -9   3-18.0187 11.4699   1
   2   9  -3 11.4695 11.7682   1
  -2  -9   2 20.4515 13.9524   1
   2   9  -2 17.2175 13.2566   2
  -2  -9   2-8.27135 12.3459   2
   2   9  -2 28.8517 13.2113   1
   2   9  -1-18.4988 13.5958   2
   2   9  -1-3.79558 13.7100   1
  -2  -9   1-14.2999 13.7957   1
   2   9   0 20.9700 14.1649   1
  -2  -9   0-12.6561 15.0312   2
  -2  -9   0 25.3005 15.4926   1
   2   9   1 7.09423 15.4271   1
  -2  -9  -1 10.9415 15.5560   2
  -2  -9  -1-14.1639 15.9846   1
   2   9   2 23.6039 17.2555   1
  -2  -9  -2-13.2456 15.7360   2
  -2  -9  -2 15.2568 18.1388   1
   2   9   3 37.8046 17.8474   1
  -2  -9  -3 17.0463 19.2023   2
  -2  -9  -3-1.00284 19.6069   1
  -2  -9  -4 22.3952 21.5030   2
  -2  -9  -4-21.6233 20.8816   1
   2   9   4-2.15420 19.5328   1
  -2 -10  12 60.1352 13.0987   1
  -2 -10  12 36.3496 12.8350   2
   2  10 -12 43.7128 12.5839   2
   2  10 -11-2.42777 17.1053   2
  -2 -10  11 54.8102 19.0445   1
   2  10 -11 30.7422 15.9145   1
  -2 -10  10 21.2276 14.4816   1
   2  10 -10 11.6187 15.7007   2
   2  10 -10 42.0601 16.2992   1
  -2 -10  10 53.1281 17.6907   2
  -2 -10   9 24.0054 15.5811   1
   2  10  -9 48.4344 15.8154   2
  -2 -10   9 27.7497 16.3602   2
   2  10  -9 48.8200 16.9432   1
  -2 -10   8 40.0273 17.0052   1
  -2 -10   8 104.367 19.6216   2
   2  10  -8 22.3107 16.7572   2
   2  10  -8 73.1298 18.5997   1
   2  10  -7 72.9494 19.0228   2
  -2 -10   7 78.4793 17.6446   2
   2  10  -7 76.3019 16.5710   1
  -2 -10   7 50.3205 17.6364   1
   2  10  -6-12.7928 14.1407   1
  -2 -10   6 9.52080 15.5437   1
   2  10  -6 1.80368 15.6592   2
  -2 -10   6 7.95297 15.2480   2
  -2 -10   5-9.73164 13.8585   1
   2  10  -5 24.0310 16.9483   2
  -2 -10   5 18.1950 15.6376   2
  -2 -10   4 25.6634 16.2612   1
  -2 -10   4 19.7865 14.4764   2
   2  10  -4-22.8140 15.3622   2
   2  10  -4 13.3126 15.2947   1
   2  10  -3 10.0657 16.1704   2
  -2 -10   3 22.5342 17.0829   2
   2  10  -3-20.0719 14.7328   1
  -2 -10   3 16.6371 16.4675   1
   2  10  -2-3.79340 16.2494   2
  -2 -10   2 30.6900 17.7801   2
  -2 -10   2-22.5539 17.2485   1
   2  10  -1 28.1159 18.7878   2
   2  10  -1 57.6804 18.0338   1
  -2 -10   1-12.7026 16.3958   2
  -2 -10   1 44.9926 18.8071   1
   2  10   0-11.5303 19.5701   1
  -2 -10   0 4.12264 19.0207   2
  -2 -10   0 1.65037 20.6275   1
  -2 -10  -1 59.7144 24.3760   1
   2  10   1 53.0148 21.9889   1
  -2 -10  -1 54.3910 22.6538   2
  -2 -11   8 13.5297 18.8890   1
   2  11  -8 40.4518 19.8520   2
   2  11  -8 60.6588 20.4888   1
   2  11  -7 24.1412 19.5958   1
   2  11  -7-14.8122 19.4589   2
  -2 -11   7-30.2955 17.4625   2
   2  11  -6-13.6219 19.3215   1
   2  11  -6 36.8270 21.6569   2
  -2 -11   6-5.22660 18.4442   2
   2  11  -5-0.08396 18.6023   2
  -2 -11   5 24.2475 21.0405   2
   2  11  -5 72.0772 22.0749   1
  -2 -11   5 5.10208 19.1767   1
   2  11  -4 32.3746 19.5472   2
  -2 -11   4-12.4691 20.3977   2
   2  11  -4 1.87492 19.5365   1
  -2 -11   4-19.9136 20.6713   1
   2  11  -3 33.5089 20.5325   2
   2  11  -3-4.64377 19.2182   1
  -2 -11   3-27.1676 21.5162   2
  -2 -11   3 41.4738 20.7583   1
   3 -10  -2 42.5272 21.0120   1
  -3  10   2 33.9749 18.9097   1
  -3  10   2-0.59582 17.0168   2
   3 -10  -2 21.5254 18.3066   2
   3 -10  -1 10.6850 18.9928   1
  -3  10   1-18.9542 18.5472   2
   3 -10  -1-15.1756 18.6956   2
   3 -10   0 18.8213 17.1241   1
  -3  10   0 44.8184 16.8764   1
  -3  10   0-7.47600 16.9477   2
   3 -10   0 15.8174 16.8843   2
   3 -10   1 4.21889 15.3619   1
   3 -10   1 39.2523 18.4751   2
  -3  10  -2 56.3896 19.2611   2
   3 -10   2 38.3223 14.9348   1
  -3  10  -2 16.0108 14.0357   1
   3 -10   3-7.65970 13.4603   1
  -3  10  -3 6.28736 17.0705   2
  -3  10  -3 6.73329 12.9178   1
   3 -10   3-8.68002 16.0643   2
   3 -10   4 0.35255 12.7293   1
  -3  10  -4 8.20770 16.2312   2
  -3  10  -4 1.32106 11.2695   1
  -3  10  -5-26.4601 16.9353   2
   3 -10   5 8.97217 16.1463   2
   3 -10   5 10.3055 11.1431   1
  -3  10  -5-19.0022 10.1684   1
   3 -10   6 37.7712 10.4066   1
  -3  10  -6 11.4384 9.74627   1
  -3  10  -6-10.9109 17.5582   2
   3 -10   6-3.50412 15.9895   2
  -3  10  -7 33.1111 18.3441   2
  -3  10  -7 1.52512 7.30366   1
   3 -10   7 27.9045 18.3948   2
   3 -10   7-3.90341 7.56233   1
  -3  10  -8 19.3605 20.2750   2
   3 -10   8 7.77436 18.3051   2
  -3  10  -9 45.6348 21.2890   2
   3 -10   9 77.0553 21.3865   2
   3  -9  -5 98.6696 15.4732   2
  -3   9   5 81.7201 15.2499   2
   3  -9  -4 31.7305 21.1882   1
  -3   9   4 15.6179 16.2923   2
   3  -9  -4 8.84339 15.8878   2
  -3   9   3 63.4809 18.5037   1
   3  -9  -3 8.59917 16.8774   1
  -3   9   3 49.7748 16.1075   2
   3  -9  -3 54.0432 15.9563   2
  -3   9   2-7.19825 15.3239   1
   3  -9  -2-12.9083 15.4060   1
  -3   9   2-17.9447 13.7959   2
  -3   9   1-21.5438 14.5438   1
   3  -9  -1-4.68697 13.2710   1
  -3   9   1 18.1499 13.5228   2
   3  -9  -1 5.80922 12.8327   2
  -3   9   0-14.3109 12.0055   1
   3  -9   0 14.3073 12.5792   1
   3  -9   0-6.35083 12.3627   2
  -3   9  -1 22.8885 11.5917   1
   3  -9   1 28.1073 12.4946   1
  -3   9  -1 16.4680 14.0737   2
   3  -9   1 48.0718 14.9037   2
   3  -9   2 8.52024 10.9457   1
  -3   9  -2 10.0563 10.4865   1
  -3   9  -2 17.4663 12.7589   2
   3  -9   2-14.8908 13.0096   2
   3  -9   3 20.3903 10.4237   1
  -3   9  -3 28.6282 10.3209   1
  -3   9  -3 31.8265 12.5844   2
   3  -9   3 23.1760 12.9214   2
   3  -9   4 5.15430 9.30578   1
  -3   9  -4 26.3352 12.2969   2
  -3   9  -4-2.95422 8.55923   1
   3  -9   4-1.11170 11.7435   2
   3  -9   5 4.09909 8.44128   1
  -3   9  -5 15.3995 13.0456   2
   3  -9   5 7.87374 12.5026   2
  -3   9  -5 19.5400 8.38397   1
  -3   9  -6-1.74684 7.00750   1
  -3   9  -6 0.78166 14.0162   2
   3  -9   6 3.63875 7.39104   1
   3  -9   6 14.2331 14.5176   2
  -3   9  -7 22.0707 13.9246   2
  -3   9  -7-3.47575 3.94622   1
   3  -9   7-2.00576 13.8327   2
   3  -9   7 1.21584 4.51778   1
  -3   9  -8 23.5949 17.7126   2
   3  -9   8 25.4436 15.7521   2
  -3   9  -9-7.12843 17.0459   2
  -3   9 -10 89.4337 22.3092   2
  -3   8   7 11.1437 17.3595   1
   3  -8  -7 33.5911 19.0587   1
   3  -8  -6-18.0953 20.9362   1
   3  -8  -6 19.4532 13.9583   2
  -3   8   6 23.7274 19.4094   1
   3  -8  -5 21.4419 17.3324   1
  -3   8   5-3.24930 12.8652   2
   3  -8  -5 9.93373 13.4301   2
  -3   8   5-10.1532 15.4527   1
  -3   8   4 52.9015 13.6343   2
   3  -8  -4 64.1215 13.5709   2
   3  -8  -4 75.2405 18.0715   1
  -3   8   4 51.2072 16.2494   1
   3  -8  -3 18.4120 14.6231   1
  -3   8   3 29.7648 12.2590   2
   3  -8  -3 11.4379 10.9622   2
  -3   8   3 12.3147 12.2500   1
  -3   8   2-10.9644 12.2718   1
   3  -8  -2 2.87427 11.3279   1
  -3   8   2-2.49066 10.9117   2
   3  -8  -2-6.89876 10.8435   2
  -3   8   1 36.5271 13.0686   1
   3  -8  -1 57.5679 13.0088   2
  -3   8   1 52.8878 12.6213   2
   3  -8  -1 55.1071 13.9473   1
  -3   8   0-4.31163 9.71853   1
   3  -8   0 3.93259 9.83527   1
  -3   8   0 9.04460 10.3205   2
   3  -8   0 7.14655 10.1125   2
  -3   8  -1 84.5474 13.1977   2
   3  -8   1 76.3382 13.3178   2
  -3   8  -1 74.5629 11.6892   1
   3  -8   1 55.0281 12.0429   1
  -3   8  -2-1.29180 8.23970   1
   3  -8   2 0.55062 8.59966   1
  -3   8  -2-17.3796 11.0541   2
   3  -8   2 0.65952 9.00350   2
   3  -8   3 17.2675 8.46750   1
  -3   8  -3 23.5864 8.32117   1
  -3   8  -3 4.75180 9.37100   2
   3  -8   3 34.2062 11.2215   2
   3  -8   4 3.85121 7.11960   1
  -3   8  -4 10.4399 6.71449   1
  -3   8  -4-10.1350 11.0818   2
   3  -8   4 18.7233 10.4084   2
   3  -8   5 23.5232 7.40059   1
  -3   8  -5 50.7712 7.77408   1
   3  -8   5 44.6720 13.0179   2
  -3   8  -5 71.1358 13.4587   2
  -3   8  -6 6.00648 11.8884   2
   3  -8   6 9.17885 11.0521   2
   3  -8   6 2.90011 4.93471   1
  -3   8  -6-3.75917 4.96009   1
  -3   8  -7 14.7449 12.3347   2
   3  -8   7 7.08769 11.9501   2
  -3   8  -8-25.5235 13.9570   2
   3  -8   8 3.10455 12.4935   2
  -3   8  -9 53.0827 14.8394   2
  -3   8 -10 29.1740 17.8486   2
  -3   8 -12-10.8451 19.9664   2
   3  -7  -8 55.5773 14.8780   2
   3  -7  -8-13.3179 20.3648   1
  -3   7   8 16.5537 19.7234   1
   3  -7  -7 42.3531 17.4109   1
   3  -7  -7 33.3373 12.6152   2
  -3   7   7 7.18982 17.9317   1
   3  -7  -6 40.3402 16.9724   1
   3  -7  -6 32.5460 11.2064   2
  -3   7   6 44.3056 16.1163   1
   3  -7  -5 21.2980 14.2557   1
  -3   7   5 67.3075 15.8336   1
  -3   7   5 50.0105 12.2581   2
   3  -7  -5 53.4758 12.0015   2
   3  -7  -4 5.64950 11.8445   1
  -3   7   4-9.38245 9.13173   2
   3  -7  -4 11.5906 9.76577   2
  -3   7   4 15.5021 12.3388   1
   3  -7  -3 37.0513 12.1561   1
  -3   7   3 12.7987 8.82752   2
   3  -7  -3 32.5981 9.51992   2
  -3   7   3 51.1317 12.9233   1
  -3   7   2 95.7283 12.7817   2
  -3   7   2 97.4339 14.3871   1
   3  -7  -2 91.6887 12.1578   2
   3  -7  -2 70.8209 13.3313   1
  -3   7   1 82.5279 11.8918   2
  -3   7   1 69.8501 11.3865   1
   3  -7  -1 71.1780 11.3264   2
   3  -7  -1 63.1129 12.6434   1
  -3   7   0 6.75577 8.10812   2
   3  -7   0-0.13679 7.96708   2
   3  -7   0-4.84063 7.70896   1
  -3   7   0-5.17810 8.32233   1
   3  -7   1 1.96234 7.73091   1
  -3   7  -1-7.32082 8.68433   2
   3  -7   1 6.84727 7.88991   2
  -3   7  -1-3.80997 7.14714   1
  -3   7  -2 264.407 18.1737   2
   3  -7   2 278.040 18.3107   2
  -3   7  -2 249.689 15.2531   1
   3  -7   2 259.389 16.0522   1
  -3   7  -3 219.697 17.3483   2
  -3   7  -3 197.848 12.8791   1
   3  -7   3 232.000 17.0995   2
   3  -7   3 193.873 13.0958   1
   3  -7   4 18.8961 6.68708   1
  -3   7  -4 23.7487 6.23878   1
  -3   7  -4 22.0357 9.52369   2
   3  -7   4 14.6400 9.23426   2
  -3   7  -5 88.7923 13.1590   2
   3  -7   5 75.4972 12.6763   2
  -3   7  -5 65.4778 6.94092   1
   3  -7   5 62.0737 7.16709   1
  -3   7  -6 6.03979 10.2210   2
  -3   7  -6 1.03222 2.60725   1
   3  -7   6-2.04672 9.25233   2
  -3   7  -6 1.14675 2.63104   1
  -3   7  -7 1.58492 10.7644   2
   3  -7   7 5.35943 9.85343   2
  -3   7  -8 13.5137 12.7865   2
  -3   7  -9 19.8251 14.0077   2
  -3   7 -10 41.3663 14.4536   2
  -3   7 -11 51.6982 18.1835   2
  -3   7 -12-15.2355 18.8998   2
   3  -6 -10 53.3883 24.3892   1
   3  -6 -10 48.3804 13.6903   2
  -3   6  10 48.7577 21.9918   1
   3  -6  -9 13.5762 11.8313   2
  -3   6   9-5.00263 18.6381   1
   3  -6  -9 34.5762 18.8298   1
   3  -6  -8-3.24177 10.2587   2
   3  -6  -8-30.0728 16.1954   1
  -3   6   8-12.5457 14.7565   1
   3  -6  -7 13.5920 13.4627   1
   3  -6  -7 37.1030 9.94998   2
  -3   6   7 23.0387 14.8260   1
   3  -6  -6 14.1954 11.7777   1
   3  -6  -6 1.29028 8.42012   2
  -3   6   6 5.22000 12.8826   1
  -3   6   5 49.5334 10.1348   2
   3  -6  -5 40.8899 9.08276   2
  -3   6   5 61.8774 13.3300   1
   3  -6  -5 62.8523 14.2446   1
  -3   6   4 57.4900 9.74919   2
  -3   6   4 48.4945 12.0218   1
   3  -6  -4 49.7004 9.29541   2
   3  -6  -4 67.6242 12.9954   1
  -3   6   3 75.2283 10.2270   2
  -3   6   3 86.5001 12.4374   1
   3  -6  -3 98.0164 10.7468   2
   3  -6  -3 88.3185 13.2350   1
   3  -6  -2 7.67882 8.24376   1
  -3   6   2-1.05418 6.51591   2
   3  -6  -2 3.90566 6.47204   2
  -3   6   2-2.59420 7.43441   1
   3  -6  -1 21.7232 8.00238   1
  -3   6   1 18.0031 7.29398   2
   3  -6  -1 24.4091 7.34575   2
  -3   6   1 4.55020 7.44524   1
  -3   6   0 242.052 15.6497   1
  -3   6   0 204.522 14.3284   2
   3  -6   0 228.378 14.7804   2
   3  -6   0 231.597 15.8184   1
  -3   6  -1 204.644 13.9256   1
  -3   6  -1 221.204 14.9943   2
   3  -6   1 212.383 14.4326   2
   3  -6   1 219.139 14.3253   1
  -3   6  -2 88.0850 11.0384   2
  -3   6  -2 93.7743 9.54054   1
   3  -6   2 97.4483 11.0824   2
   3  -6   2 97.1355 9.65617   1
  -3   6  -3 33.8100 6.41413   1
  -3   6  -3 29.4668 8.36051   2
   3  -6   3 24.4830 8.18995   2
   3  -6   3 30.1379 6.72686   1
  -3   6  -4 49.5196 10.1635   2
   3  -6   4 50.1795 9.64690   2
   3  -6   4 48.8941 6.64549   1
  -3   6  -4 43.4191 6.07714   1
  -3   6  -5 172.781 15.7708   2
   3  -6   5 170.015 14.7948   2
  -3   6  -5 147.862 7.42190   1
  -3   6  -6 57.5779 10.9545   2
  -3   6  -7-1.78323 9.61385   2
  -3   6  -8-0.89734 10.0202   2
  -3   6  -9 137.989 17.8904   2
  -3   6 -10 2.85113 12.7900   2
  -3   6 -11 20.1281 15.0022   2
  -3   6 -12 41.3400 17.2638   2
  -3   6 -13 22.6319 20.7326   2
   3  -5 -11-9.19435 11.3391   2
  -3   5  11-26.0980 19.7669   1
   3  -5 -10 17.7263 17.6789   1
   3  -5 -10 1.21675 10.3791   2
  -3   5  10 14.6229 17.8564   1
   3  -5  -9 4.98172 16.7488   1
   3  -5  -9 12.3172 9.41385   2
  -3   5   9 26.9255 15.0387   1
   3  -5  -8 26.3983 14.2505   1
   3  -5  -8 6.02044 7.71676   2
  -3   5   8 1.58593 12.3459   1
   3  -5  -7-0.07018 11.5099   1
   3  -5  -7 1.31049 7.11470   2
  -3   5   7 9.41059 11.5798   1
   3  -5  -6-8.92431 10.4627   1
   3  -5  -6 2.41157 6.20025   2
   3  -5  -5 7.03287 9.32032   1
  -3   5   5 0.89255 5.87903   2
   3  -5  -5 11.7429 6.02375   2
  -3   5   5-4.04435 8.50642   1
   3  -5  -4 3.05555 8.33521   1
  -3   5   4 18.3997 6.58969   2
   3  -5  -4 13.9663 5.93905   2
  -3   5   4 12.4166 7.94887   1
   3  -5  -3-10.8990 7.40952   1
  -3   5   3 0.75945 5.44286   2
   3  -5  -3 3.43157 5.21990   2
  -3   5   3 6.74102 7.80035   1
   3  -5  -2 0.71358 6.71879   1
  -3   5   2 9.50439 5.63245   2
   3  -5  -2 12.7030 6.01784   2
  -3   5   2 11.6767 6.38440   1
   3  -5  -1 112.507 9.89782   2
   3  -5  -1 109.809 11.4479   1
  -3   5   1 96.3024 9.51226   2
  -3   5   1 116.412 11.2656   1
  -3   5   0 270.546 14.5392   2
   3  -5   0 267.810 14.2339   2
   3  -5   0 284.401 15.7162   1
  -3   5   0 271.824 15.1352   1
  -3   5  -1 154.141 11.0683   1
  -3   5  -1 147.506 11.5078   2
   3  -5   1 154.585 11.6350   2
   3  -5   1 157.727 11.4087   1
   3  -5   2 3.42557 4.85562   1
  -3   5  -2-5.29950 5.92541   2
  -3   5  -2 4.88272 4.59957   1
   3  -5   2 0.80955 5.39431   2
  -3   5  -3-1.08872 6.27911   2
   3  -5   3 9.07973 6.26797   2
  -3   5  -3 1.85564 4.05154   1
   3  -5   3 9.09499 4.68114   1
  -3   5  -4-0.04985 3.35781   1
  -3   5  -4 1.62078 6.51438   2
   3  -5   4 7.00067 5.97834   2
  -3   5  -4 8.22332 3.91114   1
  -3   5  -5 20.8755 2.88389   1
  -3   5  -5 14.3778 2.59106   1
  -3   5  -5 29.4569 8.03098   2
  -3   5  -6 23.5663 8.87791   2
  -3   5  -7 63.9509 11.4798   2
  -3   5  -8-6.66174 8.51854   2
  -3   5  -9 91.3130 14.4862   2
  -3   5 -10 13.4055 12.6775   2
  -3   5 -11 22.8516 13.6873   2
  -3   5 -12 2.89724 15.3603   2
  -3   5 -13 16.8961 18.5063   2
   3  -4 -12 55.0453 23.0512   1
   3  -4 -12 69.6486 12.7424   2
  -3   4  12 35.7951 21.6319   1
   3  -4 -11 11.7480 18.6936   1
   3  -4 -11 26.5681 9.52767   2
  -3   4  11 24.4763 18.1731   1
  -3   4  10 140.216 20.1371   1
   3  -4 -10 136.835 11.4806   2
   3  -4 -10 109.848 19.1983   1
   3  -4  -9 10.6863 13.2520   1
   3  -4  -9-4.29607 6.59886   2
  -3   4   9-7.79775 11.8375   1
   3  -4  -8 12.5097 10.8804   1
   3  -4  -8 13.0084 6.25039   2
  -3   4   8 4.62508 10.6019   1
   3  -4  -7 46.4534 12.1099   1
   3  -4  -7 44.6702 7.10371   2
  -3   4   7 49.4250 11.8406   1
   3  -4  -6 68.7125 7.41152   2
   3  -4  -6 77.6243 13.3433   1
  -3   4   6 78.8912 12.4554   1
   3  -4  -5 21.7156 9.08322   1
   3  -4  -5 19.5166 5.31939   2
  -3   4   5 17.9136 5.05538   2
  -3   4   5 28.7470 8.95014   1
  -3   4   4 96.4548 8.02546   2
   3  -4  -4 103.467 8.13241   2
   3  -4  -4 109.311 12.9833   1
  -3   4   4 113.946 12.2438   1
  -3   4   3 174.391 10.1775   2
   3  -4  -3 186.916 10.2773   2
   3  -4  -3 193.267 14.7150   1
  -3   4   3 176.634 13.5494   1
   3  -4  -2 5.89071 6.16649   1
  -3   4   2 0.89069 4.18270   2
  -3   4   2 4.28612 5.31761   1
   3  -4  -2 2.00579 4.06390   2
  -3   4   1 143.840 9.62987   2
   3  -4  -1 143.894 9.55284   2
   3  -4  -1 150.028 11.7780   1
  -3   4   1 145.736 11.3756   1
   3  -4   0 2.95091 4.83818   1
  -3   4   0 1.06825 4.47870   1
  -3   4   0 2.77625 4.53262   2
   3  -4   0 3.48128 4.40962   2
   3  -4   1 23.6714 5.78319   2
  -3   4  -1 24.3777 5.70460   2
  -3   4  -1 22.0764 5.30006   1
   3  -4   1 18.1658 5.48297   1
  -3   4  -2 0.27405 3.73931   1
  -3   4  -2-0.47791 4.74638   2
   3  -4   2 3.54456 4.73571   2
   3  -4   2-1.10222 4.17790   1
  -3   4  -3 25.1925 6.79168   2
  -3   4  -3 23.0086 4.40346   1
  -3   4  -3 27.5714 4.62410   1
  -3   4  -4 3.81383 2.79135   1
  -3   4  -4-0.28137 2.71755   1
  -3   4  -4 2.63483 5.60698   2
  -3   4  -5 17.9879 2.18719   1
  -3   4  -5 13.1149 6.88222   2
  -3   4  -5 13.6524 1.90849   1
  -3   4  -6 302.423 18.2856   2
  -3   4  -7 274.784 18.7443   2
  -3   4  -8 50.8928 11.0970   2
  -3   4  -9-0.41487 10.0242   2
  -3   4 -10-5.94061 11.5850   2
  -3   4 -11-14.1602 11.7161   2
  -3   4 -12-15.5959 16.6712   2
  -3   4 -13 19.6805 18.2740   2
   3  -3 -13 9.31450 8.84331   2
   3  -3 -13-0.02678 8.73937   2
  -3   3  13-22.3002 20.3412   1
   3  -3 -13-25.2485 21.3555   1
   3  -3 -12-17.1473 20.0196   1
   3  -3 -12 3.26977 8.08135   2
  -3   3  12 21.9186 16.4316   1
   3  -3 -11 8.12385 16.1743   1
   3  -3 -11-1.97058 6.50829   2
  -3   3  11-5.81690 14.7994   1
   3  -3 -10-9.77999 13.0800   1
   3  -3 -10 5.91730 5.41580   2
  -3   3  10 0.98274 11.8379   1
   3  -3  -9 3.58447 11.0241   1
   3  -3  -9 0.64399 4.71069   2
  -3   3   9-2.50763 10.7997   1
   3  -3  -8-1.91200 3.91717   2
  -3   3   8 3.46965 8.76946   1
   3  -3  -8 6.81971 10.5030   1
   3  -3  -7 3.29171 8.28546   1
  -3   3   7 7.65147 7.81067   1
   3  -3  -7 0.93856 3.59373   2
   3  -3  -6 6.75526 7.70048   1
  -3   3   6-3.60808 7.52415   1
   3  -3  -6 5.53111 3.28933   2
  -3   3   5 24.2841 8.13011   1
   3  -3  -5 35.0884 8.63622   1
   3  -3  -5 24.7414 4.26535   2
  -3   3   4 97.8803 6.54102   2
   3  -3  -4 102.129 6.51584   2
   3  -3  -4 111.996 11.5453   1
  -3   3   4 116.717 11.7954   1
   3  -3  -3 24.2438 4.14523   2
  -3   3   3 30.0004 4.54208   2
  -3   3   3 30.5478 7.21899   1
   3  -3  -3 27.6971 7.18521   1
   3  -3  -2 8.56520 5.40011   1
  -3   3   2 16.1673 4.07965   2
  -3   3   2 18.6169 6.27912   1
   3  -3  -2 10.2933 3.50869   2
  -3   3   1 216.927 10.2133   2
   3  -3  -1 206.563 9.78400   2
   3  -3  -1 240.179 13.7759   1
  -3   3   1 216.166 12.5728   1
   3  -3   0 17.5889 4.39657   2
  -3   3   0 18.1464 5.10463   1
  -3   3   0 14.5497 4.41672   2
   3  -3   0 17.8024 5.33268   1
  -3   3  -1 397.387 14.4313   1
  -3   3  -1 375.974 14.7488   2
  -3   3  -1 407.988 14.8753   1
  -3   3  -2 179.991 11.3539   2
  -3   3  -2 171.549 9.11089   1
  -3   3  -2 174.988 9.30944   1
  -3   3  -3 216.224 9.23035   1
  -3   3  -3 217.356 12.9925   2
  -3   3  -3 217.758 9.38754   1
  -3   3  -4 40.2693 4.15833   1
  -3   3  -4 40.9760 7.32410   2
  -3   3  -4 45.0953 4.42001   1
  -3   3  -5 10.8458 2.11261   1
  -3   3  -5 11.6680 6.58348   2
  -3   3  -5 10.3997 2.33064   1
  -3   3  -6 3.71928 6.57333   2
  -3   3  -7 51.3035 10.3047   2
  -3   3  -8 14.5410 8.58154   2
  -3   3  -9 16.3022 10.5108   2
  -3   3 -10-0.44164 10.8526   2
  -3   3 -11 10.9002 11.6601   2
  -3   3 -12-2.70920 15.3468   2
  -3   3 -13 4.59135 18.4133   2
  -3   2  14 29.6460 12.6064   1
   3  -2 -14 10.7520 11.3393   1
   3  -2 -13 3.64126 6.55065   2
  -3   2  13-9.98348 19.0204   1
   3  -2 -13-3.30072 6.97123   2
   3  -2 -13-21.2510 21.9326   1
   3  -2 -12 14.7356 5.76451   2
  -3   2  12 15.2149 15.2229   1
   3  -2 -12 14.5201 5.77872   2
   3  -2 -11 0.71726 4.30540   2
  -3   2  11 22.1753 14.1678   1
   3  -2 -11-3.10982 4.42403   2
   3  -2 -11 11.6243 12.8026   1
   3  -2 -10 144.860 7.22572   2
   3  -2 -10 131.065 6.94247   2
   3  -2 -10 171.765 19.1523   1
  -3   2  10 156.953 17.7951   1
   3  -2  -9 18.2347 11.2534   1
   3  -2  -9 15.1350 3.15978   2
  -3   2   9 16.5093 10.0562   1
   3  -2  -8-8.03490 8.81406   1
  -3   2   8-5.68526 8.38611   1
   3  -2  -8 2.99108 2.03796   2
   3  -2  -7 10.6215 8.15580   1
  -3   2   7 7.65142 7.01878   1
   3  -2  -7 6.08465 1.73141   2
   3  -2  -6 34.2212 9.02936   1
   3  -2  -6 15.7942 1.87307   2
  -3   2   6 30.6872 8.46119   1
  -3   2   5 8.73218 6.61120   1
   3  -2  -5 7.80721 1.60991   2
   3  -2  -5 13.4342 6.79512   1
  -3   2   4 0.47368 1.77852   2
  -3   2   4 1.07844 5.34043   1
   3  -2  -4 2.09121 1.74119   2
   3  -2  -4 5.15707 6.33139   1
  -3   2   3 101.752 5.27628   2
   3  -2  -3 110.942 10.6513   1
  -3   2   3 116.769 10.4470   1
  -3   2   2 20.1350 3.47470   2
  -3   2   2 20.1817 5.53536   1
   3  -2  -2 27.4274 6.17896   1
  -3   2   1 142.548 7.62896   2
  -3   2   1 140.905 9.81760   1
  -3   2   1 146.227 10.1876   1
  -3   2   0 294.752 11.6427   2
  -3   2   0 302.284 13.3459   1
  -3   2   0 307.085 13.2245   1
  -3   2  -1 145.766 9.19513   2
  -3   2  -1 143.383 8.79192   1
  -3   2  -1 147.939 9.20573   1
  -3   2  -2 294.719 13.4144   2
  -3   2  -2 302.633 11.6321   1
  -3   2  -2 297.841 11.8840   1
  -3   2  -3 704.339 16.2557   1
  -3   2  -3 677.718 21.1761   2
  -3   2  -3 697.200 16.7336   1
  -3   2  -4 63.9180 8.46561   2
  -3   2  -4 47.3880 4.80337   1
  -3   2  -4 54.4062 5.19263   1
  -3   2  -5 162.116 12.5617   2
  -3   2  -5 166.164 7.22308   1
  -3   2  -5 162.722 7.44647   1
  -3   2  -6 28.6383 3.51837   1
  -3   2  -6 32.6518 7.95990   2
  -3   2  -6 30.1380 3.61279   1
  -3   2  -7 57.2477 10.1631   2
  -3   2  -7 41.3370 3.56797   1
  -3   2  -7 41.8378 3.43388   1
  -3   2  -8 188.292 5.47397   1
  -3   2  -8 229.475 5.99981   1
  -3   2  -9 15.5355 10.4952   2
  -3   2 -10 123.377 16.2282   2
  -3   2 -11-9.08669 11.8485   2
  -3   2 -12 6.41864 15.5230   2
  -3   2 -13 5.78853 19.6376   2
   3  -1 -14 23.6271 6.25389   2
   3  -1 -14 19.8079 5.30907   2
  -3   1  14 35.3864 19.3534   1
   3  -1 -13 19.2322 5.16759   2
   3  -1 -13 15.1843 4.83400   2
  -3   1  13 26.4236 16.4875   1
   3  -1 -12 5.22312 3.24385   2
  -3   1  12 4.33591 13.5620   1
   3  -1 -12 2.23879 3.43584   2
   3  -1 -12-6.24345 15.1481   1
   3  -1 -11-1.04554 2.22149   2
  -3   1  11-1.12260 11.8436   1
   3  -1 -11 1.52948 2.52196   2
   3  -1 -11-5.13591 12.0827   1
  -3   1  10 11.2514 9.66883   1
   3  -1 -10-12.0814 10.9700   1
  -3   1   9 35.2043 9.84306   1
   3  -1  -9 36.7825 11.2662   1
   3  -1  -8 53.7365 11.4708   1
  -3   1   8 71.9303 11.5646   1
  -3   1   7-0.23509 6.07645   1
   3  -1  -7-1.36730 6.73534   1
  -3   1   6 0.25935 6.06783   1
   3  -1  -6 4.02875 6.36001   1
  -3   1   5 18.5322 6.34973   1
   3  -1  -5 25.1933 7.50968   1
  -3   1   4 190.605 13.0229   1
  -3   1   3-0.90301 5.02252   1
  -3   1   3 0.70936 1.30503   2
  -3   1   3-1.19459 4.45465   1
  -3   1   2 418.051 10.0427   2
  -3   1   2 415.670 17.0298   1
  -3   1   2 447.690 17.0981   1
  -3   1   1 13.4747 3.30747   2
  -3   1   1 22.8681 5.25245   1
  -3   1   1 20.4409 5.41015   1
  -3   1   0-0.53158 3.62766   1
  -3   1   0-1.90404 3.63164   1
  -3   1   0 1.92664 3.04792   2
  -3   1  -1 34.5000 5.16400   2
  -3   1  -1 34.9089 5.28883   1
  -3   1  -1 30.3191 5.30608   1
  -3   1  -2 9.45866 3.71717   1
  -3   1  -2 14.9774 4.63576   2
  -3   1  -2 6.33136 3.74458   1
   3  -1   3 83.6906 6.65128   1
  -3   1  -3 79.3378 8.18854   2
  -3   1  -3 85.3134 6.71444   1
  -3   1  -4 11.7528 3.79466   1
   3  -1   4 9.17624 3.60618   1
  -3   1  -5 511.880 14.4539   1
   3  -1   5 442.667 13.5265   1
  -3   1  -6 316.649 11.7628   1
   3  -1   6 320.313 11.5959   1
  -3   1  -7 115.530 7.88497   1
   3  -1   7 99.9344 7.20168   1
  -3   1  -8 62.8243 11.3789   2
   3  -1   8 45.1621 5.66936   1
  -3   1  -8 42.9502 5.92495   1
   3  -1   9 200.601 9.99174   1
  -3   1  -9 198.001 10.2702   1
   3  -1  10 9.36265 5.15299   1
  -3   1 -10 11.0791 5.61065   1
  -3   1 -10 8.91116 11.3344   2
  -3   1 -11-1.20864 5.49155   1
  -3   1 -11 5.95293 13.3405   2
   3  -1  11 1.82991 5.32974   1
   3  -1  12 6.02620 5.46735   1
  -3   1 -12 8.12140 6.07301   1
   3  -1  13 3.61705 5.62922   1
  -3   1 -13 5.37680 20.8231   2
  -3   1 -13-2.70832 5.41235   1
  -3   0  15-24.5098 17.1942   1
   3   0 -14 0.39942 3.72306   2
  -3   0  14 9.54200 17.5064   1
   3   0 -14-0.88355 4.03905   2
   3   0 -13 24.1189 3.32826   2
   3   0 -13 18.7020 3.45545   2
  -3   0  13 33.5509 16.4722   1
  -3   0  13 17.3557 15.1601   1
   3   0 -12 155.325 4.68549   2
   3   0 -12 156.742 4.80196   2
  -3   0  12 189.023 19.5914   1
  -3   0  12 157.057 19.2706   1
  -3   0  11 59.9503 13.7967   1
  -3   0  11 72.9224 13.3806   1
  -3   0  10 14.3932 9.80416   1
  -3   0  10 12.7538 9.39713   1
  -3   0   9-10.2625 8.35760   1
  -3   0   9 13.2351 8.69167   1
  -3   0   8 594.353 25.2212   1
  -3   0   8 581.462 25.5011   1
  -3   0   7 168.684 13.6479   1
  -3   0   7 164.555 14.0278   1
  -3   0   6 50.1812 8.70382   1
  -3   0   6 58.0850 9.16986   1
  -3   0   5 7.92014 5.85878   1
  -3   0   5 5.84340 5.17900   1
  -3   0   4-2.24334 4.96290   1
  -3   0   4-3.42822 4.52696   1
  -3   0   3 53.5131 2.87803   2
  -3   0   3 50.5278 2.76215   2
  -3   0   3 53.7737 7.15267   1
  -3   0   3 48.4612 7.14216   1
  -3   0   2 3.06859 3.90615   1
  -3   0   2-1.98739 2.16243   2
  -3   0   2 0.77101 4.55552   1
  -3   0   1-0.82509 3.81437   1
  -3   0   1-2.05739 4.22567   1
   3   0   0-0.64822 3.48032   1
  -3   0   0 3.81730 3.81035   1
  -3   0  -1 485.852 16.3369   1
   3   0   1 471.710 16.1150   1
  -3   0  -2 7.44494 4.09185   1
   3   0   2 1.33118 3.69007   1
   3   0   3 81.6550 7.30975   1
  -3   0  -3 92.7582 7.77196   1
   3   0   4 35.2788 5.48417   1
  -3   0  -4 49.6092 6.39429   1
  -3   0  -5 159.117 10.0017   1
   3   0   5 139.849 9.29790   1
  -3   0  -6 114.379 9.17893   1
   3   0   6 116.379 8.90327   1
  -3   0  -7 72.2887 8.39113   1
   3   0   7 77.6235 8.07918   1
  -3   0  -8 7.12471 5.60425   1
   3   0   8 7.57009 5.36553   1
  -3   0  -9 6.17314 6.18072   1
   3   0   9 0.80611 6.22559   1
   3   0  10 32.7530 8.17054   1
  -3   0 -10 40.0467 8.87061   1
  -3   0 -11 13.9251 8.39739   1
   3   0  11 9.86551 7.82837   1
  -3   0 -12 44.0449 10.7363   1
   3   0  12 53.8368 10.7869   1
  -3   0 -12 79.3091 19.7655   2
   3   0  13 48.2228 11.5920   1
  -3   0 -13 57.1082 12.5400   1
   3   1 -15 10.6595 4.57371   2
   3   1 -15 9.17416 4.25571   2
  -3  -1  15 4.57366 19.3204   1
  -3  -1  15 2.13139 18.8907   1
   3   1 -14 2.05110 3.28230   2
  -3  -1  14 16.6569 15.7262   1
   3   1 -14 6.06650 3.37557   2
  -3  -1  14 9.61098 14.7761   1
  -3  -1  13 2.17843 11.9996   1
   3   1 -13 0.14146 2.41348   2
  -3  -1  13 3.15668 13.6127   1
   3   1 -13-1.34071 2.49099   2
  -3  -1  12 1.51238 11.0069   1
  -3  -1  12 16.3222 12.6541   1
  -3  -1  11 38.8189 12.0615   1
  -3  -1  11 23.3393 11.4870   1
  -3  -1  10 489.311 25.1825   1
  -3  -1  10 449.879 24.1307   1
  -3  -1   9 72.4977 11.3736   1
  -3  -1   9 73.6631 11.6003   1
  -3  -1   8 18.7377 8.08593   1
  -3  -1   8 9.39182 7.37398   1
  -3  -1   7 17.1251 7.16979   1
  -3  -1   7 17.2572 6.72808   1
  -3  -1   6-2.46444 5.73108   1
  -3  -1   6-1.42963 5.80120   1
  -3  -1   5 551.158 21.2692   1
  -3  -1   5 591.299 22.8321   1
  -3  -1   4 299.917 5.45957   2
  -3  -1   4 328.135 16.0462   1
  -3  -1   4 341.068 17.2412   1
  -3  -1   3 22.2052 2.92801   2
  -3  -1   3 20.0586 5.74651   1
  -3  -1   3 16.4530 5.94645   1
  -3  -1   2 3.22058 2.71011   2
   3   1  -2-0.49308 4.08999   1
  -3  -1   2 2.14951 4.06726   1
  -3  -1   1 109.384 7.18710   2
  -3  -1   1 120.936 9.60734   1
   3   1  -1 111.147 9.26834   1
   3   1   0 75.4259 7.85530   1
  -3  -1   0 73.2118 7.54872   1
   3   1   1 201.255 11.6213   1
  -3  -1  -1 210.369 11.8348   1
   3   1   2 20.3160 5.24885   1
  -3  -1  -2 23.0295 5.48626   1
  -3  -1  -3 1.10124 4.40140   1
   3   1   3 4.94028 4.40255   1
  -3  -1  -4 9.61565 4.92672   1
   3   1   4 19.0576 5.74684   1
  -3  -1  -5 5.07202 5.27859   1
   3   1   5 4.87264 5.27508   1
  -3  -1  -6 78.5577 9.15531   1
   3   1   6 75.7290 8.77263   1
   3   1   7 10.2370 6.03359   1
  -3  -1  -7 8.95373 7.00411   1
   3   1   8 8.89138 6.76176   1
  -3  -1  -8-2.03747 6.94191   1
   3   1   9 16.1083 8.31755   1
  -3  -1  -9 4.47503 8.32481   1
   3   1  10-4.45646 9.48554   1
  -3  -1 -10-6.63021 9.52039   1
  -3  -1 -11-7.47484 10.9608   1
   3   1  11 2.30542 10.0006   1
  -3  -1 -12 50.3068 14.0876   1
   3   1  12 62.8743 13.6124   1
  -3  -2  15-14.9076 18.1046   1
   3   2 -15 3.60952 4.86185   2
  -3  -2  15 9.58985 18.6728   1
   3   2 -15 1.42836 4.87401   2
  -3  -2  14-1.54715 15.0279   1
   3   2 -14-0.54358 3.83370   2
  -3  -2  14-6.45160 13.5237   1
   3   2 -14 7.21221 4.33735   2
  -3  -2  13 28.9842 12.6187   1
  -3  -2  13 42.1250 13.6330   1
   3   2 -12 6.75533 2.50538   2
  -3  -2  12 10.7931 11.1667   1
  -3  -2  12 11.4942 11.8274   1
   3   2 -12 7.71021 2.62417   2
   3   2 -11 9.94470 1.66561   2
   3   2 -11 13.1715 1.86599   2
  -3  -2  11 18.7161 9.92539   1
  -3  -2  11 22.7149 10.4116   1
  -3  -2  10 129.046 14.0319   1
  -3  -2  10 149.156 15.3968   1
  -3  -2   9 26.7236 9.27500   1
  -3  -2   9 17.4828 8.22607   1
  -3  -2   8 31.6704 8.37752   1
  -3  -2   8 25.1303 8.26122   1
  -3  -2   7 12.8534 7.19955   1
  -3  -2   7 20.1287 6.72458   1
  -3  -2   6 51.4192 8.63838   1
  -3  -2   6 43.2660 8.57638   1
  -3  -2   5 496.775 20.4322   1
  -3  -2   5 502.393 21.7832   1
  -3  -2   4 342.065 9.75061   2
  -3  -2   4 360.354 17.1185   1
   3   2  -4 363.064 17.2779   1
   3   2  -3 484.931 19.2605   1
  -3  -2   3 474.927 12.9053   2
  -3  -2   3 476.825 19.1042   1
  -3  -2   2 108.711 7.45863   2
  -3  -2   2 97.7425 9.53627   1
   3   2  -2 98.9838 9.58360   1
  -3  -2   1 39.9952 5.63022   2
   3   2  -1 40.9120 7.01127   1
  -3  -2   1 37.7209 6.79559   1
  -3  -2   0 12.7683 5.43307   1
  -3  -2   0 7.58874 4.30571   2
   3   2   0 0.32455 4.44121   1
  -3  -2  -1 1.65419 4.45854   2
   3   2   1 3.31621 4.98290   1
  -3  -2  -1-0.39478 4.49726   1
  -3  -2  -2 335.020 16.2515   2
   3   2   2 325.732 15.7104   1
  -3  -2  -2 349.627 16.4031   1
  -3  -2  -3 31.8807 7.04011   2
  -3  -2  -3 17.3502 6.14917   1
   3   2   3 31.1110 6.98942   1
   3   2   4 209.964 13.4831   1
  -3  -2  -4 223.619 14.0362   1
   3   2   5 36.0410 7.60074   1
  -3  -2  -5 32.8705 7.74448   1
   3   2   6 3.73631 6.25987   1
  -3  -2  -6 13.3163 7.57040   1
   3   2   7-14.6248 7.22729   1
  -3  -2  -7 2.92715 7.68520   1
  -3  -2  -8 1.25273 11.7091   2
   3   2   8 5.99729 8.18328   1
  -3  -2  -8 17.6245 8.84489   1
   3   2   9 12.0995 9.27254   1
  -3  -2  -9-8.31727 13.0504   2
  -3  -2  -9-17.3440 10.0575   1
  -3  -2 -10 13.4843 16.3506   2
   3   2  10 14.5440 11.8043   1
  -3  -2 -10-5.97462 12.2202   1
  -3  -2 -11-14.0010 18.6341   2
   3   2  11-6.08330 13.2163   1
  -3  -2 -11 32.7164 13.9861   1
   3   3 -15 4.56058 6.27632   2
  -3  -3  15 11.4695 16.6943   1
   3   3 -15 16.6866 6.21139   2
  -3  -3  15 19.2441 16.6717   1
   3   3 -14 20.7121 6.16593   2
  -3  -3  14-5.58541 13.5090   1
   3   3 -13-5.24413 4.80495   2
  -3  -3  13-12.1053 12.0598   1
  -3  -3  12 24.1014 12.6163   1
   3   3 -12 14.7505 4.40518   2
  -3  -3  12-1.30875 10.2544   1
   3   3 -11 41.0060 4.71231   2
  -3  -3  11 50.0073 12.3681   1
  -3  -3  11 62.5412 12.2750   1
   3   3 -10 51.9920 4.61263   2
  -3  -3  10 75.6969 11.6874   1
  -3  -3  10 49.5196 11.3316   1
  -3  -3   9 17.1244 9.20156   1
   3   3  -9 15.6817 3.40469   2
  -3  -3   9 22.1634 9.00214   1
  -3  -3   8 32.8030 9.72299   1
   3   3  -8 20.9897 3.41823   2
  -3  -3   8 20.7732 7.87347   1
  -3  -3   7 6.49277 6.37504   1
   3   3  -7-1.46669 2.70982   2
  -3  -3   7 0.74133 2.77981   2
  -3  -3   7-4.75651 6.70947   1
   3   3  -6 17.7022 3.80042   2
  -3  -3   6 18.8987 3.88420   2
  -3  -3   6 20.7752 6.63220   1
   3   3  -5 7.37003 5.80114   1
  -3  -3   5-2.85929 3.21144   2
  -3  -3   5-3.94311 5.93907   1
  -3  -3   4 13.4765 4.00539   2
  -3  -3   4 11.5167 6.04331   1
   3   3  -4 26.4613 7.21595   1
   3   3  -3 7.61058 5.50789   1
  -3  -3   3 0.54756 3.59418   2
  -3  -3   3 7.18203 5.78653   1
  -3  -3   2 121.206 8.76864   2
   3   3  -2 121.838 10.9413   1
  -3  -3   2 117.511 10.7349   1
  -3  -3   1 71.5149 7.91503   2
   3   3  -1 81.0276 9.45039   1
  -3  -3   1 72.4376 9.10622   1
   3   3   0 7.68337 5.46726   1
  -3  -3   0 10.5234 5.36145   2
  -3  -3   0 12.4863 5.66044   1
  -3  -3  -1 43.6898 7.50834   2
   3   3   1 50.7652 8.28517   1
  -3  -3  -1 42.2233 7.90784   1
  -3  -3  -2 88.9161 10.0785   2
   3   3   2 97.4785 10.2699   1
  -3  -3  -2 90.8061 10.3418   1
  -3  -3  -3 262.343 16.5136   2
   3   3   3 247.250 15.7089   1
  -3  -3  -3 225.056 15.0354   1
  -3  -3  -4 14.1674 7.37876   1
  -3  -3  -4 14.3914 7.91006   2
   3   3   4 19.4791 7.62051   1
  -3  -3  -5 22.7952 8.61619   1
  -3  -3  -5 19.2542 8.53966   2
   3   3   5 7.27641 7.04047   1
  -3  -3  -6-5.61295 8.80551   2
   3   3   6 6.10844 8.53087   1
  -3  -3  -6-5.85590 8.72617   1
  -3  -3  -7 4.34787 10.6199   2
   3   3   7 24.7971 9.71571   1
  -3  -3  -7 21.3224 9.84125   1
  -3  -3  -8 114.740 17.0877   2
  -3  -3  -8 85.3053 14.4803   1
   3   3   8 82.1541 13.4868   1
  -3  -3  -9 111.987 18.9791   2
   3   3   9 115.487 15.6365   1
  -3  -3 -10 179.948 23.6260   2
   3   3  10 160.006 18.4450   1
  -3  -3 -10 178.433 20.3749   1
  -3  -3 -11 89.7426 23.0837   2
   3   3  11 115.587 19.0911   1
  -3  -3 -11 121.015 20.6996   1
  -3  -4  15-8.79139 15.9795   1
  -3  -4  15 26.3686 16.4966   1
   3   4 -15 1.82634 8.16864   2
  -3  -4  14-4.67654 13.1701   1
  -3  -4  14 11.1548 16.0806   1
   3   4 -14-5.05652 7.10384   2
  -3  -4  13 3.70870 12.3986   1
  -3  -4  13 11.5315 13.0383   1
   3   4 -13 8.51234 6.30300   2
  -3  -4  12 11.6718 10.9502   1
  -3  -4  12-6.71388 11.0841   1
   3   4 -12 1.15071 5.62550   2
  -3  -4  11 6.59527 10.6352   1
   3   4 -11 7.42579 5.28175   2
  -3  -4  11 12.9150 9.55192   1
  -3  -4  10 37.0354 10.6098   1
   3   4 -10 28.7376 5.71168   2
  -3  -4  10 36.4101 10.1359   1
   3   4  -9 176.760 9.67257   2
  -3  -4   9 183.517 15.7033   1
  -3  -4   9 189.937 9.82215   2
  -3  -4   9 193.176 17.0512   1
   3   4  -8 9.09272 4.67021   2
  -3  -4   8 9.57180 4.58807   2
  -3  -4   8 6.51267 7.26724   1
  -3  -4   8 22.2156 9.21474   1
  -3  -4   7 329.503 18.8048   1
  -3  -4   7 306.017 12.3928   2
   3   4  -7 291.657 12.0787   2
   3   4  -6 9.07642 4.59746   2
  -3  -4   6 11.9308 4.71337   2
  -3  -4   6 1.24371 6.21335   1
   3   4  -6 11.4396 7.16729   1
  -3  -4   5 2.67267 5.93185   1
  -3  -4   5 2.97073 4.29329   2
   3   4  -5 4.55998 6.02687   1
   3   4  -5 7.21773 4.53351   2
   3   4  -4 7.63820 4.82939   2
  -3  -4   4 12.1087 6.24784   1
  -3  -4   4 5.53441 4.55044   2
   3   4  -4 9.40200 6.40083   1
  -3  -4   3 347.812 15.0694   2
   3   4  -3 355.847 18.6200   1
  -3  -4   3 321.438 17.9110   1
  -3  -4   2 56.1775 7.74916   2
   3   4  -2 52.9787 9.03550   1
  -3  -4   2 55.9886 9.12499   1
  -3  -4   1 56.4739 8.28566   2
   3   4  -1 53.4711 8.95735   1
  -3  -4   1 51.0375 9.06413   1
  -3  -4   0-7.51414 6.11952   2
  -3  -4   0 7.99962 6.29785   1
   3   4   0 1.71136 6.11284   1
  -3  -4  -1 163.898 13.4062   2
   3   4   1 173.815 14.2469   1
  -3  -4  -1 144.195 13.4475   1
  -3  -4  -2 136.540 13.0606   2
   3   4   2 139.870 13.1070   1
  -3  -4  -2 118.241 12.4820   1
   3   4   3 75.1186 10.9172   1
  -3  -4  -3 91.5690 12.5018   2
  -3  -4  -3 69.5032 11.4065   1
  -3  -4  -4-3.75433 8.35541   2
   3   4   4-11.6466 8.38890   1
  -3  -4  -4 3.81345 8.37150   1
  -3  -4  -5 35.8070 11.1787   2
   3   4   5 30.9503 10.4200   1
  -3  -4  -5 27.0183 10.4721   1
  -3  -4  -6 140.318 16.9436   2
  -3  -4  -6 115.848 15.5908   1
   3   4   6 129.298 15.3589   1
   3   4   7-12.4305 11.0508   1
  -3  -4  -7-0.68362 12.5487   2
  -3  -4  -7-17.9058 11.7208   1
   3   4   8-6.80738 13.6325   1
  -3  -4  -8 13.5370 15.4757   2
  -3  -4  -8-13.2699 13.9773   1
   3   4   9 6.23415 14.8084   1
  -3  -4  -9 8.33609 15.7981   2
  -3  -4  -9-17.2202 16.1707   1
   3   4  10 20.1050 17.8669   1
  -3  -4 -10 42.1696 21.8739   2
  -3  -4 -10 50.5309 19.2607   1
  -3  -5  15 31.3355 19.6354   1
   3   5 -15 18.1285 10.8173   2
  -3  -5  15 4.37090 16.4349   1
  -3  -5  14 1.75839 14.9670   1
   3   5 -14-7.38665 8.59629   2
  -3  -5  14 25.5457 14.0287   1
  -3  -5  13 20.9278 13.0813   1
   3   5 -13 7.56155 8.01385   2
  -3  -5  13 13.0827 13.1440   1
  -3  -5  12-2.44808 11.8280   1
   3   5 -12 5.82881 6.75989   2
  -3  -5  12 2.59473 11.3230   1
  -3  -5  11 41.9269 12.7744   1
   3   5 -11 11.1448 6.89734   2
  -3  -5  11 26.5943 11.2203   1
   3   5 -10 32.3790 7.17208   2
  -3  -5  10 52.9596 11.6400   1
  -3  -5  10 31.8233 7.33893   2
  -3  -5  10 42.6578 12.9233   1
   3   5  -9 2.70520 5.91782   2
  -3  -5   9-6.18252 8.44937   1
  -3  -5   9 4.10023 5.37893   2
  -3  -5   9 17.7914 9.76207   1
  -3  -5   8 73.6209 11.7049   1
   3   5  -8 55.4317 7.95635   2
  -3  -5   8 61.3850 7.99803   2
   3   5  -7 20.4524 6.28283   2
  -3  -5   7 10.4854 8.04282   1
   3   5  -7 21.9727 8.25031   1
  -3  -5   7 18.6109 6.04848   2
   3   5  -6 34.9402 6.78505   2
  -3  -5   6 43.0986 7.10666   2
   3   5  -6 49.9506 9.56631   1
  -3  -5   6 45.9161 9.87278   1
  -3  -5   5 7.24967 6.69297   1
   3   5  -5 4.33591 5.54980   2
  -3  -5   5-2.43087 5.18909   2
   3   5  -5 5.35178 6.80581   1
  -3  -5   4 5.91187 6.82152   1
   3   5  -4 4.55754 5.81314   2
  -3  -5   4-1.28307 5.35144   2
   3   5  -4 13.2952 7.18390   1
  -3  -5   3 533.605 20.6308   2
   3   5  -3 540.611 24.1518   1
  -3  -5   3 559.849 24.5761   1
  -3  -5   2 312.745 16.7671   2
   3   5  -2 289.770 18.4289   1
  -3  -5   2 282.777 18.1629   1
  -3  -5   1 3.20689 6.51763   2
  -3  -5   1 8.43461 7.14985   1
   3   5  -1 1.34655 7.23218   1
  -3  -5   0 274.472 17.3092   2
   3   5   0 278.272 18.2233   1
  -3  -5   0 275.653 18.5358   1
  -3  -5  -1-1.64241 7.25712   1
  -3  -5  -1 14.3387 8.66221   2
   3   5   1 2.83680 7.55810   1
  -3  -5  -2 7.66320 7.69562   1
  -3  -5  -2-4.22437 7.76527   2
   3   5   2 2.79114 8.17874   1
  -3  -5  -3-0.11364 8.38387   1
   3   5   3 11.6706 9.80641   1
  -3  -5  -4 41.3266 12.0772   2
   3   5   4 34.2989 11.5801   1
  -3  -5  -4 35.5100 11.7479   1
  -3  -5  -5-15.8650 11.2798   2
   3   5   5 19.4305 12.3320   1
  -3  -5  -5-6.82468 11.2629   1
   3   5   6 67.7329 14.8078   1
  -3  -5  -6 66.8194 15.4804   2
  -3  -5  -6 37.6903 14.2620   1
   3   5   7-14.3608 15.0136   1
  -3  -5  -7-2.67335 15.6960   2
  -3  -5  -7-13.9599 14.2606   1
   3   5   8 2.18272 16.2455   1
  -3  -5  -8 11.7405 18.9154   2
  -3  -5  -8 19.2976 17.8316   1
   3   5   9 108.295 22.1076   1
  -3  -5  -9 122.855 21.8687   1
   3   6 -15 57.3843 12.5379   2
  -3  -6  15 58.5779 18.6256   1
  -3  -6  15 39.6086 16.6648   1
  -3  -6  14 37.5722 16.8319   1
   3   6 -14 29.8788 10.6568   2
  -3  -6  14 29.5667 15.6220   1
  -3  -6  13 10.3927 14.5371   1
   3   6 -13 19.0405 10.3991   2
  -3  -6  13 16.6710 14.5330   1
  -3  -6  12 70.7361 15.3904   1
   3   6 -12 59.3148 10.2208   2
  -3  -6  12 65.4910 13.9198   1
   3   6 -11 29.7949 8.88727   2
  -3  -6  11 41.7990 13.2513   1
  -3  -6  11 26.9411 8.77600   2
  -3  -6  11 45.8086 14.6471   1
   3   6 -10 70.8952 9.69937   2
  -3  -6  10 66.2195 9.73230   2
  -3  -6  10 71.8880 12.9588   1
  -3  -6   9 1.30289 9.21785   1
   3   6  -9-3.43947 7.09204   2
  -3  -6   9 6.46923 6.75796   2
  -3  -6   8-2.81400 8.96549   1
   3   6  -8 3.75128 7.24120   2
  -3  -6   8 0.86378 6.80686   2
   3   6  -8 8.52624 9.20631   1
  -3  -6   7 28.2710 10.4112   1
   3   6  -7 5.61466 6.50876   2
   3   6  -7 11.0906 8.77868   1
  -3  -6   7 7.52124 6.86840   2
   3   6  -6 11.3577 8.59574   1
   3   6  -6-11.9582 7.06713   2
  -3  -6   6 4.62154 6.94148   2
  -3  -6   6 5.44267 8.37143   1
   3   6  -5 362.386 18.6031   2
  -3  -6   5 365.480 18.3529   2
   3   6  -5 379.713 22.0692   1
  -3  -6   5 418.713 23.1513   1
  -3  -6   4 90.7937 10.8991   2
   3   6  -4 92.5323 11.2744   2
   3   6  -4 91.9071 13.1900   1
  -3  -6   4 100.897 13.2206   1
   3   6  -3 81.7578 11.2497   2
  -3  -6   3 85.0545 10.9958   2
   3   6  -3 72.3550 12.3376   1
  -3  -6   3 60.4137 11.4783   1
  -3  -6   2 4.06404 6.95541   2
  -3  -6   2 6.26348 8.06707   1
   3   6  -2 0.86131 7.95625   1
  -3  -6   1 19.5293 9.43269   1
  -3  -6   1 17.2938 8.43642   2
   3   6  -1 28.3984 10.1041   1
  -3  -6   0 21.9617 9.97595   1
  -3  -6   0 9.46360 7.79347   2
   3   6   0 2.20089 9.18164   1
  -3  -6  -1 5.91243 9.65878   1
  -3  -6  -1 7.02547 9.06764   2
   3   6   1 22.5349 10.3123   1
  -3  -6  -2-13.6376 10.9818   1
  -3  -6  -2-1.74475 10.2353   2
  -3  -6  -3 41.0150 12.5800   1
  -3  -6  -3 61.5228 13.5147   2
   3   6   3 32.7253 11.9341   1
  -3  -6  -4 28.2575 13.8497   2
   3   6   4 34.4264 14.0809   1
  -3  -6  -4 33.4939 15.0987   1
  -3  -6  -5 15.9348 13.8284   2
  -3  -6  -5 11.6101 13.4613   1
   3   6   5 47.6006 16.3766   1
   3   6   6 40.7698 17.1908   1
  -3  -6  -6 20.6741 17.9889   2
  -3  -6  -6 14.2897 17.3239   1
   3   6   7 19.9104 17.7843   1
  -3  -6  -7 0.59235 18.8193   2
  -3  -6  -7 16.0764 19.0417   1
  -3  -7  14-9.44410 17.0705   1
  -3  -7  14 15.5757 16.6228   1
   3   7 -14-1.95903 12.7941   2
  -3  -7  13-5.65091 16.1248   1
  -3  -7  13-6.33597 15.9444   1
   3   7 -13 24.2573 11.2897   2
  -3  -7  12 1.37073 15.6986   1
  -3  -7  12-5.93735 13.4527   1
   3   7 -12-8.64254 10.1997   2
  -3  -7  12-11.8341 10.8298   2
  -3  -7  11 30.9965 12.9893   1
   3   7 -11 17.5517 9.69211   2
  -3  -7  11 18.4052 10.0807   2
  -3  -7  11 30.9251 13.9801   1
  -3  -7  10-5.68002 10.8130   1
   3   7 -10 0.95950 8.87101   2
  -3  -7  10 2.97759 9.19903   2
  -3  -7   9 11.4856 10.9146   1
   3   7  -9 9.84725 9.00267   2
  -3  -7   9 2.01167 8.85741   2
   3   7  -9 28.9663 12.0277   1
   3   7  -8 0.22129 8.29798   2
  -3  -7   8 5.93210 8.39604   2
   3   7  -8 6.38241 10.6821   1
  -3  -7   8 16.0775 10.5387   1
   3   7  -7 9.43526 10.0667   1
   3   7  -7 4.85052 8.00037   2
  -3  -7   7 3.77114 8.30174   2
  -3  -7   7 0.47790 10.1073   1
   3   7  -6 49.2411 10.7948   2
  -3  -7   6 60.6333 11.2439   2
   3   7  -6 46.0251 12.4983   1
  -3  -7   6 53.3403 12.2183   1
  -3  -7   5 265.232 18.0823   2
   3   7  -5 248.213 19.9046   1
  -3  -7   5 256.605 20.3781   1
   3   7  -5 250.780 17.5600   2
   3   7  -4 7.98195 9.69216   1
   3   7  -4-0.19847 8.46589   2
  -3  -7   4 6.87571 8.48696   2
  -3  -7   4-8.64189 9.00628   1
  -3  -7   3 116.827 13.8389   2
   3   7  -3 127.424 16.3711   1
  -3  -7   3 112.711 15.4926   1
   3   7  -3 108.488 14.0506   2
  -3  -7   2 25.7558 10.4632   1
  -3  -7   2 1.33105 9.03758   2
   3   7  -2 3.31652 9.88621   1
  -3  -7   1 28.1990 10.9808   1
  -3  -7   1 22.4460 10.0651   2
   3   7  -1 8.80034 10.2023   1
  -3  -7   0 58.7579 13.5524   2
  -3  -7   0 40.7290 12.0708   1
   3   7   0 38.8146 12.3168   1
  -3  -7  -1-19.2089 12.7262   1
  -3  -7  -1 19.1103 11.7015   2
   3   7   1-4.03940 11.9151   1
   3   7   2 133.560 19.0135   1
  -3  -7  -2 136.129 18.6409   2
  -3  -7  -2 121.513 18.8520   1
  -3  -7  -3 32.5408 13.5725   2
   3   7   3 6.95041 13.3920   1
  -3  -7  -3 26.1564 13.8708   1
   3   7   4-11.8925 14.4057   1
  -3  -7  -4 20.0268 17.0977   2
  -3  -7  -4 18.1610 16.8706   1
   3   7   5 20.4014 16.4115   1
  -3  -7  -5 16.8231 17.3651   2
  -3  -7  -5 63.9941 19.3339   1
   3   7   6 76.1639 21.1405   1
  -3  -7  -6 73.2469 21.8442   2
  -3  -7  -6 37.8434 21.3060   1
  -3  -8  13 17.9589 18.6307   1
   3   8 -13-2.34682 13.7934   2
  -3  -8  13 42.8490 14.8655   2
  -3  -8  13-6.08396 15.7477   1
   3   8 -12 2.38896 13.3517   2
  -3  -8  12-0.50943 12.4715   2
  -3  -8  12 6.72709 14.6849   1
  -3  -8  12-29.6037 18.4307   1
   3   8 -11 20.1932 13.1602   2
  -3  -8  11 13.2084 12.5944   2
  -3  -8  11-30.0623 16.9988   1
  -3  -8  11 7.22171 15.5915   1
   3   8 -10 4.30077 11.4935   2
  -3  -8  10-4.24296 11.0138   2
  -3  -8  10-12.4705 14.0054   1
   3   8 -10 10.6535 12.7472   1
   3   8  -9 14.1658 13.4602   1
   3   8  -9 18.1031 10.8418   2
  -3  -8   9 14.4087 11.0757   2
  -3  -8   9 22.0482 12.3522   1
   3   8  -8-10.5144 11.0010   2
   3   8  -8-23.6049 13.3918   1
  -3  -8   8-2.65635 10.3579   2
  -3  -8   8-5.66493 12.5830   1
   3   8  -7 15.9988 11.1929   2
  -3  -8   7 19.8306 10.8188   2
  -3  -8   7 16.4700 12.5990   1
   3   8  -7 3.33538 11.6425   1
   3   8  -6 44.7922 12.3008   2
  -3  -8   6 11.4592 10.6490   2
  -3  -8   6 24.6558 12.8384   1
   3   8  -5 31.7982 13.1317   1
   3   8  -5 13.9129 10.4531   2
  -3  -8   5 11.0637 12.2958   1
  -3  -8   5 20.9926 11.0331   2
   3   8  -4-4.51445 11.8193   1
   3   8  -4-2.11323 10.5594   2
  -3  -8   4 9.38573 12.0212   1
  -3  -8   4 26.9078 11.7044   2
   3   8  -3 6.78523 12.2917   2
  -3  -8   3-3.30012 12.1840   1
  -3  -8   3 13.9652 10.8385   2
   3   8  -3 19.5342 12.8027   1
  -3  -8   2 3.25432 12.7104   1
  -3  -8   2-1.79873 11.1546   2
   3   8  -2 16.8717 13.1063   1
  -3  -8   1 15.3592 13.2411   1
  -3  -8   1 16.9003 11.4798   2
   3   8  -1-11.6902 13.5620   1
  -3  -8   0-2.37657 14.6723   1
  -3  -8   0 34.8858 13.0178   2
   3   8   0 6.44961 14.3072   1
  -3  -8  -1 21.7666 15.3292   1
  -3  -8  -1 13.3097 14.7325   2
   3   8   1 21.4334 15.5646   1
   3   8   2 143.370 22.2762   1
  -3  -8  -2 134.273 22.0342   2
  -3  -8  -2 93.4346 21.2718   1
  -3  -8  -3-4.22260 17.4840   2
   3   8   3 5.58671 19.5401   1
  -3  -8  -3-10.3947 20.3926   1
  -3  -8  -4 91.0932 25.0418   1
  -3  -8  -4 150.574 26.0275   2
   3   9 -12-13.1179 14.3522   2
  -3  -9  12 12.9999 15.6332   1
  -3  -9  12 21.7204 15.1778   2
   3   9 -11 7.43453 15.9990   2
  -3  -9  11 28.4438 17.8666   1
   3   9 -10 10.2455 14.7122   2
   3   9 -10 24.9491 17.8227   1
  -3  -9  10-7.33442 16.6946   1
  -3  -9  10 6.22923 15.0198   2
   3   9  -9 12.9954 14.0671   2
  -3  -9   9 0.07396 14.8048   1
  -3  -9   9-6.20831 14.0579   2
   3   9  -9 2.83330 15.6485   1
   3   9  -8 38.7177 17.7584   1
   3   9  -8 16.0899 14.4432   2
  -3  -9   8 29.0580 15.9038   1
  -3  -9   8-2.08346 13.0308   2
   3   9  -7-0.63039 12.7452   2
  -3  -9   7-5.46734 14.0745   1
  -3  -9   7 12.8082 13.9707   2
   3   9  -7-12.4275 16.3529   1
   3   9  -6 6.09236 13.5194   2
   3   9  -6-3.72788 15.8702   1
  -3  -9   6 53.4309 17.7295   1
  -3  -9   6 25.6120 14.8951   2
   3   9  -5 3.76039 14.0631   1
   3   9  -5 38.8056 14.6282   2
  -3  -9   5 16.1007 13.4030   2
   3   9  -4-6.17304 16.2203   1
  -3  -9   4-16.6912 15.7933   1
   3   9  -4-0.68563 14.9923   2
  -3  -9   4-5.03515 14.2581   2
   3   9  -3 4.05364 16.4239   2
  -3  -9   3 0.39280 14.5074   1
  -3  -9   3-2.35304 14.5003   2
   3   9  -3-3.50095 15.0676   1
  -3  -9   2 1.95072 15.9531   1
  -3  -9   2 28.0466 16.8782   2
   3   9  -2 41.9305 17.0190   1
  -3  -9   1-23.0362 15.9121   2
   3   9  -1-26.4014 16.4276   1
  -3  -9   0 14.7160 17.2264   2
   3   9   0-17.8986 18.3948   1
  -3  -9   0 25.0292 17.9484   1
   3   9   1 171.507 24.9673   1
  -3  -9  -1 116.611 21.6568   2
  -3  -9  -1 95.3225 25.0303   1
   3   9   2 62.8059 22.6133   1
  -3  -9  -2 60.3102 23.2121   1
   3  10  -9 29.2581 17.7948   2
  -3 -10   9 18.8886 18.2974   1
   3  10  -9-23.5282 17.8931   1
  -3 -10   9-18.7021 17.1306   2
   3  10  -8 39.5747 19.3054   2
  -3 -10   8 42.9278 19.7408   1
  -3 -10   8 5.21801 17.3824   2
   3  10  -8 33.8508 18.0877   1
  -3 -10   7 14.8372 17.2321   1
   3  10  -7-4.96637 17.1774   2
  -3 -10   7 23.6517 18.4366   2
   3  10  -7 4.57176 18.5942   1
  -3 -10   6 8.57323 19.1592   1
   3  10  -6 8.08967 18.8690   2
  -3 -10   6 44.4673 17.7690   2
  -3 -10   5 17.5799 18.8673   1
   3  10  -5 42.2690 19.7474   1
   3  10  -5-15.2472 18.3330   2
  -3 -10   5 9.82635 17.2227   2
  -3 -10   4 29.3568 19.7775   1
   3  10  -4 14.3604 17.8290   2
  -3 -10   4 35.5767 18.7629   2
  -3 -10   3 15.4104 20.3627   1
  -3 -10   3 68.3765 19.3524   2
   3  10  -3 71.2574 21.0264   1
  -3 -10   2 31.1285 22.6466   1
  -3 -10   2-13.8213 18.4729   2
   3  10  -2 30.8824 22.4170   1
  -3 -10   1 48.0014 13.6716   2
  -4  10  -3 34.8868 10.0759   1
  -4  10  -3 35.9106 12.5599   2
   4 -10   3 21.4636 10.7461   2
   4 -10   3 56.6245 11.8828   1
  -4  10  -4 28.4461 8.23113   1
   4 -10   4 32.7539 9.03105   1
  -4   9   2 19.2867 18.2813   1
   4  -9  -2 46.2160 20.9329   1
  -4   9   2-16.6114 16.5912   2
   4  -9  -2-6.33677 15.8927   2
  -4   9   1 23.6225 15.8708   1
   4  -9  -1 74.4079 19.5720   1
  -4   9   1 25.1598 16.0709   2
   4  -9  -1 23.6780 15.3321   2
  -4   9   0 24.7006 15.0581   1
   4  -9   0 16.7808 16.0913   1
  -4   9   0-10.8315 15.1125   2
   4  -9   0 25.7560 15.3480   2
   4  -9   1 76.1090 17.1348   1
  -4   9  -1 102.958 18.9646   2
   4  -9   1 143.599 20.4802   2
  -4   9  -1 104.291 17.3250   1
   4  -9   2 33.4338 13.5868   1
  -4   9  -2 12.7590 12.6331   1
  -4   9  -2 18.0424 16.2115   2
   4  -9   2 38.6757 14.9471   2
  -4   9  -3 9.54212 11.7123   1
  -4   9  -3-7.95451 15.0676   2
   4  -9   3 8.38493 15.5775   2
   4  -9   3 11.2406 12.8663   1
  -4   9  -4 130.369 19.7619   2
   4  -9   4 132.193 19.2657   2
  -4   9  -4 108.349 14.0850   1
   4  -9   4 90.5193 14.0165   1
  -4   9  -5-11.9205 17.8988   2
  -4   9  -5 17.7671 8.73411   1
   4  -9   5 3.03828 15.9158   2
  -4   9  -6 4.01021 5.50165   1
  -4   9  -6 25.8325 17.1107   2
   4  -9   6 16.6510 18.1828   2
  -4   9  -6-1.76110 5.70369   1
  -4   9  -7 70.9646 20.8041   2
  -4   9  -8 14.7490 18.4108   2
   4  -8  -5 5.61105 21.1851   1
  -4   8   5 3.25891 14.1637   2
   4  -8  -5 32.0521 15.6324   2
  -4   8   5 4.62622 21.1225   1
   4  -8  -4 28.2616 18.6194   1
  -4   8   4-18.8777 14.6977   2
   4  -8  -4 9.81331 13.7081   2
  -4   8   4 1.70460 18.5235   1
   4  -8  -3 26.6440 16.1412   1
  -4   8   3 36.1527 13.8714   2
   4  -8  -3-10.4396 12.9829   2
  -4   8   3 12.1298 15.7789   1
  -4   8   2 63.9746 15.2451   2
   4  -8  -2 61.6664 14.3244   2
   4  -8  -2 111.573 20.5856   1
  -4   8   2 62.2815 17.6552   1
   4  -8  -1 16.2081 14.0084   1
  -4   8   1 21.8609 12.3189   2
   4  -8  -1 31.5729 12.6599   2
  -4   8   1-1.34779 14.2022   1
   4  -8   0-10.7087 13.1684   1
  -4   8   0 12.9898 12.3425   2
   4  -8   0 11.4962 11.7698   2
  -4   8   0 13.5488 12.1025   1
   4  -8   1 39.5570 13.4567   1
  -4   8  -1 59.4597 14.0981   2
   4  -8   1 32.9785 12.0936   2
  -4   8  -1 40.1287 12.2702   1
   4  -8   2-0.45361 11.1601   1
  -4   8  -2-5.47040 10.7653   1
  -4   8  -2 25.6787 12.4335   2
   4  -8   2-5.15703 11.0371   2
  -4   8  -3 3.18136 9.49107   1
  -4   8  -3 8.52672 12.5674   2
   4  -8   3 25.3712 13.4628   2
   4  -8   3-4.00863 9.96041   1
  -4   8  -4 19.9728 8.30240   1
  -4   8  -4 31.7658 13.6852   2
   4  -8   4-4.17606 12.5095   2
  -4   8  -5 32.1798 7.54084   1
  -4   8  -5 25.1077 13.4508   2
  -4   8  -5 23.9052 7.30081   1
   4  -8   5 46.6041 15.7065   2
  -4   8  -6-3.30433 2.97113   1
  -4   8  -6 0.64379 15.0231   2
  -4   8  -6 0.78112 3.13622   1
  -4   8  -7 10.8630 15.4610   2
  -4   8  -8 39.7899 18.7185   2
  -4   8  -9 43.0677 18.1635   2
  -4   8 -10 46.0403 15.8817   2
   4  -7  -7 1.25184 21.1190   1
   4  -7  -7 13.2110 12.9357   2
  -4   7   7 1.55009 19.7580   1
   4  -7  -6-22.2383 21.4158   1
   4  -7  -6-3.86667 11.3872   2
  -4   7   6 25.5200 17.1493   1
   4  -7  -5 0.41425 17.5031   1
  -4   7   5-2.69638 10.8046   2
   4  -7  -5 3.05635 10.9249   2
  -4   7   5-15.1419 15.8750   1
  -4   7   4 55.7775 12.5977   2
   4  -7  -4 48.7111 16.7687   1
   4  -7  -4 33.9665 11.2887   2
  -4   7   4 62.3650 15.8824   1
   4  -7  -3-16.0147 14.8220   1
  -4   7   3-0.59515 10.3841   2
   4  -7  -3-7.21140 9.90326   2
  -4   7   3 5.57467 12.9512   1
   4  -7  -2 45.0953 14.9704   1
  -4   7   2 65.8241 12.9575   2
  -4   7   2 72.7394 14.7254   1
   4  -7  -2 70.7031 12.4869   2
   4  -7  -1 55.4074 13.7016   1
  -4   7   1 46.1540 12.1484   2
  -4   7   1 54.3925 13.7271   1
   4  -7  -1 59.2369 12.0528   2
   4  -7   0 0.49343 10.1390   1
  -4   7   0-1.42258 9.71798   2
   4  -7   0 7.65979 9.00139   2
  -4   7   0 7.83491 10.5947   1
  -4   7  -1 14.3093 10.7248   2
   4  -7   1 5.31288 8.88171   2
  -4   7  -1-12.0993 10.2338   1
   4  -7   1-0.84649 9.07044   1
  -4   7  -2 62.2086 10.9266   1
  -4   7  -2 23.9489 10.5763   2
   4  -7   2 42.7924 11.2653   2
   4  -7   2 33.0885 10.1382   1
  -4   7  -3-0.88797 10.0434   2
   4  -7   3 4.25649 9.80125   2
  -4   7  -3 2.48927 7.57685   1
  -4   7  -4 21.2548 7.52629   1
  -4   7  -4-0.88646 6.75080   1
  -4   7  -4 26.9661 12.2265   2
  -4   7  -5 0.03995 5.13188   1
  -4   7  -5-17.7713 11.5650   2
  -4   7  -5-4.56545 5.00370   1
  -4   7  -6 36.1582 13.0027   2
  -4   7  -7-26.6197 15.4501   2
  -4   7  -8 89.7030 19.3293   2
  -4   7  -9-4.31158 16.7940   2
  -4   7 -10 43.5774 20.6840   2
   4  -6  -8-0.75448 21.5844   1
   4  -6  -8 29.5137 10.0311   2
  -4   6   8 15.1229 20.4398   1
   4  -6  -7 3.75770 17.3607   1
   4  -6  -7 3.31988 9.54925   2
  -4   6   7 22.2270 17.3138   1
   4  -6  -6 47.5472 18.9780   1
   4  -6  -6 53.8661 9.99562   2
  -4   6   6 32.8772 14.7829   1
   4  -6  -5 0.82464 13.8191   1
  -4   6   5-2.05400 8.58880   2
   4  -6  -5-1.45793 8.31934   2
  -4   6   5 19.7071 12.6971   1
   4  -6  -4 29.3651 13.1607   1
  -4   6   4 32.6710 9.40802   2
   4  -6  -4 12.7716 7.94058   2
  -4   6   4 41.8405 13.4364   1
   4  -6  -3 3.00475 12.0187   1
  -4   6   3 2.06320 8.06864   2
   4  -6  -3 14.2439 8.40009   2
  -4   6   3 1.62377 11.0608   1
  -4   6   2 135.493 15.5958   1
  -4   6   2 160.867 13.9148   2
   4  -6  -2 136.705 12.6069   2
   4  -6  -2 169.378 17.4156   1
   4  -6  -1 24.6925 9.65847   1
  -4   6   1 17.2852 8.31857   2
  -4   6   1 20.0196 9.36466   1
   4  -6  -1 6.92336 7.04213   2
  -4   6   0 107.507 12.8922   1
  -4   6   0 115.861 13.0939   2
   4  -6   0 128.373 12.3699   2
   4  -6   0 134.085 14.2697   1
  -4   6  -1 118.065 12.4791   1
  -4   6  -1 122.349 13.3036   2
   4  -6   1 121.641 12.5374   2
   4  -6   1 122.583 13.2346   1
  -4   6  -2 48.7961 9.38743   1
  -4   6  -2 58.7684 11.3269   2
   4  -6   2 63.2416 10.5468   2
  -4   6  -3 9.77535 6.29824   1
  -4   6  -3-5.03875 8.81408   2
  -4   6  -3 9.85205 6.54134   1
  -4   6  -4-8.49052 9.58961   2
  -4   6  -4 6.38148 5.78894   1
  -4   6  -4 0.53978 5.65153   1
  -4   6  -5 4.23411 3.90901   1
  -4   6  -5 6.40826 3.78729   1
  -4   6  -6-3.38739 10.0311   2
  -4   6  -7 1.48266 11.9361   2
  -4   6  -8 6.86677 13.6286   2
  -4   6  -9 2.45948 15.4212   2
  -4   6 -10-24.7829 16.6942   2
  -4   6 -11 73.7163 22.8356   2
   4  -5 -10 7.19485 21.1299   1
   4  -5 -10 45.3863 6.27942   2
  -4   5  10-16.1719 20.8314   1
   4  -5  -9 7.97128 19.3911   1
   4  -5  -9 6.85376 6.32246   2
  -4   5   9 46.9724 19.3216   1
   4  -5  -8 26.4298 17.8387   1
   4  -5  -8 18.0892 7.07669   2
  -4   5   8 25.1894 17.7292   1
   4  -5  -7 24.9655 16.2470   1
  -4   5   7 4.64047 13.0167   1
   4  -5  -7-1.98283 6.38158   2
   4  -5  -6 13.5923 12.2555   1
  -4   5   6 10.1741 12.9614   1
   4  -5  -6 5.47420 6.31192   2
   4  -5  -5 39.6681 13.8767   1
   4  -5  -5 31.3135 7.11707   2
  -4   5   5 35.4023 7.34330   2
  -4   5   5 34.7581 11.9729   1
   4  -5  -4 43.8709 12.1159   1
   4  -5  -4 34.4516 7.09399   2
  -4   5   4 32.3353 7.31825   2
  -4   5   4 51.3312 11.7607   1
   4  -5  -3-5.78835 9.63072   1
  -4   5   3 0.80268 6.13833   2
  -4   5   3 2.16855 8.87047   1
   4  -5  -3-0.20006 6.07587   2
  -4   5   2 2.54569 6.17607   2
  -4   5   2 1.39529 8.42073   1
   4  -5  -2 1.94070 5.57674   2
   4  -5  -2-2.16271 9.01833   1
  -4   5   1 49.5108 8.26543   2
   4  -5  -1 53.4850 8.56596   2
  -4   5   1 45.4324 9.48883   1
   4  -5  -1 49.0700 11.0470   1
  -4   5   0 4.89993 6.37777   2
  -4   5   0 9.80523 7.02240   1
   4  -5   0 5.67328 6.53401   2
   4  -5   0-0.17956 7.60395   1
  -4   5  -1 95.0347 11.0637   2
  -4   5  -1 86.7960 10.3312   1
  -4   5  -2-3.03156 5.72127   1
  -4   5  -2 13.4743 7.23716   2
  -4   5  -2 8.66288 5.89984   1
  -4   5  -3 12.7228 7.83353   2
  -4   5  -3 0.95697 5.41435   1
  -4   5  -3 1.83912 5.19544   1
  -4   5  -4 53.4161 7.03573   1
  -4   5  -4 39.3590 10.4513   2
  -4   5  -4 42.3189 6.25848   1
  -4   5  -5 190.558 8.66883   1
  -4   5  -5 219.688 17.8555   2
  -4   5  -6 19.0608 11.0177   2
  -4   5  -7 13.6487 12.3103   2
  -4   5  -8 43.4197 13.2669   2
  -4   5  -9-8.48430 13.6163   2
  -4   5 -10-5.54493 14.6648   2
  -4   5 -11 31.0764 18.0925   2
  -4   4  11-5.12463 20.6956   1
   4  -4 -11 28.7352 23.7297   1
  -4   4  10-9.67208 19.5916   1
   4  -4 -10 37.9166 20.5676   1
  -4   4   9-3.43398 15.4842   1
   4  -4  -9 43.2242 18.1033   1
   4  -4  -8 13.0882 2.66205   2
   4  -4  -8 28.3549 14.9002   1
  -4   4   7-7.90943 11.5836   1
   4  -4  -7 1.43102 3.08907   2
   4  -4  -7 7.82668 13.1199   1
  -4   4   6 19.8799 11.0512   1
   4  -4  -6 8.63525 3.95052   2
   4  -4  -6 35.5567 13.7467   1
  -4   4   5 26.9314 5.44733   2
   4  -4  -5 30.2842 4.96096   2
  -4   4   5 41.6161 11.5699   1
   4  -4  -5 48.4860 11.7718   1
  -4   4   4 166.744 9.69872   2
   4  -4  -4 165.794 9.42202   2
  -4   4   4 180.903 16.3614   1
  -4   4   3 14.1474 5.55390   2
  -4   4   3 20.0175 8.50873   1
   4  -4  -3 9.28689 5.10967   2
   4  -4  -3 4.82526 8.68099   1
  -4   4   2 73.4482 8.14408   2
   4  -4  -2 68.8839 11.1784   1
  -4   4   2 93.7271 12.1733   1
  -4   4   1-0.42608 6.75400   1
  -4   4   1 4.94666 5.63928   2
  -4   4   0-4.60816 6.68164   1
  -4   4   0 6.26023 6.33036   1
  -4   4   0-2.46755 5.38356   2
  -4   4  -1 32.2440 7.76796   2
  -4   4  -1 32.4563 7.36716   1
  -4   4  -1 34.2494 7.24833   1
  -4   4  -2 190.973 13.8573   2
  -4   4  -2 201.406 12.3385   1
  -4   4  -2 198.296 12.6412   1
  -4   4  -3 168.154 14.0689   2
  -4   4  -3 170.163 10.7299   1
  -4   4  -3 167.345 10.8879   1
  -4   4  -4 2.38885 4.44440   1
  -4   4  -4-5.81918 7.97799   2
  -4   4  -4 3.88314 4.33499   1
  -4   4  -5 83.7267 12.4856   2
  -4   4  -5 77.0187 5.81081   1
  -4   4  -5 94.8006 6.43942   1
  -4   4  -6 55.1217 11.9858   2
  -4   4  -7 104.010 14.2890   2
  -4   4  -8 145.278 17.3556   2
  -4   4  -9 29.0154 14.1564   2
  -4   4 -10 33.9879 15.3282   2
  -4   4 -11 55.0588 18.1978   2
  -4   4 -12 34.3800 22.2902   2
  -4   3  12-10.0726 22.5998   1
   4  -3 -12-11.3010 22.7452   1
  -4   3  11 56.7638 18.9839   1
   4  -3 -11-38.5033 21.5413   1
  -4   3  10-4.21726 15.6048   1
   4  -3 -10-28.6606 17.3700   1
  -4   3   9 9.71625 12.9269   1
   4  -3  -9-14.8952 15.7291   1
  -4   3   8-12.2482 11.5933   1
   4  -3  -8-0.07497 12.5787   1
  -4   3   7 43.8605 12.2346   1
   4  -3  -7 33.2915 12.1086   1
   4  -3  -6 106.151 15.6908   1
  -4   3   6 85.7752 13.9931   1
  -4   3   5 5.89690 7.97507   1
   4  -3  -5 5.56475 9.25998   1
  -4   3   4 92.4250 6.01744   2
   4  -3  -4 117.040 14.0570   1
  -4   3   4 120.970 13.6262   1
  -4   3   3 59.4928 5.84795   2
  -4   3   3 67.4883 10.4372   1
  -4   3   2 14.6176 6.92848   1
  -4   3   2 2.29018 6.26676   1
  -4   3   2 6.07409 4.21108   2
  -4   3   1 8.54695 6.59756   1
  -4   3   1 2.43920 6.10874   1
  -4   3   1 0.63788 4.42269   2
  -4   3   0-6.18388 6.02702   1
  -4   3   0 5.36967 5.74428   1
  -4   3   0 2.42056 4.68914   2
  -4   3  -1 18.0828 6.11281   1
  -4   3  -1 15.9944 5.86458   2
  -4   3  -1 15.2467 6.09009   1
  -4   3  -2 56.1503 8.74597   2
  -4   3  -2 48.7947 7.18382   1
  -4   3  -2 53.0396 7.60136   1
  -4   3  -3 565.214 17.8594   1
  -4   3  -3 514.565 21.6315   2
  -4   3  -3 557.107 18.1635   1
  -4   3  -4 8.28853 4.78900   1
  -4   3  -4 4.28339 4.64078   1
  -4   3  -4 8.56824 7.67056   2
  -4   3  -5 37.5452 5.30984   1
  -4   3  -5 38.6365 9.72845   2
  -4   3  -5 32.7736 5.21561   1
  -4   3  -6-1.98955 3.08732   1
  -4   3  -6-0.14406 2.84225   1
  -4   3  -6-4.84334 8.76463   2
  -4   3  -7 91.0136 13.7286   2
  -4   3  -8 59.5253 14.1288   2
  -4   3  -9 26.2878 12.3075   2
  -4   3 -10 1.71382 14.5101   2
  -4   3 -11 5.74963 18.3354   2
  -4   3 -12 75.1060 22.9495   2
  -4   2  12-35.4615 20.2509   1
  -4   2  11 45.5841 17.9616   1
  -4   2  10 39.2508 15.5830   1
  -4   2   9 183.747 20.7319   1
  -4   2   8 195.727 18.7869   1
  -4   2   7 4.56516 9.34602   1
  -4   2   6 50.4744 11.3550   1
  -4   2   5 57.4632 10.5820   1
  -4   2   5 51.0876 10.3076   1
  -4   2   4 122.615 12.6319   1
  -4   2   4 116.817 12.7016   1
  -4   2   3 125.670 12.3678   1
  -4   2   3 115.785 6.18985   2
  -4   2   3 123.233 12.6946   1
  -4   2   2 27.3962 4.56526   2
  -4   2   2 32.4390 7.64556   1
  -4   2   2 29.8916 8.08084   1
  -4   2   1-2.71908 5.71087   1
  -4   2   1 0.11596 6.01605   1
  -4   2   1-1.03043 3.97620   2
  -4   2   0 81.3036 8.14612   2
  -4   2   0 83.8345 9.16776   1
  -4   2   0 77.7828 9.29083   1
  -4   2  -1 29.9290 6.40239   2
  -4   2  -1 27.4291 6.45121   1
  -4   2  -1 34.7621 7.23501   1
  -4   2  -2-1.44878 5.32614   1
  -4   2  -2 0.37568 5.48777   2
  -4   2  -2 1.07433 4.72811   1
  -4   2  -3 27.1552 6.10358   1
  -4   2  -3 26.6327 7.49807   2
  -4   2  -3 33.9808 6.17276   1
  -4   2  -4 3.57013 5.20232   1
  -4   2  -4-0.55475 7.03476   2
  -4   2  -4 3.69325 4.79240   1
  -4   2  -5 26.3302 5.50554   1
  -4   2  -5 27.8428 9.21268   2
  -4   2  -5 29.5895 5.96369   1
  -4   2  -6 11.1628 4.77550   1
  -4   2  -6 6.71930 4.24360   1
  -4   2  -6 16.4056 8.87963   2
  -4   2  -7 13.4764 4.37692   1
  -4   2  -7 14.2877 10.4548   2
  -4   2  -7 4.60309 4.20843   1
  -4   2  -8-3.54689 3.14930   1
  -4   2  -8-3.62199 3.09010   1
  -4   2  -8 7.98563 10.9622   2
  -4   2  -9 18.7601 12.3054   2
  -4   2 -10 22.3142 16.1967   2
  -4   2 -11 21.0352 17.3314   2
  -4   2 -12-4.70794 20.1222   2
  -4   1  13 37.2448 22.0732   1
  -4   1  13 28.8626 20.2954   1
  -4   1  12 77.0578 19.3017   1
  -4   1  12 55.7826 18.9254   1
  -4   1  11 11.9727 15.0330   1
  -4   1  11 18.4850 14.5052   1
  -4   1  10 11.1473 12.6155   1
  -4   1  10 41.5076 14.6423   1
  -4   1   9 43.5088 12.5384   1
  -4   1   9 41.1553 12.6657   1
  -4   1   8 2.55743 9.61754   1
  -4   1   8 6.67713 9.58346   1
  -4   1   7 7.36317 8.56907   1
  -4   1   7 1.01714 8.17814   1
  -4   1   6 121.473 13.9811   1
  -4   1   6 112.143 13.7740   1
  -4   1   5 15.9670 8.16950   1
  -4   1   5 10.6471 7.72412   1
  -4   1   4 62.9329 10.6214   1
  -4   1   4 70.6093 10.3634   1
  -4   1   3 17.9656 7.63316   1
  -4   1   3 11.0482 6.75202   1
  -4   1   3 8.78511 2.50842   2
  -4   1   2 452.907 12.9590   2
  -4   1   2 462.893 20.4367   1
  -4   1   2 451.678 20.6999   1
  -4   1   1 32.3336 5.34265   2
  -4   1   1 36.0056 7.30125   1
  -4   1   1 37.2118 7.50834   1
  -4   1   0 71.7223 7.51356   2
  -4   1   0 85.1985 9.25935   1
  -4   1   0 66.8292 8.93832   1
  -4   1  -1 144.723 11.1502   1
  -4   1  -1 152.146 10.7916   2
  -4   1  -1 173.540 12.4428   1
  -4   1  -2 21.3476 6.19303   1
  -4   1  -2 12.3502 6.21677   2
  -4   1  -2 22.2683 6.91206   1
  -4   1  -3 144.545 12.3689   2
  -4   1  -3 159.855 11.6866   1
  -4   1  -3 152.095 10.8917   1
  -4   1  -4 161.226 13.6517   2
  -4   1  -4 154.540 10.8064   1
  -4   1  -4 162.442 11.6672   1
  -4   1  -5 212.697 16.3000   2
  -4   1  -5 206.087 11.9408   1
  -4   1  -6 15.9533 5.85672   1
   4  -1   6 10.8422 5.79235   1
  -4   1  -6 20.5746 8.99744   2
   4  -1   7 32.7300 6.52356   1
  -4   1  -7 49.8599 7.73142   1
  -4   1  -7 65.8190 12.5377   2
   4  -1   8 2.17966 5.74707   1
  -4   1  -8 0.66812 6.17041   1
  -4   1  -8 12.4003 12.1074   2
   4  -1   9 3.17862 5.94281   1
  -4   1  -9 9.01368 5.83642   1
  -4   1 -10 15.7857 6.29404   1
   4  -1  10 6.61819 5.91233   1
  -4   1 -11-5.41629 4.94959   1
  -4   1 -11-4.30094 19.1457   2
  -4   0  14 85.6658 17.9083   1
  -4   0  14 83.8734 17.2442   1
  -4   0  13 11.9599 18.5723   1
  -4   0  13-5.24926 18.7190   1
  -4   0  12 62.8634 18.4005   1
  -4   0  12 51.6356 18.2734   1
  -4   0  11 14.5237 13.3295   1
  -4   0  11 24.2486 14.3538   1
  -4   0  10 1.92988 11.3994   1
  -4   0  10 15.2727 12.4056   1
  -4   0   9 16.6262 11.2735   1
  -4   0   9 5.20015 9.52268   1
  -4   0   8 17.7112 9.87105   1
  -4   0   8-3.62267 8.48833   1
  -4   0   7-4.38136 8.95053   1
  -4   0   7 10.2688 8.86490   1
  -4   0   6 17.2127 8.32788   1
  -4   0   6 27.7563 9.27759   1
  -4   0   5 46.8160 9.55974   1
  -4   0   5 53.4099 10.2113   1
  -4   0   4 17.1354 7.69573   1
  -4   0   4 29.5936 8.23934   1
  -4   0   3-0.84744 2.46966   2
  -4   0   3 1.76910 6.03628   1
  -4   0   3-0.45958 2.32667   2
  -4   0   3-4.13375 6.62319   1
  -4   0   2 14.5439 7.04862   1
  -4   0   2 8.79367 3.77215   2
  -4   0   1 158.203 9.42368   2
  -4   0   1 165.813 12.4524   1
  -4   0   1 168.178 13.5891   1
  -4   0   0 55.8228 8.31585   1
  -4   0   0 55.1118 9.10805   1
  -4   0  -1 219.987 13.6679   1
  -4   0  -2-5.79374 5.22995   1
   4   0   2 0.33939 5.38372   1
   4   0   3 51.0633 7.81197   1
  -4   0  -3 60.9264 8.28461   1
  -4   0  -4 5.63995 6.25085   1
   4   0   4 8.24084 5.66880   1
  -4   0  -5 272.181 14.7744   1
   4   0   5 249.026 14.2107   1
  -4   0  -6-3.94837 6.21688   1
   4   0   6 3.86593 6.31516   1
   4   0   7-0.03253 6.98189   1
  -4   0  -7 12.1640 7.12597   1
   4   0   8 2.57463 7.56416   1
  -4   0  -8-2.72904 7.59040   1
   4   0   9 47.7416 9.40938   1
  -4   0  -9 30.0702 9.04421   1
  -4   0 -10 16.9057 10.0661   1
   4   0  10 43.7215 10.6438   1
  -4   0 -10 48.7046 18.6840   2
  -4   0 -11 42.3765 11.0981   1
   4   0  11 53.7267 11.2957   1
  -4   0 -11 47.0497 19.7060   2
  -4  -1  14 32.7645 20.4602   1
  -4  -1  14 14.1436 19.7634   1
  -4  -1  13 3.05397 16.4922   1
  -4  -1  13 4.19508 17.0305   1
  -4  -1  12 115.617 19.4475   1
  -4  -1  12 109.340 18.7833   1
  -4  -1  11 10.6616 12.9865   1
  -4  -1  11 33.5288 14.1875   1
  -4  -1  10 19.2977 11.2613   1
  -4  -1  10 49.0936 14.0954   1
  -4  -1   9-7.14985 9.48832   1
  -4  -1   9-9.29301 10.1437   1
  -4  -1   8-5.57170 9.13334   1
  -4  -1   8 14.8395 10.1250   1
  -4  -1   7 4.66365 8.37234   1
  -4  -1   7 21.5787 9.07738   1
  -4  -1   6 128.634 13.9267   1
  -4  -1   6 128.661 14.5491   1
  -4  -1   5 6.42554 8.14982   1
  -4  -1   5 17.7225 7.54289   1
  -4  -1   4 44.5045 3.42087   2
  -4  -1   4 40.5910 3.19533   2
  -4  -1   4 40.9564 9.01927   1
  -4  -1   4 56.2752 10.4173   1
  -4  -1   3 5.77524 3.44864   2
  -4  -1   3 7.51898 7.40260   1
  -4  -1   3 13.0926 7.20006   1
  -4  -1   2 108.975 7.90080   2
  -4  -1   2 99.0052 11.0218   1
  -4  -1   2 94.8432 11.6795   1
  -4  -1   1 99.8385 8.40024   2
  -4  -1   1 104.363 11.0296   1
   4   1  -1 93.6499 10.3534   1
  -4  -1   0 142.038 10.5960   2
   4   1   0 141.000 12.0398   1
  -4  -1   0 144.735 12.2837   1
  -4  -1  -1 68.0368 9.37036   1
   4   1   1 76.9759 9.81244   1
   4   1   2-3.86643 6.14390   1
  -4  -1  -2 2.87321 5.74650   1
  -4  -1  -3 148.950 12.5973   1
   4   1   3 153.914 12.4642   1
  -4  -1  -4-1.88872 6.71928   1
   4   1   4-0.03822 6.70234   1
  -4  -1  -5 33.0551 8.51594   1
   4   1   5 24.1834 8.05176   1
  -4  -1  -6 0.04087 7.75225   1
   4   1   6-9.78542 8.12104   1
  -4  -1  -7 50.1569 10.8253   1
   4   1   7 46.0170 10.1248   1
  -4  -1  -8 299.773 19.2301   1
   4   1   8 342.207 18.9136   1
   4   1   9 0.79799 9.77456   1
  -4  -1  -9 22.2796 11.3389   1
   4   1  10-2.09509 11.0744   1
  -4  -1 -10-1.62925 12.8693   1
  -4  -2  14 15.7851 19.8134   1
  -4  -2  14 73.5637 23.1559   1
  -4  -2  13 66.0089 18.0045   1
  -4  -2  12-1.89203 16.1481   1
  -4  -2  12 13.5247 14.4196   1
  -4  -2  11 21.8033 13.6890   1
  -4  -2  11 9.81431 12.0319   1
  -4  -2  10 12.7494 11.8984   1
  -4  -2  10-4.05951 11.4914   1
  -4  -2   9 104.127 14.9460   1
  -4  -2   9 107.896 15.9713   1
  -4  -2   8-15.9469 9.82931   1
  -4  -2   8 11.4818 10.0000   1
  -4  -2   7 32.7597 11.0005   1
  -4  -2   7 43.5850 10.5873   1
  -4  -2   6 38.7577 9.89612   1
  -4  -2   6 32.7973 9.51529   1
  -4  -2   5 172.711 6.28160   2
  -4  -2   5 206.473 15.9635   1
  -4  -2   5 210.584 17.0634   1
  -4  -2   4 37.2282 4.91483   2
  -4  -2   4 26.9102 8.77915   1
  -4  -2   4 37.3211 8.81577   1
   4   2  -3 0.22793 6.53408   1
  -4  -2   3 0.82904 4.17341   2
  -4  -2   3 11.3302 7.35541   1
  -4  -2   2 100.491 11.8492   1
   4   2  -2 110.490 12.0904   1
  -4  -2   2 98.2048 8.64020   2
  -4  -2   1 34.6408 6.74021   2
  -4  -2   1 42.6440 9.31238   1
   4   2  -1 42.6878 8.88044   1
  -4  -2   0 12.1807 7.35379   1
   4   2   0 4.97018 6.49519   1
  -4  -2   0 7.95128 5.83902   2
  -4  -2  -1 31.2068 7.51068   2
   4   2   1 29.7797 8.44926   1
  -4  -2  -1 31.6864 8.24279   1
  -4  -2  -2 21.4863 8.08167   2
   4   2   2 19.3891 7.51763   1
  -4  -2  -2 19.2687 8.14970   1
  -4  -2  -3 8.07167 7.68607   2
   4   2   3-0.39087 6.99010   1
  -4  -2  -3 11.9303 7.43289   1
   4   2   4 4.15394 7.88666   1
  -4  -2  -4 0.46560 8.74248   2
  -4  -2  -4-9.77307 8.52812   1
   4   2   5 19.9911 8.52223   1
  -4  -2  -5 32.7932 9.40176   1
  -4  -2  -5 29.8001 10.5016   2
  -4  -2  -6 25.4891 10.3160   1
   4   2   6 18.3885 9.82622   1
  -4  -2  -6 37.5331 12.7878   2
  -4  -2  -7 48.9511 14.0985   2
  -4  -2  -7 23.1546 11.7143   1
   4   2   7 19.1935 10.2227   1
  -4  -2  -8 27.3906 16.6625   2
  -4  -2  -8 11.2726 11.4791   1
   4   2   8 24.3260 12.2375   1
  -4  -2  -9 51.0685 19.2069   2
  -4  -2  -9 35.9285 13.9313   1
   4   2   9 34.1447 12.7735   1
  -4  -2 -10-12.7858 21.0850   2
  -4  -2 -10 13.9875 14.9299   1
   4   2  10 8.63663 13.7955   1
  -4  -3  14 0.81316 18.1244   1
  -4  -3  14 17.9000 20.6519   1
  -4  -3  13-7.36705 15.8176   1
  -4  -3  13 15.0992 15.3414   1
  -4  -3  12-18.0780 14.2216   1
  -4  -3  12 8.95681 14.2550   1
  -4  -3  11 18.2781 13.7654   1
  -4  -3  11 14.6440 11.5794   1
  -4  -3  10 3.35327 11.7534   1
  -4  -3  10 12.1681 11.2560   1
  -4  -3   9 12.3195 11.1452   1
  -4  -3   9 10.5001 9.95844   1
  -4  -3   8 536.118 27.3654   1
  -4  -3   8 513.507 27.4833   1
  -4  -3   7 14.4231 2.11569   2
  -4  -3   7 36.0887 9.94325   1
  -4  -3   7 33.4788 10.5944   1
  -4  -3   6 84.8738 5.84177   2
  -4  -3   6 116.568 13.9250   1
  -4  -3   6 121.247 14.9117   1
  -4  -3   5 3.65725 4.01361   2
  -4  -3   5 8.43820 8.10318   1
  -4  -3   4 61.1677 10.6183   1
   4   3  -4 75.2312 11.3133   1
  -4  -3   4 67.8442 7.06468   2
  -4  -3   3 185.209 11.3619   2
  -4  -3   3 195.204 15.7939   1
   4   3  -3 185.596 15.3729   1
  -4  -3   2 283.914 14.4357   2
   4   3  -2 278.135 18.1459   1
  -4  -3   2 278.194 17.9972   1
  -4  -3   1 22.5076 7.83756   1
  -4  -3   1 21.0513 7.00371   2
   4   3  -1 33.7073 8.77421   1
  -4  -3   0 205.254 14.3369   2
   4   3   0 180.888 15.1637   1
  -4  -3   0 215.523 16.2875   1
  -4  -3  -1 10.7207 7.95119   2
   4   3   1 15.1412 8.30632   1
  -4  -3  -1 13.7208 8.20380   1
   4   3   2 6.47757 7.47899   1
  -4  -3  -2 6.88020 7.48771   2
  -4  -3  -2 10.5412 8.13477   1
   4   3   3 12.1144 9.39841   1
  -4  -3  -3 9.32249 9.58912   2
  -4  -3  -3 12.9711 9.03135   1
  -4  -3  -4 12.1564 9.88740   1
  -4  -3  -4 35.9174 11.1453   2
   4   3   4 15.0840 9.31326   1
  -4  -3  -5 12.7984 11.1224   1
  -4  -3  -5 8.51346 11.4351   2
   4   3   5 9.52520 10.4507   1
  -4  -3  -6 16.1469 13.1869   2
   4   3   6 19.8026 11.1348   1
  -4  -3  -6-13.5456 12.2116   1
  -4  -3  -7 20.8798 15.2848   2
   4   3   7-0.11336 12.0357   1
  -4  -3  -7 30.7834 13.9036   1
  -4  -3  -8-5.81586 16.2670   2
  -4  -3  -8 9.30296 14.5489   1
   4   3   8 20.8039 14.1871   1
   4   3   9 36.9794 17.5399   1
  -4  -3  -9 13.0248 21.8161   2
  -4  -3  -9 46.6383 17.9827   1
  -4  -4  14 12.1524 20.7031   1
  -4  -4  14 109.682 23.0601   1
  -4  -4  13-14.4381 18.9882   1
  -4  -4  13 3.75003 15.6392   1
  -4  -4  12 44.4815 16.4113   1
  -4  -4  12 3.92231 14.5165   1
  -4  -4  11 9.06545 13.1687   1
  -4  -4  11 0.96689 13.1526   1
  -4  -4  10 3.81279 12.2658   1
  -4  -4  10 6.90628 10.5031   1
  -4  -4   9 26.0116 12.3443   1
  -4  -4   9 17.3508 10.5720   1
  -4  -4   8 20.5545 11.0261   1
  -4  -4   8 9.52236 4.04701   2
  -4  -4   8 11.1205 11.4698   1
  -4  -4   7 46.7927 11.6816   1
  -4  -4   7 36.0169 5.77984   2
  -4  -4   7 31.7321 11.5816   1
  -4  -4   6 1.24436 8.74753   1
  -4  -4   6 10.3044 4.98679   2
   4   4  -6 1.75329 9.67288   1
  -4  -4   5 7.71781 8.43228   1
  -4  -4   5 8.84238 5.79583   2
   4   4  -5 19.4948 9.64259   1
  -4  -4   4 37.0705 9.79090   1
  -4  -4   4 21.0163 6.40361   2
   4   4  -4 31.4142 9.86107   1
   4   4  -3 21.4654 9.22862   1
  -4  -4   3 23.0805 6.92231   2
  -4  -4   3 42.6846 10.5558   1
  -4  -4   2 82.5735 10.2734   2
   4   4  -2 81.1464 12.2313   1
  -4  -4   2 81.7915 12.0144   1
  -4  -4   1 108.910 11.8622   2
   4   4  -1 121.592 14.1486   1
  -4  -4   1 118.384 13.9729   1
   4   4   0-3.20865 9.25527   1
  -4  -4   0-3.73469 8.05546   2
  -4  -4   0 0.16273 8.80160   1
   4   4   1 21.3408 10.0772   1
  -4  -4  -1 12.7551 8.60679   2
  -4  -4  -1 21.9207 10.6483   1
   4   4   2 1.15999 8.46768   1
  -4  -4  -2 4.16327 8.98514   2
  -4  -4  -2 19.4242 10.0266   1
  -4  -4  -3 41.0915 11.0876   1
  -4  -4  -3 54.8023 12.0446   2
   4   4   3 53.2249 11.6603   1
  -4  -4  -4 8.22101 12.0565   1
  -4  -4  -4 33.0632 13.0163   2
   4   4   4 6.63356 10.3642   1
  -4  -4  -5 37.3245 13.2597   1
  -4  -4  -5 40.0925 13.6103   2
   4   4   5 14.9673 12.9360   1
  -4  -4  -6 28.3253 16.6186   2
   4   4   6 40.8061 14.6331   1
  -4  -4  -6 22.0559 14.1692   1
  -4  -4  -7 38.9511 18.4529   2
   4   4   7 37.3796 15.5136   1
  -4  -4  -7 16.3445 16.6623   1
   4   4   8 78.7289 20.3602   1
  -4  -4  -8 53.1953 22.3347   2
  -4  -4  -8 24.7668 18.7232   1
  -4  -5  14 73.1111 20.9772   1
  -4  -5  14 1.87045 17.1759   1
  -4  -5  13 62.1150 20.2268   1
  -4  -5  13 10.0761 18.2120   1
  -4  -5  12 10.1805 15.8489   1
  -4  -5  12 54.5243 18.2296   1
  -4  -5  11 113.620 18.2364   1
  -4  -5  11 118.399 19.2760   1
  -4  -5  10 38.7890 13.6758   1
  -4  -5  10 51.6687 17.1081   1
  -4  -5   9-7.64083 10.7431   1
  -4  -5   9-0.67263 5.82178   2
  -4  -5   9 12.1672 12.8742   1
  -4  -5   8 28.6754 11.1511   1
  -4  -5   8 13.6890 6.30419   2
  -4  -5   7 125.221 10.4526   2
   4   5  -7 126.963 16.0681   1
  -4  -5   7 127.585 16.2250   1
  -4  -5   6 29.6451 10.8294   1
   4   5  -6 21.0164 10.7648   1
  -4  -5   6 15.9714 7.18777   2
  -4  -5   5 14.3605 10.5969   1
  -4  -5   5 4.79553 6.68044   2
   4   5  -5 7.47922 9.59526   1
  -4  -5   4 1.42075 8.77394   1
   4   5  -4 14.4577 9.81659   1
  -4  -5   4 10.1286 7.29185   2
  -4  -5   3 12.6924 7.88859   2
   4   5  -3-5.41534 9.94049   1
  -4  -5   3 16.0279 10.4102   1
  -4  -5   2 75.4149 11.4737   2
   4   5  -2 82.2516 13.2141   1
  -4  -5   2 62.1747 12.9976   1
  -4  -5   1 96.5513 12.9451   2
   4   5  -1 103.011 14.6820   1
  -4  -5   1 105.105 14.4418   1
   4   5   0 22.0628 10.9755   1
  -4  -5   0 3.45638 8.76863   2
  -4  -5   0 12.0463 10.3981   1
   4   5   1 20.8304 11.0146   1
  -4  -5  -1 50.3321 11.5808   2
  -4  -5  -1 59.7741 13.1841   1
   4   5   2 68.2305 15.0465   1
  -4  -5  -2 60.8916 13.6444   2
  -4  -5  -2 76.6641 15.4715   1
  -4  -5  -3 121.698 17.1842   2
   4   5   3 88.7023 16.7488   1
  -4  -5  -3 82.4995 15.4967   1
  -4  -5  -4 12.8549 13.2668   1
  -4  -5  -4 33.5056 14.2625   2
   4   5   4 2.69156 13.1443   1
  -4  -5  -5 5.94007 15.8267   2
   4   5   5 50.6682 16.2921   1
  -4  -5  -5 32.4634 16.7255   1
  -4  -5  -6 0.32864 18.2507   2
   4   5   6 57.5442 17.3903   1
  -4  -5  -6 2.73373 17.0830   1
  -4  -5  -7 61.1385 21.0405   2
   4   5   7 44.4537 19.7630   1
  -4  -5  -7 25.1925 17.9517   1
   4   6 -13 1.58443 7.31285   2
  -4  -6  13 12.8835 20.4619   1
  -4  -6  13 18.3124 18.5693   1
  -4  -6  12 15.3162 16.6106   1
   4   6 -12 11.0509 7.71002   2
  -4  -6  12 16.8669 15.4331   1
  -4  -6  11 13.7402 18.0830   1
   4   6 -11-2.72455 8.27962   2
  -4  -6  11-18.4632 14.2958   1
   4   6 -10-8.09624 8.52663   2
  -4  -6  10 8.05400 14.1436   1
  -4  -6  10 1.52211 8.19951   2
  -4  -6  10-2.55188 15.8223   1
   4   6  -9-0.35983 7.87293   2
  -4  -6   9-7.28450 14.0316   1
  -4  -6   9 5.84924 8.02897   2
  -4  -6   9-23.0122 14.0733   1
  -4  -6   8 37.9097 9.69239   2
  -4  -6   8 29.9041 13.1107   1
   4   6  -8 13.8941 12.7218   1
   4   6  -7 163.022 18.3889   1
  -4  -6   7 151.684 13.5271   2
  -4  -6   7 161.241 18.8656   1
  -4  -6   6 4.90075 7.98058   2
   4   6  -6 5.03676 11.5994   1
  -4  -6   6 1.84601 10.9114   1
  -4  -6   5 68.0342 11.1467   2
  -4  -6   5 73.3678 14.2616   1
   4   6  -5 90.9126 15.0321   1
  -4  -6   4 37.6115 10.0529   2
  -4  -6   4 35.6670 12.6973   1
   4   6  -4 51.3672 13.1459   1
  -4  -6   3 3.94788 9.38836   2
   4   6  -3 24.4445 12.0924   1
  -4  -6   3 16.2057 11.1366   1
   4   6  -2 1.51165 11.5454   1
  -4  -6   2-4.05666 9.13168   2
  -4  -6   2-10.1966 12.3825   1
  -4  -6   1 40.4521 12.5805   2
   4   6  -1 41.5813 13.2233   1
  -4  -6   1 23.1759 13.5107   1
  -4  -6   0 148.808 17.2530   2
   4   6   0 131.039 17.6643   1
  -4  -6   0 133.215 18.3510   1
  -4  -6  -1-9.63837 13.3136   1
  -4  -6  -1 1.25811 11.9592   2
   4   6   1-0.20844 12.0237   1
  -4  -6  -2 36.0873 14.6415   1
  -4  -6  -2-3.56273 13.6850   2
   4   6   2 18.8937 12.9552   1
  -4  -6  -3 17.9554 16.7667   1
  -4  -6  -3 34.4912 17.3693   2
   4   6   3-2.14745 15.2908   1
  -4  -6  -4 31.4358 16.9174   2
   4   6   4 25.8111 15.3309   1
  -4  -6  -5 21.6156 21.1284   2
   4   6   5 45.9945 19.9196   1
  -4  -6  -5 42.8241 20.0568   1
  -4  -7  12 6.62214 21.0340   1
  -4  -7  12 7.98703 19.1540   1
   4   7 -12 3.95612 11.0678   2
  -4  -7  11 44.8343 16.5886   1
   4   7 -11 29.1707 11.1195   2
  -4  -7  11-0.59389 10.5037   2
  -4  -7  11-20.5109 19.7983   1
  -4  -7  10 3.89712 16.0614   1
   4   7 -10 10.5556 10.8952   2
  -4  -7  10 0.63439 10.4479   2
  -4  -7  10-27.0766 17.2100   1
  -4  -7   9 78.6564 17.7461   1
   4   7  -9 57.1581 16.7621   1
  -4  -7   9 81.1129 13.2436   2
   4   7  -9 53.8158 11.8154   2
   4   7  -8 28.4236 11.1013   2
   4   7  -8 70.0094 17.8344   1
  -4  -7   8 44.1174 11.2293   2
  -4  -7   8 54.5953 16.0348   1
  -4  -7   7-15.3045 10.7585   2
   4   7  -7 14.1668 13.4178   1
  -4  -7   7 15.2898 12.6881   1
   4   7  -6-23.2655 14.0212   1
  -4  -7   6 5.63451 10.1439   2
  -4  -7   6-5.30437 14.4194   1
  -4  -7   5 19.0379 11.2538   2
  -4  -7   5 6.30460 13.0927   1
   4   7  -5 7.81594 13.7868   1
  -4  -7   4-1.06467 10.7151   2
  -4  -7   4 14.7089 13.4344   1
   4   7  -4-12.7524 12.9581   1
  -4  -7   3 16.7896 11.0228   2
  -4  -7   3 24.2690 12.8913   1
   4   7  -2-2.28146 13.8043   1
  -4  -7   2-14.8808 14.7308   1
  -4  -7   2-13.1762 12.4549   2
  -4  -7   1 272.674 22.5472   2
   4   7  -1 294.177 25.2757   1
  -4  -7   1 234.969 23.3306   1
  -4  -7   0 24.8167 15.6043   1
  -4  -7   0 20.8127 14.1337   2
   4   7   0-7.95640 14.1212   1
  -4  -7  -1 25.5236 17.8221   1
  -4  -7  -1 43.0065 17.4709   2
   4   7   1 45.5786 17.5897   1
  -4  -7  -2 20.0661 17.9702   1
  -4  -7  -2-20.1205 17.4823   2
   4   7   2-14.0615 16.6546   1
  -4  -7  -3 121.772 23.2699   2
  -4  -7  -3 125.868 24.3653   1
  -4  -7  -4 72.0767 16.5383   2
   4   7   4 82.4012 16.4921   1
  -4  -7  -4 64.8890 15.9729   1
   4   8 -11 37.7077 15.4680   2
  -4  -8  11 8.80759 14.1788   2
  -4  -8  11 33.5509 21.4932   1
  -4  -8  11 53.4209 21.8484   1
   4   8 -10 35.8281 13.9101   2
  -4  -8  10 9.05557 13.0131   2
  -4  -8  10 43.4986 18.1505   1
   4   8  -9 42.0989 14.6991   2
  -4  -8   9 57.5899 15.0456   2
  -4  -8   9 51.3608 17.6265   1
   4   8  -8 5.50558 13.6735   2
   4   8  -8 45.0118 18.6645   1
  -4  -8   8 30.6473 13.4959   2
  -4  -8   8 15.5777 15.5481   1
   4   8  -7 16.9325 17.8627   1
  -4  -8   7 29.0814 14.0642   2
  -4  -8   7 65.0138 18.4753   1
   4   8  -6 42.8671 17.7517   1
  -4  -8   6 11.3574 13.5239   2
  -4  -8   6 11.4399 16.8889   1
  -4  -8   5-12.8478 14.2282   2
  -4  -8   5 9.00064 17.2259   1
   4   8  -5-14.1191 16.0552   1
  -4  -8   4-18.4254 15.3668   1
  -4  -8   4-22.1642 13.7946   2
  -4  -8   3 124.042 19.5253   2
   4   8  -3 79.7842 20.1322   1
  -4  -8   3 111.626 21.7302   1
  -4  -8   2 138.981 19.8889   2
   4   8  -2 152.692 23.5950   1
  -4  -8   2 126.687 22.4313   1
  -4  -8   1 17.0479 16.9155   1
  -4  -8   1-16.2622 16.7130   2
  -4  -8   0 21.3108 18.7907   1
   4   8   0-6.56264 19.2913   1
  -4  -8  -1 36.3093 22.1014   1
  -4  -8  -1-3.41425 18.5257   2
   4   8   1 33.6424 21.4825   1
   4   9  -9 21.0793 9.29665   2
   4   9  -9 19.3391 11.9401   1
  -4  -9   9 19.5779 11.1503   1
  -4  -9   9 30.4373 9.95702   2
   4   9  -8-29.4398 17.1464   2
  -4  -9   8 24.4840 16.6386   2
   4   9  -8-6.12821 20.0686   1
   4   9  -7 37.1370 21.2668   1
  -4  -9   7 67.5671 21.1457   1
  -4  -9   7 34.2714 17.9011   2
  -4  -9   6-20.0173 21.2124   1
   4   9  -6-17.8192 21.8793   1
  -4  -9   5 63.5525 22.6319   1
  -4  -9   5 20.3463 17.7845   2
   4   9  -5 3.38808 20.6980   1
  -4  -9   4 17.8296 20.4723   1
   4   9  -4 11.2118 20.1441   1
  -4  -9   4 53.6048 18.4329   2
  -4  -9   3 13.2903 21.7490   1
   4   9  -3 60.0021 22.4113   1
  -4  -9   3 21.7457 18.4010   2
  -4  -9   2 30.2348 18.4564   2
  -5   8   1-3.84481 15.6001   2
   5  -8  -1-2.74158 14.3996   2
  -5   8   1 1.35255 17.3659   1
   5  -8  -1-35.2718 18.5993   1
  -5   8   0 22.5559 16.3073   2
   5  -8   0 46.8408 19.5602   1
  -5   8   0 21.3831 16.4174   1
  -5   8  -1 56.5686 18.1363   2
  -5   8  -1 27.2968 14.7977   1
  -5   8  -2 37.9506 17.4432   2
  -5   8  -2 5.41337 13.7024   1
  -5   8  -2 32.3183 14.2906   1
  -5   8  -3-6.73227 12.0454   1
  -5   8  -3 26.9989 12.0033   1
  -5   8  -3-9.07730 16.8745   2
  -5   8  -4 35.0059 11.1348   1
  -5   8  -4 39.5782 11.8238   1
  -5   8  -5 5.38110 7.23446   1
  -5   8  -5 10.1324 7.29733   1
  -5   7   4-11.9284 11.7876   2
   5  -7  -4 13.4613 11.4071   2
  -5   7   4 14.5483 19.0362   1
   5  -7  -4-11.0364 20.3527   1
  -5   7   3 15.2252 12.2286   2
  -5   7   3 8.98309 16.9232   1
   5  -7  -3-16.3738 20.6941   1
  -5   7   2-0.18403 11.9360   2
  -5   7   2-2.16559 15.5757   1
   5  -7  -2-7.56003 17.3210   1
  -5   7   1 3.06197 12.4622   2
  -5   7   1 12.0237 13.8753   1
  -5   7   0 50.4999 14.8489   1
  -5   7   0 28.8074 13.3582   2
  -5   7   0 8.40495 13.1001   1
  -5   7  -1 24.0658 13.9485   2
  -5   7  -1-4.28779 12.1457   1
  -5   7  -1-9.52157 12.0824   1
  -5   7  -2-20.8995 13.5636   2
  -5   7  -2-0.04595 11.0333   1
  -5   7  -2 3.70169 12.1403   1
  -5   7  -3 48.1566 12.6534   1
  -5   7  -3 16.3836 14.9766   2
  -5   7  -3 22.3543 10.3820   1
  -5   7  -4 41.9910 10.2126   1
  -5   7  -4 42.8762 16.4411   2
  -5   7  -4 34.7684 9.96149   1
  -5   7  -5 16.7260 6.50171   1
  -5   7  -5 4.06122 15.8183   2
  -5   7  -5 9.50557 5.97301   1
  -5   7  -6 74.8428 18.7323   2
  -5   7  -7-7.85597 18.9940   2
  -5   6   6 49.0378 21.2754   1
   5  -6  -6-27.0936 20.5437   1
  -5   6   5 1.82041 8.80744   2
  -5   6   5 1.92759 18.0574   1
   5  -6  -5-21.8861 21.3913   1
  -5   6   4 0.85872 9.18906   2
  -5   6   4 39.8834 16.6268   1
   5  -6  -4 38.8244 16.3068   1
  -5   6   3 17.3743 10.2126   2
  -5   6   3 28.9146 15.8761   1
   5  -6  -3 56.5677 17.7511   1
  -5   6   2 6.44318 10.1012   2
  -5   6   2 5.51687 13.3212   1
  -5   6   1 33.4567 13.9957   1
  -5   6   1 21.3589 10.6036   2
  -5   6   1 10.3980 12.7016   1
  -5   6   0-11.7282 11.0594   2
  -5   6   0-17.4871 12.3329   1
  -5   6   0-0.59411 11.0359   1
  -5   6  -1 68.0103 12.9530   2
  -5   6  -1 43.4099 12.1775   1
  -5   6  -2 34.2738 11.8197   2
  -5   6  -2 11.3568 10.3976   1
  -5   6  -2 6.16030 9.58913   1
  -5   6  -3 27.1206 9.31721   1
  -5   6  -3 30.3234 12.4038   2
  -5   6  -3 18.1035 9.53572   1
  -5   6  -4 31.7914 13.1850   2
  -5   6  -4 24.2141 8.13648   1
  -5   6  -4 24.8534 8.19018   1
  -5   6  -5 18.3089 5.82379   1
  -5   6  -5 24.7379 6.33825   1
  -5   6  -6 19.1880 15.4196   2
  -5   6  -7 75.1937 19.0548   2
  -5   6  -8 11.2868 19.2364   2
  -5   5   8 48.9890 21.1467   1
   5  -5  -8 99.9747 24.0585   1
  -5   5   7 33.8331 17.7469   1
   5  -5  -7 93.8952 22.5329   1
   5  -5  -6 171.500 24.2528   1
  -5   5   6 171.372 23.4473   1
  -5   5   5 30.2017 17.1829   1
  -5   5   4-1.22675 6.92703   2
  -5   5   4-8.17634 14.3255   1
  -5   5   3 86.4836 10.5938   2
  -5   5   3 96.4632 16.8357   1
  -5   5   2 50.3107 9.52035   2
  -5   5   2 44.2552 12.7408   1
  -5   5   2 48.5166 13.6963   1
  -5   5   1 36.3866 9.87399   2
  -5   5   1 30.1368 11.0297   1
  -5   5   1 20.6198 11.6333   1
  -5   5   0 42.0745 10.5898   2
  -5   5   0 29.3029 11.2926   1
  -5   5   0 41.2491 11.6748   1
  -5   5  -1 35.7834 10.7457   1
  -5   5  -1 17.2676 10.2682   2
  -5   5  -1 35.4551 10.4513   1
  -5   5  -2-2.07403 8.06085   1
  -5   5  -2-8.04661 8.44335   1
  -5   5  -2 18.7986 10.5653   2
  -5   5  -3 65.4952 12.7654   2
  -5   5  -3 52.2736 9.70657   1
  -5   5  -3 43.9962 9.70205   1
  -5   5  -4 5.90211 6.86546   1
  -5   5  -4-6.63958 11.7171   2
  -5   5  -4-8.62598 7.40793   1
  -5   5  -5 5.71880 5.29016   1
  -5   5  -5 5.12261 12.5642   2
  -5   5  -5-0.12593 5.70788   1
  -5   5  -6 11.3442 14.4618   2
  -5   5  -7 19.1992 15.3528   2
  -5   5  -8 13.1196 18.9881   2
  -5   5  -9 36.8316 22.2507   2
  -5   4   9 145.672 27.2588   1
  -5   4   8 18.6731 18.4004   1
  -5   4   7 47.6557 18.3088   1
  -5   4   6 21.2148 16.5439   1
  -5   4   6-23.5149 15.7912   1
  -5   4   5 27.0374 14.2540   1
  -5   4   5 38.4810 13.7657   1
  -5   4   4-3.58734 10.9144   1
  -5   4   4 2.33047 4.43999   2
  -5   4   4 9.26144 11.9437   1
  -5   4   3 5.52753 5.86095   2
  -5   4   3-10.0326 11.4894   1
  -5   4   3-7.76115 9.78324   1
  -5   4   2-5.05930 11.5397   1
  -5   4   2 5.34835 6.57014   2
  -5   4   2 7.28313 9.97075   1
  -5   4   1 16.0992 9.24962   1
  -5   4   1 4.99560 9.97420   1
  -5   4   1 14.0208 7.09246   2
  -5   4   0 33.6019 9.79910   1
  -5   4   0 20.3273 7.94624   2
  -5   4   0 30.0789 10.0350   1
  -5   4  -1-2.34905 9.10130   1
  -5   4  -1-4.44965 7.78508   1
  -5   4  -1-4.41715 8.62534   2
  -5   4  -2 72.1136 11.9509   2
  -5   4  -2 72.4829 10.4538   1
  -5   4  -2 77.8538 10.9395   1
  -5   4  -3-0.96149 7.76859   1
  -5   4  -3-9.21956 9.21290   2
  -5   4  -3-1.79563 7.40493   1
  -5   4  -4 3.22727 7.00159   1
  -5   4  -4 4.72647 7.45398   1
  -5   4  -4 10.1993 10.9606   2
  -5   4  -5-2.37752 6.01596   1
  -5   4  -5 3.56737 12.2433   2
  -5   4  -5 2.05465 5.89542   1
  -5   4  -6 2.69433 3.53813   1
  -5   4  -6-2.93284 4.03255   1
  -5   4  -6-9.87759 13.1160   2
  -5   4  -7-8.97637 14.0658   2
  -5   4  -8 15.6491 16.1081   2
  -5   4  -9 30.6602 20.9991   2
  -5   3  10 51.7379 22.4251   1
  -5   3  10 44.4076 23.5836   1
  -5   3   9 22.4656 18.7254   1
  -5   3   9 49.1866 19.1134   1
  -5   3   8 115.693 21.0051   1
  -5   3   8 128.706 21.9561   1
  -5   3   7 34.0743 15.1895   1
  -5   3   7 30.3968 14.3051   1
  -5   3   6 15.6508 13.1525   1
  -5   3   6-0.62853 13.8574   1
  -5   3   5 58.2197 13.3539   1
  -5   3   5 48.5225 13.7573   1
  -5   3   4 47.9077 3.45956   2
  -5   3   4 97.8488 14.8552   1
  -5   3   4 79.1455 14.3906   1
  -5   3   3 49.7395 5.86940   2
  -5   3   3 52.1334 12.7589   1
  -5   3   3 77.0100 12.9485   1
  -5   3   2 27.9750 10.2107   1
  -5   3   2 50.0763 7.36115   2
  -5   3   2 43.4796 10.7235   1
  -5   3   1 13.5320 8.88025   1
  -5   3   1 18.3770 6.80284   2
  -5   3   1 25.5476 8.95607   1
  -5   3   0 57.6476 8.96604   2
  -5   3   0 60.2896 10.6688   1
  -5   3   0 60.1927 10.8559   1
  -5   3  -1 20.4371 8.13099   1
  -5   3  -1 9.43125 7.86982   1
  -5   3  -1 6.65413 7.30805   2
  -5   3  -2 93.0619 10.7088   1
  -5   3  -2 86.8998 11.7713   2
  -5   3  -2 97.1200 11.4341   1
  -5   3  -3 10.5648 8.10531   1
  -5   3  -3-6.07532 7.57087   1
  -5   3  -3-4.15113 9.01519   2
  -5   3  -4 4.53909 6.65414   1
  -5   3  -4 9.57532 7.53428   1
  -5   3  -4 0.69526 9.80903   2
  -5   3  -5 32.3554 7.76669   1
  -5   3  -5 38.4908 7.98846   1
  -5   3  -5 28.5696 12.5648   2
  -5   3  -6 24.5824 6.08736   1
  -5   3  -6 14.0515 5.93829   1
  -5   3  -6 6.68179 12.5880   2
  -5   3  -7 2.59491 3.48913   1
  -5   3  -7-1.65198 3.56704   1
  -5   3  -8 74.5155 18.4407   2
  -5   3  -9 161.911 24.2321   2
  -5   2  11 36.2298 20.5690   1
  -5   2  11 23.6448 21.0411   1
  -5   2  10 34.4142 18.2061   1
  -5   2  10 33.1438 18.1932   1
  -5   2   9 26.2873 17.1156   1
  -5   2   9-0.66685 17.5977   1
  -5   2   8 21.7889 14.5301   1
  -5   2   8 16.7982 14.2244   1
  -5   2   7-8.82466 13.2097   1
  -5   2   7-18.6752 13.6187   1
  -5   2   6 8.98246 12.2019   1
  -5   2   6-2.26096 11.2458   1
  -5   2   5 2.04580 10.6477   1
  -5   2   5 13.5427 10.2213   1
  -5   2   4 6.48825 9.27747   1
  -5   2   4 12.1260 10.1039   1
  -5   2   3 15.1981 10.2857   1
  -5   2   3-0.18455 3.36105   2
  -5   2   3 11.9974 8.61145   1
  -5   2   2 21.1721 10.5772   1
  -5   2   2 5.00634 5.42625   2
  -5   2   2 2.25957 8.88121   1
  -5   2   1 103.332 9.73846   2
  -5   2   1 106.875 13.5242   1
  -5   2   1 98.1304 13.4894   1
  -5   2   0 223.234 14.1904   2
  -5   2   0 239.428 16.8748   1
  -5   2   0 205.325 16.5213   1
  -5   2  -1 22.0822 9.22821   1
  -5   2  -1 18.6192 7.49691   2
  -5   2  -1 31.9338 8.80170   1
  -5   2  -2 4.13353 7.50947   1
  -5   2  -2 2.41266 7.14666   1
  -5   2  -2-1.71515 7.94076   2
  -5   2  -3 163.234 15.0389   2
  -5   2  -3 155.183 13.2531   1
  -5   2  -3 147.964 12.6772   1
  -5   2  -4 18.1533 8.45548   1
  -5   2  -4 0.52423 9.60318   2
  -5   2  -4 8.82768 7.42040   1
  -5   2  -5 8.53466 7.48555   1
  -5   2  -5 3.30599 7.50733   1
  -5   2  -5-5.53892 10.4891   2
  -5   2  -6 22.4364 7.77527   1
  -5   2  -6 24.2654 7.95141   1
  -5   2  -6 10.6248 11.4330   2
  -5   2  -7-0.26229 6.73829   1
  -5   2  -7-1.96821 6.83761   1
  -5   2  -8 6.25290 5.08252   1
  -5   2  -8 3.75917 5.07055   1
  -5   2  -8-11.3532 15.8034   2
  -5   2  -9 73.9258 21.3908   2
  -5   1  11 40.6533 19.3286   1
  -5   1  11 66.5069 20.7253   1
  -5   1  10 31.5617 18.6094   1
  -5   1  10 24.3160 17.6227   1
  -5   1   9 15.1527 15.8002   1
  -5   1   9 24.0140 16.5560   1
  -5   1   8 33.3620 13.8817   1
  -5   1   8 66.3640 16.7154   1
  -5   1   7-7.01589 11.6239   1
  -5   1   7 6.55785 11.7455   1
  -5   1   6 55.0885 14.1283   1
  -5   1   6 64.1759 14.6413   1
  -5   1   5 27.6206 11.4661   1
  -5   1   5 22.7330 11.0911   1
  -5   1   4 2.43545 9.09294   1
  -5   1   4 8.99055 9.35465   1
  -5   1   3 45.9614 5.01125   2
  -5   1   3 45.1302 11.6586   1
  -5   1   3 38.2377 4.70157   2
  -5   1   3 49.5932 11.4263   1
  -5   1   2 246.742 11.6031   2
  -5   1   2 213.089 17.0666   1
  -5   1   2 234.032 18.1252   1
  -5   1   1 110.342 9.82443   2
  -5   1   1 111.665 13.4475   1
  -5   1   1 97.4673 13.5059   1
  -5   1   0 3.86237 8.69672   1
  -5   1   0 5.89225 6.62556   2
  -5   1   0-9.04673 7.65576   1
  -5   1  -1 30.9059 9.74787   1
  -5   1  -1 23.9083 9.05722   1
  -5   1  -1 27.7586 8.44676   2
  -5   1  -2 124.941 13.0691   2
  -5   1  -2 131.018 13.4957   1
  -5   1  -2 129.937 13.1452   1
  -5   1  -3 37.0340 9.44606   1
  -5   1  -3 41.6403 10.6469   2
  -5   1  -3 38.4273 9.44063   1
  -5   1  -4 3.03741 7.58407   1
  -5   1  -4-1.15771 10.3999   2
  -5   1  -4 6.18892 8.41966   1
  -5   1  -5-0.47322 7.65528   1
  -5   1  -5-7.87848 10.9612   2
  -5   1  -5 8.57083 8.73854   1
  -5   1  -6 4.69908 8.07808   1
  -5   1  -6 2.54168 12.8243   2
  -5   1  -6 20.5560 9.61481   1
  -5   1  -7-11.1821 16.3651   2
  -5   1  -7-11.2406 8.96558   1
  -5   1  -7-0.72482 8.84271   1
  -5   1  -8 13.3990 16.7243   2
  -5   1  -8 19.9570 9.76657   1
  -5   1  -8 17.7961 9.43566   1
  -5   1  -9-3.51005 7.76394   1
  -5   1  -9 20.3489 19.3393   2
  -5   1  -9 3.49853 7.91715   1
  -5   0  12 21.4434 20.5146   1
  -5   0  12 11.2399 21.3095   1
  -5   0  11 46.1834 18.0686   1
  -5   0  11 77.2408 21.3254   1
  -5   0  10-15.3172 16.5114   1
  -5   0  10-4.58172 15.7963   1
  -5   0   9 0.46756 15.5490   1
  -5   0   9 0.30240 14.6289   1
  -5   0   8 100.745 17.3971   1
  -5   0   8 65.7072 16.6668   1
  -5   0   7 13.5119 13.2686   1
  -5   0   7 21.4988 12.3508   1
  -5   0   6 175.120 18.0109   1
  -5   0   6 169.637 18.8061   1
  -5   0   5 8.09530 11.1157   1
  -5   0   5 21.1201 10.6729   1
  -5   0   4 0.90393 9.73512   1
  -5   0   4-0.39853 9.48343   1
  -5   0   3 40.7896 5.39910   2
  -5   0   3 43.6722 5.43380   2
  -5   0   3 56.4372 12.0814   1
  -5   0   3 58.6184 12.5822   1
  -5   0   2 85.6348 8.32897   2
  -5   0   2 78.2989 7.95542   2
  -5   0   2 95.1503 13.0215   1
  -5   0   2 71.6919 12.2124   1
  -5   0   1 33.9616 7.42227   2
  -5   0   1 47.9566 11.0807   1
  -5   0   1 38.5090 7.50375   2
  -5   0   1 44.5610 11.2352   1
  -5   0   0-7.68155 8.95723   1
  -5   0   0 3.93462 6.80908   2
  -5   0   0 1.31308 8.81659   1
  -5   0  -1 87.5585 11.5079   2
  -5   0  -1 104.709 13.8579   1
  -5   0  -1 102.289 12.9956   1
  -5   0  -2 85.6434 11.8115   2
  -5   0  -2 71.7630 11.4796   1
  -5   0  -2 81.4446 12.3601   1
  -5   0  -3 6.26826 8.17967   1
  -5   0  -3 13.8948 9.30970   2
  -5   0  -3 0.91434 9.44147   1
  -5   0  -4 29.6552 9.45656   1
  -5   0  -4 16.0946 10.7267   2
  -5   0  -5 32.2130 9.97386   1
  -5   0  -5 15.3334 12.6338   2
  -5   0  -6 46.8590 11.0264   1
  -5   0  -6 29.4973 13.8375   2
   5   0   6 32.1739 10.0160   1
   5   0   7 22.3925 10.8248   1
  -5   0  -7 44.6599 16.4623   2
  -5   0  -7 26.8478 11.5480   1
  -5   0  -8 3.66553 17.0115   2
  -5   0  -8 18.5534 11.6296   1
   5   0   8-12.4148 11.8649   1
  -5   0  -9 167.185 25.0209   2
  -5   0  -9 88.1573 13.2361   1
  -5  -1  12-22.5205 20.9999   1
  -5  -1  12 4.88183 20.5359   1
  -5  -1  11-5.97332 17.2696   1
  -5  -1  11-5.52171 17.3108   1
  -5  -1  10 9.99009 16.1709   1
  -5  -1  10-16.0034 15.3424   1
  -5  -1   9 3.63795 14.6403   1
  -5  -1   9 3.27299 13.6466   1
  -5  -1   8-4.98720 13.0960   1
  -5  -1   8 41.0510 13.9196   1
  -5  -1   7 2.44627 12.0243   1
  -5  -1   7-13.8116 11.2247   1
  -5  -1   6 16.9529 12.0092   1
  -5  -1   6 12.3507 9.78219   1
  -5  -1   5 15.4772 10.3499   1
  -5  -1   5 24.7917 10.9141   1
  -5  -1   4 244.683 8.20772   2
  -5  -1   4 219.717 7.69700   2
  -5  -1   4 241.922 19.2450   1
  -5  -1   3 124.392 8.69203   2
  -5  -1   3 124.070 15.2440   1
  -5  -1   3 109.163 8.21242   2
  -5  -1   3 137.111 16.6599   1
  -5  -1   2 10.1834 6.23082   2
  -5  -1   2 14.6889 10.0987   1
  -5  -1   2 5.88503 5.53795   2
  -5  -1   2 5.69139 9.83773   1
  -5  -1   1 20.8296 7.47940   2
  -5  -1   1 11.9804 9.64386   1
  -5  -1   1 41.1248 10.6939   1
  -5  -1   0 309.092 17.2527   2
  -5  -1   0 331.580 21.7269   1
  -5  -1   0 322.133 20.5761   1
  -5  -1  -1 84.2201 11.3447   2
   5   1   1 71.0916 11.6715   1
  -5  -1  -1 79.8332 12.6444   1
  -5  -1  -2 27.7417 10.2084   2
   5   1   2 4.84620 9.12759   1
  -5  -1  -2 22.2172 9.02894   1
  -5  -1  -3 16.9481 10.6226   2
   5   1   3 29.2581 10.7015   1
  -5  -1  -3 40.7130 11.4391   1
   5   1   4 5.88627 9.60614   1
  -5  -1  -4-7.40138 9.48541   1
  -5  -1  -5 105.731 13.8743   1
   5   1   5 69.0536 12.3739   1
  -5  -1  -6-8.87541 11.3963   1
   5   1   6 2.02751 10.7005   1
   5   1   7 8.97033 12.1248   1
  -5  -1  -7 16.5873 12.6809   1
   5   1   8 16.1910 13.5337   1
  -5  -1  -8 45.9351 15.2367   1
  -5  -2  12 6.93015 19.6615   1
  -5  -2  12-14.6492 19.9741   1
  -5  -2  11-5.87561 17.5040   1
  -5  -2  11-18.5586 17.0634   1
  -5  -2  10 48.3180 18.1330   1
  -5  -2  10 30.0644 16.0777   1
  -5  -2   9 48.1373 15.4855   1
  -5  -2   9 22.8261 15.1813   1
  -5  -2   8 10.0892 12.2198   1
  -5  -2   8 9.15012 12.6575   1
  -5  -2   7 33.7433 14.4873   1
  -5  -2   7 39.6396 13.4057   1
  -5  -2   6 19.2706 11.6346   1
  -5  -2   6 7.11212 11.4223   1
  -5  -2   5 3.31963 2.47106   2
  -5  -2   5 2.01353 2.09628   2
  -5  -2   5-0.74590 10.3276   1
  -5  -2   5-0.74539 11.5259   1
  -5  -2   4 21.6391 5.60958   2
  -5  -2   4 37.3821 11.4590   1
  -5  -2   4 13.6400 12.1946   1
  -5  -2   3 50.2299 12.1600   1
  -5  -2   3 55.7505 7.99350   2
  -5  -2   3 40.1307 12.7436   1
  -5  -2   2 53.0432 8.83713   2
  -5  -2   2 47.6145 12.0953   1
  -5  -2   1 10.5760 10.5794   1
  -5  -2   1 27.8609 8.36617   2
   5   2  -1 22.5741 10.6908   1
  -5  -2   0-0.16637 9.42761   1
  -5  -2   0-3.09420 7.88034   2
   5   2   0 8.37755 9.24479   1
   5   2   1-11.5236 10.8825   1
  -5  -2  -1-3.39749 9.05993   2
  -5  -2  -1 18.3411 9.60546   1
  -5  -2  -2 76.9678 13.4850   2
  -5  -2  -2 68.4650 13.6151   1
   5   2   2 62.9904 12.3559   1
  -5  -2  -3 8.78372 10.8280   2
   5   2   3 7.76589 9.74339   1
  -5  -2  -3 25.9584 11.2916   1
  -5  -2  -4 93.8151 15.6559   2
  -5  -2  -4 68.4819 14.4139   1
   5   2   4 86.7759 14.4681   1
  -5  -2  -5 89.1000 18.2572   2
  -5  -2  -5 93.2278 15.5395   1
   5   2   5 106.868 15.9716   1
  -5  -2  -6-0.64168 13.4397   1
  -5  -2  -6 0.59534 16.1922   2
   5   2   6 10.4479 12.8882   1
  -5  -2  -7 83.3818 21.9175   2
   5   2   7 113.752 17.9893   1
  -5  -2  -7 103.918 17.7251   1
  -5  -3  12-35.4631 19.1343   1
  -5  -3  12 3.81999 18.9585   1
  -5  -3  11 62.6425 19.7164   1
  -5  -3  11 47.0005 17.2328   1
  -5  -3  10-31.8808 17.5347   1
  -5  -3  10 13.7855 15.3380   1
  -5  -3   9 3.78087 14.6986   1
  -5  -3   9 8.57881 15.3022   1
  -5  -3   8 14.0889 15.1884   1
  -5  -3   8 0.93673 12.8822   1
  -5  -3   7 16.0631 13.8057   1
  -5  -3   7 7.33894 12.7158   1
  -5  -3   6 0.31762 2.62088   2
  -5  -3   6 14.3263 12.4687   1
  -5  -3   6-5.02800 12.9514   1
  -5  -3   5 1.43543 4.92475   2
  -5  -3   5-4.49301 10.9249   1
  -5  -3   5 20.2302 12.8618   1
  -5  -3   4 64.3006 8.28920   2
  -5  -3   4 54.6278 12.5839   1
  -5  -3   4 72.5849 14.5704   1
  -5  -3   3 28.7908 12.4880   1
  -5  -3   3 24.0730 7.68988   2
   5   3  -3 10.7762 9.97136   1
  -5  -3   2 21.5612 11.5682   1
  -5  -3   2 4.31963 7.27436   2
   5   3  -2 12.8100 9.77452   1
   5   3  -1-5.35124 11.1985   1
  -5  -3   1-1.61550 8.95902   2
  -5  -3   1 0.06084 10.3922   1
  -5  -3   0-3.17524 9.19568   2
   5   3   0 2.84127 11.1431   1
  -5  -3   0 11.8103 11.9425   1
  -5  -3  -1 45.3707 12.3007   2
   5   3   1 33.9109 12.2282   1
  -5  -3  -1 49.7171 13.7691   1
   5   3   2 63.7237 13.4968   1
  -5  -3  -2 73.5825 14.4514   2
  -5  -3  -2 66.7894 14.2096   1
  -5  -3  -3 10.8209 12.6706   2
  -5  -3  -3 32.5656 12.0581   1
   5   3   3 41.4089 13.0177   1
  -5  -3  -4 6.16327 14.1670   1
  -5  -3  -4 42.7823 16.6358   2
   5   3   4 5.30521 13.9133   1
  -5  -3  -5 109.569 20.5030   2
  -5  -3  -5 47.5235 17.0676   1
   5   3   5 76.7626 17.7270   1
  -5  -3  -6 21.2654 19.5623   2
   5   3   6 46.8958 16.6074   1
  -5  -3  -6 8.01309 16.7698   1
  -5  -4  12 36.9451 19.4357   1
  -5  -4  12 116.954 24.7265   1
  -5  -4  11-7.10886 18.4811   1
  -5  -4  11-4.61519 19.3220   1
  -5  -4  10 118.731 21.5076   1
  -5  -4  10 109.535 21.5275   1
  -5  -4   9-3.34504 17.1466   1
  -5  -4   9 26.1428 17.0517   1
  -5  -4   8-17.6530 15.4381   1
  -5  -4   8 0.40891 15.4283   1
  -5  -4   7 15.1872 13.6581   1
  -5  -4   7-1.41105 3.90171   2
  -5  -4   7 13.1949 14.4375   1
  -5  -4   6 6.48401 12.1509   1
  -5  -4   6 9.00700 6.34012   2
  -5  -4   6-19.1208 13.5875   1
  -5  -4   5-0.27722 11.3806   1
  -5  -4   5 3.46155 7.17059   2
  -5  -4   4-2.78179 11.8072   1
  -5  -4   4 18.1425 8.28573   2
   5   4  -4 13.8951 12.5167   1
  -5  -4   3-2.14492 11.6642   1
   5   4  -3-4.57737 11.8533   1
  -5  -4   3 13.4510 8.76661   2
  -5  -4   2 23.9556 10.2410   2
   5   4  -2 46.3811 14.3186   1
  -5  -4   2 29.2519 14.1604   1
  -5  -4   1 31.6277 11.2610   2
   5   4  -1 33.2802 12.6187   1
  -5  -4   1 26.0994 12.4262   1
   5   4   0 3.53673 12.7464   1
  -5  -4   0 13.1535 11.1031   2
  -5  -4   0 18.8436 11.7003   1
  -5  -4  -1 64.2690 13.5767   2
  -5  -4  -1 50.4400 15.0062   1
   5   4   1 70.1091 15.3804   1
  -5  -4  -2 14.0048 13.1251   2
   5   4   2 8.90721 13.7442   1
  -5  -4  -3 29.1287 16.2192   1
  -5  -4  -3 0.55158 15.0135   2
   5   4   3 36.8828 16.6484   1
  -5  -4  -4 153.415 21.5773   2
  -5  -4  -4 149.687 20.8886   1
   5   4   4 126.408 20.2635   1
  -5  -4  -5-30.1702 20.7833   2
   5   4   5-25.8743 17.2145   1
  -5  -5  11 0.09331 21.0160   1
  -5  -5  11-26.0382 20.4194   1
  -5  -5  10 92.1442 21.9340   1
  -5  -5  10 86.7084 19.4306   1
  -5  -5   9-0.40310 16.6692   1
  -5  -5   9 3.74529 18.1929   1
  -5  -5   8-25.8471 15.2250   1
  -5  -5   8 1.20642 5.92960   2
  -5  -5   8 0.08699 17.8986   1
  -5  -5   7 13.9813 15.7540   1
  -5  -5   7 9.59403 7.35760   2
  -5  -5   7-15.0710 17.3193   1
  -5  -5   6 12.5401 13.9903   1
   5   5  -6 3.31766 13.4579   1
  -5  -5   6 2.71507 8.14962   2
  -5  -5   5 7.90975 13.2158   1
   5   5  -5 10.4562 13.4458   1
  -5  -5   5-4.77646 8.84210   2
   5   5  -4-4.92639 13.5712   1
  -5  -5   4 16.5386 9.12055   2
  -5  -5   4 5.19471 13.7875   1
  -5  -5   3 59.2476 11.7822   2
   5   5  -3 33.6399 13.7090   1
  -5  -5   3 42.5388 14.7144   1
   5   5  -2 4.38749 13.5504   1
  -5  -5   2 16.2137 10.5253   2
  -5  -5   2 13.5562 15.2197   1
  -5  -5   1 97.0526 14.9835   2
  -5  -5   1 120.449 18.7871   1
   5   5  -1 127.920 19.4002   1
  -5  -5   0-1.72969 12.6991   2
  -5  -5   0 26.3551 16.3369   1
   5   5   0 20.4896 15.3542   1
  -5  -5  -1 191.881 21.8660   2
  -5  -5  -1 217.551 23.9974   1
  -5  -5  -2 68.9084 17.6328   1
  -5  -5  -2 25.8292 16.4109   2
   5   5   2 26.5651 16.2769   1
  -5  -5  -3 34.6310 18.0326   1
  -5  -5  -3 4.96143 17.7295   2
   5   5   3-18.4159 17.7794   1
  -5  -5  -4 70.5143 21.4001   1
   5   5   4 37.6462 18.5094   1
  -5  -5  -4 15.1111 19.8690   2
  -5  -6  11 57.9286 15.9837   1
  -5  -6  11 60.2762 14.5711   1
  -5  -6  10 27.1713 19.7814   1
  -5  -6  10 5.58692 6.07403   2
  -5  -6  10 16.5587 22.9881   1
  -5  -6   9-16.9653 19.9068   1
  -5  -6   9 4.21430 8.67946   2
  -5  -6   9 6.72551 21.5132   1
  -5  -6   8 34.9909 18.1261   1
  -5  -6   8 3.29975 9.37034   2
  -5  -6   7-16.6766 15.6849   1
  -5  -6   7-0.74102 9.60379   2
  -5  -6   6-9.54285 10.2582   2
  -5  -6   6 12.5739 17.1003   1
   5   6  -6 28.8209 18.9669   1
   5   6  -5 10.7830 16.7939   1
  -5  -6   5 24.6490 12.3324   2
  -5  -6   4 3.63055 12.2697   2
   5   6  -4 5.67541 16.8478   1
  -5  -6   4 15.8019 15.6210   1
   5   6  -3-12.6640 15.0054   1
  -5  -6   3-11.3335 12.0154   2
  -5  -6   3 6.94912 16.1940   1
  -5  -6   2 125.609 18.2769   2
  -5  -6   2 120.148 21.3384   1
   5   6  -2 161.103 23.1745   1
  -5  -6   1-5.73490 14.0086   2
  -5  -6   1-26.9768 18.5158   1
   5   6  -1-3.31490 15.5816   1
  -5  -6   0 95.1379 17.7579   2
  -5  -6   0 146.820 22.8039   1
  -5  -6  -1 28.6983 20.6453   1
  -5  -6  -1-8.50048 18.7779   2
   5   6   1-8.98632 17.3223   1
  -5  -6  -2 39.0502 20.8932   1
   5   6   2-6.10715 19.3048   1
  -5  -6  -2-14.2153 18.7152   2
  -5  -7   9 20.5301 11.2776   2
  -5  -7   9 3.91530 20.0338   1
  -5  -7   9 38.0753 19.8582   1
  -5  -7   8 106.509 15.3769   2
  -5  -7   8 70.1828 22.7204   1
  -5  -7   7-2.81467 12.3764   2
  -5  -7   7 5.46397 19.0411   1
   5   7  -6 12.4256 18.5665   1
  -5  -7   6 27.1666 13.4614   2
  -5  -7   6 30.1624 19.6856   1
  -5  -7   5 74.7864 16.2750   2
  -5  -7   5 49.0795 19.7871   1
   5   7  -5 30.0190 18.1290   1
  -5  -7   4 32.0187 14.4080   2
  -5  -7   4 12.6882 18.9520   1
   5   7  -3 54.1875 19.9311   1
  -5  -7   3 17.9511 15.7799   2
  -5  -7   3 51.3267 22.0041   1
  -5  -7   2-1.23476 18.5269   1
  -5  -7   2-4.30903 16.6976   2
   5   7  -2 4.68980 20.2893   1
  -5  -7   1 19.2142 21.8843   1
  -5  -7   1 50.6744 20.1963   2
  -6   6   1 46.0687 13.8113   1
  -6   6   1 58.1027 10.7765   2
  -6   6   1 59.8991 14.8320   1
  -6   6   0 26.0630 13.4691   2
  -6   6   0 29.5731 16.4397   1
  -6   6   0 7.49339 14.3973   1
  -6   6  -1 60.7654 15.9425   1
  -6   6  -1 16.1602 14.2667   2
  -6   6  -1 29.8030 15.5777   1
  -6   6  -2-17.1801 12.0961   1
  -6   6  -2-6.79981 12.4162   1
  -6   5   4 1.77894 17.9849   1
  -6   5   4 12.0830 17.1107   1
  -6   5   3 0.22548 17.0415   1
  -6   5   3 10.4074 7.93691   2
  -6   5   2 0.89848 10.1263   2
  -6   5   2 28.3720 16.3322   1
  -6   5   2-11.6830 16.1624   1
  -6   5   1 28.2554 11.1370   2
  -6   5   1 66.3234 16.5004   1
  -6   5   1 25.4632 16.8503   1
  -6   5   0 18.0988 13.7669   1
  -6   5   0 6.37109 12.0136   2
  -6   5   0 16.5253 13.8548   1
  -6   5  -1 12.6871 13.4960   1
  -6   5  -1 19.1727 13.5608   2
  -6   5  -1 2.91925 13.6110   1
  -6   5  -2-12.5778 14.0174   1
  -6   5  -2 0.88807 14.8962   2
  -6   5  -2 3.32129 12.3682   1
  -6   5  -3 8.70108 11.9568   1
  -6   5  -3-7.18758 16.2456   2
  -6   5  -3 36.5429 12.4961   1
  -6   5  -4 34.7019 11.7646   1
  -6   5  -4 57.7246 18.6381   2
  -6   5  -4 42.6341 11.9570   1
  -6   5  -5 32.0779 5.83373   1
  -6   5  -5 34.4855 11.3658   2
  -6   5  -5 27.3453 5.37381   1
  -6   4   6 29.4109 15.9364   1
  -6   4   6 58.5319 16.3744   1
  -6   4   5 61.8832 20.7703   1
  -6   4   5 40.7543 21.2604   1
  -6   4   4-4.73315 17.9149   1
  -6   4   4-2.67450 17.9711   1
  -6   4   3-3.01650 5.59656   2
  -6   4   3-23.2645 18.6102   1
  -6   4   3-5.78648 15.3338   1
  -6   4   2 50.3573 16.4367   1
  -6   4   2 32.5338 9.45538   2
  -6   4   2 49.0936 15.8317   1
  -6   4   1 15.5672 14.1304   1
  -6   4   1-2.64186 13.5798   1
  -6   4   1 6.65570 10.0166   2
  -6   4   0 34.3215 14.5091   1
  -6   4   0 36.9090 15.4277   1
  -6   4   0 42.8957 12.1374   2
  -6   4  -1-14.7197 12.5368   1
  -6   4  -1 25.2595 12.3189   2
  -6   4  -1-14.5896 12.8163   1
  -6   4  -2 4.52044 12.5522   1
  -6   4  -2 17.1971 12.8521   2
  -6   4  -2 16.6284 11.6254   1
  -6   4  -3 10.6359 10.8512   1
  -6   4  -3 23.2396 11.6950   1
  -6   4  -3 4.02056 14.2959   2
  -6   4  -4-0.46074 11.8824   1
  -6   4  -4 11.8902 15.2331   2
  -6   4  -4 1.90366 11.1660   1
  -6   4  -5 93.5680 12.0511   1
  -6   4  -5 73.8375 19.8676   2
  -6   4  -5 66.6908 11.5943   1
  -6   3   7-12.7237 20.5122   1
  -6   3   7-22.7677 20.5623   1
  -6   3   6-1.49438 17.4576   1
  -6   3   6 41.4534 18.5149   1
  -6   3   5 52.4325 18.5510   1
  -6   3   5 34.7226 17.5338   1
  -6   3   4 42.0973 18.0463   1
  -6   3   4 61.1191 17.1189   1
  -6   3   3-14.5976 13.8494   1
  -6   3   3 0.90337 4.01915   2
  -6   3   3-6.48602 13.9298   1
  -6   3   2 1.49003 14.5556   1
  -6   3   2-2.07641 13.1491   1
  -6   3   2 0.71929 7.13931   2
  -6   3   1 18.1358 13.6605   1
  -6   3   1 34.3673 10.3299   2
  -6   3   1 25.3410 13.9629   1
  -6   3   0 35.3191 13.4072   1
  -6   3   0 21.9716 10.7435   2
  -6   3   0 9.03878 13.0606   1
  -6   3  -1 15.3621 12.1703   1
  -6   3  -1 3.23092 10.4801   2
  -6   3  -1 10.4041 12.4819   1
  -6   3  -2-9.32634 12.1384   1
  -6   3  -2 8.59087 11.6969   1
  -6   3  -2 3.26759 12.5513   2
  -6   3  -3-6.43938 10.9280   1
  -6   3  -3-4.10020 11.5586   1
  -6   3  -3 3.45129 13.5280   2
  -6   3  -4 24.9062 11.1005   1
  -6   3  -4 48.8030 15.3922   2
  -6   3  -4 36.8154 11.4909   1
  -6   3  -5-8.44728 10.5799   1
  -6   3  -5-1.67905 9.98180   1
  -6   3  -5-19.4461 17.2654   2
  -6   3  -6 46.8318 9.15346   1
  -6   3  -6 38.8952 17.2541   2
  -6   3  -6 49.1420 9.49654   1
  -6   2   8 98.6740 24.6112   1
  -6   2   8 70.3110 21.4094   1
  -6   2   7 3.65910 19.1207   1
  -6   2   7-10.4423 19.3184   1
  -6   2   6 13.1418 17.8204   1
  -6   2   6 23.1978 16.2980   1
  -6   2   5 16.8331 16.3809   1
  -6   2   5-1.97090 15.3960   1
  -6   2   4 23.0497 15.7804   1
  -6   2   4 62.0532 17.2543   1
  -6   2   3 37.6851 15.2563   1
  -6   2   3 30.1020 15.1241   1
  -6   2   3 13.3607 3.85665   2
  -6   2   3 9.97595 3.60986   2
  -6   2   2 21.7865 13.4973   1
  -6   2   2 23.9471 15.2349   1
  -6   2   2 16.5396 7.15826   2
  -6   2   1 3.16457 12.2242   1
  -6   2   1 13.1681 8.77209   2
  -6   2   1 10.3546 13.0041   1
  -6   2   0 83.1755 15.5556   1
  -6   2   0 74.8854 12.3570   2
  -6   2   0 50.6849 14.1510   1
  -6   2  -1 5.77380 12.7506   1
  -6   2  -1-17.2844 13.0178   1
  -6   2  -1 7.06811 10.7930   2
  -6   2  -2 103.023 15.5577   2
  -6   2  -2 119.783 16.8131   1
  -6   2  -2 128.929 16.6710   1
  -6   2  -3 17.8390 12.3340   1
  -6   2  -3-9.03373 13.8269   2
  -6   2  -3-2.61376 11.4207   1
  -6   2  -4 21.1771 11.7702   1
  -6   2  -4-0.84039 11.4847   1
  -6   2  -5 57.7692 12.7444   1
  -6   2  -5 50.3170 13.2516   1
  -6   2  -5 75.1865 17.9109   2
  -6   2  -6 99.6093 20.9957   2
  -6   2  -6 67.1693 12.5295   1
  -6   2  -6 56.9217 12.3795   1
  -6   1   8 13.0397 21.0699   1
  -6   1   8-18.6477 19.5922   1
  -6   1   7-12.1026 19.8486   1
  -6   1   7-3.39659 17.7850   1
  -6   1   6 8.72995 17.0252   1
  -6   1   6 37.3329 18.0290   1
  -6   1   5 16.7741 16.4456   1
  -6   1   5 10.1256 16.1326   1
  -6   1   4 31.8620 15.6996   1
  -6   1   4 38.6856 16.2209   1
  -6   1   3 111.252 6.80992   2
  -6   1   3 109.371 6.60632   2
  -6   1   3 131.510 19.4533   1
  -6   1   3 122.415 18.4559   1
  -6   1   2 211.624 12.4534   2
  -6   1   2 210.831 12.2961   2
  -6   1   2 209.359 20.7158   1
  -6   1   2 214.008 21.1847   1
  -6   1   1 207.424 14.3602   2
  -6   1   1 230.217 20.5440   1
  -6   1   1 221.611 14.7353   2
  -6   1   1 223.752 21.6032   1
  -6   1   0 9.38453 12.2927   1
  -6   1   0 1.70343 12.0655   1
  -6   1   0 6.87463 10.0775   2
  -6   1  -1-7.87771 12.3858   1
  -6   1  -1 8.01987 11.8070   1
  -6   1  -1-7.42780 10.1148   2
  -6   1  -2 30.0416 13.3913   1
  -6   1  -2 4.56452 12.4773   1
  -6   1  -2 41.9584 13.8730   2
  -6   1  -3 11.5375 12.6846   1
  -6   1  -3-8.34673 12.7849   2
  -6   1  -4 13.1753 12.8111   1
  -6   1  -4 56.8317 13.1187   1
  -6   1  -4 25.5532 15.1895   2
  -6   1  -5 5.57985 13.2811   1
  -6   1  -5 6.78005 12.9081   1
  -6   1  -5-15.9568 16.5380   2
  -6   1  -6 59.8197 10.7104   1
  -6   1  -6 69.5678 11.5834   1
  -6   0   9-16.8626 20.6876   1
  -6   0   9 21.0087 21.9976   1
  -6   0   8 21.7176 20.0256   1
  -6   0   8-9.45929 19.1895   1
  -6   0   7 25.8897 17.2078   1
  -6   0   7 15.3930 16.9605   1
  -6   0   6 11.2710 16.2856   1
  -6   0   6-1.55162 16.4532   1
  -6   0   5 25.1857 15.2888   1
  -6   0   5 62.6855 17.2101   1
  -6   0   4 99.8240 19.1409   1
  -6   0   4 131.303 19.3892   1
  -6   0   3-15.8255 15.4149   1
  -6   0   3-0.83462 5.23899   2
  -6   0   3 2.85189 4.91833   2
  -6   0   3-21.1480 13.0819   1
  -6   0   2 111.510 17.1932   1
  -6   0   2 111.883 10.5972   2
  -6   0   2 86.2190 17.2335   1
  -6   0   2 106.868 10.5068   2
  -6   0   1 145.923 13.2940   2
  -6   0   1 151.064 13.4905   2
  -6   0   1 175.977 20.5780   1
  -6   0   1 179.115 19.1632   1
  -6   0   0-0.32826 14.4598   1
  -6   0   0 16.1009 10.9951   2
  -6   0   0 33.0123 13.6885   1
  -6   0   0 2.21269 10.0910   2
  -6   0  -1 26.1136 14.5353   1
  -6   0  -1 44.4526 14.4806   1
  -6   0  -1 29.1797 12.7084   2
  -6   0  -1 7.29425 10.7953   2
  -6   0  -2 10.7472 14.5063   1
  -6   0  -2 5.76692 12.9854   2
  -6   0  -2 28.6679 13.6326   2
  -6   0  -2-13.0626 12.7894   1
  -6   0  -3 4.72393 13.4272   1
  -6   0  -3 12.7298 14.6139   2
  -6   0  -3 17.5320 14.8955   1
  -6   0  -4 57.3589 14.4876   1
  -6   0  -4 37.7033 16.4855   2
  -6   0  -4 61.8526 15.7204   1
  -6   0  -5 1.40456 13.9118   1
  -6   0  -5 2.79870 17.0392   2
  -6   0  -5 34.3949 16.0292   1
  -6  -1   9 22.4035 20.7863   1
  -6  -1   9-3.67293 20.7903   1
  -6  -1   8-2.47939 20.1789   1
  -6  -1   8 4.59081 19.7034   1
  -6  -1   7 15.6401 18.0497   1
  -6  -1   7 5.97184 17.2961   1
  -6  -1   6 5.57176 16.9006   1
  -6  -1   6 15.2122 16.1210   1
  -6  -1   5 29.8793 17.5603   1
  -6  -1   5 14.0735 15.5408   1
  -6  -1   4 15.6983 15.2534   1
  -6  -1   4 10.7149 2.74404   2
  -6  -1   4 11.3219 2.71939   2
  -6  -1   3-7.01339 15.6985   1
  -6  -1   3 31.6193 7.19444   2
  -6  -1   3-0.14069 15.2253   1
  -6  -1   3 20.7896 7.25905   2
  -6  -1   2 10.2168 14.1096   1
  -6  -1   2 7.35751 8.76758   2
  -6  -1   2 13.5737 13.3853   1
  -6  -1   2 8.22860 8.08906   2
  -6  -1   1 30.1879 14.3486   1
  -6  -1   1 7.27197 9.52239   2
  -6  -1   1 8.57503 9.18979   2
  -6  -1   1 13.2452 13.7989   1
  -6  -1   0 99.7930 14.3124   2
  -6  -1   0 87.1014 13.0835   2
  -6  -1   0 109.483 17.3572   1
  -6  -1   0 92.1079 17.3493   1
  -6  -1  -1 15.2360 12.5167   2
  -6  -1  -1 14.6578 12.6892   2
  -6  -1  -1-10.5772 13.0332   1
  -6  -1  -1 24.5407 16.1595   1
  -6  -1  -2-6.73551 12.9471   2
  -6  -1  -2 2.39004 14.1983   1
  -6  -1  -2 25.2124 14.1576   2
  -6  -1  -2 21.7432 14.9432   1
  -6  -1  -3 18.4783 14.4718   2
  -6  -1  -3 11.5140 14.4370   1
  -6  -1  -3 48.8752 16.2896   2
  -6  -1  -3 32.3742 15.7348   1
  -6  -1  -4 33.6776 17.7502   2
  -6  -1  -4 50.7635 17.2783   1
  -6  -1  -4 35.5872 17.1107   2
  -6  -1  -4-12.0422 16.7196   1
  -6  -1  -5 21.1789 8.96260   1
  -6  -1  -5 53.7726 14.0088   2
  -6  -1  -5 46.4472 13.1327   2
  -6  -1  -5 29.4854 10.3811   1
  -6  -2   9 53.7696 22.8148   1
  -6  -2   9 50.5521 22.3067   1
  -6  -2   8 5.94136 19.6914   1
  -6  -2   8-10.3687 17.9424   1
  -6  -2   7 33.9828 18.7261   1
  -6  -2   7-13.8569 17.4816   1
  -6  -2   6 27.0457 18.8299   1
  -6  -2   6 64.8517 18.2457   1
  -6  -2   5-10.3925 15.8142   1
  -6  -2   4 102.602 8.62048   2
  -6  -2   4 81.7028 8.00998   2
  -6  -2   3 10.2739 8.55853   2
  -6  -2   3 8.09312 7.91025   2
  -6  -2   3 16.7485 16.1332   1
  -6  -2   2 5.46424 15.3545   1
  -6  -2   2-8.07671 9.44819   2
  -6  -2   2 9.43783 9.70413   2
  -6  -2   2 11.7091 16.2896   1
  -6  -2   1 10.0147 14.8889   1
  -6  -2   1-1.46583 11.2305   2
  -6  -2   1 8.31228 16.8727   1
  -6  -2   0 4.52797 12.1907   2
  -6  -2   0-21.2255 15.8139   1
  -6  -2   0 11.2068 15.0383   1
  -6  -2  -1 20.8115 14.0098   2
  -6  -2  -1 19.6188 14.5503   1
  -6  -2  -2 71.1328 16.8320   2
  -6  -2  -2 81.2168 17.4035   1
   6   2   3 0.80961 16.0868   1
  -6  -2  -3-14.2173 17.8337   1
  -6  -2  -4 70.3156 15.7311   2
   6   2   4 62.6348 14.1566   1
  -6  -2  -4 57.9185 13.6191   1
  -6  -3   8-27.7705 21.2225   1
  -6  -3   8 8.21512 18.9810   1
  -6  -3   7-4.05104 20.8784   1
  -6  -3   7-12.1360 18.4118   1
  -6  -3   6 16.6674 19.1472   1
  -6  -3   6 44.0602 19.2172   1
  -6  -3   5 3.65626 5.51449   2
  -6  -3   5 7.85749 5.49498   2
  -6  -3   4 8.14877 8.58420   2
  -6  -3   4-11.0750 18.5783   1
  -6  -3   3 60.2407 19.5431   1
  -6  -3   3 28.4922 10.9961   2
  -6  -3   3 43.3419 18.9616   1
  -6  -3   2 65.3987 13.4153   2
  -6  -3   2 17.4973 18.3965   1
  -6  -3   2 25.8731 17.0229   1
  -6  -3   1 0.39336 11.6671   2
  -6  -3   1 61.1222 17.5405   1
  -6  -3   0 91.7369 16.4880   2
   6   3   0 85.2717 18.5256   1
  -6  -3   0 114.929 19.9059   1
   6   3   1-31.6572 18.4464   1
  -6  -3  -1-12.1643 17.0736   2
  -6  -3  -2 133.642 21.7102   2
   6   3   2 169.571 25.1872   1
  -6  -4   8-5.93139 22.5255   1
  -6  -4   8 29.3598 21.7329   1
  -6  -4   7 128.740 26.3051   1
  -6  -4   7 55.1465 22.6863   1
  -6  -4   6 15.5769 19.2219   1
  -6  -4   6 0.47871 6.04687   2
  -6  -4   6 6.36624 5.40913   2
  -6  -4   6-7.69395 22.7274   1
  -6  -4   5 7.14322 19.0973   1
  -6  -4   5 19.6865 9.41716   2
  -6  -4   5 6.30701 20.5553   1
  -6  -4   4 2.59214 18.3222   1
  -6  -4   4 3.07492 10.8240   2
  -6  -4   4-32.7551 22.3475   1
  -6  -4   3 11.8854 11.6174   2
  -6  -4   3-15.2787 18.1658   1
  -6  -4   2 33.4573 12.8628   2
   6   4  -2-1.39938 17.4862   1
  -6  -4   2 20.8765 18.1390   1
   6   4  -1-17.0375 19.4123   1
  -6  -4   1 17.8196 14.2254   2
  -6  -4   1 11.3908 18.9686   1
   6   4   0 70.0608 21.1316   1
  -6  -4   0 112.798 20.1380   2
  -6  -4   0 135.829 24.5778   1
  -6  -4  -1 68.7771 15.5671   2
   6   4   1 29.3485 13.9860   1
  -6  -4  -1 67.4251 16.7837   1
  -6  -5   6 27.8430 9.75422   2
  -6  -5   5 22.3863 12.5947   2
  -6  -5   5 17.4137 22.1096   1
  -6  -5   5 32.4914 20.9740   1
  -6  -5   4 8.36577 13.5578   2
  -6  -5   4 66.4461 21.8321   1
  -6  -5   3-20.9615 13.8705   2
  -6  -5   3-10.2854 20.2114   1
   6   5  -3 3.31260 18.9718   1
  -6  -5   2-17.5740 17.6208   1
   0   0   0    0.00    0.00   0
TITL 125_c in P-1
REM P-1 (#2 in standard setting)
CELL 0.71073   4.901042   8.562319  11.950231 108.3378  96.6691  92.4262
ZERR    2.00   0.000440   0.000677   0.001143   0.0079   0.0079   0.0069
LATT  1
SFAC C H N O
UNIT 14.00 26.00 2.00 16.00
TREF
HKLF 4
END
;
_shelx_hkl_checksum              65515
_shelx_res_file
;
TITL 125_III in P-1
    125_c.res
    created by SHELXL-2018/3 at 12:32:01 on 16-Jan-2019
REM P-1 (#2 in standard setting)
CELL 0.71073 4.901042 8.562319 11.950231 108.3378 96.6691 92.4262
ZERR 2 0.00044 0.000677 0.001143 0.0079 0.0079 0.0069
LATT 1
SFAC C H N O
UNIT 14 26 2 16
EQIV $1 -X,1-Y,-Z
EQIV $2 1+X,+Y,+Z
EQIV $3 2-X,2-Y,1-Z
EQIV $4 +X,-1+Y,+Z
EQIV $5 1-X,1-Y,-Z
EQIV $6 -1+X,-1+Y,+Z
EQIV $7 1-X,2-Y,-Z
EQIV $8 1-X,2-Y,1-Z
L.S. 20
PLAN  10
SIZE 0.034 0.071 0.4336
TEMP -148.15
HTAB O4 O3_$2
HTAB O1 O7_$3
HTAB N1 O5_$1
HTAB N1 O2_$4
HTAB N1 O4_$5
HTAB N1 O5_$5
HTAB N1 O2_$6
HTAB O3 O4_$7
HTAB O6 O6_$1
HTAB O8 O8_$8
BOND $H
BOND
CONF
fmap 2
acta
SHEL 40 0.8
REM <olex2.extras>
REM <HklSrc "%.\\125_c.hkl">
REM </olex2.extras>
WGHT    0.074600    0.006600
FVAR       0.80496
O3    4    0.263617    0.991114    0.133224    11.00000    0.01120    0.01701 =
         0.01943    0.00808    0.00118    0.00468
O6    4    0.191011    0.594496    0.066815    11.00000    0.01151    0.01782 =
         0.01767    0.00552    0.00116   -0.00394
AFIX 147
H6    2    0.062183    0.534495    0.017488    10.50000   -1.20000
AFIX   0
O4    4    0.745962    0.844890    0.027841    11.00000    0.00980    0.01946 =
         0.01885    0.00539    0.00414   -0.00549
AFIX 147
H4    2    0.904087    0.877937    0.065824    11.00000   -1.20000
AFIX   0
O1    4    0.881308    0.973529    0.319280    11.00000    0.01100    0.01611 =
         0.01685    0.00180   -0.00337   -0.00156
AFIX 147
H1    2    0.997431    1.047443    0.365435    11.00000   -1.20000
AFIX   0
O5    4    0.327634    0.633627   -0.095593    11.00000    0.01312    0.02332 =
         0.01626    0.00527    0.00207   -0.00127
O8    4    0.430226    0.855133    0.442462    11.00000    0.01674    0.01342 =
         0.02133    0.00422    0.00090    0.00041
AFIX 147
H8    2    0.505923    0.950710    0.477618    10.50000   -1.20000
AFIX   0
O2    4    0.693740    1.186560    0.276649    11.00000    0.01614    0.01459 =
         0.03083    0.00715   -0.00178   -0.00212
C3    1    0.585111    0.776560    0.095866    11.00000    0.00842    0.01435 =
         0.01350    0.00456    0.00127   -0.00255
AFIX  13
H3A   2    0.703925    0.713716    0.137230    11.00000   -1.20000
AFIX   0
C2    1    0.463747    0.913780    0.188627    11.00000    0.01032    0.01444 =
         0.01372    0.00476    0.00203   -0.00049
AFIX  13
H2    2    0.371179    0.862787    0.240521    11.00000   -1.20000
AFIX   0
N1    3    0.202621    0.362337    0.233000    11.00000    0.00903    0.01647 =
         0.01753    0.00432    0.00003   -0.00061
AFIX 137
H1A   2    0.316043    0.362038    0.177817    11.00000   -1.50000
H1B   2    0.024827    0.339325    0.197024    11.00000   -1.50000
H1C   2    0.248527    0.284462    0.267413    11.00000   -1.50000
AFIX   0
O7    4    0.770171    0.777050    0.550298    11.00000    0.01957    0.01883 =
         0.02475    0.00560   -0.00671   -0.00345
C5    1    0.585111    0.749043    0.465042    11.00000    0.00809    0.01740 =
         0.01683    0.00734    0.00269   -0.00097
C1    1    0.690587    1.042074    0.267064    11.00000    0.01122    0.01414 =
         0.01486    0.00519    0.00596    0.00058
C4    1    0.351111    0.659680    0.012144    11.00000    0.00741    0.01163 =
         0.01807    0.00554    0.00670    0.00387
C7    1    0.232891    0.528203    0.326020    11.00000    0.01089    0.01469 =
         0.01366    0.00278    0.00149    0.00128
AFIX  23
H7A   2    0.127537    0.525115    0.391242    11.00000   -1.20000
H7B   2    0.157638    0.610741    0.291198    11.00000   -1.20000
AFIX   0
C6    1    0.534851    0.577602    0.374977    11.00000    0.00950    0.01423 =
         0.01552    0.00344    0.00466    0.00123
AFIX  23
H6A   2    0.605436    0.497066    0.412841    11.00000   -1.20000
H6B   2    0.640045    0.572491    0.308196    11.00000   -1.20000
AFIX   0
H3    2    0.322687    1.030662    0.084245    11.00000    0.06844
HKLF 4
REM  125_III in P-1
REM wR2 = 0.1403, GooF = S = 1.025, Restrained GooF = 1.025 for all data
REM R1 = 0.0516 for 1286 Fo > 4sig(Fo) and 0.0938 for all 1922 data
REM 154 parameters refined using 0 restraints
END
WGHT      0.0746      0.0066
REM Highest difference peak  0.392,  deepest hole -0.327,  1-sigma level  0.076
Q1    1   0.5377  0.6566  0.4192  11.00000  0.05    0.39
Q2    1   0.5203  0.8426  0.1329  11.00000  0.05    0.30
Q3    1   0.4996  0.7070  0.0555  11.00000  0.05    0.30
Q4    1   0.6250  0.9461  0.2038  11.00000  0.05    0.29
Q5    1   0.1115  0.9311  0.1012  11.00000  0.05    0.29
Q6    1   0.5000  1.0000  0.5000  10.50000  0.05    0.27
Q7    1   0.7983  1.0489  0.3932  11.00000  0.05    0.27
Q8    1   0.3826  1.0059  0.4168  11.00000  0.05    0.26
Q9    1   0.8516  0.8708  0.2532  11.00000  0.05    0.26
Q10   1   0.2965  0.9369  0.3015  11.00000  0.05    0.26
;
_shelx_res_checksum              11677
loop_
_space_group_symop_operation_xyz
'x, y, z'
'-x, -y, -z'
loop_
_atom_site_type_symbol
_atom_site_label
_atom_site_fract_x
_atom_site_fract_y
_atom_site_fract_z
_atom_site_U_iso_or_equiv
_atom_site_adp_type
_atom_site_calc_flag
_atom_site_occupancy
O O3 0.2636(4) 0.9911(2) 0.13322(18) 0.0153(5) Uani d 1
O O6 0.1910(4) 0.5945(2) 0.06681(17) 0.0159(5) Uani d 1
H H6 0.062183 0.534495 0.017488 0.019 Uiso calc 0.5
O O4 0.7460(4) 0.8449(2) 0.02784(17) 0.0162(5) Uani d 1
H H4 0.904087 0.877937 0.065824 0.019 Uiso calc 1
O O1 0.8813(4) 0.9735(2) 0.31928(17) 0.0160(5) Uani d 1
H H1 0.997431 1.047443 0.365435 0.019 Uiso calc 1
O O5 0.3276(4) 0.6336(2) -0.09559(18) 0.0179(5) Uani d 1
O O8 0.4302(4) 0.8551(2) 0.44246(18) 0.0177(5) Uani d 1
H H8 0.505923 0.950710 0.477618 0.021 Uiso calc 0.5
O O2 0.6937(4) 1.1866(2) 0.27665(19) 0.0211(5) Uani d 1
C C3 0.5851(5) 0.7766(3) 0.0959(2) 0.0122(6) Uani d 1
H H3A 0.703925 0.713716 0.137230 0.015 Uiso calc 1
C C2 0.4637(5) 0.9138(3) 0.1886(2) 0.0128(6) Uani d 1
H H2 0.371179 0.862787 0.240521 0.015 Uiso calc 1
N N1 0.2026(5) 0.3623(3) 0.2330(2) 0.0148(5) Uani d 1
H H1A 0.316043 0.362038 0.177817 0.022 Uiso calc 1
H H1B 0.024827 0.339325 0.197024 0.022 Uiso calc 1
H H1C 0.248527 0.284462 0.267413 0.022 Uiso calc 1
O O7 0.7702(4) 0.7770(2) 0.55030(19) 0.0223(5) Uani d 1
C C5 0.5851(6) 0.7490(3) 0.4650(3) 0.0137(6) Uani d 1
C C1 0.6906(5) 1.0421(3) 0.2671(2) 0.0129(6) Uani d 1
C C4 0.3511(5) 0.6597(3) 0.0121(3) 0.0117(6) Uani d 1
C C7 0.2329(6) 0.5282(3) 0.3260(2) 0.0135(6) Uani d 1
H H7A 0.127537 0.525115 0.391242 0.016 Uiso calc 1
H H7B 0.157638 0.610741 0.291198 0.016 Uiso calc 1
C C6 0.5349(5) 0.5776(3) 0.3750(2) 0.0131(6) Uani d 1
H H6A 0.605436 0.497066 0.412841 0.016 Uiso calc 1
H H6B 0.640045 0.572491 0.308196 0.016 Uiso calc 1
H H3 0.323(9) 1.031(5) 0.084(4) 0.068(15) Uiso d 1
loop_
_atom_site_aniso_label
_atom_site_aniso_U_11
_atom_site_aniso_U_22
_atom_site_aniso_U_33
_atom_site_aniso_U_12
_atom_site_aniso_U_13
_atom_site_aniso_U_23
O3 0.0112(10) 0.0170(11) 0.0194(11) 0.0047(8) 0.0012(9) 0.0081(9)
O6 0.0115(10) 0.0178(11) 0.0177(11) -0.0039(8) 0.0012(8) 0.0055(9)
O4 0.0098(10) 0.0195(11) 0.0189(11) -0.0055(8) 0.0041(9) 0.0054(9)
O1 0.0110(10) 0.0161(11) 0.0168(11) -0.0016(8) -0.0034(8) 0.0018(9)
O5 0.0131(10) 0.0233(12) 0.0163(11) -0.0013(9) 0.0021(8) 0.0053(9)
O8 0.0167(11) 0.0134(10) 0.0213(12) 0.0004(8) 0.0009(9) 0.0042(9)
O2 0.0161(11) 0.0146(11) 0.0308(13) -0.0021(8) -0.0018(10) 0.0072(9)
C3 0.0084(13) 0.0143(15) 0.0135(15) -0.0026(11) 0.0013(12) 0.0046(12)
C2 0.0103(14) 0.0144(15) 0.0137(14) -0.0005(11) 0.0020(12) 0.0048(12)
N1 0.0090(12) 0.0165(13) 0.0175(13) -0.0006(9) 0.0000(10) 0.0043(11)
O7 0.0196(12) 0.0188(11) 0.0248(12) -0.0035(9) -0.0067(10) 0.0056(10)
C5 0.0081(13) 0.0174(15) 0.0168(15) -0.0010(12) 0.0027(12) 0.0073(12)
C1 0.0112(14) 0.0141(15) 0.0149(15) 0.0006(11) 0.0060(12) 0.0052(12)
C4 0.0074(13) 0.0116(14) 0.0181(15) 0.0039(11) 0.0067(12) 0.0055(12)
C7 0.0109(14) 0.0147(15) 0.0137(15) 0.0013(11) 0.0015(12) 0.0028(12)
C6 0.0095(14) 0.0142(15) 0.0155(15) 0.0012(11) 0.0047(12) 0.0034(12)
loop_
_atom_type_symbol
_atom_type_description
_atom_type_scat_dispersion_real
_atom_type_scat_dispersion_imag
_atom_type_scat_source
C C 0.0033 0.0016 'International Tables Vol C Tables 4.2.6.8 and 6.1.1.4'
H H 0.0000 0.0000 'International Tables Vol C Tables 4.2.6.8 and 6.1.1.4'
N N 0.0061 0.0033 'International Tables Vol C Tables 4.2.6.8 and 6.1.1.4'
O O 0.0106 0.0060 'International Tables Vol C Tables 4.2.6.8 and 6.1.1.4'
loop_
_exptl_crystal_face_index_h
_exptl_crystal_face_index_k
_exptl_crystal_face_index_l
_exptl_crystal_face_perp_dist
0 5 1 0.0120
0 -1 3 0.0420
0 1 -3 0.0290
-7 3 -2 0.1830
3 -1 1 0.2160
0 -5 -1 0.0220
loop_
_geom_angle_atom_site_label_1
_geom_angle_atom_site_label_2
_geom_angle_atom_site_label_3
_geom_angle
C2 O3 H3 114(3)
C4 O6 H6 109.5
C3 O4 H4 109.5
C1 O1 H1 109.5
C5 O8 H8 109.5
O4 C3 H3A 109.4
O4 C3 C2 110.5(2)
O4 C3 C4 108.9(2)
C2 C3 H3A 109.4
C4 C3 H3A 109.4
C4 C3 C2 109.3(2)
O3 C2 C3 111.2(2)
O3 C2 H2 108.2
O3 C2 C1 110.1(2)
C3 C2 H2 108.2
C1 C2 C3 110.8(2)
C1 C2 H2 108.2
H1A N1 H1B 109.5
H1A N1 H1C 109.5
H1B N1 H1C 109.5
C7 N1 H1A 109.5
C7 N1 H1B 109.5
C7 N1 H1C 109.5
O8 C5 C6 114.8(2)
O7 C5 O8 125.7(3)
O7 C5 C6 119.4(2)
O1 C1 C2 111.5(2)
O2 C1 O1 125.4(3)
O2 C1 C2 123.1(3)
O6 C4 C3 113.1(2)
O5 C4 O6 125.8(3)
O5 C4 C3 121.2(2)
N1 C7 H7A 109.7
N1 C7 H7B 109.7
N1 C7 C6 109.9(2)
H7A C7 H7B 108.2
C6 C7 H7A 109.7
C6 C7 H7B 109.7
C5 C6 C7 113.2(2)
C5 C6 H6A 108.9
C5 C6 H6B 108.9
C7 C6 H6A 108.9
C7 C6 H6B 108.9
H6A C6 H6B 107.8
loop_
_geom_bond_atom_site_label_1
_geom_bond_atom_site_label_2
_geom_bond_distance
O3 C2 1.421(3)
O3 H3 0.83(4)
O6 H6 0.8400
O6 C4 1.291(3)
O4 H4 0.8400
O4 C3 1.426(3)
O1 H1 0.8400
O1 C1 1.322(3)
O5 C4 1.226(3)
O8 H8 0.8400
O8 C5 1.280(3)
O2 C1 1.205(3)
C3 H3A 1.0000
C3 C2 1.535(4)
C3 C4 1.524(4)
C2 H2 1.0000
C2 C1 1.526(4)
N1 H1A 0.9100
N1 H1B 0.9100
N1 H1C 0.9100
N1 C7 1.492(3)
O7 C5 1.237(3)
C5 C6 1.512(4)
C7 H7A 0.9900
C7 H7B 0.9900
C7 C6 1.517(4)
C6 H6A 0.9900
C6 H6B 0.9900
loop_
_geom_hbond_atom_site_label_D
_geom_hbond_atom_site_label_H
_geom_hbond_atom_site_label_A
_geom_hbond_site_symmetry_A
_geom_hbond_distance_DH
_geom_hbond_distance_HA
_geom_hbond_distance_DA
_geom_hbond_angle_DHA
_geom_hbond_publ_flag
O6 H6 O6 2_565 0.84 1.63 2.469(4) 173.0 yes
O4 H4 O3 1_655 0.84 1.93 2.754(3) 166.5 yes
O1 H1 O7 2_776 0.84 1.79 2.624(3) 171.4 yes
O8 H8 O8 2_676 0.84 1.63 2.450(4) 164.2 yes
N1 H1A O4 2_665 0.91 2.51 3.109(3) 123.6 yes
N1 H1A O5 2_665 0.91 2.11 2.984(3) 162.0 yes
N1 H1B O5 2_565 0.91 2.06 2.916(3) 156.9 yes
N1 H1B O2 1_445 0.91 2.49 3.039(3) 119.0 yes
N1 H1C O2 1_545 0.91 2.37 2.973(3) 123.4 yes
O3 H3 O4 2_675 0.83(4) 1.97(4) 2.714(3) 149(4) yes
loop_
_geom_torsion_atom_site_label_1
_geom_torsion_atom_site_label_2
_geom_torsion_atom_site_label_3
_geom_torsion_atom_site_label_4
_geom_torsion
O3 C2 C1 O1 -179.6(2)
O3 C2 C1 O2 -1.0(4)
O4 C3 C2 O3 67.7(3)
O4 C3 C2 C1 -55.0(3)
O4 C3 C4 O6 -178.7(2)
O4 C3 C4 O5 1.8(4)
O8 C5 C6 C7 -36.9(3)
C3 C2 C1 O1 -56.2(3)
C3 C2 C1 O2 122.3(3)
C2 C3 C4 O6 -57.8(3)
C2 C3 C4 O5 122.6(3)
N1 C7 C6 C5 176.7(2)
O7 C5 C6 C7 144.8(3)
C4 C3 C2 O3 -52.1(3)
C4 C3 C2 C1 -174.8(2)

_cod_database_fobs_code 2021494
