#------------------------------------------------------------------------------
#$Date: 2019-06-15 07:15:48 +0300 (Sat, 15 Jun 2019) $
#$Revision: 216000 $
#$URL: file:///home/coder/svn-repositories/cod/cif/2/02/16/2021667.cif $
#------------------------------------------------------------------------------
#
# This file is available in the Crystallography Open Database (COD),
# http://www.crystallography.net/. The original data for this entry
# were provided by IUCr Journals, http://journals.iucr.org/.
#
# The file may be used within the scientific community so long as
# proper attribution is given to the journal article from which the
# data were obtained.
#
data_2021667
loop_
_publ_author_name
'Silverman, Joshua A.'
'Mathivathanan, Logesh'
'Govor, Evgen V.'
'Raptis, Raphael G.'
'Kavallieratos, Konstantinos'
_publ_section_title
;
 Coordination polymers of Cd^II^ and Pb^II^ with croconate show remarkable
 differences in coordination patterns: a structural and spectroscopic
 study
;
_journal_coeditor_code           YF3176
_journal_issue                   7
_journal_name_full               'Acta Crystallographica Section C'
_journal_page_first
;
;
_journal_paper_doi               10.1107/S2053229619007277
_journal_volume                  75
_journal_year                    2019
_chemical_formula_iupac          '[Cd (C5 O5) (H2 O)3]'
_chemical_formula_moiety         'C5 H6 Cd O8'
_chemical_formula_sum            'C5 H6 Cd O8'
_chemical_formula_weight         306.50
_chemical_name_systematic
<i>catena</i>-Poly[[triaquacadmium(II)]-\m-croconato-\k^4^<i>O</i>^1^,<i>O</i>^2^:<i>O</i>^3^,<i>O</i>^4^]
_space_group_crystal_system      monoclinic
_space_group_IT_number           14
_space_group_name_Hall           '-P 2yn'
_space_group_name_H-M_alt        'P 1 21/n 1'
_symmetry_space_group_name_Hall  '-P 2yn'
_symmetry_space_group_name_H-M   'P 1 21/n 1'
_atom_sites_solution_hydrogens   difmap
_audit_creation_method
;
Olex2 1.2
(compiled May 18 2018 14:05:52 for OlexSys, GUI svn.r5506)
;
_cell_angle_alpha                90
_cell_angle_beta                 96.0530(10)
_cell_angle_gamma                90
_cell_formula_units_Z            4
_cell_length_a                   6.5123(3)
_cell_length_b                   8.8174(4)
_cell_length_c                   13.8763(6)
_cell_measurement_reflns_used    9903
_cell_measurement_temperature    298(2)
_cell_measurement_theta_max      28.29
_cell_measurement_theta_min      2.95
_cell_volume                     792.36(6)
_computing_cell_refinement
;
APEX2 (Bruker, 2015)
;
_computing_data_collection
;
SAINT (Bruker, 2015)
;
_computing_data_reduction
;
SAINT (Bruker, 2015)
;
_computing_molecular_graphics
;
OLEX2 (Dolomanov <i>et al.</i>,  2009) and CrystalMaker (Version 9; Palmer,
2014)
;
_computing_publication_material
;
OLEX2 (Dolomanov <i>et al.</i>,  2009)
;
_computing_structure_refinement
;
SHELXL2018 (Sheldrick, 2015b)
;
_computing_structure_solution
;
SHELXT2014 (Sheldrick, 2015a)
;
_diffrn_ambient_temperature      297.96
_diffrn_measured_fraction_theta_full 0.998
_diffrn_measured_fraction_theta_max 0.998
_diffrn_measurement_device_type  'Bruker D8 with PHOTON 100 detector'
_diffrn_measurement_method       '\f and \w scans'
_diffrn_radiation_type           MoK\a
_diffrn_radiation_wavelength     0.71073
_diffrn_reflns_av_R_equivalents  0.0230
_diffrn_reflns_av_unetI/netI     0.0113
_diffrn_reflns_limit_h_max       8
_diffrn_reflns_limit_h_min       -8
_diffrn_reflns_limit_k_max       11
_diffrn_reflns_limit_k_min       -11
_diffrn_reflns_limit_l_max       18
_diffrn_reflns_limit_l_min       -18
_diffrn_reflns_number            22305
_diffrn_reflns_theta_full        25.242
_diffrn_reflns_theta_max         28.309
_diffrn_reflns_theta_min         2.952
_exptl_absorpt_coefficient_mu    2.777
_exptl_absorpt_correction_T_max  0.7457
_exptl_absorpt_correction_T_min  0.6880
_exptl_absorpt_correction_type   multi-scan
_exptl_absorpt_process_details
;
(SADABS; Bruker, 2016)
;
_exptl_crystal_colour            red
_exptl_crystal_density_diffrn    2.569
_exptl_crystal_description       block
_exptl_crystal_F_000             592
_exptl_crystal_size_max          0.18
_exptl_crystal_size_mid          0.14
_exptl_crystal_size_min          0.09
_refine_diff_density_max         0.482
_refine_diff_density_min         -0.520
_refine_ls_extinction_method     none
_refine_ls_goodness_of_fit_ref   1.127
_refine_ls_hydrogen_treatment    refall
_refine_ls_matrix_type           full
_refine_ls_number_parameters     151
_refine_ls_number_reflns         1970
_refine_ls_number_restraints     0
_refine_ls_restrained_S_all      1.127
_refine_ls_R_factor_all          0.0166
_refine_ls_R_factor_gt           0.0146
_refine_ls_shift/su_max          0.001
_refine_ls_shift/su_mean         0.000
_refine_ls_structure_factor_coef Fsqd
_refine_ls_weighting_details
'w=1/[\s^2^(Fo^2^)+(0.0216P)^2^+0.2417P] where P=(Fo^2^+2Fc^2^)/3'
_refine_ls_weighting_scheme      calc
_refine_ls_wR_factor_gt          0.0365
_refine_ls_wR_factor_ref         0.0381
_reflns_number_gt                1843
_reflns_number_total             1970
_reflns_threshold_expression     'I > 2\s(I)'
_cod_data_source_file            yf3176sup1.cif
_cod_data_source_block           rgr560_a
_cod_database_code               2021667
_shelx_space_group_comment
;
The symmetry employed for this shelxl refinement is uniquely defined
by the following loop, which should always be used as a source of
symmetry information in preference to the above space-group names.
They are only intended as comments.
;
_shelx_estimated_absorpt_t_min   0.635
_shelx_estimated_absorpt_t_max   0.788
_shelx_hkl_file
;
   1   0   0    0.10    0.10
   1   0   0    0.20    0.10
  -1   0   0    0.00    0.10
  -1   0   0    0.20    0.10
  -1   0   0    0.10    0.10
  -1   0   0    0.00    0.10
  -1   0   0    0.00    0.10
  -1   0   0    0.00    0.10
   1   0   0    0.00    0.10
   1   0   0    0.10    0.10
   1   0   0    0.00    0.20
   1   0   0    0.10    0.10
   1   0   0    0.00    0.10
   1   0   0    0.10    0.10
   2   0   0   67.59    2.10
   2   0   0   65.99    1.90
   2   0   0   63.79    2.00
   2   0   0   65.29    2.00
  -2   0   0   62.99    2.00
  -2   0   0   63.59    2.00
  -2   0   0   65.09    1.90
  -2   0   0   63.59    1.90
  -2   0   0   66.79    2.10
   2   0   0   68.09    1.80
   2   0   0   58.79    1.80
   2   0   0   64.39    2.00
   2   0   0   64.39    2.00
   3   0   0   -1.10    0.40
   3   0   0   -0.10    0.40
   3   0   0   -0.90    0.20
   3   0   0   -0.50    0.20
   3   0   0   -1.50    0.40
   3   0   0   -1.50    0.50
   3   0   0   -0.10    0.50
  -3   0   0   -0.20    0.40
  -3   0   0   -1.00    0.30
   3   0   0   -1.20    0.50
  -3   0   0   -1.50    0.40
  -3   0   0   -0.90    0.50
  -3   0   0   -1.10    0.30
  -4   0   0    4.30    0.80
  -4   0   0    3.90    0.90
   4   0   0    4.30    0.80
   4   0   0    6.10    1.00
   4   0   0    5.70    1.00
  -4   0   0    4.00    1.00
  -4   0   0    4.80    1.00
   5   0   0    0.00    0.70
   5   0   0   -1.00    0.70
   5   0   0    0.80    0.70
  -5   0   0   -0.20    0.70
  -5   0   0    0.30    0.60
  -5   0   0   -0.40    0.70
   6   0   0  743.03   19.80
  -6   0   0  754.12   20.20
   6   0   0  753.82   20.20
  -6   0   0  743.63   19.90
   6   0   0  737.23   19.90
  -6   0   0  742.73   19.50
   7   0   0   -1.40    1.10
  -7   0   0    0.80    1.40
  -7   0   0    1.10    1.10
   7   0   0    2.60    1.20
   7   0   0   -0.10    1.20
  -7   0   0    0.60    1.10
   8   0   0   63.79    4.00
   8   0   0   68.89    3.50
   8   0   0   61.19    3.80
  -8   0   0   71.89    4.00
  -8   0   0   65.99    3.90
  -1   1   0 1861.61   47.00
  -2  -1   0   80.49    2.40
  -2  -1   0   77.39    2.30
  -2  -1   0   82.29    2.30
   2  -1   0   81.59    2.40
   2  -1   0   76.59    2.40
  -2  -1   0   81.09    2.30
  -2  -1   0   75.99    2.30
   2  -1   0   83.89    2.30
  -2  -1   0   77.99    2.40
   2  -1   0   77.69    2.40
   2  -1   0   77.59    2.40
   2   1   0   74.99    2.30
   2   1   0   79.59    2.30
   2   1   0   82.69    2.30
   2   1   0   80.69    2.40
   2   1   0   77.39    2.40
   2   1   0   77.89    2.30
   2   1   0   80.39    2.30
  -2   1   0   77.29    2.40
  -2   1   0   79.69    2.40
  -2   1   0   79.19    2.40
  -2   1   0   78.99    2.40
   2   1   0   79.69    2.30
  -2   1   0   79.69    2.30
  -3  -1   0  232.88    6.00
   3  -1   0  234.98    6.40
  -3  -1   0  233.58    6.20
   3  -1   0  218.08    6.30
   3  -1   0  220.88    6.30
  -3  -1   0  204.08    6.20
  -3  -1   0  223.48    6.20
  -3  -1   0  225.68    6.20
   3  -1   0  224.68    6.30
   3  -1   0  240.18    6.10
   3  -1   0  222.18    6.20
  -3  -1   0  230.68    6.30
   3   1   0  225.38    6.10
   3   1   0  223.68    6.20
   3   1   0  239.18    6.00
   3   1   0  231.28    6.00
   3   1   0  221.18    6.20
  -3   1   0  218.18    6.30
  -3   1   0  227.28    6.30
  -3   1   0  231.98    6.30
   3   1   0  232.18    6.20
  -3   1   0  223.18    6.30
  -3   1   0  231.58    6.10
   3   1   0  228.98    6.10
   3   1   0  225.78    6.20
   3   1   0  224.08    6.30
  -4  -1   0  332.17    9.70
  -4  -1   0  357.66    9.80
  -4  -1   0  363.06   10.10
   4  -1   0  361.56    9.90
   4  -1   0  354.76   10.00
  -4  -1   0  364.76    9.90
   4  -1   0  383.16    9.70
  -4   1   0  379.86    9.70
   4   1   0  367.96    9.80
  -4   1   0  371.56   10.00
   4   1   0  375.36    9.60
  -4   1   0  361.76   10.00
   4   1   0  359.56    9.90
   4   1   0  373.96    9.60
   4   1   0  370.86   10.10
   4   1   0  357.86    9.80
   4   1   0  374.36    9.80
  -5  -1   0   91.29    3.10
  -5  -1   0   91.49    3.30
  -5  -1   0   87.59    3.40
   5  -1   0   86.39    3.20
   5  -1   0   87.69    3.00
   5  -1   0   89.69    3.30
   5   1   0   91.49    3.30
  -5   1   0   88.29    3.40
   5   1   0   90.59    3.40
   5   1   0   87.29    3.10
   5   1   0   91.29    2.70
  -5   1   0   93.09    3.00
   5   1   0   88.99    2.80
  -5   1   0   91.39    3.30
  -6  -1   0   96.39    3.80
  -6  -1   0   97.69    3.90
   6  -1   0   99.59    3.80
   6  -1   0   93.69    3.60
  -6  -1   0   95.99    3.40
  -6   1   0   97.29    3.40
  -6   1   0   96.69    3.80
   6   1   0   97.59    3.50
  -6   1   0   96.89    3.90
   6   1   0   97.09    3.90
   6   1   0   90.69    3.70
  -7  -1   0  145.39    5.20
   7  -1   0  138.39    5.10
   7  -1   0  143.89    5.40
   7  -1   0  137.19    5.10
  -7  -1   0  134.79    4.70
  -7  -1   0  141.99    5.30
  -7   1   0  136.89    5.30
   7   1   0  143.49    5.10
   7   1   0  137.59    5.30
  -7   1   0  138.19    5.20
   7   1   0  145.09    4.90
   8  -1   0   -0.10    1.70
   8  -1   0   -1.70    1.40
   8  -1   0    3.90    1.70
  -8  -1   0    0.20    1.70
  -8  -1   0    1.10    1.60
  -8   1   0    3.10    1.60
   8   1   0    1.20    1.70
  -8   1   0   -0.70    1.50
   8   1   0    0.40    1.50
   8   1   0    0.50    1.40
   0  -2   0   31.10    1.00
   0  -2   0   30.90    1.20
   0  -2   0   31.00    1.20
   0  -2   0   31.60    1.20
   0  -2   0   32.60    1.10
   0  -2   0   28.30    1.20
   0   2   0   29.50    1.00
   0   2   0   31.60    1.20
   0   2   0   32.80    1.00
   0   2   0   30.90    1.20
   0   2   0   29.60    1.20
   0   2   0   30.60    1.20
   1  -2   0  357.86    8.80
   1  -2   0  346.77    8.80
  -1  -2   0  340.27    8.80
   1  -2   0  344.87    8.90
  -1  -2   0  336.57    8.80
  -1  -2   0  332.77    8.90
   1  -2   0  348.37    8.90
   1  -2   0  340.07    8.90
  -1  -2   0  319.77    8.90
   1  -2   0  359.46    8.80
  -1  -2   0  327.87    8.80
   1   2   0  330.07    8.90
   1   2   0  338.27    8.90
   1   2   0  336.47    8.80
   1   2   0  332.57    8.80
  -1   2   0  340.57    8.90
   1   2   0  330.07    8.90
   1   2   0  334.37    8.90
  -1   2   0  334.87    8.80
  -1   2   0  359.06    8.80
  -1   2   0  373.16    8.90
   1   2   0  342.87    8.80
  -1   2   0  361.46    9.00
   1   2   0  330.17    8.80
  -2  -2   0    1.20    0.30
  -2  -2   0    0.80    0.30
   2  -2   0    0.90    0.30
  -2  -2   0    0.90    0.30
   2  -2   0    1.00    0.30
   2  -2   0    1.20    0.20
  -2  -2   0    0.70    0.30
   2  -2   0    1.30    0.30
  -2  -2   0    1.00    0.30
   2  -2   0    1.50    0.40
   2  -2   0    0.50    0.30
  -2  -2   0    0.90    0.30
   2   2   0    0.90    0.30
  -2   2   0    0.40    0.30
   2   2   0    1.20    0.40
   2   2   0    1.20    0.30
  -2   2   0    1.60    0.40
  -2   2   0    1.30    0.30
  -2   2   0    0.80    0.40
   2   2   0    0.60    0.30
   2   2   0    1.40    0.30
  -2   2   0    1.20    0.20
  -2   2   0    1.40    0.30
   2   2   0    0.80    0.30
   2   2   0    1.10    0.30
   2   2   0    0.60    0.30
   2   2   0    0.70    0.30
  -3  -2   0 1187.38   30.70
  -3  -2   0 1201.18   30.80
  -3  -2   0 1193.28   30.60
   3  -2   0 1159.28   30.70
   3  -2   0 1308.17   30.80
  -3  -2   0 1160.58   30.70
   3  -2   0 1279.97   30.60
   3  -2   0 1180.08   30.80
   3   2   0 1202.48   30.70
   3   2   0 1202.68   30.60
   3   2   0 1185.88   30.80
   3   2   0 1209.18   30.60
   3   2   0 1192.58   30.70
  -3   2   0 1199.68   30.60
   3   2   0 1104.29   30.60
   3   2   0 1239.58   30.70
   3   2   0 1204.48   30.80
  -3   2   0 1216.78   30.80
  -3   2   0 1188.38   30.80
   3   2   0 1186.48   30.60
  -3   2   0 1196.58   30.80
   3   2   0 1199.88   30.60
  -4  -2   0    2.10    0.60
  -4  -2   0    0.90    0.60
  -4  -2   0    1.00    0.60
  -4  -2   0    1.30    0.50
   4  -2   0    0.20    0.60
   4  -2   0    2.00    0.60
   4  -2   0    1.50    0.60
   4   2   0    1.60    0.50
   4   2   0    2.20    0.60
   4   2   0    0.20    0.60
   4   2   0    1.40    0.60
   4   2   0    1.80    0.50
   4   2   0    1.60    0.60
   4   2   0    1.30    0.70
  -4   2   0    2.20    0.70
  -4   2   0    1.60    0.60
  -4   2   0    1.40    0.50
   5  -2   0  897.91   22.70
  -5  -2   0  873.01   23.00
  -5  -2   0  876.21   22.90
   5  -2   0  861.31   23.00
  -5  -2   0  860.31   23.20
   5  -2   0  883.41   23.00
   5   2   0  866.21   23.20
   5   2   0  865.01   23.00
   5   2   0  871.71   22.80
  -5   2   0  879.01   23.20
  -5   2   0  915.21   22.70
   5   2   0  859.21   22.60
  -5   2   0  891.71   23.10
   5   2   0  883.11   22.60
  -6  -2   0    4.10    1.20
   6  -2   0    3.60    1.10
  -6  -2   0    3.80    1.20
  -6  -2   0    6.80    1.80
   6  -2   0    4.90    1.10
   6   2   0    7.90    1.50
   6   2   0    5.00    1.30
  -6   2   0    3.50    0.90
  -6   2   0    3.20    1.00
   6   2   0    4.40    1.20
  -6   2   0    6.10    1.30
   6   2   0    6.30    1.50
   7  -2   0   19.00    2.50
   7  -2   0   20.70    2.30
   7  -2   0   17.70    2.30
  -7  -2   0   18.70    2.60
  -7  -2   0   16.90    2.50
  -7  -2   0   23.70    2.10
  -7   2   0   21.90    2.60
   7   2   0   21.20    2.50
   7   2   0   21.80    2.20
  -7   2   0   21.50    2.40
   7   2   0   18.00    2.20
   8  -2   0   -1.70    1.50
  -8  -2   0   -2.10    1.70
   8  -2   0   -2.80    1.60
  -8  -2   0   -1.70    1.50
   8  -2   0   -1.20    1.50
   8   2   0    0.00    1.40
  -8   2   0    0.70    1.40
   8   2   0    4.30    1.80
   8   2   0   -1.00    1.40
  -8   2   0    0.70    1.60
   0  -3   0    0.80    0.20
   0  -3   0    0.80    0.30
   0  -3   0    2.50    0.50
   0  -3   0   -0.20    0.30
   0  -3   0    0.20    0.20
   0   3   0    0.20    0.30
   0   3   0   -0.10    0.30
   0   3   0    0.20    0.30
   0   3   0    0.30    0.20
  -1  -3   0  267.77    7.30
   1  -3   0  285.27    7.10
   1  -3   0  272.37    7.20
   1  -3   0  267.37    7.20
  -1  -3   0  267.47    7.00
  -1  -3   0  272.57    7.10
  -1  -3   0  265.87    7.20
  -1  -3   0  271.27    7.20
   1  -3   0  274.67    7.30
   1  -3   0  269.47    7.20
  -1  -3   0  262.17    7.30
   1  -3   0  277.67    7.10
   1   3   0  270.77    7.10
   1   3   0  263.77    7.20
  -1   3   0  265.87    7.10
  -1   3   0  282.67    7.10
  -1   3   0  282.07    7.20
   1   3   0  269.57    7.30
   1   3   0  268.87    7.30
  -1   3   0  257.07    7.20
  -1   3   0  280.27    7.30
  -1   3   0  271.27    7.20
   1   3   0  262.47    7.20
   1   3   0  274.57    7.20
   1   3   0  270.17    7.10
   1   3   0  264.27    7.30
   1   3   0  267.57    7.00
  -2  -3   0  858.71   22.70
  -2  -3   0  865.31   22.50
  -2  -3   0  781.72   22.70
   2  -3   0  895.31   22.80
  -2  -3   0  876.21   22.70
   2  -3   0  922.21   22.60
   2  -3   0  910.81   22.80
   2  -3   0  914.81   22.60
   2  -3   0  907.71   22.60
   2  -3   0  935.01   22.70
  -2  -3   0  863.61   22.60
   2   3   0  869.91   22.50
  -2   3   0  886.41   22.60
   2   3   0  847.62   22.80
  -2   3   0  951.00   22.60
   2   3   0  886.71   22.70
   2   3   0  867.01   22.60
  -2   3   0  886.31   22.60
   2   3   0  860.51   22.50
   2   3   0  880.21   22.80
   2   3   0  858.91   22.70
  -2   3   0  865.11   22.70
   2   3   0  872.91   22.60
  -2   3   0  958.30   22.70
   2   3   0  865.51   22.60
  -2   3   0  905.41   22.80
   2   3   0  869.61   22.70
   3  -3   0  256.77    7.10
  -3  -3   0  250.87    7.00
   3  -3   0  275.07    7.00
   3  -3   0  275.57    6.80
   3  -3   0  257.37    7.10
  -3  -3   0  251.17    7.10
   3  -3   0  255.27    7.20
  -3  -3   0  249.97    7.10
  -3  -3   0  264.37    7.00
  -3  -3   0  250.97    7.00
  -3  -3   0  245.58    6.90
   3   3   0  255.07    7.00
  -3   3   0  268.17    7.10
   3   3   0  250.57    7.10
  -3   3   0  266.57    6.90
  -3   3   0  268.77    6.80
   3   3   0  253.37    6.90
   3   3   0  244.68    7.10
   3   3   0  254.47    7.10
   3   3   0  257.77    7.00
  -3   3   0  260.77    7.20
   3   3   0  249.28    7.00
   3   3   0  230.58    6.90
  -4  -3   0  672.03   17.50
   4  -3   0  705.43   17.40
   4  -3   0  652.43   17.60
   4  -3   0  667.53   17.70
  -4  -3   0  662.63   17.70
  -4  -3   0  674.03   17.60
  -4  -3   0  651.13   17.60
   4   3   0  669.43   17.50
  -4   3   0  663.33   17.70
   4   3   0  669.33   17.50
   4   3   0  668.73   17.50
  -4   3   0  693.93   17.40
   4   3   0  661.73   17.60
   4   3   0  657.53   17.70
  -4   3   0  670.43   17.70
   5  -3   0   36.20    2.10
   5  -3   0   41.80    2.20
  -5  -3   0   41.70    2.30
  -5  -3   0   39.70    2.00
   5  -3   0   41.50    2.00
  -5  -3   0   37.30    2.10
  -5  -3   0   38.50    1.80
  -5   3   0   39.40    1.90
   5   3   0   34.90    2.00
   5   3   0   39.30    1.80
   5   3   0   38.80    2.20
   5   3   0   38.20    1.90
  -5   3   0   40.80    2.20
  -5   3   0   36.70    2.20
   6  -3   0  207.88    6.50
  -6  -3   0  204.98    6.60
  -6  -3   0  205.68    6.30
   6  -3   0  196.88    6.50
  -6  -3   0  210.78    6.50
   6   3   0  206.58    6.20
   6   3   0  201.68    6.60
   6   3   0  210.18    6.40
  -6   3   0  207.28    6.60
   6   3   0  208.28    6.00
  -6   3   0  193.88    6.50
  -6   3   0  196.08    6.00
  -7  -3   0   47.80    3.20
  -7  -3   0   46.30    3.30
  -7  -3   0   48.10    2.90
   7  -3   0   48.00    3.20
   7  -3   0   44.20    3.30
   7  -3   0   49.70    3.10
  -7   3   0   45.20    3.10
  -7   3   0   49.40    3.10
   7   3   0   49.00    2.80
   7   3   0   44.50    3.20
   7   3   0   49.40    2.80
   8  -3   0    1.10    1.70
   8  -3   0    2.10    1.80
  -8  -3   0    5.20    2.00
   8  -3   0    1.70    1.80
  -8   3   0    3.00    1.50
   8   3   0    2.30    1.60
  -8   3   0    2.50    1.80
   0  -4   0 3718.43   97.29
   0  -4   0 3488.45   97.39
   0  -4   0 3967.10   97.39
   0  -4   0 4044.00   97.29
   0   4   0 4023.60   97.39
   0   4   0 3587.34   97.39
   0   4   0 3994.50   97.39
   0   4   0 4000.70   97.39
   1  -4   0   54.89    2.00
   1  -4   0   56.29    2.00
  -1  -4   0   57.19    2.00
   1  -4   0   58.99    1.80
  -1  -4   0   57.09    2.10
  -1  -4   0   57.39    2.00
   1  -4   0   55.49    2.10
   1  -4   0   58.99    1.80
  -1  -4   0   57.29    2.10
   1  -4   0   57.19    2.00
  -1  -4   0   57.49    1.70
  -1  -4   0   55.49    1.80
   1   4   0   58.19    2.10
   1   4   0   57.89    1.70
   1   4   0   57.59    1.80
  -1   4   0   59.39    1.80
  -1   4   0   55.29    2.00
   1   4   0   54.19    2.00
   1   4   0   47.00    1.90
   1   4   0   55.19    2.10
   1   4   0   52.59    2.10
   1   4   0   57.49    1.80
  -1   4   0   50.59    2.00
  -1   4   0   57.19    2.00
  -1   4   0   56.09    1.80
  -2  -4   0  314.77    8.20
  -2  -4   0  306.87    8.60
   2  -4   0  338.27    8.40
   2  -4   0  317.87    8.60
  -2  -4   0  281.37    8.30
   2  -4   0  322.97    8.40
  -2  -4   0  282.77    8.40
  -2  -4   0  298.37    8.50
   2  -4   0  333.67    8.30
   2  -4   0  324.77    8.30
   2   4   0  288.47    8.40
  -2   4   0  301.17    8.50
  -2   4   0  336.77    8.40
   2   4   0  296.07    8.30
   2   4   0  309.07    8.30
   2   4   0  311.57    8.30
  -2   4   0  320.97    8.40
   2   4   0  302.07    8.60
  -2   4   0  318.47    8.30
  -2   4   0  334.47    8.40
   2   4   0  307.77    8.40
   2   4   0  307.57    8.20
   3  -4   0  119.39    3.40
   3  -4   0  122.69    3.60
  -3  -4   0  122.29    3.50
   3  -4   0  113.99    3.60
  -3  -4   0  124.39    3.70
  -3  -4   0  110.39    3.70
  -3  -4   0  114.89    3.80
  -3  -4   0  117.89    3.50
   3  -4   0  115.49    3.80
   3   4   0  112.79    3.80
  -3   4   0  115.49    3.60
   3   4   0  114.19    3.50
  -3   4   0  116.99    3.40
  -3   4   0  119.19    3.60
   3   4   0  112.09    3.50
   3   4   0  108.49    3.60
   3   4   0  122.19    3.70
  -3   4   0  111.79    3.80
   4  -4   0    6.30    1.30
  -4  -4   0    3.10    0.70
   4  -4   0    3.20    0.90
  -4  -4   0    5.10    1.20
  -4  -4   0    2.90    0.80
  -4  -4   0    5.30    1.00
   4  -4   0    3.20    0.70
   4  -4   0    2.50    0.80
   4   4   0    2.80    0.70
  -4   4   0    4.80    1.10
   4   4   0    2.70    0.60
   4   4   0    2.60    0.70
  -4   4   0    2.70    0.50
   4   4   0    2.10    0.60
   4   4   0    2.60    0.70
  -4   4   0    3.20    0.70
  -4   4   0    2.80    0.80
   4   4   0    2.50    0.80
   5  -4   0    9.60    1.70
   5  -4   0   11.30    1.70
  -5  -4   0   14.00    1.70
  -5  -4   0   13.40    1.60
  -5  -4   0    8.70    1.40
  -5   4   0    9.40    1.40
   5   4   0    9.80    1.30
   5   4   0   12.80    1.50
  -5   4   0   10.70    1.60
   5   4   0   10.60    1.50
   5   4   0    9.60    1.40
  -5   4   0   12.80    1.70
   5   4   0    8.80    1.60
   5   4   0   11.50    1.60
   6  -4   0  266.47    8.10
  -6  -4   0  268.47    7.90
  -6  -4   0  261.87    8.00
   6  -4   0  255.67    8.00
   6   4   0  248.38    8.00
   6   4   0  265.57    7.60
  -6   4   0  256.57    8.00
   6   4   0  270.37    8.00
   6   4   0  267.37    7.60
   6   4   0  260.47    7.90
   6   4   0  267.07    7.80
  -6   4   0  249.68    7.40
  -6   4   0  263.97    8.10
   7  -4   0   -1.40    1.40
  -7  -4   0    0.80    1.40
  -7  -4   0    0.20    1.50
   7  -4   0   -1.60    1.30
   7   4   0    0.20    1.30
   7   4   0   -1.00    1.20
   7   4   0   -0.70    1.30
  -7   4   0    2.40    1.50
   7   4   0    0.60    1.30
   7   4   0   -1.30    1.50
  -7   4   0    0.10    1.30
   8  -4   0  107.89    5.30
  -8  -4   0  103.99    5.20
   8  -4   0  106.19    5.10
   8  -4   0  107.59    5.00
  -8   4   0  110.39    5.20
   8   4   0  110.09    4.90
  -8   4   0  104.79    5.00
   8   4   0  113.19    4.90
   8   4   0  111.09    5.10
   0  -5   0    0.80    0.30
   0  -5   0   -0.30    0.30
   0  -5   0   -0.60    0.40
   0  -5   0   -0.60    0.40
   0   5   0   -0.20    0.30
   0   5   0    0.30    0.50
   0   5   0    0.50    0.40
   1  -5   0  732.43   18.40
  -1  -5   0  712.43   18.70
  -1  -5   0  729.23   18.30
   1  -5   0  707.73   18.70
  -1  -5   0  688.43   18.80
   1  -5   0  703.43   18.80
   1  -5   0  744.83   18.40
  -1  -5   0  732.93   18.40
   1   5   0  720.53   18.40
   1   5   0  717.33   18.40
   1   5   0  708.53   18.90
   1   5   0  688.73   18.70
   1   5   0  735.83   18.30
  -1   5   0  739.03   18.40
  -1   5   0  723.13   18.40
  -1   5   0  720.33   18.80
  -1   5   0  702.83   18.70
   2  -5   0  267.27    7.00
   2  -5   0  257.57    7.40
   2  -5   0  264.97    7.00
   2  -5   0  264.07    7.20
  -2  -5   0  258.67    7.20
  -2  -5   0  261.77    6.90
  -2  -5   0  249.18    7.30
  -2  -5   0  252.47    7.40
   2   5   0  259.97    7.10
  -2   5   0  262.67    7.10
  -2   5   0  259.77    7.20
   2   5   0  255.57    7.00
   2   5   0  261.87    6.90
   2   5   0  256.67    7.40
  -2   5   0  254.17    7.30
   2   5   0  258.57    7.20
  -2   5   0  263.47    7.00
  -2   5   0  256.57    7.20
   3  -5   0  317.27    9.00
   3  -5   0  333.97    8.60
  -3  -5   0  313.67    8.50
  -3  -5   0  311.97    9.00
  -3  -5   0  305.77    8.90
   3  -5   0  328.37    8.70
  -3  -5   0  312.87    8.70
  -3   5   0  328.37    8.60
   3   5   0  318.57    8.50
  -3   5   0  324.97    8.70
   3   5   0  321.07    9.00
   3   5   0  311.07    8.70
  -3   5   0  325.57    8.70
   3   5   0  310.57    8.80
  -3   5   0  312.27    8.90
   3   5   0  305.87    8.50
  -4  -5   0   72.19    3.00
   4  -5   0   68.09    3.00
  -4  -5   0   71.19    2.90
   4  -5   0   69.89    2.80
  -4  -5   0   73.69    2.70
   4  -5   0   75.29    2.50
  -4   5   0   73.29    2.70
   4   5   0   66.59    2.80
   4   5   0   73.89    2.70
  -4   5   0   70.59    2.90
   4   5   0   70.79    3.00
  -4   5   0   73.09    2.80
   4   5   0   70.49    2.60
  -4   5   0   69.69    2.60
   4   5   0   72.69    2.80
  -5  -5   0   44.60    2.50
  -5  -5   0   46.70    2.20
  -5  -5   0   42.80    2.30
   5  -5   0   40.50    2.50
  -5  -5   0   43.80    2.50
   5  -5   0   45.40    2.60
  -5   5   0   44.00    2.50
   5   5   0   42.40    2.20
   5   5   0   41.40    2.40
  -5   5   0   41.60    2.20
   5   5   0   45.70    2.20
   5   5   0   46.20    2.50
   5   5   0   41.00    2.30
  -5   5   0   42.00    2.50
   5   5   0   43.70    2.50
   6  -5   0   26.10    2.50
  -6  -5   0   33.70    2.70
  -6  -5   0   26.20    2.20
  -6  -5   0   28.60    2.60
   6  -5   0   27.80    2.60
   6   5   0   32.00    2.60
  -6   5   0   30.90    2.60
   6   5   0   28.90    2.30
   6   5   0   28.50    2.50
   6   5   0   29.00    2.40
   6   5   0   29.20    2.20
   6   5   0   26.20    2.20
  -6   5   0   31.10    2.50
   7  -5   0  178.48    6.40
   7  -5   0  168.78    6.20
  -7  -5   0  176.28    6.30
  -7  -5   0  174.28    6.30
   7   5   0  177.78    6.40
   7   5   0  180.08    6.50
   7   5   0  181.38    6.40
  -7   5   0  173.28    6.40
   7   5   0  174.18    6.10
   7   5   0  174.28    6.20
  -7   5   0  176.78    6.40
   0  -6   0  110.89    3.70
   0  -6   0  104.89    3.60
   0  -6   0  111.39    3.00
   0  -6   0  112.19    3.10
   0   6   0  107.59    3.10
   0   6   0  100.79    3.50
   0   6   0  108.09    3.70
   0   6   0  112.19    3.10
   1  -6   0   93.49    3.20
   1  -6   0   93.19    2.80
   1  -6   0   93.59    3.30
  -1  -6   0   95.59    2.80
  -1  -6   0   91.19    3.10
  -1  -6   0   96.79    2.70
  -1  -6   0   87.19    3.30
   1  -6   0   96.39    2.80
   1   6   0   90.59    2.80
   1   6   0   91.89    2.70
   1   6   0   95.19    2.70
   1   6   0   88.39    3.10
  -1   6   0   92.19    3.20
  -1   6   0   93.49    2.80
  -1   6   0   96.09    2.80
  -1   6   0   93.09    3.20
   1   6   0   89.29    3.40
  -2  -6   0   31.00    1.70
   2  -6   0   33.60    1.70
   2  -6   0   35.10    1.50
   2  -6   0   34.00    1.90
  -2  -6   0   35.30    1.30
  -2  -6   0   30.10    1.90
   2  -6   0   32.90    1.60
  -2   6   0   34.10    1.50
   2   6   0   35.50    1.80
  -2   6   0   34.90    1.70
   2   6   0   33.80    1.40
   2   6   0   33.80    1.90
  -2   6   0   32.90    1.70
   2   6   0   31.10    1.60
  -2   6   0   31.40    1.80
   2   6   0   34.20    1.50
   3  -6   0  428.36   11.10
  -3  -6   0  408.86   10.90
   3  -6   0  429.36   11.10
   3  -6   0  415.86   11.50
  -3  -6   0  404.06   11.50
  -3  -6   0  415.66   11.20
  -3  -6   0  409.36   11.50
  -3   6   0  412.06   11.40
   3   6   0  401.66   11.50
  -3   6   0  420.26   11.10
   3   6   0  399.06   10.90
   3   6   0  399.96   11.30
  -3   6   0  425.86   11.30
   3   6   0  411.26   10.90
   3   6   0  401.06   11.10
   4  -6   0    0.90    1.00
   4  -6   0    0.80    0.60
  -4  -6   0    0.70    0.80
  -4  -6   0    0.40    0.90
  -4  -6   0    1.40    1.00
   4  -6   0    0.60    0.80
  -4   6   0    2.70    0.90
   4   6   0    1.80    0.90
   4   6   0    2.00    0.90
   4   6   0    0.10    0.70
   4   6   0    1.20    1.00
  -4   6   0   -0.20    0.90
  -4   6   0    1.60    0.90
  -5  -6   0  140.19    5.30
  -5  -6   0  146.79    4.80
   5  -6   0  146.99    5.10
  -5  -6   0  148.19    5.10
   5  -6   0  145.19    5.30
   5   6   0  146.29    5.10
   5   6   0  148.09    4.70
  -5   6   0  146.19    4.90
   5   6   0  145.49    5.20
  -5   6   0  147.99    5.20
  -5   6   0  154.78    5.10
   5   6   0  145.49    5.10
   5   6   0  154.08    4.90
   5   6   0  155.38    5.10
  -6  -6   0    8.60    2.20
   6  -6   0   12.30    2.40
  -6  -6   0   12.30    2.80
   6  -6   0    7.30    1.60
   6   6   0   10.20    2.10
   6   6   0   11.20    2.50
   6   6   0    7.20    1.50
  -6   6   0    6.80    1.60
   6   6   0   12.50    2.20
   6   6   0    9.90    2.50
   6   6   0    9.80    2.20
  -6   6   0   14.80    2.50
   7  -6   0   31.90    3.20
   7  -6   0   30.40    3.20
  -7  -6   0   28.10    3.40
  -7   6   0   29.20    3.40
   7   6   0   27.90    3.40
   7   6   0   25.70    3.10
  -7   6   0   29.70    3.30
   7   6   0   27.60    3.20
   7   6   0   26.70    3.00
   0  -7   0    0.40    0.50
   0  -7   0    0.50    0.40
   0  -7   0    0.10    0.70
   0  -7   0   -0.10    0.70
   0   7   0    3.10    0.80
   0   7   0    0.60    0.80
   0   7   0    0.00    0.50
   0   7   0    0.10    0.40
   1  -7   0  169.48    4.80
  -1  -7   0  172.28    4.80
   1  -7   0  167.98    5.40
  -1  -7   0  175.28    5.60
   1  -7   0  169.78    5.40
  -1  -7   0  176.78    5.40
   1  -7   0  177.78    4.80
  -1   7   0  174.68    5.40
  -1   7   0  176.28    4.90
  -1   7   0  171.48    5.40
   1   7   0  177.48    4.70
   1   7   0  172.68    5.30
   1   7   0  170.28    4.80
  -1   7   0  177.68    4.80
   1   7   0  177.88    4.90
   1   7   0  173.88    5.60
   2  -7   0  230.58    6.40
  -2  -7   0  227.08    6.20
   2  -7   0  231.58    6.40
  -2  -7   0  226.88    7.00
   2  -7   0  225.48    7.00
   2  -7   0  231.58    6.80
  -2  -7   0  235.08    6.70
  -2   7   0  236.38    6.40
  -2   7   0  227.78    6.90
   2   7   0  223.88    6.80
  -2   7   0  223.48    6.80
   2   7   0  226.98    7.00
   2   7   0  237.38    6.40
   2   7   0  230.18    6.40
   2   7   0  230.68    6.20
   3  -7   0   98.49    3.40
  -3  -7   0  103.89    3.90
   3  -7   0  102.49    3.50
  -3  -7   0   91.09    3.10
   3  -7   0   98.49    3.90
  -3  -7   0  100.19    3.50
  -3   7   0  102.69    3.60
   3   7   0  101.09    3.10
   3   7   0   94.79    3.30
   3   7   0   96.49    3.90
  -3   7   0   99.29    3.40
  -3   7   0   98.99    3.80
   3   7   0  102.09    3.60
  -4  -7   0  257.97    7.90
   4  -7   0  263.57    7.50
   4  -7   0  274.37    7.40
  -4  -7   0  237.38    7.90
  -4  -7   0  263.27    7.50
   4  -7   0  252.47    8.00
   4   7   0  257.57    7.70
   4   7   0  224.68    7.80
   4   7   0  252.27    7.20
   4   7   0  257.27    7.50
  -4   7   0  269.07    7.60
  -4   7   0  264.07    7.50
  -4   7   0  257.57    7.90
  -5  -7   0   15.30    2.50
   5  -7   0   12.60    2.20
  -5  -7   0   17.80    2.60
  -5  -7   0   14.90    2.00
   5  -7   0   12.80    2.30
   5   7   0   16.80    2.10
  -5   7   0   16.20    2.30
  -5   7   0   15.30    2.00
   5   7   0   12.20    2.20
   5   7   0   17.50    2.10
   5   7   0   15.70    2.30
   5   7   0   19.60    2.30
   5   7   0   15.80    1.80
  -5   7   0   15.10    2.10
   6  -7   0   88.49    4.30
   6  -7   0   87.79    4.20
  -6  -7   0   88.59    4.60
  -6  -7   0   88.69    4.30
   6   7   0   88.89    4.30
   6   7   0   91.69    4.30
   6   7   0   81.39    4.20
  -6   7   0   89.69    4.30
  -6   7   0   90.79    4.40
   6   7   0   92.19    4.00
   6   7   0   89.79    4.10
   0  -8   0 1483.15   38.20
   0  -8   0 1471.25   38.30
   0   8   0 1464.15   38.20
   0   8   0 1479.95   38.40
   1  -8   0   40.90    2.30
   1  -8   0   37.80    1.60
  -1  -8   0   40.20    2.40
   1  -8   0   33.40    2.30
  -1  -8   0   38.90    2.30
  -1   8   0   34.10    2.20
   1   8   0   38.10    1.60
   1   8   0   41.20    2.50
  -1   8   0   35.90    1.60
  -1   8   0   38.20    2.40
   1   8   0   35.70    2.10
  -2  -8   0   55.69    2.60
   2  -8   0   55.29    2.70
   2  -8   0   50.49    2.20
   2  -8   0   54.09    2.80
  -2  -8   0   51.29    2.80
  -2   8   0   48.40    2.10
  -2   8   0   48.70    2.60
  -2   8   0   56.09    2.70
   2   8   0   53.99    2.80
   2   8   0   52.09    2.50
   2   8   0   49.20    2.10
  -3  -8   0   96.79    3.70
   3  -8   0   90.39    3.60
  -3  -8   0   92.89    4.00
   3  -8   0   98.59    3.40
   3  -8   0   91.79    4.00
  -3   8   0   94.39    3.90
  -3   8   0   90.09    3.30
   3   8   0   93.79    4.10
  -3   8   0   94.79    3.70
   3   8   0   94.69    3.70
   3   8   0   92.09    3.30
  -4  -8   0   25.60    2.30
   4  -8   0   30.00    2.20
   4  -8   0   27.70    2.50
  -4  -8   0   27.80    2.70
   4  -8   0   26.80    2.20
  -4   8   0   27.40    2.50
  -4   8   0   27.70    2.30
   4   8   0   24.10    2.00
   4   8   0   26.10    2.30
  -4   8   0   24.70    2.10
   4   8   0   28.00    2.60
   5  -8   0   29.80    2.80
   5  -8   0   29.60    2.70
  -5  -8   0   29.60    2.50
  -5  -8   0   26.10    3.00
   5   8   0   28.00    2.90
   5   8   0   27.90    2.60
   5   8   0   29.70    2.70
   5   8   0   32.30    2.80
   5   8   0   31.30    2.70
  -5   8   0   33.90    2.80
  -5   8   0   32.00    2.70
  -5   8   0   24.60    2.70
   6  -8   0  202.78    7.00
   6  -8   0  194.28    7.00
  -6  -8   0  194.88    7.10
   6   8   0  199.78    7.10
  -6   8   0  195.68    7.20
   6   8   0  202.58    7.20
   6   8   0  194.48    6.80
   0  -9   0    1.00    1.00
   0  -9   0    0.10    1.10
   0   9   0    2.00    0.90
   0   9   0    2.00    1.30
   1  -9   0  239.58    7.30
   1  -9   0  207.58    7.00
  -1  -9   0  235.48    7.30
  -1  -9   0  219.98    7.00
   1   9   0  205.88    6.90
   1   9   0  231.18    7.30
  -1   9   0  236.28    7.30
  -1   9   0  231.38    7.10
   2  -9   0   58.19    3.20
  -2  -9   0   52.59    3.00
   2  -9   0   59.19    3.10
  -2  -9   0   54.89    3.10
  -2   9   0   62.49    3.10
   2   9   0   61.39    3.20
   2   9   0   65.49    3.00
  -2   9   0   57.89    3.20
   3  -9   0   46.30    2.50
  -3  -9   0   58.59    3.10
   3  -9   0   54.89    3.10
   3  -9   0   57.69    3.10
  -3  -9   0   53.69    3.20
   3   9   0   56.19    3.20
  -3   9   0   58.59    3.20
  -3   9   0   54.99    3.10
   3   9   0   56.39    3.00
   4  -9   0   39.80    3.00
   4  -9   0   34.10    2.50
  -4  -9   0   39.20    3.10
  -4  -9   0   42.80    2.90
   4  -9   0   38.80    2.80
  -4   9   0   39.70    3.00
   4   9   0   37.20    3.20
   4   9   0   35.40    2.80
  -4   9   0   40.80    2.90
   5  -9   0   22.60    3.00
  -5  -9   0   19.70    3.10
   5  -9   0   19.70    2.80
  -5  -9   0   23.40    2.90
   5   9   0   21.90    2.90
   5   9   0   18.20    3.00
   5   9   0   21.70    2.90
  -5   9   0   23.90    3.00
   5   9   0   20.90    2.90
   0 -10   0   77.19    3.80
   0 -10   0   81.09    3.80
   0  10   0   73.69    3.80
   0  10   0   71.09    3.50
  -1 -10   0   24.60    2.40
  -1 -10   0   23.30    2.60
   1 -10   0   26.30    2.50
   1 -10   0   23.10    2.50
  -1  10   0   25.10    2.80
   1  10   0   24.20    2.30
  -1  10   0   23.50    2.30
   1  10   0   24.30    2.50
  -2 -10   0   28.30    2.80
   2 -10   0   28.90    2.80
   2 -10   0   28.00    2.80
  -2 -10   0   32.10    2.90
   2  10   0   34.00    2.60
  -2  10   0   31.20    2.60
  -2  10   0   26.60    3.00
   2  10   0   28.10    2.90
  -3 -10   0  180.88    6.30
   3 -10   0  176.28    6.50
  -3 -10   0  170.48    6.50
   3 -10   0  178.98    6.30
   3  10   0  178.68    6.20
  -3  10   0  177.28    6.40
  -3  10   0  172.98    6.20
   3  10   0  181.28    6.60
  -4 -10   0   -0.90    1.60
   4 -10   0    0.50    1.60
  -4 -10   0   -1.10    1.60
  -4  10   0   -1.70    1.70
   4  10   0    1.40    1.60
   4  10   0    1.50    1.60
  -4  10   0   -0.80    1.60
   4  10   0    0.10    1.40
   0 -11   0    0.50    1.60
   0 -11   0   -0.30    1.30
   0  11   0   -1.80    1.40
   0  11   0    0.20    1.50
   1 -11   0   24.70    2.90
  -1 -11   0   18.70    3.00
  -1 -11   0   17.10    2.80
   1 -11   0   25.70    3.00
  -1  11   0   20.80    2.60
   1  11   0   24.50    2.70
  -1  11   0   24.20    3.00
   1  11   0   25.70    3.20
   2 -11   0   78.19    4.30
  -2 -11   0   83.69    4.40
  -2 -11   0   84.89    4.40
   2 -11   0   79.19    4.40
   2  11   0   81.49    4.00
  -2  11   0   86.69    4.00
  -2  11   0   80.49    4.60
   2  11   0   78.69    4.40
   3 -11   0    2.40    1.90
  -3 -11   0    3.70    1.80
   3 -11   0    1.80    1.70
  -3 -11   0    1.30    1.90
   3  11   0    3.40    1.90
  -3  11   0    5.60    2.10
  -3  11   0    5.30    1.80
   3  11   0    0.70    1.90
   8   0  -1    3.00    1.60
   8   0  -1   -0.70    1.40
   8   0  -1   -1.70    1.30
  -8   0   1    1.40    1.60
  -8   0   1    0.40    1.50
  -7   0   1  163.18    5.40
  -7   0   1  173.18    5.90
   7   0  -1  170.78    5.80
   7   0  -1  168.78    5.50
  -7   0   1  161.28    5.90
   7   0  -1  168.88    6.00
  -6   0   1    6.80    1.80
  -6   0   1    2.40    1.10
  -6   0   1    1.90    0.90
   6   0  -1    2.40    1.00
   6   0  -1    1.10    1.10
   5   0  -1  499.35   13.80
   5   0  -1  523.35   14.00
  -5   0   1  506.75   13.80
   5   0  -1  505.35   13.60
  -5   0   1  511.75   13.90
  -5   0   1  520.25   13.60
  -4   0   1   -0.40    0.50
  -4   0   1   -0.10    0.50
   4   0  -1   -0.40    0.40
   4   0  -1    0.10    0.60
   4   0  -1    0.00    0.50
  -4   0   1    0.20    0.50
  -4   0   1   -0.20    0.60
   4   0  -1   -0.40    0.50
   3   0  -1 1312.67   33.60
  -3   0   1 1322.87   33.60
  -3   0   1 1296.97   33.70
  -3   0   1 1325.87   33.70
  -3   0   1 1322.97   33.80
   3   0  -1 1250.97   33.70
   3   0  -1 1327.97   33.70
   3   0  -1 1299.57   33.70
   3   0  -1 1363.66   33.80
  -3   0   1 1368.46   33.60
   3   0  -1 1345.17   33.80
   3   0  -1 1305.67   33.60
  -2   0   1    0.40    0.30
   2   0  -1    0.30    0.30
  -2   0   1    0.90    0.30
   2   0  -1    2.00    0.50
   2   0  -1    0.10    0.30
   2   0  -1    0.80    0.30
  -2   0   1   -0.10    0.30
  -2   0   1    0.60    0.20
   2   0  -1    0.20    0.20
  -2   0   1    0.40    0.30
   2   0  -1    0.00    0.30
   1   0  -1   13.00    0.50
  -1   0   1   14.30    0.40
   1   0  -1   14.50    0.60
  -1   0   1   13.00    0.60
  -1   0   1   14.60    0.60
   1   0  -1   13.20    0.40
  -1   0   1   15.10    0.50
   1   0  -1   15.40    0.60
   1   0   1 1318.77   33.20
  -1   0  -1 1258.27   33.20
  -1   0  -1 1299.27   33.20
   1   0   1 1321.57   33.20
  -1   0  -1 1369.66   33.20
  -2   0  -1   -1.80    0.40
  -2   0  -1   -1.60    0.40
  -2   0  -1   -1.00    0.50
   2   0   1   -1.50    0.50
   2   0   1   -1.60    0.50
  -2   0  -1   -1.20    0.40
   3   0   1 2225.78   54.49
   3   0   1 2176.08   54.49
   3   0   1 2097.79   54.79
  -3   0  -1 2124.99   54.89
  -3   0  -1 2191.88   54.79
  -3   0  -1 2111.09   54.59
  -3   0  -1 2256.17   54.49
   3   0   1 2118.19   54.79
   3   0   1 2164.88   54.59
  -3   0  -1 2153.78   54.79
   3   0   1 2137.59   54.79
   3   0   1 2146.59   54.89
   3   0   1 2164.08   54.79
   4   0   1    0.60    0.40
  -4   0  -1   -0.40    0.40
   4   0   1    0.20    0.50
   4   0   1   -0.50    0.50
  -4   0  -1   -0.20    0.60
   4   0   1   -0.50    0.50
  -4   0  -1    0.30    0.50
   4   0   1   -0.30    0.30
  -5   0  -1  298.17    8.60
  -5   0  -1  310.27    8.30
  -5   0  -1  308.27    8.90
   5   0   1  313.37    8.10
   5   0   1  305.97    8.60
   5   0   1  305.07    8.30
   5   0   1  309.17    8.10
   5   0   1  303.07    8.70
  -6   0  -1    3.20    1.10
  -6   0  -1    0.90    0.90
  -6   0  -1    0.40    0.80
   6   0   1    0.90    0.90
   6   0   1   -0.90    0.90
   7   0   1    9.00    2.30
  -7   0  -1   14.00    2.20
   7   0   1    9.70    2.10
   7   0   1    8.00    2.10
  -7   0  -1   12.00    2.50
   8   0   1    1.70    1.70
  -8   0  -1   -0.50    1.70
   8   0   1    0.40    1.60
   8   0   1    2.10    1.50
  -8   0  -1    0.10    1.50
   8  -1  -1   15.10    3.00
  -8  -1   1   21.70    2.80
   8  -1  -1   21.40    2.70
  -8  -1   1   20.80    2.90
   8  -1  -1   21.00    3.00
   8   1  -1   21.70    2.80
  -8   1   1   21.80    2.70
  -8   1   1   21.10    2.90
   8   1  -1   23.10    3.20
   8   1  -1   18.70    2.50
   7  -1  -1   56.69    2.90
  -7  -1   1   49.00    2.70
  -7  -1   1   50.09    3.10
   7  -1  -1   49.60    3.00
   7  -1  -1   52.59    3.20
  -7  -1   1   55.79    3.30
   7   1  -1   49.60    2.70
  -7   1   1   54.79    3.20
   7   1  -1   55.89    3.20
  -7   1   1   57.09    2.90
  -7   1   1   55.09    3.20
   7   1  -1   50.59    3.00
   6  -1  -1  383.56   11.00
  -6  -1   1  383.56   10.90
  -6  -1   1  390.46   10.60
   6  -1  -1  377.56   10.80
  -6  -1   1  374.76   11.00
   6  -1  -1  380.96   10.60
  -6   1   1  366.86   10.90
   6   1  -1  383.76   10.50
   6   1  -1  372.96   10.70
   6   1  -1  383.56   11.00
  -6   1   1  384.96   10.90
  -6   1   1  388.16   10.50
  -5  -1   1    3.90    0.90
   5  -1  -1    3.40    0.80
   5  -1  -1    2.00    0.80
  -5  -1   1    2.80    0.70
   5  -1  -1    3.50    0.80
  -5  -1   1    3.00    0.80
  -5   1   1    3.30    0.70
   5   1  -1    4.90    1.00
   5   1  -1    3.40    0.60
  -5   1   1    3.00    0.80
   5   1  -1    3.00    0.70
  -5   1   1    3.60    0.90
   5   1  -1    2.40    0.80
   5   1  -1    2.70    0.80
   4  -1  -1  433.16   12.00
   4  -1  -1  464.75   11.80
  -4  -1   1  444.76   12.10
  -4  -1   1  441.76   12.00
  -4  -1   1  447.76   11.90
   4  -1  -1  443.06   11.90
  -4  -1   1  453.95   11.60
  -4  -1   1  459.35   11.80
   4   1  -1  444.86   11.90
   4   1  -1  459.35   11.80
   4   1  -1  446.86   11.60
  -4   1   1  442.36   12.10
   4   1  -1  454.15   11.60
  -4   1   1  440.66   12.00
   4   1  -1  440.86   12.10
   4   1  -1  433.46   12.00
   4   1  -1  451.15   11.80
  -4   1   1  461.75   11.90
  -3  -1   1  397.16   10.40
   3  -1  -1  401.56   10.50
   3  -1  -1  379.06   10.40
  -3  -1   1  391.46   10.40
   3  -1  -1  387.26   10.30
  -3  -1   1  390.96   10.40
  -3  -1   1  396.96   10.50
   3  -1  -1  400.66   10.30
   3  -1  -1  379.26   10.40
  -3  -1   1  406.66   10.20
  -3  -1   1  399.96   10.10
   3   1  -1  396.36   10.50
   3   1  -1  381.16   10.50
  -3   1   1  401.46   10.30
  -3   1   1  395.56   10.50
  -3   1   1  388.16   10.40
   3   1  -1  397.86   10.20
  -3   1   1  408.86   10.40
   3   1  -1  338.97   10.30
   3   1  -1  396.56   10.20
   3   1  -1  395.46   10.40
   3   1  -1  387.36   10.40
   3   1  -1  401.66   10.40
   3   1  -1  395.76   10.20
  -3   1   1  388.16   10.40
   2  -1  -1   50.99    1.70
  -2  -1   1   48.60    1.60
   2  -1  -1   49.90    1.60
  -2  -1   1   46.80    1.60
  -2  -1   1   46.90    1.60
  -2  -1   1   48.10    1.50
   2  -1  -1   47.00    1.60
   2  -1  -1   49.20    1.60
  -2  -1   1   47.40    1.60
   2   1  -1   48.20    1.70
   2   1  -1   46.70    1.60
   2   1  -1   47.50    1.50
  -2   1   1   47.90    1.60
  -2   1   1   47.60    1.60
  -2   1   1   50.59    1.60
   2   1  -1   46.00    1.60
   2   1  -1   47.00    1.70
  -2   1   1   50.69    1.60
   2   1  -1   49.80    1.60
  -2   1   1   50.09    1.60
   2   1  -1   48.30    1.50
   2   1  -1   50.29    1.50
   1  -1  -1 3076.29   76.79
  -1  -1   1 2615.44   72.99
   1   1  -1 2615.24   72.89
  -1   1   1 2844.92   76.49
  -1  -1  -1  368.56   10.10
   1  -1   1  401.76   10.10
   1  -1   1  403.66   10.00
   1  -1   1  399.26   10.10
  -1  -1  -1  388.86   10.10
  -1  -1  -1  374.36   10.10
   1  -1   1  404.26   10.20
   1  -1   1  426.46   10.10
   1  -1   1  400.46   10.10
  -1  -1  -1  391.96   10.10
  -1  -1  -1  361.76   10.10
  -1  -1  -1  384.96   10.10
   1  -1   1  413.66   10.20
  -1   1  -1  398.16   10.20
   1   1   1  386.96   10.10
  -1   1  -1  416.06   10.10
   1   1   1  369.76   10.10
  -1   1  -1  417.46   10.10
  -1   1  -1  412.16   10.10
   1   1   1  376.26   10.10
   1   1   1  381.86   10.10
  -1   1  -1  395.66   10.00
  -1   1  -1  419.46   10.20
   1   1   1  399.26   10.10
   1   1   1  384.06   10.10
  -1   1  -1  398.96   10.10
   1   1   1  376.86   10.10
   1   1   1  399.76   10.10
  -2  -1  -1  525.45   13.90
   2  -1   1  548.25   13.90
   2  -1   1  535.25   13.90
   2  -1   1  556.14   13.70
  -2  -1  -1  505.25   13.90
  -2  -1  -1  535.85   13.80
   2  -1   1  537.35   13.70
   2  -1   1  547.25   13.90
  -2  -1  -1  518.95   13.80
   2  -1   1  531.75   13.90
   2  -1   1  555.14   13.90
  -2  -1  -1  532.45   13.80
  -2  -1  -1  542.75   13.80
   2   1   1  524.85   13.90
   2   1   1  520.55   13.90
   2   1   1  540.95   13.80
   2   1   1  534.25   13.90
  -2   1  -1  558.74   13.90
  -2   1  -1  537.75   13.70
   2   1   1  538.25   13.80
  -2   1  -1  542.55   13.90
  -2   1  -1  555.14   13.70
   2   1   1  524.15   13.90
  -2   1  -1  546.25   13.90
   2   1   1  526.75   13.80
  -2   1  -1  545.95   13.90
   2   1   1  538.45   13.90
   2   1   1  536.75   13.80
   3  -1   1   21.10    0.90
  -3  -1  -1   21.40    1.20
  -3  -1  -1   22.30    1.20
   3  -1   1   22.50    1.30
   3  -1   1   21.50    1.10
   3  -1   1   21.50    1.30
   3  -1   1   23.20    1.10
  -3  -1  -1   20.60    1.10
   3  -1   1   23.90    1.30
  -3  -1  -1   20.20    1.10
  -3  -1  -1   23.40    1.10
   3  -1   1   23.60    0.90
   3   1   1   20.40    1.30
  -3   1  -1   21.70    1.20
  -3   1  -1   22.10    1.20
   3   1   1   21.00    1.00
   3   1   1   23.00    1.00
   3   1   1   21.80    1.10
  -3   1  -1   20.80    1.10
   3   1   1   21.10    1.20
   3   1   1   22.70    1.30
   3   1   1   22.60    1.00
   3   1   1   22.70    1.20
  -3   1  -1   22.10    0.90
  -3   1  -1   22.90    0.90
   3   1   1   21.20    1.10
  -3   1  -1   20.70    1.20
   4  -1   1  870.81   20.80
   4  -1   1  781.72   21.20
   4  -1   1  842.02   20.90
   4  -1   1  789.22   21.30
  -4  -1  -1  795.32   21.20
  -4  -1  -1  819.12   21.00
  -4  -1  -1  790.52   21.40
  -4   1  -1  825.22   20.90
   4   1   1  793.22   21.20
   4   1   1  802.82   21.30
  -4   1  -1  823.62   21.30
  -4   1  -1  869.41   20.80
   4   1   1  820.22   20.90
  -4   1  -1  805.32   21.40
   4   1   1  816.62   20.90
   4   1   1  811.52   21.00
  -5  -1  -1   94.59    3.50
  -5  -1  -1   94.79    3.10
   5  -1   1   85.99    3.30
   5  -1   1   91.29    2.90
  -5  -1  -1   92.39    3.30
   5  -1   1   92.09    3.30
   5   1   1   90.59    2.80
   5   1   1   87.39    3.30
   5   1   1   87.49    2.90
  -5   1  -1   99.19    3.40
  -5   1  -1   96.29    2.90
  -5   1  -1   88.99    3.40
   5   1   1   86.69    3.10
   5   1   1   89.09    3.20
   6  -1   1   64.89    3.00
  -6  -1  -1   66.69    3.00
   6  -1   1   68.69    3.00
  -6  -1  -1   62.99    2.70
  -6  -1  -1   63.59    3.10
  -6   1  -1   64.09    2.50
   6   1   1   69.19    3.30
   6   1   1   66.49    2.40
   6   1   1   64.79    2.80
   6   1   1   63.59    3.00
  -6   1  -1   65.39    3.00
  -6   1  -1   68.49    3.20
   7  -1   1  105.69    4.50
  -7  -1  -1  120.69    4.80
   7  -1   1  119.39    4.80
  -7  -1  -1  117.99    4.70
   7  -1   1  122.69    4.60
   7   1   1  118.79    4.80
  -7   1  -1  114.89    4.70
  -7   1  -1  119.09    4.80
   7   1   1  118.19    4.50
   7   1   1  122.39    4.60
  -8  -1  -1   17.50    3.20
   8  -1   1   20.70    2.90
   8  -1   1   21.40    3.10
   8  -1   1   18.20    3.00
  -8  -1  -1   21.10    3.10
   8   1   1   21.40    2.70
   8   1   1   12.30    2.90
  -8   1  -1   20.00    2.90
   8   1   1   16.30    2.90
  -8   1  -1   20.60    3.00
   8  -2  -1   67.79    4.10
  -8  -2   1   69.19    3.90
   8  -2  -1   60.09    3.80
   8  -2  -1   66.29    4.00
  -8   2   1   66.99    3.80
   8   2  -1   58.59    3.80
   8   2  -1   71.39    3.70
  -8   2   1   65.69    3.90
   7  -2  -1    0.60    1.30
   7  -2  -1    0.80    1.30
  -7  -2   1    0.70    1.30
  -7  -2   1    0.80    1.30
   7  -2  -1    3.80    1.20
  -7  -2   1    2.50    1.20
  -7   2   1    0.90    1.20
   7   2  -1    4.60    1.30
  -7   2   1    2.50    1.20
  -7   2   1    2.30    1.40
   7   2  -1    2.40    1.10
   7   2  -1    0.80    1.20
   6  -2  -1   68.59    3.10
   6  -2  -1   66.59    3.00
  -6  -2   1   65.39    3.10
   6  -2  -1   66.19    3.20
  -6  -2   1   69.79    3.20
  -6  -2   1   71.49    2.90
  -6   2   1   70.69    2.80
  -6   2   1   73.09    3.20
  -6   2   1   66.59    3.20
   6   2  -1   70.59    3.20
   6   2  -1   65.09    2.90
   6   2  -1   66.99    2.70
   6   2  -1   63.89    2.40
  -5  -2   1   15.10    1.40
  -5  -2   1   12.00    1.60
  -5  -2   1   12.40    1.50
  -5  -2   1   11.70    1.10
  -5   2   1    9.30    1.40
   5   2  -1   12.30    1.10
   5   2  -1   15.10    1.40
   5   2  -1   16.00    1.30
  -5   2   1    8.20    1.20
   5   2  -1    9.00    1.60
   5   2  -1   11.30    1.30
   4  -2  -1  139.39    4.40
  -4  -2   1  137.89    4.50
   4  -2  -1  140.89    4.40
  -4  -2   1  145.69    4.10
  -4  -2   1  143.59    4.40
  -4  -2   1  144.09    4.40
   4  -2  -1  151.58    4.30
   4   2  -1  150.38    4.10
  -4   2   1  142.99    4.50
  -4   2   1  136.19    4.20
   4   2  -1  147.29    4.20
  -4   2   1  149.79    4.50
   4   2  -1  140.39    4.50
   4   2  -1  144.39    4.20
   4   2  -1  145.29    4.20
   4   2  -1  144.89    4.30
  -3  -2   1   10.00    0.80
  -3  -2   1    6.80    0.80
  -3  -2   1    5.50    0.70
   3  -2  -1    6.50    1.00
   3  -2  -1    8.00    0.90
   3  -2  -1    5.20    0.80
   3  -2  -1    7.30    0.80
  -3  -2   1    8.10    0.90
   3   2  -1    5.00    0.90
   3   2  -1    6.50    0.90
  -3   2   1    7.50    0.70
  -3   2   1    6.80    0.80
  -3   2   1    6.60    1.00
   3   2  -1    4.40    0.80
  -3   2   1    8.50    0.80
   3   2  -1    7.80    0.70
   3   2  -1    7.30    1.00
   3   2  -1    8.30    0.70
   3   2  -1    9.80    0.90
   3   2  -1    6.50    1.10
   3   2  -1    5.10    0.80
   2  -2  -1  666.63   17.30
   2  -2  -1  721.03   17.30
  -2  -2   1  653.53   17.30
  -2  -2   1  667.83   17.20
   2  -2  -1  701.33   17.10
   2  -2  -1  675.33   17.30
   2  -2  -1  676.93   17.30
  -2  -2   1  647.14   17.30
   2  -2  -1  683.63   17.30
  -2  -2   1  674.83   17.30
  -2  -2   1  649.34   17.40
  -2   2   1  670.13   17.30
   2   2  -1  668.73   17.30
   2   2  -1  668.03   17.40
  -2   2   1  670.93   17.30
   2   2  -1  658.93   17.30
  -2   2   1  664.93   17.30
   2   2  -1  654.13   17.20
   2   2  -1  654.93   17.30
  -2   2   1  695.23   17.30
   2   2  -1  659.73   17.10
   2   2  -1  664.23   17.20
   2   2  -1  657.83   17.30
  -2   2   1  688.13   17.10
  -2   2   1  697.83   17.30
   2   2  -1  680.73   17.30
   1  -2  -1   -1.40    0.40
  -1  -2   1   -1.30    0.40
   1  -2  -1   -1.40    0.40
   1  -2  -1   -1.00    0.40
   1  -2  -1   -1.70    0.30
  -1  -2   1   -1.30    0.40
   1  -2  -1   -1.30    0.30
   1  -2  -1   -1.60    0.40
  -1  -2   1   -1.20    0.30
  -1  -2   1   -2.30    0.30
  -1  -2   1   -1.50    0.40
   1   2  -1   -1.10    0.30
  -1   2   1   -2.10    0.30
   1   2  -1   -1.80    0.30
  -1   2   1   -0.40    0.40
  -1   2   1   -1.30    0.40
   1   2  -1   -1.50    0.30
   1   2  -1   -1.10    0.40
   1   2  -1   -1.00    0.40
  -1   2   1   -1.20    0.40
   1   2  -1   -1.20    0.40
   1   2  -1   -1.30    0.50
  -1   2   1   -0.70    0.50
  -1   2   1   -1.50    0.30
   0   2  -1 2363.26   59.69
  -1  -2  -1    8.60    0.60
   1  -2   1    7.40    0.60
   1  -2   1    6.80    0.50
  -1  -2  -1    6.40    0.60
   1  -2   1    7.00    0.50
  -1  -2  -1    7.20    0.50
   1  -2   1    7.10    0.60
  -1  -2  -1    6.90    0.50
   1  -2   1    7.30    0.50
  -1  -2  -1    6.60    0.50
  -1  -2  -1    7.00    0.50
   1  -2   1    7.20    0.50
  -1  -2  -1    7.30    0.50
  -1   2  -1    7.40    0.60
  -1   2  -1    7.20    0.50
   1   2   1    8.80    0.50
   1   2   1    7.10    0.50
   1   2   1    7.10    0.60
   1   2   1    6.80    0.60
   1   2   1    6.80    0.50
  -1   2  -1    6.80    0.50
   1   2   1    6.10    0.40
  -1   2  -1    6.90    0.50
   1   2   1    6.90    0.50
   1   2   1    7.00    0.50
   1   2   1    6.80    0.60
  -1   2  -1    9.20    0.50
  -2  -2  -1  243.78    6.70
  -2  -2  -1  238.08    6.70
   2  -2   1  264.77    6.70
  -2  -2  -1  238.58    6.70
   2  -2   1  273.67    6.60
   2  -2   1  259.97    6.70
  -2  -2  -1  240.98    6.70
   2  -2   1  261.67    6.60
   2  -2   1  260.17    6.80
   2  -2   1  260.97    6.80
   2  -2   1  255.67    6.80
  -2  -2  -1  240.38    6.70
  -2  -2  -1  239.58    6.70
  -2   2  -1  265.47    6.60
   2   2   1  247.68    6.70
  -2   2  -1  253.37    6.80
   2   2   1  245.48    6.70
   2   2   1  238.68    6.70
  -2   2  -1  250.67    6.80
   2   2   1  241.88    6.70
  -2   2  -1  260.87    6.70
   2   2   1  245.18    6.70
   2   2   1  237.58    6.70
   2   2   1  242.68    6.70
  -2   2  -1  264.87    6.90
   2   2   1  244.58    6.70
  -2   2  -1  257.77    6.60
   2   2   1  240.68    6.70
  -3  -2  -1   27.00    1.30
  -3  -2  -1   27.10    1.30
  -3  -2  -1   30.30    1.30
  -3  -2  -1   26.80    1.40
  -3  -2  -1   27.00    1.30
   3  -2   1   33.10    1.20
   3  -2   1   28.50    1.40
  -3  -2  -1   26.70    1.30
   3  -2   1   27.80    1.10
   3  -2   1   26.50    1.30
   3   2   1   27.80    1.30
   3   2   1   26.40    1.30
   3   2   1   28.40    1.40
   3   2   1   26.50    1.40
   3   2   1   27.10    1.30
   3   2   1   30.30    1.40
  -3   2  -1   31.70    1.40
  -3   2  -1   28.60    1.40
   3   2   1   28.70    1.40
   3   2   1   25.40    1.50
  -3   2  -1   31.70    1.10
   3   2   1   27.00    1.30
  -3   2  -1   30.40    1.10
   4  -2   1   56.29    2.30
  -4  -2  -1   55.79    2.20
  -4  -2  -1   55.69    2.20
  -4  -2  -1   58.29    2.10
  -4  -2  -1   58.09    2.40
   4  -2   1   54.89    2.30
   4  -2   1   61.49    2.00
  -4   2  -1   58.19    1.90
   4   2   1   57.09    2.20
  -4   2  -1   59.79    2.40
   4   2   1   51.89    2.00
  -4   2  -1   58.19    2.30
   4   2   1   59.29    2.20
   4   2   1   54.99    2.20
   4   2   1   56.79    2.20
  -5  -2  -1    7.60    1.20
   5  -2   1    5.10    1.40
  -5  -2  -1    7.90    1.50
   5  -2   1    6.20    1.30
   5  -2   1    6.80    1.10
  -5  -2  -1    7.00    1.30
  -5   2  -1    6.10    1.40
   5   2   1    6.90    1.30
   5   2   1    5.80    1.10
   5   2   1    7.40    1.30
  -5   2  -1    7.60    1.40
  -5   2  -1    7.00    1.00
   5   2   1    7.80    1.20
   5   2   1    5.10    1.00
  -6  -2  -1  355.56   10.20
   6  -2   1  341.77   10.20
  -6  -2  -1  351.86   10.40
   6  -2   1  372.66   10.30
  -6  -2  -1  357.66    9.90
   6   2   1  369.26   10.40
   6   2   1  350.26   10.00
  -6   2  -1  339.57    9.60
   6   2   1  358.26    9.60
  -6   2  -1  350.36   10.30
  -6   2  -1  367.16   10.40
   6   2   1  357.36   10.20
  -7  -2  -1   -3.10    1.40
  -7  -2  -1   -0.80    1.20
   7  -2   1   -3.10    1.20
   7  -2   1   -2.20    1.10
  -7  -2  -1    1.30    1.30
  -7   2  -1    1.50    1.20
   7   2   1    1.80    1.10
   7   2   1    1.40    1.30
  -7   2  -1   -3.00    1.30
   7   2   1    1.20    1.20
   7   2   1   -0.20    1.30
  -8  -2  -1  120.59    5.30
  -8  -2  -1  114.19    5.20
   8  -2   1  115.69    5.30
   8  -2   1  114.39    5.10
   8  -2   1  110.69    5.00
   8   2   1  113.69    4.90
   8   2   1  112.49    4.80
  -8   2  -1  119.99    5.10
  -8   2  -1  116.59    5.10
   8   2   1  120.09    5.20
   8  -3  -1    3.90    1.60
   8  -3  -1    5.20    1.90
  -8  -3   1    7.40    1.90
   8  -3  -1    2.70    1.80
  -8   3   1    2.50    1.50
   8   3  -1    2.20    1.60
  -8   3   1   11.90    3.00
   8   3  -1    5.30    1.70
   7  -3  -1   40.90    2.80
  -7  -3   1   45.00    3.10
  -7  -3   1   43.20    2.80
   7  -3  -1   41.40    3.20
   7  -3  -1   37.00    3.00
  -7   3   1   45.90    3.00
   7   3  -1   44.60    2.60
  -7   3   1   46.80    3.00
   7   3  -1   42.60    3.00
   7   3  -1   37.10    2.70
  -6  -3   1  285.47    8.50
   6  -3  -1  287.07    8.50
  -6  -3   1  291.37    8.40
  -6  -3   1  291.37    8.70
   6  -3  -1  288.17    8.70
   6  -3  -1  266.37    8.50
   6   3  -1  288.47    8.10
  -6   3   1  286.67    8.20
   6   3  -1  284.87    8.00
   6   3  -1  284.47    8.40
  -6   3   1  293.87    8.60
   6   3  -1  289.57    8.70
  -6   3   1  286.77    8.60
   5  -3  -1   -1.00    0.70
  -5  -3   1    0.00    0.80
  -5  -3   1    0.80    0.80
   5  -3  -1   -0.30    0.80
  -5  -3   1   -0.20    0.80
  -5  -3   1    0.50    0.60
   5   3  -1   -0.20    0.60
  -5   3   1    2.00    0.80
  -5   3   1    0.30    0.70
   5   3  -1    0.10    0.60
  -5   3   1    1.30    0.80
   5   3  -1    0.90    0.70
   4  -3  -1  420.46   11.00
   4  -3  -1  397.66   11.20
  -4  -3   1  416.66   11.00
   4  -3  -1  405.96   11.20
  -4  -3   1  417.56   11.30
  -4  -3   1  411.56   11.20
   4   3  -1  412.76   11.10
   4   3  -1  415.46   11.20
   4   3  -1  411.36   11.30
   4   3  -1  408.86   10.90
  -4   3   1  418.86   11.30
  -4   3   1  412.76   11.20
   4   3  -1  415.46   11.00
  -4   3   1  418.86   11.00
   3  -3  -1  440.46   11.70
  -3  -3   1  433.36   11.80
   3  -3  -1  431.26   11.80
  -3  -3   1  430.86   11.70
  -3  -3   1  429.26   11.80
   3  -3  -1  464.55   11.70
   3  -3  -1  447.06   11.70
  -3  -3   1  448.16   11.60
   3  -3  -1  477.85   11.40
  -3   3   1  432.56   11.80
   3   3  -1  438.06   11.60
  -3   3   1  457.15   11.40
   3   3  -1  436.46   11.50
   3   3  -1  429.96   11.70
  -3   3   1  445.36   11.70
  -3   3   1  453.25   11.70
   3   3  -1  431.06   11.80
   3   3  -1  442.16   11.60
   3   3  -1  433.76   11.80
   3   3  -1  435.46   11.50
  -2  -3   1  153.68    4.40
   2  -3  -1  150.28    4.40
  -2  -3   1  149.59    4.40
  -2  -3   1  157.38    4.50
   2  -3  -1  163.88    4.20
   2  -3  -1  156.38    4.50
   2  -3  -1  162.28    4.40
   2  -3  -1  155.48    4.30
  -2  -3   1  152.18    4.20
  -2  -3   1  133.79    4.30
   2  -3  -1  156.78    4.30
   2   3  -1  155.98    4.40
   2   3  -1  153.88    4.20
  -2   3   1  158.08    4.30
  -2   3   1  152.48    4.40
  -2   3   1  159.08    4.50
   2   3  -1  155.78    4.40
   2   3  -1  153.88    4.40
  -2   3   1  163.88    4.40
   2   3  -1  134.89    4.40
   2   3  -1  153.78    4.20
  -2   3   1  152.68    4.40
   2   3  -1  153.38    4.40
  -2   3   1  169.58    4.20
   2   3  -1  157.18    4.30
   2   3  -1  149.39    4.50
  -1  -3   1  471.25   12.40
  -1  -3   1  459.95   12.40
  -1  -3   1  476.85   12.30
  -1  -3   1  475.95   12.40
  -1  -3   1  465.25   12.10
  -1  -3   1  485.15   12.30
   1  -3  -1  484.45   12.40
   1  -3  -1  479.65   12.10
   1  -3  -1  467.65   12.30
   1  -3  -1  486.35   12.40
   1  -3  -1  481.85   12.20
   1  -3  -1  479.75   12.40
   1   3  -1  472.55   12.50
   1   3  -1  469.15   12.40
   1   3  -1  482.85   12.30
  -1   3   1  487.35   12.40
   1   3  -1  467.05   12.40
   1   3  -1  477.95   12.40
  -1   3   1  479.25   12.40
  -1   3   1  455.85   12.10
   1   3  -1  468.35   12.30
   1   3  -1  461.05   12.40
  -1   3   1  491.35   12.30
  -1   3   1  469.35   12.40
   1   3  -1  472.65   12.10
  -1   3   1  487.35   12.30
   0  -3  -1  398.36   10.50
   0  -3  -1  395.46   10.50
   0  -3   1  393.76   10.50
   0  -3   1  388.66   10.50
   0  -3   1  427.76   10.30
   0  -3   1  398.76   10.50
   0  -3  -1  402.56   10.40
   0  -3  -1  401.96   10.30
   0  -3   1  400.26   10.50
   0  -3  -1  397.16   10.50
   0   3  -1  395.66   10.50
   0   3  -1  401.46   10.50
   0   3   1  406.16   10.50
   0   3   1  398.06   10.50
   0   3  -1  397.96   10.50
   0   3   1  399.76   10.40
   0   3   1  411.56   10.30
   0   3  -1  395.56   10.30
   0   3   1  396.66   10.50
   0   3  -1  412.46   10.50
   1  -3   1  305.57    8.00
  -1  -3  -1  299.97    7.90
   1  -3   1  306.87    7.80
  -1  -3  -1  297.67    7.80
   1  -3   1  306.67    7.90
  -1  -3  -1  295.47    8.00
   1  -3   1  297.47    8.00
  -1  -3  -1  296.97    8.00
  -1  -3  -1  295.27    8.00
   1  -3   1  298.97    8.00
   1  -3   1  305.47    7.90
   1   3   1  294.07    8.00
   1   3   1  300.27    7.80
   1   3   1  296.87    8.10
  -1   3  -1  305.37    7.90
  -1   3  -1  308.17    7.90
  -1   3  -1  295.17    7.90
  -1   3  -1  315.87    8.10
   1   3   1  294.87    7.90
   1   3   1  297.27    7.80
  -1   3  -1  310.77    7.80
  -1   3  -1  305.77    8.00
  -1   3  -1  302.67    8.00
   1   3   1  302.17    8.10
   1   3   1  286.97    7.90
   1   3   1  301.57    7.90
   1   3   1  296.17    7.80
  -2  -3  -1  894.31   23.40
   2  -3   1  922.61   23.60
   2  -3   1  954.90   23.50
  -2  -3  -1  927.91   23.60
  -2  -3  -1  882.91   23.50
   2  -3   1  982.80   23.60
  -2  -3  -1  797.42   23.50
   2  -3   1  931.81   23.70
   2  -3   1  990.90   23.50
  -2  -3  -1  896.61   23.50
   2  -3   1  941.91   23.50
   2  -3   1  953.20   23.40
  -2  -3  -1  900.51   23.50
   2   3   1  895.71   23.60
   2   3   1  892.31   23.40
   2   3   1  893.01   23.50
  -2   3  -1  922.71   23.70
   2   3   1  923.91   23.60
  -2   3  -1  922.61   23.60
   2   3   1  908.11   23.60
  -2   3  -1  975.40   23.50
   2   3   1  889.31   23.50
  -2   3  -1  930.81   23.40
   2   3   1  891.11   23.50
  -2   3  -1  911.11   23.60
   2   3   1  880.41   23.50
  -2   3  -1  974.20   23.50
   2   3   1  915.01   23.50
   3  -3   1    1.90    0.50
  -3  -3  -1    0.70    0.40
   3  -3   1    0.50    0.40
  -3  -3  -1    0.10    0.40
  -3  -3  -1    0.60    0.50
  -3  -3  -1   -0.40    0.40
  -3  -3  -1    0.40    0.40
  -3  -3  -1    2.50    0.70
   3  -3   1    0.80    0.60
   3   3   1    0.70    0.40
   3   3   1    0.70    0.50
  -3   3  -1    0.50    0.40
   3   3   1    2.40    0.70
   3   3   1    0.90    0.60
   3   3   1    0.40    0.60
   3   3   1    0.60    0.40
   3   3   1    1.20    0.60
   3   3   1    0.00    0.60
   3   3   1    2.00    0.50
   3   3   1    0.60    0.60
  -3   3  -1    0.50    0.40
   3   3   1    0.50    0.40
   3   3   1    1.10    0.50
  -3   3  -1    1.00    0.40
  -3   3  -1    1.20    0.60
  -4  -3  -1  722.13   19.30
  -4  -3  -1  708.83   19.10
   4  -3   1  731.23   19.30
  -4  -3  -1  720.53   19.10
  -4  -3  -1  722.73   19.20
   4  -3   1  731.63   19.20
   4  -3   1  746.23   18.70
   4  -3   1  791.72   18.90
  -4  -3  -1  722.83   19.10
  -4   3  -1  751.82   18.90
   4   3   1  719.53   19.10
  -4   3  -1  738.43   19.30
  -4   3  -1  759.02   18.70
   4   3   1  722.13   19.30
  -4   3  -1  730.43   19.30
   4   3   1  708.83   19.10
   4   3   1  728.73   19.20
   4   3   1  718.33   19.10
   5  -3   1   42.80    2.30
  -5  -3  -1   43.70    2.10
   5  -3   1   43.00    2.20
   5  -3   1   44.20    1.90
  -5  -3  -1   43.30    2.20
  -5  -3  -1   42.30    2.40
  -5   3  -1   44.90    2.30
  -5   3  -1   42.20    2.30
   5   3   1   44.40    2.20
   5   3   1   43.30    2.10
   5   3   1   43.40    2.40
   5   3   1   43.40    2.10
   5   3   1   45.70    2.00
  -5   3  -1   44.40    1.80
   6  -3   1   11.00    2.00
  -6  -3  -1   15.20    2.20
   6  -3   1   10.00    1.90
  -6  -3  -1   13.80    1.90
  -6  -3  -1   13.00    1.70
   6   3   1   15.60    1.80
   6   3   1   12.70    1.60
  -6   3  -1   14.40    1.50
  -6   3  -1   11.70    1.90
   6   3   1   14.10    2.00
   6   3   1   14.80    1.70
  -6   3  -1   11.40    2.00
   6   3   1   12.40    1.80
  -7  -3  -1  171.68    6.10
   7  -3   1  170.68    6.00
  -7  -3  -1  173.68    5.70
   7  -3   1  166.48    6.00
  -7  -3  -1  171.78    6.20
   7   3   1  174.38    5.70
   7   3   1  177.68    5.90
  -7   3  -1  176.68    6.10
   7   3   1  176.38    5.90
  -7   3  -1  170.48    6.10
   7   3   1  172.18    6.20
  -8  -3  -1    4.20    1.80
   8  -3   1    9.80    2.10
   8  -3   1    7.00    1.90
   8  -3   1    4.30    1.90
  -8  -3  -1    6.80    2.10
   8   3   1    3.80    1.90
  -8   3  -1    8.20    2.00
  -8   3  -1    4.50    1.70
   8   3   1   12.50    2.70
   8   3   1    5.60    1.70
  -8  -4   1    3.00    2.00
   8  -4  -1    4.90    2.00
   8  -4  -1    1.10    1.90
   8  -4  -1    0.60    1.80
  -8   4   1   -0.30    1.60
   8   4  -1    1.80    1.70
   8   4  -1    4.10    1.70
  -8   4   1    2.30    1.90
   8   4  -1    3.70    1.80
  -7  -4   1  152.68    5.50
  -7  -4   1  149.59    5.60
   7  -4  -1  145.79    5.50
   7  -4  -1  148.89    5.60
   7  -4  -1  151.48    5.80
   7   4  -1  153.28    5.70
   7   4  -1  159.08    5.60
   7   4  -1  148.09    5.50
  -7   4   1  147.59    5.60
  -7   4   1  158.78    5.70
   7   4  -1  154.98    5.50
   7   4  -1  158.58    5.20
  -6  -4   1    1.90    0.90
   6  -4  -1    0.40    1.20
  -6  -4   1   -0.30    1.10
  -6  -4   1    0.90    1.10
   6  -4  -1    2.10    1.20
   6   4  -1    2.90    1.00
   6   4  -1    1.60    0.90
   6   4  -1    1.70    1.10
  -6   4   1    1.90    1.20
   6   4  -1    3.00    1.00
  -6   4   1    2.60    1.10
   6   4  -1   -0.50    1.00
  -6   4   1    0.30    1.00
   5  -4  -1  404.36   11.30
  -5  -4   1  408.56   11.10
  -5  -4   1  405.56   11.40
  -5  -4   1  411.36   11.30
   5  -4  -1  415.16   11.40
  -5   4   1  411.96   11.10
   5   4  -1  402.76   11.40
  -5   4   1  408.96   11.30
   5   4  -1  405.46   11.00
   5   4  -1  395.56   11.10
   5   4  -1  413.36   11.10
   5   4  -1  395.16   11.30
  -5   4   1  399.26   11.40
  -4  -4   1    1.90    0.60
  -4  -4   1    1.00    0.70
   4  -4  -1    2.20    0.80
   4  -4  -1    0.40    0.70
  -4  -4   1    1.50    0.90
  -4  -4   1    2.30    0.60
  -4   4   1    2.00    0.60
   4   4  -1    1.30    0.60
   4   4  -1    1.80    0.70
   4   4  -1    0.80    0.60
  -4   4   1    1.70    0.60
  -4   4   1    1.20    0.70
   4   4  -1    1.30    0.50
   3  -4  -1 2220.58   54.59
   3  -4  -1 2133.09   54.69
  -3  -4   1 2115.09   54.89
   3  -4  -1 2254.67   54.39
   3  -4  -1 2188.78   54.79
  -3  -4   1 2116.89   54.69
  -3  -4   1 2061.29   54.69
   3  -4  -1 2150.58   54.59
  -3  -4   1 2099.69   54.49
   3   4  -1 2073.89   54.69
  -3   4   1 2252.47   54.39
  -3   4   1 2146.89   54.79
   3   4  -1 2111.79   54.69
   3   4  -1 2127.49   54.49
  -3   4   1 2161.78   54.59
  -3   4   1 2155.08   54.69
   3   4  -1 2154.78   54.49
   3   4  -1 2171.18   54.49
   2  -4  -1  102.69    3.20
   2  -4  -1  100.19    3.30
   2  -4  -1   92.29    3.00
   2  -4  -1  104.39    3.00
   2  -4  -1  103.29    3.00
  -2  -4   1  101.69    3.10
  -2  -4   1  100.99    3.00
  -2  -4   1   98.09    3.30
  -2  -4   1   98.79    3.20
  -2  -4   1  101.19    2.90
   2   4  -1  100.09    3.20
  -2   4   1  109.99    3.10
   2   4  -1  103.89    2.90
  -2   4   1  101.49    3.20
   2   4  -1   99.49    3.10
  -2   4   1   99.59    3.20
  -2   4   1  110.19    3.20
   2   4  -1   98.39    3.10
   2   4  -1   99.79    2.90
   2   4  -1  102.79    3.10
   2   4  -1   99.39    3.30
  -2   4   1  102.49    3.00
  -1  -4   1   -0.10    0.40
  -1  -4   1   -0.60    0.40
   1  -4  -1    0.00    0.50
   1  -4  -1    0.20    0.50
  -1  -4   1   -0.90    0.40
   1  -4  -1    0.20    0.40
  -1  -4   1    0.10    0.50
   1  -4  -1   -0.40    0.40
   1  -4  -1    2.00    0.70
   1  -4  -1   -0.60    0.30
  -1  -4   1   -0.40    0.30
   1   4  -1   -0.20    0.50
  -1   4   1   -0.20    0.40
  -1   4   1   -0.90    0.40
   1   4  -1   -0.20    0.40
  -1   4   1    0.90    0.40
   1   4  -1    0.70    0.60
  -1   4   1    0.60    0.40
   1   4  -1   -0.40    0.40
   1   4  -1   -0.70    0.30
  -1   4   1    0.60    0.50
  -1   4   1   -0.80    0.40
   1   4  -1   -0.50    0.40
   0  -4  -1  246.08    6.80
   0  -4   1  245.38    6.80
   0  -4  -1  252.27    6.80
   0  -4  -1  248.98    6.70
   0  -4  -1  238.68    6.80
   0  -4  -1  252.97    6.50
   0  -4   1  249.88    6.70
   0  -4   1  242.88    6.80
   0  -4   1  264.87    6.60
   0   4  -1  220.68    6.70
   0   4  -1  248.88    6.70
   0   4  -1  244.58    6.80
   0   4   1  243.68    6.80
   0   4  -1  251.37    6.50
   0   4   1  248.58    6.70
   0   4   1  258.07    6.50
   0   4   1  245.28    6.80
   0   4   1  241.18    6.80
   0   4   1  247.18    6.80
   0   4  -1  246.88    6.80
   0   4  -1  257.27    6.80
  -1  -4  -1 2955.80   77.69
  -1  -4  -1 3129.69   77.59
   1  -4   1 3098.39   77.69
   1  -4   1 3135.49   77.49
  -1  -4  -1 2996.00   77.59
   1  -4   1 3181.48   77.69
  -1  -4  -1 3077.19   77.79
   1  -4   1 3114.39   77.69
  -1  -4  -1 3052.89   77.39
   1  -4   1 3028.50   77.69
  -1   4  -1 3118.39   77.39
  -1   4  -1 3179.98   77.69
  -1   4  -1 3232.68   77.69
  -1   4  -1 3098.59   77.69
  -1   4  -1 3052.19   77.69
   1   4   1 2975.30   77.79
   1   4   1 2982.80   77.59
   1   4   1 3098.99   77.79
   1   4   1 3032.60   77.39
   1   4   1 2949.10   77.69
   1   4   1 2960.00   77.59
  -1   4  -1 3107.49   77.69
   2  -4   1    5.70    0.80
   2  -4   1    6.10    0.90
  -2  -4  -1    5.90    0.90
   2  -4   1    6.20    0.80
  -2  -4  -1    6.70    0.80
   2  -4   1    7.00    0.90
  -2  -4  -1    4.40    0.70
  -2  -4  -1    3.70    0.80
   2  -4   1    6.80    0.90
  -2  -4  -1    6.80    0.90
   2   4   1    6.20    0.80
   2   4   1    5.90    1.00
  -2   4  -1    5.00    0.90
   2   4   1    4.80    0.80
  -2   4  -1    6.00    0.90
  -2   4  -1    5.80    0.80
   2   4   1    5.50    0.70
   2   4   1    5.60    0.90
   2   4   1    7.00    1.00
  -2   4  -1    5.50    0.80
   2   4   1    5.10    0.80
  -2   4  -1    5.50    0.80
   3  -4   1 1742.83   41.40
  -3  -4  -1 1571.14   41.70
  -3  -4  -1 1579.54   41.40
  -3  -4  -1 1586.84   41.50
   3  -4   1 1761.42   41.40
  -3  -4  -1 1588.24   41.50
   3  -4   1 1660.53   41.80
  -3  -4  -1 1592.04   41.60
   3  -4   1 1686.73   41.60
  -3   4  -1 1739.63   41.40
   3   4   1 1529.65   41.40
   3   4   1 1571.14   41.70
   3   4   1 1592.84   41.70
  -3   4  -1 1688.83   41.40
  -3   4  -1 1669.43   41.60
  -3   4  -1 1625.74   41.70
   3   4   1 1578.24   41.50
   3   4   1 1586.74   41.40
   3   4   1 1574.94   41.50
  -4  -4  -1   15.30    1.30
  -4  -4  -1   14.50    1.30
  -4  -4  -1   15.40    1.40
   4  -4   1   11.10    1.30
  -4  -4  -1   16.10    1.30
   4  -4   1   10.90    1.40
   4  -4   1   11.40    1.00
   4  -4   1   13.40    1.50
  -4  -4  -1   14.60    1.30
  -4  -4  -1   15.10    1.40
   4   4   1   12.10    1.30
  -4   4  -1   13.60    1.10
   4   4   1   14.60    1.30
   4   4   1   13.60    1.30
   4   4   1   11.00    1.30
  -4   4  -1   13.40    1.20
  -4   4  -1   13.60    1.40
   4   4   1   14.50    1.40
  -4   4  -1   13.10    1.40
   4   4   1   15.50    1.30
  -5  -4  -1  305.67    8.50
  -5  -4  -1  292.27    8.70
   5  -4   1  301.57    8.80
   5  -4   1  304.37    8.70
  -5  -4  -1  294.37    8.60
  -5  -4  -1  296.47    8.60
  -5   4  -1  303.57    8.80
  -5   4  -1  313.27    8.80
   5   4   1  302.47    8.70
   5   4   1  298.97    8.60
   5   4   1  303.97    8.60
   5   4   1  300.57    8.50
   5   4   1  294.57    8.60
   5   4   1  297.97    8.50
  -5   4  -1  293.17    8.20
   6  -4   1   11.70    2.30
  -6  -4  -1   15.60    1.90
   6  -4   1   17.50    2.20
  -6  -4  -1   17.50    2.20
  -6  -4  -1   12.20    2.20
   6   4   1   11.70    1.70
  -6   4  -1   15.70    2.00
   6   4   1   14.50    2.00
   6   4   1   18.90    1.90
   6   4   1   12.00    1.90
  -6   4  -1   15.90    2.30
   6   4   1   13.10    2.00
   6   4   1   15.90    2.00
  -7  -4  -1   15.60    2.50
  -7  -4  -1   19.00    2.90
  -7  -4  -1   16.90    2.80
   7  -4   1   18.20    2.60
   7  -4   1   20.20    2.70
   7   4   1   17.00    2.60
   7   4   1   19.20    2.50
  -7   4  -1   18.70    2.50
  -7   4  -1   13.90    2.60
   7   4   1   19.90    2.50
   7   4   1   17.30    2.40
   7   4   1   23.30    2.70
   8  -4   1    7.60    2.10
   8  -4   1    2.20    1.80
  -8  -4  -1    4.80    2.10
   8  -4   1    4.20    1.90
   8   4   1    3.10    1.80
   8   4   1    5.60    1.70
   8   4   1    5.10    1.90
  -8   4  -1    4.00    1.90
  -8   4  -1    2.90    1.70
   7  -5  -1   23.60    2.80
   7  -5  -1   20.40    3.10
   7  -5  -1   23.40    2.60
  -7  -5   1   19.00    2.90
  -7  -5   1   19.60    3.00
   7   5  -1   20.30    2.70
   7   5  -1   21.60    2.80
   7   5  -1   20.60    3.00
  -7   5   1   15.60    2.70
  -7   5   1   21.10    2.80
   7   5  -1   15.70    2.70
  -6  -5   1  248.48    8.40
  -6  -5   1  275.57    8.50
  -6  -5   1  277.27    8.10
   6  -5  -1  277.67    8.50
   6  -5  -1  286.27    8.50
  -6   5   1  290.97    8.60
  -6   5   1  267.57    8.00
   6   5  -1  281.67    8.00
   6   5  -1  272.17    8.40
  -6   5   1  271.77    8.40
   6   5  -1  281.47    8.50
   6   5  -1  266.47    8.50
   6   5  -1  279.77    8.10
   6   5  -1  290.67    8.20
   5  -5  -1   11.10    1.70
  -5  -5   1    7.20    1.50
  -5  -5   1    6.80    1.70
   5  -5  -1    9.90    1.70
  -5  -5   1   11.60    1.90
  -5   5   1   10.20    1.80
  -5   5   1   11.40    1.60
   5   5  -1    9.90    1.70
   5   5  -1    7.10    1.70
   5   5  -1    8.70    1.50
   5   5  -1   11.40    1.60
   5   5  -1    9.80    1.40
  -5   5   1    7.00    1.70
   5   5  -1    7.70    1.40
  -4  -5   1  305.47    8.50
  -4  -5   1  290.37    8.60
   4  -5  -1  311.87    8.00
  -4  -5   1  295.37    8.20
   4  -5  -1  300.47    8.60
   4  -5  -1  297.07    8.40
  -4   5   1  293.57    8.00
  -4   5   1  305.67    8.40
  -4   5   1  294.97    8.40
  -4   5   1  294.17    8.60
   4   5  -1  296.47    8.60
   4   5  -1  296.47    8.20
   4   5  -1  287.37    8.40
   4   5  -1  283.47    8.10
   4   5  -1  296.47    8.50
   3  -5  -1  229.98    6.30
   3  -5  -1  203.28    6.10
  -3  -5   1  222.18    6.20
  -3  -5   1  215.98    6.60
   3  -5  -1  215.78    6.20
   3  -5  -1  227.38    6.60
  -3  -5   1  215.58    6.50
   3   5  -1  223.88    6.30
   3   5  -1  224.88    6.10
  -3   5   1  226.18    6.20
   3   5  -1  218.08    6.00
  -3   5   1  220.58    6.50
  -3   5   1  230.08    6.20
   3   5  -1  224.28    6.40
   3   5  -1  222.28    6.60
  -3   5   1  220.28    6.30
   2  -5  -1  214.18    6.00
  -2  -5   1  207.78    6.30
  -2  -5   1  207.88    6.20
  -2  -5   1  216.38    6.00
   2  -5  -1  212.88    5.90
  -2  -5   1  223.38    5.70
  -2  -5   1  214.38    6.00
   2  -5  -1  214.38    6.20
   2  -5  -1  220.18    5.80
   2   5  -1  209.28    6.30
  -2   5   1  206.18    6.20
  -2   5   1  215.28    5.80
  -2   5   1  214.78    6.00
   2   5  -1  220.28    6.00
   2   5  -1  215.68    5.70
  -2   5   1  213.98    6.00
   2   5  -1  212.58    6.10
  -2   5   1  211.28    6.10
   2   5  -1  216.68    5.70
   2   5  -1  213.88    6.00
   1  -5  -1  138.59    3.90
  -1  -5   1  142.59    3.90
   1  -5  -1  135.09    4.10
  -1  -5   1  130.49    4.30
   1  -5  -1  141.99    3.70
  -1  -5   1  132.89    4.30
   1  -5  -1  135.49    4.20
  -1  -5   1  141.29    4.10
  -1   5   1  136.89    4.20
  -1   5   1  140.69    3.80
  -1   5   1  142.09    4.20
  -1   5   1  140.49    3.90
   1   5  -1  137.49    4.30
   1   5  -1  132.79    4.10
   1   5  -1  142.19    3.90
   0  -5  -1  491.05   13.20
   0  -5   1  524.05   13.00
   0  -5   1  485.35   13.20
   0  -5  -1  502.15   13.30
   0  -5  -1  505.95   12.90
   0  -5   1  495.25   13.30
   0   5   1  503.35   13.20
   0   5   1  513.25   12.90
   0   5   1  486.65   13.30
   0   5  -1  497.65   12.90
   0   5  -1  500.75   13.30
   0   5  -1  499.55   13.30
  -1  -5  -1  408.36   11.00
  -1  -5  -1  393.36   11.10
   1  -5   1  431.26   10.70
   1  -5   1  404.96   11.00
   1  -5   1  422.16   10.80
   1  -5   1  408.46   11.10
  -1  -5  -1  419.46   10.70
   1   5   1  418.76   10.60
  -1   5  -1  400.66   11.10
   1   5   1  392.36   10.90
   1   5   1  416.26   10.70
  -1   5  -1  414.96   11.00
   1   5   1  405.66   11.20
  -1   5  -1  413.76   10.80
  -1   5  -1  423.06   10.70
   1   5   1  414.86   10.60
   2  -5   1  369.16    9.50
   2  -5   1  362.66    9.60
  -2  -5  -1  347.57    9.80
   2  -5   1  365.66    9.50
  -2  -5  -1  363.86    9.40
  -2  -5  -1  348.57    9.60
   2  -5   1  363.96    9.80
  -2   5  -1  371.46    9.50
  -2   5  -1  366.46    9.60
   2   5   1  358.36    9.40
   2   5   1  351.46    9.60
   2   5   1  359.76    9.50
  -2   5  -1  317.37    9.50
   2   5   1  352.66    9.40
   2   5   1  352.96    9.90
  -2   5  -1  352.66    9.80
   3  -5   1   24.50    1.30
  -3  -5  -1   19.30    1.60
  -3  -5  -1   22.00    1.30
   3  -5   1   23.80    1.70
  -3  -5  -1   21.50    1.40
  -3  -5  -1   23.00    1.70
   3  -5   1   23.30    1.40
   3   5   1   23.70    1.70
   3   5   1   23.30    1.30
   3   5   1   21.50    1.20
   3   5   1   22.00    1.40
  -3   5  -1   23.50    1.30
  -3   5  -1   22.60    1.60
  -3   5  -1   24.00    1.40
  -3   5  -1   24.50    1.50
  -4  -5  -1  522.95   14.10
   4  -5   1  538.35   14.60
  -4  -5  -1  515.25   14.40
  -4  -5  -1  521.45   14.40
  -4  -5  -1  527.35   14.20
   4  -5   1  548.55   14.30
   4  -5   1  578.14   14.00
   4   5   1  525.65   14.40
  -4   5  -1  539.75   14.40
   4   5   1  524.85   14.20
   4   5   1  521.25   14.50
   4   5   1  515.65   14.10
  -4   5  -1  540.95   14.10
  -4   5  -1  537.25   14.50
   4   5   1  511.95   14.30
  -4   5  -1  543.25   14.00
   4   5   1  521.25   14.30
   5  -5   1   33.60    2.40
   5  -5   1   32.80    2.30
  -5  -5  -1   37.10    2.30
  -5  -5  -1   35.30    2.30
   5  -5   1   36.90    1.70
  -5  -5  -1   34.50    2.20
  -5  -5  -1   35.50    2.10
  -5   5  -1   31.30    2.00
   5   5   1   32.80    2.20
  -5   5  -1   33.20    2.30
  -5   5  -1   34.30    2.30
   5   5   1   32.80    2.00
   5   5   1   33.90    2.10
   5   5   1   34.50    2.20
   5   5   1   35.10    2.20
   5   5   1   34.90    2.30
  -6  -5  -1   11.80    2.20
  -6  -5  -1   12.40    2.30
   6  -5   1   12.30    2.10
   6  -5   1   10.90    2.50
   6   5   1   12.50    2.00
   6   5   1    9.80    2.00
   6   5   1   11.30    2.00
   6   5   1   11.80    2.30
   6   5   1    8.90    2.10
  -6   5  -1    9.20    2.30
  -6   5  -1   15.30    2.30
   6   5   1   13.80    2.20
   7  -5   1   63.99    3.90
   7  -5   1   76.19    4.00
  -7  -5  -1   72.59    3.90
  -7  -5  -1   76.99    4.00
   7   5   1   67.79    3.80
   7   5   1   71.89    4.00
   7   5   1   74.99    4.00
  -7   5  -1   76.99    4.00
   7   5   1   71.29    3.80
  -7   5  -1   70.59    4.00
   7   5   1   75.79    3.80
  -7  -6   1    1.40    1.80
   7  -6  -1    1.60    1.70
   7  -6  -1    0.60    1.50
   7  -6  -1    0.50    1.60
  -7   6   1    3.50    1.70
   7   6  -1    3.30    1.70
   7   6  -1    0.70    1.60
   7   6  -1    1.60    1.70
   7   6  -1    2.40    1.80
  -7   6   1    0.50    1.70
   6  -6  -1   53.59    3.20
   6  -6  -1   46.80    3.30
  -6  -6   1   54.69    3.60
  -6  -6   1   47.90    2.90
   6   6  -1   48.00    3.00
   6   6  -1   50.89    2.80
  -6   6   1   58.59    3.20
   6   6  -1   55.49    2.80
   6   6  -1   49.99    3.20
   6   6  -1   51.69    3.20
  -6   6   1   51.39    3.20
  -6   6   1   43.60    2.80
   6   6  -1   53.19    3.10
   5  -6  -1   29.90    2.50
   5  -6  -1   28.10    2.40
  -5  -6   1   29.60    2.50
  -5  -6   1   29.80    2.00
  -5  -6   1   31.40    2.30
  -5   6   1   32.20    2.20
   5   6  -1   32.40    2.30
  -5   6   1   33.80    2.50
   5   6  -1   30.90    2.20
  -5   6   1   30.40    2.30
   5   6  -1   29.20    2.30
   5   6  -1   32.80    2.00
   5   6  -1   32.60    2.00
  -4  -6   1  193.18    6.40
  -4  -6   1  209.28    6.30
   4  -6  -1  209.78    6.10
  -4  -6   1  203.38    6.00
   4  -6  -1  202.78    6.40
   4  -6  -1  211.58    5.80
   4   6  -1  194.48    6.40
   4   6  -1  201.48    6.10
  -4   6   1  207.88    6.10
   4   6  -1  197.48    6.20
  -4   6   1  205.58    6.10
   4   6  -1  193.98    5.80
  -4   6   1  197.68    6.30
  -3  -6   1   27.80    1.50
  -3  -6   1   23.40    1.80
   3  -6  -1   23.40    1.50
   3  -6  -1   26.40    1.80
  -3  -6   1   25.60    1.90
   3  -6  -1   26.00    1.60
   3   6  -1   24.50    1.70
   3   6  -1   24.80    1.30
  -3   6   1   24.90    1.50
  -3   6   1   23.50    1.80
  -3   6   1   25.00    1.60
   3   6  -1   22.70    1.30
   3   6  -1   26.30    1.90
   3   6  -1   25.80    1.50
  -2  -6   1  584.84   15.90
   2  -6  -1  596.14   15.30
   2  -6  -1  598.04   15.90
   2  -6  -1  591.84   15.60
  -2  -6   1  597.94   15.50
  -2  -6   1  578.04   15.90
  -2  -6   1  600.54   15.10
   2  -6  -1  597.34   15.40
  -2  -6   1  591.34   15.60
   2   6  -1  589.54   15.90
   2   6  -1  569.94   15.40
   2   6  -1  596.54   15.10
   2   6  -1  583.54   15.50
  -2   6   1  585.94   15.80
  -2   6   1  602.64   15.80
  -2   6   1  596.74   15.30
   2   6  -1  578.54   15.70
   1  -6  -1    5.80    1.20
   1  -6  -1    4.90    1.00
   1  -6  -1    5.10    0.80
  -1  -6   1    4.70    0.90
  -1  -6   1    4.90    1.00
  -1  -6   1    3.70    0.80
  -1   6   1    4.20    1.00
   1   6  -1    5.10    1.00
  -1   6   1    4.90    1.10
   1   6  -1    4.40    0.70
  -1   6   1    4.20    0.80
   1   6  -1    6.40    1.20
   0  -6  -1 1201.08   31.30
   0  -6   1 1202.18   31.20
   0  -6   1 1210.18   31.30
   0  -6  -1 1233.38   30.70
   0  -6  -1 1179.68   31.20
   0  -6   1 1260.57   30.80
   0   6  -1 1169.78   31.20
   0   6   1 1198.48   31.10
   0   6  -1 1202.68   31.30
   0   6  -1 1197.78   30.80
   0   6   1 1233.28   30.70
   0   6   1 1210.28   31.30
   1  -6   1   26.40    1.30
   1  -6   1   24.20    1.60
  -1  -6  -1   26.40    1.10
   1  -6   1   26.60    1.10
  -1  -6  -1   24.60    1.70
   1  -6   1   23.80    1.60
  -1  -6  -1   25.40    1.50
   1   6   1   26.90    1.20
  -1   6  -1   28.10    1.20
  -1   6  -1   26.20    1.20
   1   6   1   25.80    1.10
  -1   6  -1   25.20    1.60
  -1   6  -1   27.20    1.50
   1   6   1   25.90    1.10
   1   6   1   24.80    1.40
   1   6   1   27.20    1.70
  -2  -6  -1  315.67    8.20
  -2  -6  -1  298.07    8.60
  -2  -6  -1  306.77    8.80
   2  -6   1  317.97    8.60
   2  -6   1  312.67    8.80
   2  -6   1  317.97    8.30
   2  -6   1  315.07    8.40
  -2   6  -1  311.27    8.60
  -2   6  -1  308.47    8.40
   2   6   1  310.77    8.20
  -2   6  -1  298.77    8.70
   2   6   1  301.47    8.20
   2   6   1  311.87    8.30
   2   6   1  300.97    8.50
   2   6   1  309.77    8.90
  -2   6  -1  311.47    8.40
  -3  -6  -1  100.69    3.70
  -3  -6  -1  104.39    3.20
   3  -6   1  100.99    3.40
  -3  -6  -1  102.39    3.50
   3  -6   1  104.29    3.80
   3  -6   1  103.69    3.40
   3   6   1  105.19    3.20
  -3   6  -1  105.39    3.50
  -3   6  -1   99.19    3.70
  -3   6  -1  103.69    3.40
   3   6   1  100.09    3.80
   3   6   1   99.09    3.30
   3   6   1  101.59    3.50
   4  -6   1   68.59    3.20
  -4  -6  -1   65.09    3.00
  -4  -6  -1   67.69    2.80
   4  -6   1   70.19    2.70
   4  -6   1   67.49    2.60
  -4  -6  -1   63.29    2.60
  -4  -6  -1   63.49    3.10
   4   6   1   64.79    2.80
  -4   6  -1   65.99    2.70
   4   6   1   65.69    3.00
  -4   6  -1   69.69    2.80
   4   6   1   63.59    2.70
   4   6   1   67.39    3.00
   4   6   1   62.69    2.60
  -4   6  -1   65.69    3.00
   5  -6   1    9.30    2.00
   5  -6   1   10.00    2.10
  -5  -6  -1    9.10    2.00
  -5  -6  -1    6.20    1.50
  -5  -6  -1    7.40    1.60
  -5   6  -1    9.00    2.00
  -5   6  -1    9.50    1.80
   5   6   1   11.10    1.70
   5   6   1    7.50    1.10
   5   6   1    6.10    1.20
   5   6   1    8.50    2.00
   5   6   1    8.30    1.90
  -5   6  -1    7.30    1.90
   5   6   1   10.40    1.80
  -6  -6  -1  441.06   12.70
   6  -6   1  454.75   13.10
   6  -6   1  460.65   12.90
  -6  -6  -1  453.75   13.10
  -6   6  -1  463.05   13.10
  -6   6  -1  457.15   13.00
   6   6   1  451.85   12.60
   6   6   1  451.05   13.00
   6   6   1  455.05   12.70
   6   6   1  443.36   12.80
   6   6   1  438.86   12.80
   6   6   1  442.36   12.90
   7  -6   1    0.50    1.70
   7  -6   1    0.20    1.60
   7   6   1   -1.10    1.60
   7   6   1   -2.30    1.60
  -7   6  -1   -0.60    1.60
   7   6   1   -0.80    1.60
  -7   6  -1    1.90    1.80
   7   6   1    2.90    1.90
   6  -7  -1    4.10    1.60
  -6  -7   1    5.10    1.80
   6  -7  -1    5.70    1.80
  -6  -7   1    4.90    1.60
   6   7  -1    6.10    1.60
   6   7  -1    7.10    1.70
   6   7  -1    7.00    1.60
  -6   7   1    7.50    1.60
   6   7  -1    7.60    1.80
  -6   7   1    5.00    1.70
  -5  -7   1   14.30    1.90
   5  -7  -1   11.30    2.20
   5  -7  -1   17.60    2.40
  -5  -7   1   12.90    2.50
  -5  -7   1   16.20    2.50
   5   7  -1   14.80    1.80
  -5   7   1   11.80    2.10
   5   7  -1   14.30    2.30
  -5   7   1   18.30    2.10
   5   7  -1   15.30    2.00
  -5   7   1   12.70    2.20
   5   7  -1   11.50    2.10
   5   7  -1   15.00    2.10
  -4  -7   1  152.28    5.30
   4  -7  -1  146.59    4.70
   4  -7  -1  146.89    5.20
  -4  -7   1  149.09    5.20
  -4  -7   1  148.49    4.70
   4  -7  -1  152.88    4.90
  -4   7   1  147.39    4.80
   4   7  -1  147.99    5.00
   4   7  -1  147.19    4.40
   4   7  -1  146.69    5.30
  -4   7   1  148.59    4.90
  -4   7   1  145.69    5.20
   4   7  -1  146.09    4.80
  -3  -7   1  202.78    6.60
  -3  -7   1  210.88    6.10
   3  -7  -1  207.18    6.10
   3  -7  -1  211.48    6.20
  -3  -7   1  203.08    6.50
   3  -7  -1  209.68    6.50
  -3   7   1  207.88    6.40
  -3   7   1  205.58    6.30
   3   7  -1  205.18    6.60
   3   7  -1  203.58    6.00
   3   7  -1  205.88    6.30
  -3   7   1  203.38    5.90
   3   7  -1  205.48    5.70
  -2  -7   1    2.60    0.80
   2  -7  -1    3.10    0.80
  -2  -7   1    3.40    0.80
   2  -7  -1    2.60    0.70
  -2  -7   1    2.80    0.90
   2  -7  -1    6.10    1.40
   2  -7  -1    3.20    0.70
  -2   7   1    4.80    1.00
   2   7  -1    3.80    1.00
   2   7  -1    3.10    0.70
  -2   7   1    3.20    0.90
   2   7  -1    5.40    1.20
  -2   7   1    4.90    0.90
   2   7  -1    3.20    0.90
   1  -7  -1  932.51   24.00
   1  -7  -1  958.40   24.60
  -1  -7   1  919.41   24.60
   1  -7  -1  936.41   24.50
  -1  -7   1  933.41   24.00
  -1  -7   1  928.81   24.40
  -1   7   1  946.81   24.50
   1   7  -1  936.81   24.00
  -1   7   1  944.11   24.60
   1   7  -1  910.81   24.50
   1   7  -1  941.71   24.70
  -1   7   1  932.61   24.00
   0  -7   1    2.60    0.80
   0  -7   1    1.10    0.80
   0  -7  -1    2.20    0.50
   0  -7  -1    2.00    0.80
   0  -7  -1    1.00    0.70
   0  -7   1    1.70    0.60
   0   7  -1    3.10    0.80
   0   7   1    0.70    0.70
   0   7  -1    2.10    0.80
   0   7  -1    1.90    0.80
   0   7   1    1.50    0.50
   0   7   1    1.40    0.80
  -1  -7  -1  182.88    5.80
   1  -7   1  180.88    5.20
   1  -7   1  180.38    5.70
   1  -7   1  183.68    5.00
  -1  -7  -1  186.78    5.00
   1  -7   1  182.58    5.70
  -1  -7  -1  178.68    5.60
  -1   7  -1  178.28    5.70
  -1   7  -1  187.18    5.20
   1   7   1  183.78    5.00
  -1   7  -1  180.68    5.60
   1   7   1  181.08    5.50
  -1   7  -1  186.38    5.00
   1   7   1  181.68    5.80
  -2  -7  -1  244.98    6.50
   2  -7   1  241.38    6.60
  -2  -7  -1  238.78    7.00
   2  -7   1  235.68    6.60
   2  -7   1  235.08    7.10
  -2  -7  -1  237.98    7.20
   2  -7   1  235.08    7.00
  -2   7  -1  227.98    6.60
   2   7   1  235.88    7.20
   2   7   1  234.48    6.50
   2   7   1  234.88    6.90
   2   7   1  236.78    6.50
  -2   7  -1  234.38    6.60
   2   7   1  240.38    6.50
  -2   7  -1  239.18    7.10
  -2   7  -1  243.98    7.00
   3  -7   1   20.30    1.60
   3  -7   1   18.40    1.80
   3  -7   1   18.70    2.00
  -3  -7  -1   21.20    1.50
  -3  -7  -1   18.40    1.90
  -3  -7  -1   20.60    1.80
   3   7   1   21.10    2.00
  -3   7  -1   21.20    1.60
   3   7   1   20.20    1.40
   3   7   1   20.50    1.50
   3   7   1   18.70    1.70
  -3   7  -1   21.70    1.90
  -3   7  -1   19.90    1.70
  -4  -7  -1   16.30    2.10
   4  -7   1   13.90    1.70
   4  -7   1   12.00    1.70
  -4  -7  -1   12.80    1.60
   4  -7   1   11.00    2.00
  -4  -7  -1   12.30    1.80
   4   7   1   14.40    2.00
   4   7   1   12.10    1.80
  -4   7  -1   15.60    2.00
   4   7   1   15.80    1.80
  -4   7  -1   17.10    1.80
  -4   7  -1   16.00    1.80
   4   7   1   12.00    1.50
   4   7   1   16.90    1.90
   5  -7   1  216.98    6.70
   5  -7   1  203.68    7.00
  -5  -7  -1  210.88    6.60
  -5  -7  -1  206.78    6.90
   5   7   1  206.08    6.30
  -5   7  -1  211.78    6.40
  -5   7  -1  212.48    6.90
   5   7   1  210.28    6.60
   5   7   1  205.18    6.60
   5   7   1  209.18    6.90
   5   7   1  196.58    6.60
   5   7   1  207.18    7.00
  -5   7  -1  219.38    6.80
   6  -7   1   15.20    2.90
  -6  -7  -1   15.90    3.00
   6  -7   1   15.40    2.60
  -6   7  -1   17.40    2.90
   6   7   1   14.20    2.80
   6   7   1   21.10    2.50
   6   7   1   20.30    2.80
  -6   7  -1   21.60    3.10
   6   7   1   17.30    2.70
   6   7   1   21.70    2.90
   6   7   1   21.50    2.80
  -6  -8   1   19.30    3.40
   6  -8  -1   17.20    2.80
   6  -8  -1   19.80    3.30
  -6  -8   1   10.80    2.00
   6   8  -1   11.10    2.60
   6   8  -1   16.30    3.00
   6   8  -1   14.10    3.10
  -6   8   1   14.40    3.10
   6   8  -1   18.30    3.10
  -5  -8   1  183.88    6.40
   5  -8  -1  180.38    6.40
  -5  -8   1  174.48    5.90
  -5  -8   1  176.68    6.60
   5  -8  -1  182.78    6.10
   5   8  -1  173.28    6.10
   5   8  -1  179.28    6.10
   5   8  -1  188.08    6.00
  -5   8   1  167.48    6.00
  -5   8   1  181.78    6.30
   5   8  -1  178.68    6.20
   5   8  -1  177.78    6.50
   4  -8  -1    0.40    1.20
   4  -8  -1    2.10    1.10
  -4  -8   1    0.10    1.00
  -4  -8   1    1.80    1.30
   4  -8  -1    1.30    0.90
   4   8  -1    1.30    1.20
  -4   8   1    1.00    1.00
   4   8  -1    1.60    1.10
   4   8  -1    1.20    1.00
  -4   8   1    1.10    1.20
  -4   8   1    1.60    1.20
   3  -8  -1  487.85   12.90
  -3  -8   1  482.35   13.20
   3  -8  -1  491.65   13.20
   3  -8  -1  466.45   13.50
  -3  -8   1  483.35   13.60
   3   8  -1  473.75   13.30
  -3   8   1  491.95   13.40
  -3   8   1  484.15   12.80
   3   8  -1  480.05   13.70
   3   8  -1  469.75   12.90
  -3   8   1  473.85   13.50
   2  -8  -1   85.29    3.60
  -2  -8   1   92.39    3.40
   2  -8  -1   88.29    3.50
  -2  -8   1   88.59    3.70
   2  -8  -1   88.39    3.10
  -2   8   1   90.49    2.90
  -2   8   1   90.49    3.70
   2   8  -1   89.29    3.80
   2   8  -1   91.09    3.50
  -2   8   1   91.89    3.60
   2   8  -1   93.99    3.00
  -1  -8   1    1.70    0.90
  -1  -8   1   -0.10    0.80
   1  -8  -1    2.00    0.70
   1  -8  -1    2.10    0.90
   1  -8  -1    3.60    1.00
   1   8  -1    2.50    1.00
   1   8  -1    0.60    0.60
  -1   8   1    2.00    1.00
   1   8  -1    1.60    0.90
  -1   8   1    1.30    0.90
   0  -8   1  179.28    5.70
   0  -8   1  180.88    5.80
   0  -8  -1  175.78    5.80
   0  -8  -1  175.58    5.70
   0  -8  -1  171.18    4.90
   0   8   1  176.28    5.60
   0   8  -1  178.98    5.70
   0   8   1  179.08    5.80
   0   8  -1  184.38    5.00
   0   8  -1  180.48    5.80
   1  -8   1  541.65   14.70
  -1  -8  -1  538.35   14.80
  -1  -8  -1  519.95   13.80
   1  -8   1  534.75   14.70
  -1  -8  -1  527.65   14.60
   1  -8   1  518.15   13.80
   1   8   1  528.85   14.50
  -1   8  -1  531.85   14.60
   1   8   1  534.45   14.80
  -1   8  -1  559.14   14.00
  -1   8  -1  541.35   14.70
   2  -8   1    2.60    1.10
   2  -8   1    3.80    0.80
   2  -8   1    3.90    1.00
  -2  -8  -1    1.20    1.00
  -2  -8  -1    2.80    1.10
  -2  -8  -1    2.10    0.60
   2   8   1    3.20    1.10
  -2   8  -1    2.40    1.00
   2   8   1    2.60    1.00
  -2   8  -1    4.30    0.80
  -2   8  -1    3.40    1.10
   2   8   1    6.20    1.10
   3  -8   1  490.55   13.40
   3  -8   1  495.05   14.10
  -3  -8  -1  501.45   13.80
  -3  -8  -1  489.65   13.20
   3  -8   1  524.75   13.80
  -3  -8  -1  497.75   14.10
  -3   8  -1  509.15   13.80
   3   8   1  490.65   13.30
  -3   8  -1  503.35   14.00
   3   8   1  487.15   13.70
   3   8   1  501.45   14.20
   3   8   1  503.05   13.20
  -3   8  -1  515.45   13.50
   4  -8   1   40.30    2.80
  -4  -8  -1   41.10    3.00
   4  -8   1   39.80    2.50
   4  -8   1   38.30    2.40
  -4  -8  -1   45.50    2.70
  -4   8  -1   40.20    2.50
   4   8   1   42.30    2.90
   4   8   1   39.60    2.40
  -4   8  -1   40.30    2.70
  -4   8  -1   38.10    2.50
   4   8   1   37.60    2.50
   4   8   1   38.20    2.70
   5  -8   1   74.19    3.60
  -5  -8  -1   74.09    3.70
   5  -8   1   79.39    3.80
  -5  -8  -1   73.89    3.90
   5   8   1   78.49    3.70
   5   8   1   66.59    3.80
   5   8   1   73.69    3.70
   5   8   1   70.59    3.70
  -5   8  -1   71.89    3.80
  -5   8  -1   73.89    3.90
  -6  -8  -1   16.70    3.30
  -6  -8  -1   21.80    3.40
   6  -8   1   24.20    3.30
   6  -8   1   23.20    3.00
  -6   8  -1   25.10    3.50
   6   8   1   23.90    3.10
  -6   8  -1   17.00    3.30
   6   8   1   22.40    3.20
   6   8   1   23.10    3.10
   6   8   1   26.40    3.30
  -5  -9   1    1.70    1.60
   5  -9  -1    0.40    1.60
   5  -9  -1    4.50    1.80
  -5   9   1    3.90    1.60
   5   9  -1    2.60    1.60
   5   9  -1    4.00    1.50
  -5   9   1    2.70    1.70
   5   9  -1    3.50    1.70
   4  -9  -1  190.58    6.70
  -4  -9   1  187.48    6.70
  -4  -9   1  194.28    6.30
   4  -9  -1  186.78    6.20
   4  -9  -1  206.48    6.50
   4   9  -1  192.38    6.50
  -4   9   1  190.78    6.70
   4   9  -1  197.88    6.90
  -4   9   1  197.18    6.70
  -3  -9   1    7.20    1.40
   3  -9  -1    8.80    1.50
   3  -9  -1    7.90    1.80
  -3  -9   1   12.20    2.10
   3  -9  -1   10.50    2.30
  -3   9   1   15.00    2.10
   3   9  -1   11.20    2.10
   3   9  -1   11.30    2.00
  -3   9   1    9.00    2.40
   2  -9  -1   75.09    2.80
  -2  -9   1   72.99    3.60
  -2  -9   1   74.39    3.40
   2  -9  -1   75.89    3.50
   2  -9  -1   78.09    3.40
   2   9  -1   73.09    3.60
  -2   9   1   71.49    3.60
   2   9  -1   69.89    3.30
  -2   9   1   78.89    3.50
   1  -9  -1    9.70    1.80
  -1  -9   1   13.70    2.20
   1  -9  -1   14.50    2.10
   1  -9  -1    8.60    1.70
  -1  -9   1   12.30    2.10
   1   9  -1   17.00    1.90
  -1   9   1   13.50    2.20
  -1   9   1   13.10    1.80
   1   9  -1   12.90    2.20
   0  -9   1  136.99    5.00
   0  -9   1  122.69    4.70
   0  -9  -1  135.39    4.90
   0  -9  -1  138.59    5.00
   0   9  -1  140.59    4.80
   0   9   1  136.69    4.80
   0   9   1  139.99    5.10
   0   9  -1  138.19    5.10
  -1  -9  -1   30.30    2.40
   1  -9   1   31.10    2.60
   1  -9   1   26.30    2.20
  -1  -9  -1   25.10    2.40
   1   9   1   29.70    2.40
   1   9   1   31.60    2.20
  -1   9  -1   24.10    2.20
  -1   9  -1   25.90    2.40
  -2  -9  -1  263.77    8.10
  -2  -9  -1  260.27    7.80
   2  -9   1  259.67    7.80
   2  -9   1  264.47    8.00
   2   9   1  226.18    7.60
   2   9   1  256.37    8.10
  -2   9  -1  253.27    7.90
  -2   9  -1  251.17    7.90
  -3  -9  -1    5.10    1.40
   3  -9   1    3.30    1.30
  -3  -9  -1    4.40    1.50
   3  -9   1    4.70    1.40
  -3   9  -1    5.50    1.30
   3   9   1    4.70    1.30
  -3   9  -1    5.00    1.40
   3   9   1    8.30    2.20
  -4  -9  -1  292.27    9.10
  -4  -9  -1  296.17    9.40
   4  -9   1  294.57    9.30
   4  -9   1  315.27    8.90
  -4   9  -1  274.97    8.90
  -4   9  -1  301.17    9.30
   4   9   1  298.17    9.00
   4   9   1  298.17    9.40
   4   9   1  302.17    9.50
   5  -9   1    0.30    1.60
  -5  -9  -1    2.60    1.60
  -5  -9  -1    0.80    1.70
  -5   9  -1    0.70    1.70
   5   9   1    2.70    1.70
   5   9   1    0.10    1.50
   5   9   1    0.60    1.60
   5   9   1    1.30    1.80
   4 -10  -1   21.80    3.10
  -4 -10   1   31.00    3.10
  -4 -10   1   26.70    3.30
   4  10  -1   29.20    3.00
  -4  10   1   30.70    3.50
  -4  10   1   30.30    3.10
   4  10  -1   33.40    3.30
   3 -10  -1   31.60    3.10
  -3 -10   1   26.10    2.90
  -3 -10   1   30.20    3.00
   3 -10  -1   29.50    3.00
  -3  10   1   31.70    3.20
   3  10  -1   23.50    2.80
   3  10  -1   28.80    2.70
  -3  10   1   27.60    2.70
   2 -10  -1  104.59    4.40
  -2 -10   1   99.69    4.50
  -2 -10   1  103.39    4.30
   2 -10  -1   99.39    4.40
  -2  10   1   97.69    4.20
   2  10  -1   98.09    4.20
   2  10  -1  101.69    4.60
  -2  10   1   96.99    4.50
   1 -10  -1    2.80    1.20
   1 -10  -1   -0.10    1.20
  -1 -10   1    1.00    1.40
  -1 -10   1    0.20    1.10
   1  10  -1    0.80    1.20
  -1  10   1    0.10    1.20
  -1  10   1   -0.70    1.40
   1  10  -1    1.10    1.40
   0 -10  -1  176.98    6.30
   0 -10   1  189.08    6.40
   0 -10  -1  183.08    6.40
   0 -10   1  186.98    6.30
   0  10   1  181.88    6.10
   0  10  -1  180.88    6.50
   0  10   1  184.08    6.50
   0  10  -1  179.88    6.20
  -1 -10  -1   23.10    2.70
   1 -10   1   24.70    2.60
   1 -10   1   30.00    2.70
  -1 -10  -1   28.60    2.60
  -1  10  -1   33.30    2.60
  -1  10  -1   27.70    2.90
   1  10   1   29.80    2.80
   1  10   1   29.40    2.50
  -2 -10  -1   28.30    2.70
   2 -10   1   26.00    2.70
   2 -10   1   25.00    2.80
  -2 -10  -1   31.70    2.90
  -2  10  -1   30.60    3.00
   2  10   1   23.70    2.50
   2  10   1   28.70    2.70
  -2  10  -1   26.20    2.60
  -3 -10  -1   65.89    3.70
   3 -10   1   60.19    3.70
   3 -10   1   60.19    3.80
  -3 -10  -1   61.89    3.80
   3  10   1   64.19    3.70
   3  10   1   67.99    3.60
  -3  10  -1   62.29    3.40
  -3  10  -1   65.69    3.80
   3  10   1   64.19    3.70
  -4 -10  -1   13.40    3.00
  -4 -10  -1    9.70    1.90
   4 -10   1    9.90    2.10
   4  10   1   15.40    2.70
   4  10   1   13.60    2.90
  -4  10  -1    8.20    2.10
  -4  10  -1    7.20    1.80
   4  10   1   14.10    2.80
   3 -11  -1   92.19    5.00
  -3 -11   1   87.29    4.80
  -3 -11   1   98.59    4.70
   3 -11  -1  114.99    4.90
  -3  11   1   97.69    4.60
  -3  11   1   99.39    5.10
   3  11  -1  104.99    4.80
   3  11  -1   92.79    4.90
  -2 -11   1   -1.80    1.70
  -2 -11   1   -0.90    1.50
   2 -11  -1    1.50    1.60
   2 -11  -1    1.90    1.70
  -2  11   1   -1.10    1.50
  -2  11   1    1.30    1.90
   2  11  -1    0.10    1.80
   2  11  -1    1.50    1.50
  -1 -11   1  250.17    8.30
  -1 -11   1  265.87    8.50
   1 -11  -1  264.87    8.40
   1 -11  -1  249.18    8.40
  -1  11   1  249.97    8.50
  -1  11   1  252.37    8.20
   1  11  -1  247.18    8.20
   1  11  -1  263.37    8.70
   0 -11   1   -1.20    1.30
   0 -11   1    0.90    1.70
   0 -11  -1    1.50    1.50
   0 -11  -1    2.30    1.40
   0  11   1    2.60    1.50
   0  11  -1   -0.90    1.50
   0  11   1    2.20    1.70
   0  11  -1    1.70    1.40
  -1 -11  -1   97.89    4.50
   1 -11   1   91.69    4.40
  -1 -11  -1   98.79    4.50
   1 -11   1   93.29    4.40
  -1  11  -1   88.69    4.30
   1  11   1   91.29    4.30
   1  11   1   93.59    4.70
  -1  11  -1   92.59    4.70
  -2 -11  -1   13.00    2.30
   2 -11   1   16.50    3.00
   2 -11   1   13.50    3.00
  -2 -11  -1   10.80    2.90
  -2  11  -1   13.70    3.20
  -2  11  -1   19.40    2.60
   2  11   1   10.10    2.10
   2  11   1   15.00    2.80
  -8   0   2  125.89    5.30
  -8   0   2  129.59    5.30
   8   0  -2  125.19    5.40
   8   0  -2  128.39    5.10
   7   0  -2   -0.60    1.10
  -7   0   2   -1.20    1.10
  -7   0   2    0.40    1.00
  -7   0   2   -0.70    1.20
   7   0  -2    0.70    1.20
   7   0  -2    0.20    1.00
  -6   0   2    3.20    1.00
  -6   0   2    2.50    1.10
  -6   0   2    2.00    1.00
   6   0  -2    3.00    1.00
   6   0  -2    1.40    0.90
   6   0  -2    4.10    1.10
   5   0  -2   -0.10    0.70
  -5   0   2    2.00    0.70
  -5   0   2    1.60    0.80
   5   0  -2    1.60    0.70
   5   0  -2   -1.40    0.80
  -5   0   2   -0.50    0.70
  -4   0   2   77.39    2.50
  -4   0   2   71.49    2.70
   4   0  -2   73.79    2.60
  -4   0   2   74.99    2.60
  -4   0   2   74.49    2.70
   4   0  -2   77.59    2.80
   4   0  -2   75.89    2.50
   4   0  -2   72.39    2.60
   3   0  -2   -0.90    0.40
   3   0  -2   -0.20    0.40
  -3   0   2   -0.80    0.50
   3   0  -2   -0.70    0.50
  -3   0   2    0.30    0.40
  -3   0   2   -0.30    0.40
   3   0  -2    0.20    0.40
  -3   0   2   -0.40    0.40
   3   0  -2   -1.20    0.40
   3   0  -2   -0.40    0.40
  -2   0   2 9999.00  259.37
   1   0  -2   -0.60    0.20
  -1   0   2   -0.60    0.20
   1   0  -2   -0.60    0.20
  -1   0   2   -0.30    0.20
  -1   0   2   -0.50    0.20
   1   0  -2   -0.50    0.10
   1   0  -2   -0.50    0.20
   1   0  -2   -0.50    0.10
  -1   0   2   -0.50    0.20
   1   0  -2   -0.50    0.20
  -1   0   2   -0.30    0.20
   0   0   2  621.64   15.80
   0   0  -2  628.14   15.80
   0   0   2  598.94   15.80
   0   0   2  598.84   15.80
   0   0   2  685.83   15.70
   0   0   2  593.04   15.90
   1   0   2   -2.30    0.30
   1   0   2   -2.60    0.40
  -1   0  -2   -3.00    0.40
  -1   0  -2   -2.50    0.40
  -1   0  -2   -2.10    0.30
   1   0   2   -2.50    0.40
   1   0   2   -1.80    0.40
   1   0   2   -3.10    0.30
  -1   0  -2   -3.10    0.30
   1   0   2   -2.00    0.30
  -1   0  -2   -2.40    0.40
  -2   0  -2    7.00    0.60
   2   0   2    6.70    0.60
  -2   0  -2    5.70    0.70
  -2   0  -2    6.80    0.70
   2   0   2    7.10    0.60
   2   0   2    6.70    0.70
   2   0   2    8.10    0.60
  -2   0  -2    7.20    0.60
   2   0   2    6.70    0.70
   3   0   2    0.50    0.40
   3   0   2   -0.20    0.40
   3   0   2    0.10    0.30
  -3   0  -2   -0.20    0.50
  -3   0  -2    0.20    0.30
   3   0   2   -0.20    0.30
  -3   0  -2   -0.50    0.40
   3   0   2   -1.10    0.50
  -3   0  -2   -0.40    0.40
   3   0   2   -0.40    0.30
   3   0   2    0.00    0.50
  -3   0  -2   -0.30    0.40
  -3   0  -2   -0.20    0.30
   3   0   2   -0.40    0.50
   4   0   2 2421.86   59.09
  -4   0  -2 2332.87   59.09
   4   0   2 2375.96   59.09
  -4   0  -2 2313.67   59.59
   4   0   2 2321.07   59.09
   4   0   2 2246.98   59.49
  -4   0  -2 2468.75   59.09
  -4   0  -2 2313.37   59.39
   4   0   2 2246.88   59.49
   5   0   2   -0.50    0.70
  -5   0  -2   -0.70    0.50
  -5   0  -2    0.00    0.70
  -5   0  -2    0.10    0.70
   5   0   2   -1.20    0.60
   5   0   2   -0.40    0.40
   5   0   2    0.30    0.60
   5   0   2    0.00    0.60
   6   0   2  317.97    8.30
   6   0   2  315.27    9.00
  -6   0  -2  316.17    9.20
  -6   0  -2  316.77    9.00
  -6   0  -2  271.47    8.30
   6   0   2  317.77    9.10
   7   0   2    0.40    1.10
  -7   0  -2   -0.10    1.10
   7   0   2    1.20    1.30
  -7   0  -2    1.40    1.50
  -8   0  -2  141.29    5.80
   8   0   2  144.09    5.50
   8   0   2  138.09    5.80
  -8   0  -2  138.89    5.80
   8   0   2  138.89    5.60
   8  -1  -2   26.70    3.00
  -8  -1   2   26.40    2.90
   8  -1  -2   20.40    3.00
   8  -1  -2   24.60    2.60
   8   1  -2   19.60    2.90
   8   1  -2   28.80    2.70
  -8   1   2   21.10    3.00
  -8   1   2   22.90    2.70
  -7  -1   2   32.60    2.70
   7  -1  -2   32.90    2.80
   7  -1  -2   36.00    2.60
  -7  -1   2   37.80    2.40
   7  -1  -2   28.80    2.40
  -7  -1   2   32.30    2.80
  -7   1   2   29.40    2.30
  -7   1   2   30.70    2.70
  -7   1   2   32.70    2.70
   7   1  -2   31.60    2.50
   7   1  -2   37.50    2.30
   7   1  -2   35.20    2.70
  -6  -1   2  253.77    7.70
  -6  -1   2  255.57    7.90
  -6  -1   2  259.37    7.50
   6  -1  -2  251.67    7.90
   6  -1  -2  261.57    7.50
   6  -1  -2  257.87    7.80
   6   1  -2  262.57    7.70
   6   1  -2  255.07    7.90
  -6   1   2  251.37    7.90
  -6   1   2  257.77    7.80
   6   1  -2  254.47    7.30
  -6   1   2  264.57    7.50
  -5  -1   2   69.49    2.80
   5  -1  -2   67.69    2.90
   5  -1  -2   67.79    2.60
  -5  -1   2   69.29    2.70
   5  -1  -2   70.19    2.80
  -5  -1   2   67.99    2.90
   5   1  -2   69.39    2.40
   5   1  -2   66.39    2.70
  -5   1   2   66.99    2.80
  -5   1   2   70.29    2.60
   5   1  -2   70.09    2.90
  -5   1   2   70.19    2.90
   5   1  -2   69.19    2.20
  -4  -1   2   63.59    1.90
  -4  -1   2   64.79    2.30
   4  -1  -2   59.69    2.40
  -4  -1   2   63.39    2.40
  -4  -1   2   64.89    2.10
   4  -1  -2   60.79    2.20
   4  -1  -2   63.59    2.50
   4  -1  -2   63.89    2.40
  -4  -1   2   59.89    2.50
  -4   1   2   61.79    2.50
  -4   1   2   63.59    2.30
   4   1  -2   66.69    2.20
  -4   1   2   62.79    2.30
   4   1  -2   64.09    2.00
   4   1  -2   58.09    2.50
  -4   1   2   61.79    2.40
   4   1  -2   63.99    2.10
   4   1  -2   61.89    2.30
  -3  -1   2 1641.14   41.70
   3  -1  -2 1666.13   42.00
  -3  -1   2 1713.83   41.90
  -3  -1   2 1660.13   42.00
   3  -1  -2 1601.74   41.80
   3  -1  -2 1622.14   41.90
  -3  -1   2 1583.24   41.90
  -3  -1   2 1686.03   41.70
   3  -1  -2 1690.53   41.90
   3  -1  -2 1624.74   42.00
   3  -1  -2 1732.93   42.00
  -3  -1   2 1625.14   42.00
  -3   1   2 1671.93   41.90
  -3   1   2 1686.33   41.80
   3   1  -2 1628.94   41.70
  -3   1   2 1606.94   42.00
   3   1  -2 1707.33   41.90
   3   1  -2 1626.04   41.90
  -3   1   2 1607.24   42.00
  -3   1   2 1639.04   41.90
   3   1  -2 1621.84   42.00
   3   1  -2 1524.15   41.80
   3   1  -2 1674.23   41.70
   3   1  -2 1687.43   42.00
   3   1  -2 1650.33   41.70
   3   1  -2 1648.94   41.90
  -2  -1   2   27.90    1.10
  -2  -1   2   29.40    1.20
  -2  -1   2   28.20    1.00
   2  -1  -2   27.00    1.10
  -2  -1   2   29.30    1.20
   2  -1  -2   29.70    1.10
   2  -1  -2   28.60    1.10
  -2  -1   2   27.90    1.10
   2  -1  -2   30.80    1.20
   2  -1  -2   29.10    1.20
   2  -1  -2   29.00    1.20
  -2   1   2   30.00    1.20
   2   1  -2   26.90    1.10
   2   1  -2   28.40    1.10
  -2   1   2   27.00    1.10
  -2   1   2   27.20    1.10
   2   1  -2   27.50    1.20
   2   1  -2   28.50    1.00
  -2   1   2   29.30    1.20
   2   1  -2   30.40    1.20
   2   1  -2   29.60    0.90
   2   1  -2   29.30    0.90
   2   1  -2   27.40    1.20
  -1  -1   2 1236.18   32.60
  -1  -1   2 1255.07   32.60
  -1  -1   2 1255.27   32.50
  -1  -1   2 1237.28   32.60
  -1  -1   2 1326.07   32.60
   1  -1  -2 1421.96   32.60
   1  -1  -2 1250.17   32.60
   1  -1  -2 1289.07   32.50
   1  -1  -2 1348.97   32.60
   1  -1  -2 1266.87   32.60
   1  -1  -2 1300.37   32.60
  -1   1   2 1296.77   32.50
   1   1  -2 1293.47   32.60
  -1   1   2 1266.47   32.60
   1   1  -2 1262.87   32.60
   1   1  -2 1258.47   32.60
  -1   1   2 1275.07   32.50
  -1   1   2 1399.16   32.60
  -1   1   2 1313.77   32.60
   1   1  -2 1271.07   32.60
  -1   1   2 1256.47   32.60
   1   1  -2 1243.78   32.50
   0  -1  -2  534.95   13.90
   0  -1   2  589.44   14.10
   0  -1  -2  537.35   14.00
   0  -1   2  572.24   14.10
   0  -1  -2  537.65   14.00
   0  -1  -2  556.54   14.10
   0  -1   2  523.35   14.10
   0  -1   2  581.84   14.00
   0  -1   2  530.35   14.00
   0  -1  -2  550.04   14.10
   0  -1   2  533.15   14.00
   0  -1  -2  574.24   14.10
   0   1   2  525.55   13.90
   0   1  -2  576.54   14.10
   0   1  -2  570.54   14.00
   0   1  -2  533.35   14.00
   0   1   2  552.64   14.10
   0   1  -2  549.85   14.10
   0   1   2  544.45   14.10
   0   1   2  543.55   14.00
   0   1  -2  548.15   14.10
   0   1   2  577.74   14.10
   0   1   2  552.04   14.00
  -1  -1  -2  199.88    5.20
   1  -1   2  201.68    5.40
   1  -1   2  206.78    5.30
  -1  -1  -2  189.68    5.30
   1  -1   2  204.18    5.40
   1  -1   2  211.88    5.30
   1  -1   2  203.68    5.30
  -1  -1  -2  204.68    5.30
  -1  -1  -2  194.58    5.30
  -1  -1  -2  194.08    5.30
  -1  -1  -2  192.28    5.30
   1   1   2  202.48    5.30
   1   1   2  203.38    5.20
  -1   1  -2  213.58    5.30
  -1   1  -2  199.78    5.40
  -1   1  -2  207.08    5.30
  -1   1  -2  204.88    5.30
   1   1   2  193.28    5.30
   1   1   2  195.38    5.30
   1   1   2  197.58    5.30
  -1   1  -2  204.68    5.40
   1   1   2  192.38    5.30
   1   1   2  204.98    5.30
   1   1   2  194.58    5.30
   2  -1   2  240.78    6.30
  -2  -1  -2  229.68    6.20
  -2  -1  -2  226.68    6.30
  -2  -1  -2  226.48    6.30
  -2  -1  -2  236.48    6.30
   2  -1   2  243.28    6.30
   2  -1   2  239.58    6.40
  -2  -1  -2  235.78    6.20
   2  -1   2  231.08    6.40
  -2  -1  -2  229.38    6.30
   2  -1   2  234.88    6.30
   2  -1   2  247.48    6.20
  -2   1  -2  235.58    6.30
   2   1   2  230.18    6.30
   2   1   2  229.98    6.20
   2   1   2  234.38    6.20
  -2   1  -2  244.38    6.40
   2   1   2  227.08    6.30
   2   1   2  233.58    6.30
   2   1   2  233.38    6.30
  -2   1  -2  235.18    6.40
  -2   1  -2  238.68    6.30
  -2   1  -2  247.88    6.20
   2   1   2  233.98    6.20
   2   1   2  236.38    6.30
   2   1   2  229.98    6.30
  -3  -1  -2  465.45   11.90
   3  -1   2  471.75   11.90
  -3  -1  -2  447.56   12.10
  -3  -1  -2  457.15   12.00
   3  -1   2  450.35   12.20
  -3  -1  -2  461.05   12.10
   3  -1   2  468.25   12.10
  -3  -1  -2  452.55   12.20
   3  -1   2  456.55   12.10
   3   1   2  436.36   12.20
   3   1   2  451.15   12.10
  -3   1  -2  432.26   12.10
   3   1   2  472.35   12.00
  -3   1  -2  499.85   11.90
  -3   1  -2  456.65   12.20
   3   1   2  461.65   11.90
   3   1   2  445.76   12.10
   3   1   2  453.55   12.10
   3   1   2  467.25   12.00
  -3   1  -2  473.15   12.10
   3   1   2  465.95   12.00
  -4  -1  -2  247.18    7.20
  -4  -1  -2  258.07    6.90
  -4  -1  -2  248.48    7.10
   4  -1   2  245.28    7.20
   4  -1   2  244.58    7.30
  -4  -1  -2  257.07    7.40
   4  -1   2  274.37    6.80
   4  -1   2  254.67    6.80
  -4   1  -2  280.67    6.90
  -4   1  -2  261.97    7.20
   4   1   2  249.08    7.20
   4   1   2  258.57    7.00
  -4   1  -2  264.57    6.80
   4   1   2  253.97    7.20
  -4   1  -2  249.48    7.40
   4   1   2  260.37    7.00
   4   1   2  255.87    7.00
  -5  -1  -2  250.97    7.40
   5  -1   2  261.37    6.70
   5  -1   2  252.57    7.30
   5  -1   2  259.97    6.70
   5  -1   2  261.67    6.70
  -5  -1  -2  253.57    7.20
   5  -1   2  247.58    7.30
  -5  -1  -2  226.08    6.80
  -5   1  -2  254.77    7.50
   5   1   2  247.08    7.30
   5   1   2  249.08    7.20
  -5   1  -2  253.67    6.70
   5   1   2  247.08    6.90
  -5   1  -2  250.47    7.30
   5   1   2  248.28    6.90
   5   1   2  227.38    6.80
  -6  -1  -2    1.20    1.00
  -6  -1  -2    1.20    1.00
   6  -1   2   -0.10    1.00
   6  -1   2    2.20    1.00
  -6  -1  -2    0.20    0.80
  -6   1  -2    0.40    1.00
   6   1   2    0.80    1.00
  -6   1  -2    0.80    0.70
  -6   1  -2    0.70    1.00
   6   1   2   -0.20    0.70
   6   1   2   -0.10    0.90
   7  -1   2  206.38    6.80
  -7  -1  -2  208.38    6.80
  -7  -1  -2  204.78    7.00
   7  -1   2  210.68    6.80
   7   1   2  185.58    6.60
   7   1   2  210.58    6.80
  -7   1  -2  214.08    7.00
  -7   1  -2  208.38    6.90
   7   1   2  204.78    7.00
   8  -1   2   28.40    3.30
   8  -1   2   28.00    3.00
  -8  -1  -2   28.20    3.50
  -8  -1  -2   22.20    3.40
   8  -1   2   25.50    3.20
   8   1   2   25.20    2.70
   8   1   2   26.70    3.10
  -8   1  -2   24.80    3.30
  -8   1  -2   23.20    3.10
   8   1   2   26.80    3.20
  -8  -2   2    0.00    1.70
  -8  -2   2    0.40    1.50
   8  -2  -2    1.30    1.70
   8  -2  -2   -2.60    1.40
   8  -2  -2    1.60    1.60
   8   2  -2    2.20    1.50
  -8   2   2    2.30    1.80
  -8   2   2    3.10    1.50
   8   2  -2    0.00    1.50
   7  -2  -2  314.57    9.30
   7  -2  -2  323.77    9.50
   7  -2  -2  312.37    9.80
  -7  -2   2  325.87    9.30
  -7  -2   2  321.27    9.60
   7   2  -2  313.87    9.00
  -7   2   2  318.17    9.60
  -7   2   2  312.57    9.60
   7   2  -2  321.07    9.40
  -7   2   2  310.87    9.10
   7   2  -2  304.27    9.70
   6  -2  -2   -1.00    1.10
   6  -2  -2   -1.70    0.80
  -6  -2   2   -0.40    1.00
   6  -2  -2   -0.70    0.90
  -6  -2   2    0.20    0.90
  -6  -2   2    1.30    1.10
  -6   2   2    0.40    1.00
   6   2  -2   -0.20    0.60
  -6   2   2    0.40    0.90
   6   2  -2    0.00    0.80
  -6   2   2   -1.10    0.80
   6   2  -2    2.00    0.90
   6   2  -2    0.40    1.00
  -5  -2   2  310.77    8.80
   5  -2  -2  310.57    8.80
   5  -2  -2  305.77    8.70
  -5  -2   2  316.57    8.30
  -5  -2   2  309.37    8.80
  -5  -2   2  312.37    8.90
   5  -2  -2  307.27    8.90
  -5   2   2  311.97    8.90
   5   2  -2  291.37    8.40
   5   2  -2  310.07    8.70
   5   2  -2  309.37    8.40
  -5   2   2  303.37    8.80
  -5   2   2  310.37    8.60
   5   2  -2  303.07    8.30
   5   2  -2  313.67    9.00
   5   2  -2  317.87    8.30
   4  -2  -2    1.00    0.50
   4  -2  -2    0.60    0.70
  -4  -2   2    0.50    0.40
   4  -2  -2    0.00    0.60
   4  -2  -2    1.00    0.60
  -4  -2   2    1.00    0.60
  -4  -2   2    1.60    0.60
  -4   2   2    0.30    0.60
   4   2  -2    1.60    0.50
   4   2  -2    1.70    0.70
   4   2  -2    2.60    0.60
   4   2  -2    1.10    0.60
   4   2  -2    1.30    0.50
  -4   2   2    1.00    0.60
  -4   2   2    1.40    0.50
   3  -2  -2  446.66   11.60
  -3  -2   2  436.66   11.50
  -3  -2   2  422.06   11.70
   3  -2  -2  425.46   11.60
   3  -2  -2  444.56   11.60
   3  -2  -2  452.05   11.60
  -3  -2   2  432.36   11.60
  -3  -2   2  436.26   11.40
   3  -2  -2  453.65   11.60
   3   2  -2  437.46   11.50
  -3   2   2  443.36   11.60
  -3   2   2  436.76   11.70
   3   2  -2  439.56   11.50
   3   2  -2  429.16   11.30
   3   2  -2  431.66   11.50
   3   2  -2  421.66   11.70
  -3   2   2  447.56   11.60
   3   2  -2  440.56   11.70
   3   2  -2  448.56   11.30
  -3   2   2  436.86   11.60
  -2  -2   2    7.00    0.50
   2  -2  -2    6.80    0.70
  -2  -2   2    5.40    0.50
  -2  -2   2    6.50    0.60
   2  -2  -2    6.60    0.70
   2  -2  -2    5.40    0.70
   2  -2  -2    6.20    0.60
   2  -2  -2    5.90    0.60
  -2  -2   2    6.60    0.70
  -2  -2   2    5.60    0.70
  -2  -2   2    6.00    0.80
   2  -2  -2    6.20    0.50
   2  -2  -2    6.10    0.70
  -2   2   2    6.00    0.70
  -2   2   2    6.80    0.70
   2   2  -2    6.80    0.70
   2   2  -2    7.10    0.80
   2   2  -2    5.90    0.50
  -2   2   2    7.90    0.70
  -2   2   2    6.50    0.50
   2   2  -2    6.60    0.70
  -2   2   2    5.60    0.60
   2   2  -2    5.50    0.80
  -2   2   2    6.00    0.70
   2   2  -2    6.30    0.70
   2   2  -2    5.90    0.70
  -2   2   2    5.50    0.50
   2   2  -2    6.00    0.60
   2   2  -2    4.30    0.60
  -1  -2   2  153.98    4.30
  -1  -2   2  155.38    4.10
  -1  -2   2  147.19    4.30
   1  -2  -2  162.58    4.10
   1  -2  -2  159.98    4.30
   1  -2  -2  165.18    4.20
   1  -2  -2  156.58    4.30
  -1  -2   2  153.48    4.40
   1  -2  -2  161.68    4.20
  -1  -2   2  160.18    4.30
   1  -2  -2  155.18    4.30
   1  -2  -2  157.18    4.30
  -1  -2   2  134.39    4.10
   1   2  -2  148.69    4.30
  -1   2   2  154.58    4.30
  -1   2   2  166.08    4.20
  -1   2   2  156.88    4.30
  -1   2   2  161.18    4.30
  -1   2   2  153.38    4.30
   1   2  -2  153.38    4.10
   1   2  -2  153.28    4.30
   1   2  -2  157.78    4.30
   1   2  -2  156.68    4.10
   1   2  -2  154.18    4.30
  -1   2   2  165.28    4.20
  -1   2   2  163.18    4.20
   1   2  -2  158.18    4.30
   0  -2   2   36.50    1.30
   0  -2   2   37.40    1.30
   0  -2   2   39.10    1.30
   0  -2  -2   39.00    1.20
   0  -2  -2   39.20    1.30
   0  -2  -2   39.30    1.30
   0  -2  -2   38.00    1.30
   0  -2   2   42.90    1.30
   0  -2  -2   38.90    1.20
   0   2  -2   42.20    1.30
   0   2   2   37.20    1.30
   0   2   2   39.80    1.20
   0   2   2   37.10    1.30
   0   2  -2   38.60    1.30
   0   2   2   39.70    1.30
   0   2  -2   39.50    1.40
   0   2  -2   39.70    1.30
   0   2  -2   38.50    1.30
   0   2   2   39.30    1.30
   0   2   2   39.70    1.20
  -1  -2  -2  968.50   25.70
  -1  -2  -2 1011.20   25.80
  -1  -2  -2 1008.30   25.70
  -1  -2  -2  989.00   25.80
   1  -2   2  999.70   25.80
   1  -2   2 1089.89   25.80
   1  -2   2 1007.70   25.70
  -1  -2  -2  969.00   25.90
   1  -2   2 1006.10   25.90
   1  -2   2 1064.79   25.80
   1  -2   2 1080.39   25.70
  -1  -2  -2  964.40   25.70
  -1   2  -2 1038.50   25.90
  -1   2  -2 1026.50   25.70
  -1   2  -2 1058.79   25.80
   1   2   2  957.30   25.70
   1   2   2 1014.30   25.80
  -1   2  -2 1045.70   25.80
   1   2   2  983.00   25.80
  -1   2  -2 1036.60   25.80
  -1   2  -2 1080.99   25.70
   1   2   2 1008.90   25.70
   1   2   2  956.80   25.70
   1   2   2  975.00   25.90
  -1   2  -2 1059.59   25.70
   1   2   2 1003.40   25.80
   1   2   2  959.00   25.70
   1   2   2 1003.90   25.90
  -2  -2  -2   -0.30    0.40
   2  -2   2    0.60    0.40
   2  -2   2    0.00    0.30
   2  -2   2    0.80    0.50
  -2  -2  -2   -0.20    0.30
   2  -2   2   -0.10    0.30
   2  -2   2   -0.50    0.40
  -2  -2  -2   -0.50    0.30
   2  -2   2   -0.40    0.40
  -2  -2  -2   -0.10    0.30
   2  -2   2   -0.20    0.50
  -2  -2  -2   -0.60    0.30
  -2  -2  -2   -0.40    0.30
   2   2   2   -0.40    0.40
   2   2   2   -0.70    0.40
   2   2   2   -0.30    0.30
  -2   2  -2   -0.60    0.40
   2   2   2   -0.70    0.30
   2   2   2   -0.90    0.40
  -2   2  -2   -0.30    0.20
   2   2   2   -0.10    0.30
   2   2   2    0.20    0.40
  -2   2  -2   -0.30    0.40
  -2   2  -2    0.00    0.40
   2   2   2   -0.70    0.40
   2   2   2   -0.50    0.30
  -2   2  -2   -0.50    0.30
   2   2   2    0.40    0.40
  -3  -2  -2 3199.58   81.79
   3  -2   2 3265.77   81.99
  -3  -2  -2 3118.79   81.89
   3  -2   2 3208.58   81.89
  -3  -2  -2 3188.88   81.89
  -3  -2  -2 3147.98   81.89
   3  -2   2 3275.97   81.69
  -3  -2  -2 3169.48   81.79
   3   2   2 3275.87   81.79
   3   2   2 3196.98   81.89
   3   2   2 3126.09   81.89
   3   2   2 3314.67   81.79
   3   2   2 3325.77   81.89
  -3   2  -2 3485.75   81.69
   3   2   2 3206.08   81.79
  -3   2  -2 3312.77   81.89
   3   2   2 3217.88   81.79
   3   2   2 3162.78   81.89
  -3   2  -2 3336.57   81.99
   3   2   2 3186.88   81.89
  -4  -2  -2   14.80    1.20
  -4  -2  -2   15.10    1.40
   4  -2   2   16.70    0.90
  -4  -2  -2   18.60    1.10
   4  -2   2   15.80    1.40
   4  -2   2   15.70    1.00
   4  -2   2   15.70    1.40
  -4  -2  -2   17.10    1.20
   4   2   2   13.20    1.20
  -4   2  -2   15.40    1.30
   4   2   2   15.30    1.20
   4   2   2   14.40    1.30
  -4   2  -2   16.70    1.00
   4   2   2   14.70    1.10
   4   2   2   14.70    1.30
   4   2   2   15.40    1.10
  -4   2  -2   14.20    1.30
   5  -2   2   45.20    1.60
  -5  -2  -2   42.80    2.00
  -5  -2  -2   42.80    2.30
   5  -2   2   42.80    1.70
  -5  -2  -2   40.00    2.10
   5  -2   2   42.30    2.30
   5  -2   2   45.70    2.20
   5   2   2   42.10    1.90
  -5   2  -2   43.20    1.60
  -5   2  -2   43.80    2.30
  -5   2  -2   43.50    2.20
   5   2   2   48.00    2.30
   5   2   2   44.40    2.10
  -5   2  -2   44.20    1.70
   5   2   2   42.90    1.90
   6  -2   2    2.50    1.00
   6  -2   2    3.70    1.10
  -6  -2  -2    2.50    1.00
  -6  -2  -2    3.60    1.10
  -6  -2  -2    3.70    1.20
   6   2   2    3.10    1.00
   6   2   2    1.60    0.90
   6   2   2    3.20    0.80
  -6   2  -2    2.90    1.00
   6   2   2   -0.20    1.00
  -6   2  -2    4.10    1.20
   6   2   2    3.60    1.00
   7  -2   2   51.69    3.20
  -7  -2  -2   50.49    3.30
  -7  -2  -2   58.69    3.40
   7  -2   2   60.29    3.20
  -7   2  -2   57.89    3.30
   7   2   2   51.09    3.10
   7   2   2   61.09    3.40
  -7   2  -2   55.09    3.40
   7   2   2   56.59    3.20
   8  -2   2   -0.40    1.60
   8  -2   2   -0.90    1.70
  -8  -2  -2    0.00    1.70
  -8  -2  -2   -1.80    1.80
   8   2   2    0.30    1.40
  -8   2  -2   -1.60    1.60
   8   2   2    2.50    1.50
   8   2   2   -0.70    1.70
  -8   2  -2   -2.10    1.60
   8  -3  -2   50.49    3.50
   8  -3  -2   53.69    3.80
   8  -3  -2   45.10    3.70
  -8  -3   2   46.20    3.60
  -8  -3   2   50.99    3.60
  -8   3   2   43.20    3.70
  -8   3   2   51.59    3.50
   8   3  -2   46.70    3.30
   8   3  -2   45.30    3.40
   7  -3  -2   14.10    2.20
   7  -3  -2   18.30    2.40
  -7  -3   2    9.80    2.30
  -7  -3   2   11.60    2.40
   7  -3  -2   16.30    2.60
   7   3  -2   12.70    2.20
   7   3  -2   10.80    2.40
  -7   3   2   13.80    2.30
   7   3  -2   12.30    2.00
  -7   3   2   14.00    2.10
  -7   3   2   15.80    2.30
   6  -3  -2  363.66   10.70
  -6  -3   2  376.36   10.70
  -6  -3   2  382.36   10.70
   6  -3  -2  366.06   10.60
  -6  -3   2  357.06   10.10
   6  -3  -2  363.86   10.80
   6   3  -2  373.36   10.50
  -6   3   2  375.76   10.40
  -6   3   2  378.26   10.70
  -6   3   2  373.26   10.80
   6   3  -2  375.56   10.10
   6   3  -2  373.36   10.20
   6   3  -2  377.76   10.90
  -5  -3   2   92.89    3.40
  -5  -3   2   92.99    3.40
  -5  -3   2   87.99    3.10
   5  -3  -2   94.69    3.50
   5  -3  -2   95.69    3.50
   5  -3  -2   90.29    3.40
   5   3  -2   88.29    3.20
   5   3  -2   95.39    3.60
  -5   3   2   93.99    3.50
   5   3  -2   89.59    3.00
  -5   3   2   90.69    3.30
  -5   3   2   93.39    3.50
  -4  -3   2  389.36   10.90
   4  -3  -2  393.66   10.80
   4  -3  -2  389.46   10.80
  -4  -3   2  402.66   10.60
  -4  -3   2  396.66   10.80
   4   3  -2  402.76   10.90
   4   3  -2  402.76   10.90
  -4   3   2  393.56   10.90
   4   3  -2  389.46   10.40
   4   3  -2  389.86   10.60
  -4   3   2  393.56   10.80
  -4   3   2  398.76   10.70
   4   3  -2  401.56   10.40
  -3  -3   2  410.86   11.20
   3  -3  -2  426.36   11.10
  -3  -3   2  409.26   11.30
   3  -3  -2  439.06   10.70
  -3  -3   2  419.06   10.90
   3  -3  -2  414.76   11.20
   3  -3  -2  423.46   11.10
   3  -3  -2  409.96   11.10
  -3  -3   2  403.36   11.10
   3   3  -2  420.26   10.90
  -3   3   2  428.66   10.70
  -3   3   2  410.86   11.20
   3   3  -2  415.56   11.20
   3   3  -2  406.56   11.10
   3   3  -2  413.46   11.20
   3   3  -2  416.06   11.00
   3   3  -2  423.96   11.00
  -3   3   2  416.66   11.10
   3   3  -2  415.56   10.90
  -3   3   2  427.76   11.10
  -2  -3   2    0.10    0.40
   2  -3  -2    0.80    0.50
  -2  -3   2    1.30    0.50
   2  -3  -2    1.00    0.40
   2  -3  -2    0.40    0.30
  -2  -3   2    0.10    0.40
   2  -3  -2    0.40    0.50
  -2  -3   2    0.40    0.40
   2  -3  -2    2.50    0.60
  -2  -3   2    0.30    0.30
   2  -3  -2    0.20    0.30
  -2   3   2   -0.30    0.30
   2   3  -2    0.30    0.30
   2   3  -2    0.20    0.30
   2   3  -2   -0.10    0.40
  -2   3   2    0.80    0.40
   2   3  -2    0.10    0.50
   2   3  -2    0.60    0.30
   2   3  -2    0.10    0.30
  -2   3   2   -0.30    0.30
  -2   3   2   -0.40    0.40
   2   3  -2    0.80    0.50
  -2   3   2    0.20    0.50
  -2   3   2    0.50    0.40
   2   3  -2   -0.30    0.40
   2   3  -2   -0.40    0.40
  -1  -3   2   85.39    2.40
   1  -3  -2   81.09    2.50
  -1  -3   2   80.59    2.60
   1  -3  -2   83.49    2.50
   1  -3  -2   90.59    2.30
   1  -3  -2   84.39    2.30
  -1  -3   2   84.49    2.50
   1  -3  -2   83.69    2.50
  -1  -3   2   79.59    2.60
   1  -3  -2   83.49    2.60
   1  -3  -2   85.19    2.60
   1   3  -2   83.69    2.50
  -1   3   2   86.69    2.50
  -1   3   2   81.39    2.60
   1   3  -2   82.89    2.70
   1   3  -2   83.99    2.50
   1   3  -2   81.99    2.70
  -1   3   2   85.89    2.50
  -1   3   2   82.99    2.50
   1   3  -2   84.99    2.60
  -1   3   2   91.69    2.30
  -1   3   2   86.59    2.60
   0  -3   2 2156.98   54.99
   0  -3  -2 2145.49   54.99
   0  -3  -2 2165.38   54.89
   0  -3   2 2224.98   54.99
   0  -3  -2 2197.18   55.09
   0  -3   2 2301.07   54.89
   0  -3   2 2040.50   54.99
   0  -3  -2 2151.18   54.99
   0  -3   2 2118.69   54.99
   0  -3  -2 2199.28   54.89
   0   3   2 2150.28   55.09
   0   3  -2 2191.48   54.99
   0   3  -2 2164.18   54.89
   0   3   2 2167.28   54.89
   0   3  -2 2192.48   55.09
   0   3  -2 2182.68   54.99
   0   3   2 2187.88   54.89
   0   3   2 2217.08   54.99
   0   3  -2 2166.98   54.99
   0   3  -2 2151.68   54.99
   0   3   2 2161.28   54.99
   1  -3   2  354.66    9.40
  -1  -3  -2  351.26    9.20
   1  -3   2  361.06    9.30
  -1  -3  -2  351.76    9.20
   1  -3   2  360.36    9.20
  -1  -3  -2  347.47    9.40
  -1  -3  -2  347.37    9.10
  -1  -3  -2  350.16    9.40
   1  -3   2  357.56    9.40
   1  -3   2  354.26    9.20
   1  -3   2  365.46    9.40
  -1  -3  -2  353.46    9.40
  -1   3  -2  361.76    9.30
   1   3   2  361.96    9.20
  -1   3  -2  370.06    9.30
   1   3   2  352.56    9.40
   1   3   2  344.47    9.20
   1   3   2  350.36    9.40
  -1   3  -2  368.16    9.40
   1   3   2  349.57    9.40
   1   3   2  341.87    9.10
   1   3   2  347.37    9.20
   1   3   2  341.07    9.10
  -1   3  -2  363.36    9.40
  -1   3  -2  361.86    9.30
  -1   3  -2  362.76    9.40
   1   3   2  346.47    9.40
  -1   3  -2  355.86    9.20
   1   3   2  359.06    9.40
   2  -3   2  798.12   19.80
   2  -3   2  778.52   19.70
  -2  -3  -2  734.13   19.80
   2  -3   2  813.52   19.70
   2  -3   2  773.32   19.90
   2  -3   2  793.32   19.70
  -2  -3  -2  742.53   19.70
  -2  -3  -2  729.83   19.80
  -2  -3  -2  743.53   19.70
   2  -3   2  776.02   19.80
   2  -3   2  817.92   19.60
   2   3   2  726.73   19.60
   2   3   2  752.92   19.70
  -2   3  -2  713.13   19.90
   2   3   2  747.93   19.70
   2   3   2  738.33   19.70
  -2   3  -2  795.32   19.80
   2   3   2  718.73   19.80
   2   3   2  756.32   19.80
   2   3   2  738.33   19.80
  -2   3  -2  800.32   19.70
   2   3   2  746.43   19.80
  -2   3  -2  832.72   19.60
  -2   3  -2  784.32   19.60
  -2   3  -2  768.42   19.80
   2   3   2  761.92   19.80
  -2   3  -2  808.32   19.70
   3  -3   2  179.28    4.80
  -3  -3  -2  165.48    4.90
  -3  -3  -2  171.08    5.00
   3  -3   2  185.18    4.70
  -3  -3  -2  170.48    4.90
  -3  -3  -2  168.58    4.90
  -3  -3  -2  165.68    5.00
   3  -3   2  175.28    5.20
  -3  -3  -2  171.28    5.00
   3  -3   2  176.28    5.00
   3   3   2  171.78    5.00
  -3   3  -2  182.18    4.80
  -3   3  -2  173.68    5.10
   3   3   2  164.78    5.00
   3   3   2  166.78    4.90
   3   3   2  169.98    5.00
  -3   3  -2  179.68    4.70
   3   3   2  168.78    5.00
  -3   3  -2  174.58    5.10
   3   3   2  166.88    4.90
   3   3   2  158.58    5.00
  -4  -3  -2  495.35   13.80
  -4  -3  -2  501.55   13.70
  -4  -3  -2  499.35   13.70
   4  -3   2  565.84   13.40
   4  -3   2  523.05   13.80
   4  -3   2  530.75   13.40
  -4  -3  -2  498.45   13.70
   4  -3   2  507.85   14.00
   4   3   2  506.25   13.70
  -4   3  -2  537.05   13.40
   4   3   2  497.05   13.80
  -4   3  -2  527.75   14.00
   4   3   2  509.45   13.80
   4   3   2  502.05   13.80
   4   3   2  509.45   13.70
  -4   3  -2  531.65   13.90
  -4   3  -2  530.65   13.40
  -5  -3  -2   62.69    2.60
   5  -3   2   65.39    2.90
   5  -3   2   66.49    2.80
  -5  -3  -2   62.99    2.70
  -5  -3  -2   65.29    2.60
  -5  -3  -2   65.39    2.90
  -5   3  -2   64.89    2.90
   5   3   2   66.59    2.70
   5   3   2   63.89    2.60
  -5   3  -2   62.29    2.10
   5   3   2   65.69    2.70
   5   3   2   63.49    2.90
   5   3   2   64.99    2.60
  -5   3  -2   66.89    2.80
  -6  -3  -2    7.50    2.10
  -6  -3  -2    9.10    1.80
   6  -3   2    9.10    1.90
  -6  -3  -2   11.40    1.70
   6  -3   2   10.90    2.20
   6   3   2   14.00    1.80
   6   3   2    7.00    1.80
   6   3   2    7.20    1.90
   6   3   2    9.30    1.60
   6   3   2   10.10    1.80
  -6   3  -2    8.60    1.90
  -6   3  -2    8.00    1.90
   7  -3   2  133.09    5.30
   7  -3   2  134.19    5.30
  -7  -3  -2  137.99    5.50
  -7  -3  -2  141.89    5.30
   7   3   2  142.69    5.20
   7   3   2  142.79    5.50
  -7   3  -2  147.79    5.50
  -7   3  -2  139.49    5.40
   7   3   2  146.89    5.20
  -8  -3  -2   19.30    3.40
   8  -3   2   24.50    3.40
   8  -3   2   21.40    3.10
  -8  -3  -2   19.10    3.40
   8   3   2   20.90    3.10
  -8   3  -2   19.00    3.20
  -8   3  -2   24.50    3.00
   8   3   2   25.70    3.00
   8   3   2   17.50    2.90
   8  -4  -2   48.00    3.80
   8  -4  -2   49.20    3.70
   8  -4  -2   45.70    4.00
  -8  -4   2   42.40    3.80
  -8  -4   2   45.50    3.70
  -8   4   2   49.50    3.70
   8   4  -2   45.50    3.50
  -8   4   2   49.99    3.80
   8   4  -2   43.00    3.50
   8   4  -2   50.09    3.60
   7  -4  -2    4.60    1.40
   7  -4  -2    1.10    1.60
  -7  -4   2    3.10    1.60
  -7  -4   2    3.00    1.50
   7  -4  -2    3.00    1.50
   7   4  -2    3.00    1.50
   7   4  -2    4.90    1.40
  -7   4   2    2.70    1.40
  -7   4   2    6.00    1.60
   7   4  -2    1.20    1.30
   6  -4  -2    0.90    1.10
   6  -4  -2    2.10    1.20
  -6  -4   2    2.20    1.30
  -6  -4   2    0.00    0.90
   6  -4  -2    1.10    1.10
  -6  -4   2    0.50    1.30
  -6   4   2   -1.50    1.00
   6   4  -2    1.40    1.10
   6   4  -2    1.20    0.90
  -6   4   2    1.60    1.10
   6   4  -2   -0.40    0.90
   6   4  -2   -1.50    0.80
  -6   4   2    0.90    1.00
   6   4  -2   -0.90    1.00
  -5  -4   2   27.50    2.00
  -5  -4   2   23.40    1.70
  -5  -4   2   23.60    1.90
   5  -4  -2   20.80    1.90
   5  -4  -2   22.80    1.90
   5  -4  -2   25.50    1.90
   5   4  -2   23.50    1.60
  -5   4   2   23.70    1.90
   5   4  -2   26.60    1.90
  -5   4   2   21.40    1.70
  -5   4   2   19.20    1.90
   5   4  -2   24.20    1.70
   5   4  -2   25.90    2.00
  -4  -4   2  236.28    7.00
   4  -4  -2  246.68    7.00
   4  -4  -2  242.18    7.00
  -4  -4   2  235.28    7.10
  -4  -4   2  234.78    6.60
  -4  -4   2  247.98    6.90
  -4   4   2  236.88    7.10
  -4   4   2  240.48    6.90
   4   4  -2  233.68    6.60
   4   4  -2  243.68    6.70
   4   4  -2  240.78    6.60
   4   4  -2  245.88    7.00
   4   4  -2  239.18    7.00
  -4   4   2  246.38    6.90
  -3  -4   2   37.50    1.80
   3  -4  -2   27.70    1.30
   3  -4  -2   28.90    1.60
   3  -4  -2   31.40    1.70
  -3  -4   2   33.70    1.60
   3  -4  -2   30.10    1.60
  -3  -4   2   37.60    1.40
   3   4  -2   36.10    1.70
   3   4  -2   35.40    1.50
   3   4  -2   37.80    1.50
  -3   4   2   30.50    1.60
   3   4  -2   35.70    1.40
  -3   4   2   29.70    1.50
  -3   4   2   31.60    1.70
  -3   4   2   27.50    1.40
   2  -4  -2 2094.89   50.89
  -2  -4   2 1989.80   50.79
  -2  -4   2 1945.31   50.99
   2  -4  -2 1976.00   50.89
   2  -4  -2 2100.49   50.79
  -2  -4   2 2044.10   50.89
  -2  -4   2 1909.11   51.09
   2  -4  -2 2033.20   51.09
  -2   4   2 2025.30   50.99
   2   4  -2 1731.33   50.89
   2   4  -2 1997.10   50.59
   2   4  -2 1969.00   50.99
  -2   4   2 2043.30   50.79
  -2   4   2 2110.99   50.89
   2   4  -2 1967.30   50.59
   2   4  -2 2038.90   50.89
  -2   4   2 1990.80   50.99
   2   4  -2 2001.80   50.79
  -2   4   2 2119.99   50.89
  -1  -4   2    8.70    0.70
   1  -4  -2   11.20    1.00
  -1  -4   2    8.50    0.90
   1  -4  -2    8.10    0.70
  -1  -4   2    7.90    0.80
  -1  -4   2    7.40    0.90
   1  -4  -2    9.40    0.80
  -1  -4   2    7.80    0.90
   1  -4  -2    9.60    0.90
   1  -4  -2    8.30    0.80
  -1   4   2    8.10    0.90
  -1   4   2    8.30    0.80
  -1   4   2    7.20    0.90
  -1   4   2   10.70    0.80
   1   4  -2    7.70    1.00
   1   4  -2    8.90    0.70
   1   4  -2    8.20    0.80
   1   4  -2    8.40    0.80
   1   4  -2    8.80    0.80
  -1   4   2    9.00    0.80
   1   4  -2    6.90    1.00
   0  -4   2  628.04   17.70
   0  -4  -2  701.83   17.60
   0  -4  -2  679.93   17.80
   0  -4   2  686.33   17.80
   0  -4  -2  683.23   17.80
   0  -4   2  675.13   17.80
   0  -4  -2  686.63   17.50
   0  -4   2  729.73   17.60
   0  -4   2  683.33   17.70
   0  -4  -2  678.13   17.80
   0   4  -2  681.43   17.80
   0   4  -2  668.13   17.70
   0   4  -2  700.73   17.70
   0   4   2  692.23   17.70
   0   4   2  705.03   17.50
   0   4  -2  690.83   17.60
   0   4   2  704.13   17.80
   0   4  -2  719.03   17.80
   0   4  -2  627.64   17.70
   0   4   2  671.83   17.80
   0   4   2  675.73   17.70
   1  -4   2  162.78    4.70
   1  -4   2  163.48    4.70
  -1  -4  -2  163.08    4.50
   1  -4   2  165.08    4.60
   1  -4   2  166.98    4.40
   1  -4   2  165.08    4.40
  -1  -4  -2  157.48    4.70
  -1  -4  -2  154.38    4.70
  -1  -4  -2  168.58    4.60
  -1   4  -2  162.38    4.60
   1   4   2  159.58    4.80
   1   4   2  165.58    4.30
  -1   4  -2  167.88    4.60
  -1   4  -2  161.38    4.70
   1   4   2  150.88    4.70
   1   4   2  159.18    4.50
   1   4   2  163.68    4.50
  -1   4  -2  164.28    4.60
   1   4   2  164.28    4.30
  -1   4  -2  161.88    4.80
  -1   4  -2  166.28    4.40
  -1   4  -2  162.78    4.70
  -2  -4  -2    1.10    0.50
  -2  -4  -2    1.20    0.40
  -2  -4  -2    0.80    0.50
   2  -4   2    1.50    0.50
   2  -4   2    1.60    0.50
   2  -4   2    2.50    0.70
   2  -4   2    3.10    0.90
   2  -4   2    1.40    0.50
   2  -4   2    1.40    0.60
  -2  -4  -2    0.20    0.40
   2   4   2    1.20    0.50
  -2   4  -2    1.50    0.50
   2   4   2    1.90    0.50
   2   4   2    1.10    0.40
  -2   4  -2    2.30    0.70
   2   4   2    0.90    0.50
  -2   4  -2    2.10    0.60
   2   4   2    1.70    0.50
  -2   4  -2    1.70    0.60
  -2   4  -2    1.70    0.50
  -2   4  -2    2.20    0.60
   2   4   2    1.90    0.60
   2   4   2    1.80    0.50
   3  -4   2   49.00    2.20
  -3  -4  -2   48.00    1.90
  -3  -4  -2   49.50    1.90
  -3  -4  -2   47.90    2.10
   3  -4   2   48.50    2.00
   3  -4   2   54.09    1.90
   3  -4   2   54.49    1.90
  -3  -4  -2   50.09    2.00
  -3  -4  -2   47.40    2.10
  -3   4  -2   54.39    1.90
   3   4   2   50.79    1.90
   3   4   2   46.20    2.10
  -3   4  -2   49.70    2.00
   3   4   2   45.30    1.90
  -3   4  -2   50.39    1.80
   3   4   2   45.10    2.00
   3   4   2   46.30    2.10
  -3   4  -2   49.30    2.10
  -3   4  -2   49.99    1.90
  -4  -4  -2  638.74   17.30
  -4  -4  -2  628.94   17.20
   4  -4   2  691.03   17.00
   4  -4   2  642.64   17.50
  -4  -4  -2  646.84   17.30
   4  -4   2  677.03   17.30
  -4  -4  -2  639.24   17.30
  -4  -4  -2  634.44   17.20
  -4  -4  -2  641.44   17.30
   4  -4   2  704.73   16.90
   4   4   2  643.64   17.30
   4   4   2  639.34   17.30
   4   4   2  646.04   17.30
   4   4   2  632.04   17.20
   4   4   2  629.14   17.20
  -4   4  -2  693.83   16.90
   4   4   2  633.44   17.30
  -4   4  -2  666.23   17.00
  -4   4  -2  662.93   17.40
  -4   4  -2  668.93   17.40
  -5  -4  -2    1.80    0.90
   5  -4   2    1.30    1.00
  -5  -4  -2    2.00    0.90
  -5  -4  -2    1.40    0.80
   5  -4   2    0.40    0.60
  -5  -4  -2    0.10    0.80
   5  -4   2    0.70    0.90
   5   4   2    1.10    0.80
   5   4   2    0.60    0.70
  -5   4  -2    0.70    0.90
   5   4   2    1.00    0.80
  -5   4  -2    1.90    0.60
   5   4   2    1.40    0.90
   5   4   2    0.80    0.90
   5   4   2   -0.20    0.80
  -5   4  -2    1.10    0.90
   6  -4   2  343.47   10.00
  -6  -4  -2  344.87    9.70
  -6  -4  -2  339.87    9.80
  -6  -4  -2  314.27    9.90
   6  -4   2  346.47   10.10
  -6   4  -2  334.27   10.10
   6   4   2  335.77    9.80
  -6   4  -2  350.96   10.10
   6   4   2  346.87    9.80
   6   4   2  358.46    9.70
   6   4   2  356.36    9.80
   6   4   2  303.57    9.90
   6   4   2  338.47    9.80
   7  -4   2    3.20    1.50
  -7  -4  -2    4.60    1.60
   7  -4   2    3.00    1.60
  -7  -4  -2    6.30    1.50
  -7  -4  -2    4.50    1.70
   7   4   2    4.40    1.30
   7   4   2    2.50    1.50
  -7   4  -2    3.40    1.50
  -7   4  -2    4.60    1.50
   7   4   2    5.10    1.50
   7   4   2    4.30    1.60
   7   4   2    0.70    1.30
  -7  -5   2   19.50    3.20
   7  -5  -2   21.90    2.80
   7  -5  -2   16.70    2.60
  -7  -5   2   25.90    2.90
   7  -5  -2   14.20    3.10
  -7   5   2   21.90    2.80
   7   5  -2   24.20    2.80
   7   5  -2   19.60    3.00
   7   5  -2   18.50    2.70
   7   5  -2   22.60    2.70
  -7   5   2   18.10    2.80
   6  -5  -2   43.80    3.00
   6  -5  -2   42.10    2.90
  -6  -5   2   43.50    2.50
  -6  -5   2   51.39    3.10
   6  -5  -2   46.20    2.90
  -6  -5   2   48.40    3.00
   6   5  -2   46.50    2.60
   6   5  -2   46.80    2.80
  -6   5   2   45.70    2.80
  -6   5   2   45.20    2.90
   6   5  -2   49.70    2.40
  -6   5   2   44.60    2.50
   6   5  -2   43.80    2.80
   6   5  -2   45.50    2.60
   5  -5  -2  134.39    4.70
  -5  -5   2  136.99    4.50
   5  -5  -2  136.29    4.60
  -5  -5   2  135.39    4.90
  -5  -5   2  131.49    4.70
   5  -5  -2  137.29    4.70
   5   5  -2  137.89    4.70
  -5   5   2  135.49    4.60
   5   5  -2  135.09    4.70
   5   5  -2  136.09    4.30
  -5   5   2  141.89    4.50
  -5   5   2  142.29    4.80
   5   5  -2  126.49    4.30
   4  -5  -2  117.29    4.10
  -4  -5   2  117.59    4.20
   4  -5  -2  114.49    4.00
   4  -5  -2  120.69    3.50
  -4  -5   2  120.99    4.00
  -4  -5   2  121.09    3.70
  -4   5   2  120.09    4.00
  -4   5   2  120.69    3.90
   4   5  -2  115.29    4.00
   4   5  -2  115.59    3.60
  -4   5   2  113.79    3.40
   4   5  -2  118.59    4.10
  -4   5   2  117.89    3.60
   4   5  -2  119.09    3.70
  -4   5   2  116.59    4.10
   3  -5  -2  840.92   22.10
  -3  -5   2  816.52   22.00
  -3  -5   2  821.92   22.10
   3  -5  -2  848.02   21.90
  -3  -5   2  841.62   21.70
   3  -5  -2  886.71   21.70
   3  -5  -2  843.82   21.70
  -3   5   2  840.72   22.10
  -3   5   2  870.21   21.80
  -3   5   2  868.71   21.70
   3   5  -2  842.52   21.50
   3   5  -2  804.12   21.70
   3   5  -2  834.42   22.20
   3   5  -2  824.62   21.90
   3   5  -2  829.42   22.00
  -3   5   2  831.42   22.00
   3   5  -2  844.52   21.50
  -2  -5   2   11.70    1.20
   2  -5  -2   12.10    1.00
  -2  -5   2   11.50    1.20
   2  -5  -2   10.90    1.00
  -2  -5   2   12.60    1.00
  -2  -5   2   11.50    1.20
   2  -5  -2   11.80    1.20
   2  -5  -2   13.80    0.90
  -2   5   2   11.00    1.20
   2   5  -2   13.90    1.30
   2   5  -2   14.60    1.20
   2   5  -2   12.40    1.20
  -2   5   2   12.10    0.90
  -2   5   2   12.30    1.10
  -2   5   2   11.60    1.10
   2   5  -2   12.40    1.10
   2   5  -2   11.20    1.20
   1  -5  -2  525.95   13.20
  -1  -5   2  497.95   13.50
  -1  -5   2  500.65   13.50
  -1  -5   2  520.55   13.20
   1  -5  -2  498.15   13.50
   1  -5  -2  501.25   13.40
  -1  -5   2  505.95   13.30
  -1   5   2  514.45   13.20
   1   5  -2  500.45   13.40
  -1   5   2  506.05   13.40
   1   5  -2  502.25   13.30
  -1   5   2  509.35   13.50
   1   5  -2  522.35   13.30
   1   5  -2  490.45   13.50
   0  -5  -2  463.05   12.30
   0  -5   2  459.65   12.30
   0  -5  -2  421.96   12.10
   0  -5  -2  466.95   11.90
   0  -5   2  456.85   12.20
   0  -5  -2  448.66   12.20
   0  -5   2  481.75   12.00
   0   5  -2  461.05   12.00
   0   5   2  460.75   12.10
   0   5   2  460.35   12.30
   0   5   2  474.05   11.90
   0   5  -2  454.65   12.30
   0   5  -2  456.35   12.20
   1  -5   2  303.77    7.90
   1  -5   2  287.67    8.10
  -1  -5  -2  284.07    8.00
   1  -5   2  302.17    7.60
   1  -5   2  295.87    7.60
  -1  -5  -2  289.47    7.90
   1  -5   2  285.47    8.10
  -1  -5  -2  282.27    8.10
  -1  -5  -2  294.97    7.70
  -1   5  -2  295.17    8.00
   1   5   2  288.97    8.20
  -1   5  -2  295.37    7.60
   1   5   2  290.07    7.70
   1   5   2  287.57    7.90
  -1   5  -2  294.67    7.90
  -1   5  -2  288.57    8.10
  -2  -5  -2   64.49    2.10
   2  -5   2   67.59    2.20
   2  -5   2   65.09    2.50
   2  -5   2   65.19    2.20
  -2  -5  -2   64.39    2.50
   2  -5   2   58.69    2.30
   2  -5   2   67.29    2.40
  -2  -5  -2   63.29    2.40
   2  -5   2   62.49    2.40
   2   5   2   65.49    2.30
  -2   5  -2   64.79    2.30
   2   5   2   65.19    2.20
   2   5   2   61.89    2.20
  -2   5  -2   64.39    2.30
   2   5   2   63.09    2.10
  -2   5  -2   65.49    2.20
  -2   5  -2   63.19    2.50
   2   5   2   63.89    2.50
  -2   5  -2   66.59    2.30
   3  -5   2  189.68    5.30
   3  -5   2  187.48    5.30
  -3  -5  -2  175.38    5.20
  -3  -5  -2  176.98    5.40
   3  -5   2  185.88    5.30
  -3  -5  -2  174.98    5.50
   3  -5   2  182.28    5.60
   3   5   2  175.28    5.50
  -3   5  -2  179.78    5.50
   3   5   2  178.28    5.20
  -3   5  -2  186.78    5.20
   3   5   2  178.58    5.60
  -3   5  -2  176.28    5.30
  -3   5  -2  190.38    5.20
   3   5   2  171.78    5.20
   4  -5   2   86.69    2.80
   4  -5   2   82.89    2.90
   4  -5   2   82.79    3.00
  -4  -5  -2   79.69    3.00
  -4  -5  -2   79.19    3.10
  -4  -5  -2   78.49    2.90
   4  -5   2   82.29    3.30
  -4  -5  -2   79.69    3.00
  -4   5  -2   85.29    3.20
   4   5   2   77.89    3.20
  -4   5  -2   82.29    2.80
   4   5   2   77.09    3.00
   4   5   2   80.09    2.90
   4   5   2   74.19    3.00
   4   5   2   81.39    3.00
  -4   5  -2   82.29    2.90
  -4   5  -2   82.29    3.30
   4   5   2   81.69    3.20
  -5  -5  -2  296.97    8.60
  -5  -5  -2  304.57    8.60
  -5  -5  -2  287.77    8.50
   5  -5   2  264.67    8.80
  -5  -5  -2  304.97    8.70
   5  -5   2  315.17    8.10
  -5  -5  -2  303.47    8.80
   5  -5   2  316.27    8.70
  -5  -5  -2  297.47    8.60
  -5   5  -2  272.97    8.80
   5   5   2  295.67    8.60
   5   5   2  286.97    8.50
   5   5   2  302.17    8.60
  -5   5  -2  310.37    8.80
   5   5   2  303.17    8.80
   5   5   2  301.87    8.60
  -5   5  -2  293.07    8.20
   5   5   2  296.57    8.70
  -6  -5  -2    2.00    1.30
  -6  -5  -2    3.60    1.30
   6  -5   2    2.20    1.40
   6  -5   2    1.50    1.30
   6   5   2    2.30    1.30
   6   5   2    2.60    1.30
  -6   5  -2    2.20    1.30
   6   5   2    3.60    1.30
   6   5   2    4.60    1.20
   6   5   2    2.00    1.20
  -6   5  -2    2.80    1.30
   6   5   2    2.40    1.10
  -7  -5  -2  184.78    6.50
   7  -5   2  182.98    6.60
   7  -5   2  185.78    6.60
   7   5   2  186.88    6.50
   7   5   2  181.98    6.50
  -7   5  -2  190.08    6.70
   7   5   2  197.18    6.60
  -7   5  -2  182.18    6.60
   7   5   2  189.88    6.70
   7   5   2  178.48    6.40
   7  -6  -2   69.29    4.00
   7  -6  -2   65.09    4.20
  -7  -6   2   66.89    4.30
   7  -6  -2   67.09    3.90
   7   6  -2   68.59    4.10
   7   6  -2   71.59    4.00
  -7   6   2   68.59    4.00
   7   6  -2   69.19    4.00
   7   6  -2   64.69    3.80
  -7   6   2   65.79    4.00
   6  -6  -2    0.40    1.40
   6  -6  -2    0.70    1.20
  -6  -6   2    0.70    1.50
  -6  -6   2    1.10    1.20
   6  -6  -2    0.10    1.30
   6   6  -2    1.00    1.10
   6   6  -2    0.00    1.30
   6   6  -2    0.90    1.30
   6   6  -2   -2.30    1.20
  -6   6   2    1.60    1.30
  -6   6   2   -1.20    1.20
   6   6  -2   -0.90    1.20
  -6   6   2    1.00    1.30
   5  -6  -2  164.38    5.50
  -5  -6   2  164.58    5.70
   5  -6  -2  165.58    5.50
  -5  -6   2  165.58    5.40
   5  -6  -2  164.38    5.30
  -5  -6   2  154.58    5.00
  -5   6   2  161.68    5.60
   5   6  -2  164.18    5.70
   5   6  -2  164.58    5.00
  -5   6   2  159.38    5.30
  -5   6   2  166.08    5.30
   5   6  -2  159.58    5.50
   5   6  -2  164.98    5.00
   5   6  -2  164.78    5.50
  -4  -6   2    9.70    1.70
   4  -6  -2    9.30    1.60
   4  -6  -2   10.80    1.30
  -4  -6   2    9.70    1.40
  -4  -6   2    8.90    1.70
   4  -6  -2   13.30    1.70
  -4   6   2   12.50    1.70
   4   6  -2    9.50    1.70
  -4   6   2   10.50    1.30
   4   6  -2   10.70    1.20
   4   6  -2   13.00    1.50
  -4   6   2    9.70    1.50
   4   6  -2   13.20    1.60
  -4   6   2   11.50    1.60
   3  -6  -2  128.39    3.90
  -3  -6   2  121.99    4.30
   3  -6  -2  128.09    3.90
   3  -6  -2  122.79    4.30
   3  -6  -2  129.89    4.00
  -3  -6   2  119.99    3.90
  -3  -6   2  125.99    4.30
   3   6  -2  127.69    4.00
  -3   6   2  123.59    4.20
   3   6  -2  123.39    4.20
   3   6  -2  121.19    3.60
  -3   6   2  122.39    4.20
  -3   6   2  127.39    3.80
   3   6  -2  119.39    4.30
   3   6  -2  126.89    3.60
   2  -6  -2   45.00    2.20
   2  -6  -2   46.20    2.00
  -2  -6   2   45.20    2.20
  -2  -6   2   46.20    1.90
  -2  -6   2   48.70    2.30
   2  -6  -2   47.00    1.70
   2  -6  -2   46.50    1.90
  -2   6   2   47.00    2.20
  -2   6   2   46.90    1.70
   2   6  -2   48.80    1.90
   2   6  -2   47.70    2.10
   2   6  -2   46.00    2.30
  -2   6   2   41.40    2.10
  -1  -6   2   81.59    3.10
  -1  -6   2   80.99    3.10
   1  -6  -2   82.49    2.60
   1  -6  -2   80.39    3.00
   1  -6  -2   81.59    2.90
  -1  -6   2   82.09    2.80
  -1  -6   2   83.59    2.70
  -1   6   2   80.69    2.70
   1   6  -2   82.99    3.10
   1   6  -2   81.19    3.00
   1   6  -2   83.69    2.70
  -1   6   2   80.29    2.90
  -1   6   2   81.99    3.10
   0  -6  -2   79.89    2.50
   0  -6  -2   75.99    2.90
   0  -6   2   75.39    2.80
   0  -6  -2   80.09    2.90
   0  -6   2   81.29    2.60
   0  -6   2   77.29    2.90
   0   6  -2   77.59    2.90
   0   6   2   77.79    2.70
   0   6   2   77.89    2.50
   0   6  -2   75.09    2.80
   0   6   2   76.39    3.00
   0   6  -2   81.09    2.50
  -1  -6  -2  332.77    9.30
  -1  -6  -2  328.77    9.40
   1  -6   2  339.67    9.00
  -1  -6  -2  338.27    8.90
   1  -6   2  335.27    9.30
   1  -6   2  341.67    8.70
   1  -6   2  327.17    9.30
   1  -6   2  341.37    8.70
   1   6   2  335.67    9.40
  -1   6  -2  336.87    9.20
  -1   6  -2  340.57    8.70
   1   6   2  328.87    9.10
  -1   6  -2  333.27    9.30
  -1   6  -2  301.67    8.90
   1   6   2  346.07    8.90
   2  -6   2    2.60    0.50
   2  -6   2    1.30    0.70
   2  -6   2    2.50    0.70
  -2  -6  -2    2.50    0.80
   2  -6   2    7.30    1.30
  -2  -6  -2    1.70    0.70
  -2  -6  -2    2.00    0.60
  -2   6  -2    3.90    1.00
   2   6   2    2.90    0.50
  -2   6  -2    4.00    1.00
  -2   6  -2    3.50    0.70
   2   6   2    2.40    0.70
   2   6   2    3.70    1.00
   2   6   2    2.50    0.90
   2   6   2    3.20    0.60
  -2   6  -2    1.40    0.70
   3  -6   2  503.35   13.20
  -3  -6  -2  487.75   13.30
   3  -6   2  495.15   13.60
   3  -6   2  508.65   13.10
  -3  -6  -2  493.75   13.00
  -3  -6  -2  481.85   13.50
  -3   6  -2  501.05   13.10
   3   6   2  483.65   13.20
  -3   6  -2  494.45   13.50
   3   6   2  483.05   13.50
   3   6   2  482.45   13.50
  -3   6  -2  491.15   13.20
   3   6   2  481.45   13.00
   4  -6   2   31.10    1.90
  -4  -6  -2   29.10    2.20
  -4  -6  -2   31.30    1.90
   4  -6   2   31.80    2.30
  -4  -6  -2   31.30    2.10
   4  -6   2   25.20    1.90
  -4   6  -2   27.40    2.00
   4   6   2   30.50    1.90
  -4   6  -2   27.80    2.20
   4   6   2   30.70    2.20
   4   6   2   30.40    1.90
   4   6   2   27.60    2.20
  -4   6  -2   27.70    1.90
   4   6   2   30.60    1.90
   5  -6   2   54.69    3.10
   5  -6   2   57.69    3.00
  -5  -6  -2   51.39    2.60
   5  -6   2   60.99    2.50
  -5  -6  -2   56.19    3.00
  -5  -6  -2   58.59    2.80
   5   6   2   55.09    2.90
  -5   6  -2   58.09    3.00
  -5   6  -2   49.30    2.60
   5   6   2   53.39    2.70
   5   6   2   53.79    2.80
   5   6   2   52.09    2.60
   5   6   2   48.80    3.00
   5   6   2   52.79    2.70
  -5   6  -2   53.79    3.00
   6  -6   2   25.50    3.00
   6  -6   2   23.30    2.70
   6   6   2   19.70    2.70
   6   6   2   28.40    2.80
   6   6   2   31.70    2.70
   6   6   2   26.80    2.60
  -6   6  -2   28.90    2.90
   6   6   2   32.00    2.80
   6   6   2   28.60    2.90
  -6   6  -2   26.40    2.80
   7  -6   2    0.30    1.70
   7  -6   2    3.00    1.60
   7   6   2    1.80    1.80
   7   6   2    5.70    2.00
  -7   6  -2    5.00    1.90
   7   6   2    3.40    1.80
   7   6   2    4.80    1.80
   7   6   2    0.30    1.70
   7   6   2   -0.20    1.90
  -7   6  -2   -0.60    1.70
   6  -7  -2  177.98    6.30
  -6  -7   2  191.88    6.50
   6  -7  -2  189.58    6.60
  -6  -7   2  184.48    6.80
   6  -7  -2  184.58    6.50
  -6   7   2  189.38    6.60
   6   7  -2  184.58    6.40
  -6   7   2  174.08    6.30
  -6   7   2  195.28    6.40
   6   7  -2  188.48    6.50
   6   7  -2  179.08    6.70
   6   7  -2  187.08    6.50
  -5  -7   2   40.30    2.40
  -5  -7   2   42.50    3.20
   5  -7  -2   45.80    3.00
   5  -7  -2   44.40    2.60
  -5  -7   2   44.70    3.10
   5  -7  -2   41.80    2.90
  -5   7   2   45.00    2.70
   5   7  -2   49.30    2.40
  -5   7   2   49.30    3.00
   5   7  -2   48.50    3.00
  -5   7   2   48.30    2.70
   5   7  -2   43.80    2.80
   5   7  -2   46.60    2.70
  -4  -7   2  128.59    4.80
   4  -7  -2  135.09    4.50
  -4  -7   2  134.29    5.00
   4  -7  -2  133.19    4.20
   4  -7  -2  127.39    4.80
  -4  -7   2  128.49    4.30
   4   7  -2  128.59    4.00
   4   7  -2  129.69    4.90
   4   7  -2  127.79    4.60
   4   7  -2  129.49    4.50
  -4   7   2  139.49    4.70
  -4   7   2  128.89    4.70
  -4   7   2  134.49    4.30
  -3  -7   2  137.79    4.80
  -3  -7   2  138.89    4.40
   3  -7  -2  130.49    4.80
   3  -7  -2  141.69    4.40
   3  -7  -2  141.09    4.40
  -3  -7   2  132.29    4.80
   3   7  -2  138.49    4.60
  -3   7   2  144.09    4.70
  -3   7   2  136.79    4.20
  -3   7   2  133.39    4.70
   3   7  -2  137.09    4.40
   3   7  -2  133.19    4.90
  -2  -7   2   -0.20    0.80
   2  -7  -2    0.90    0.70
  -2  -7   2    0.50    0.70
   2  -7  -2    0.60    0.60
  -2  -7   2    0.20    0.80
   2  -7  -2   -0.20    0.80
  -2   7   2    0.70    0.90
  -2   7   2    0.00    0.80
   2   7  -2   -0.10    0.70
   2   7  -2    0.40    0.60
   2   7  -2    0.10    0.80
   1  -7  -2   98.49    3.70
   1  -7  -2  102.09    3.20
  -1  -7   2  104.49    3.40
  -1  -7   2  107.19    3.60
  -1  -7   2  107.09    3.90
   1  -7  -2  100.19    3.70
  -1   7   2  102.79    3.80
   1   7  -2  105.69    3.80
   1   7  -2  110.49    3.30
  -1   7   2  101.89    3.60
   1   7  -2  110.69    3.70
   0  -7   2  526.05   13.90
   0  -7   2  523.05   14.40
   0  -7  -2  524.45   13.80
   0  -7  -2  527.65   14.30
   0  -7   2  530.15   14.20
   0  -7  -2  527.65   14.40
   0   7  -2  538.55   14.40
   0   7  -2  523.85   13.80
   0   7   2  531.45   14.40
   0   7   2  535.25   14.20
   0   7  -2  517.75   14.30
   0   7   2  537.95   13.80
   1  -7   2  160.68    4.70
  -1  -7  -2  155.28    5.00
   1  -7   2  155.28    5.00
   1  -7   2  154.38    5.00
  -1  -7  -2  149.49    5.10
  -1  -7  -2  157.58    4.50
   1   7   2  156.28    4.50
  -1   7  -2  158.98    5.00
  -1   7  -2  160.48    4.30
   1   7   2  154.38    5.10
   1   7   2  157.28    4.90
  -1   7  -2  160.68    5.00
  -1   7  -2  153.88    4.60
  -2  -7  -2  233.48    6.50
  -2  -7  -2  232.38    7.00
   2  -7   2  235.38    6.50
   2  -7   2  237.78    7.10
  -2  -7  -2  231.88    7.20
   2  -7   2  237.38    7.00
   2  -7   2  240.58    6.50
  -2   7  -2  238.88    6.70
  -2   7  -2  228.98    7.00
   2   7   2  236.88    6.40
   2   7   2  232.78    6.80
  -2   7  -2  238.08    6.90
   2   7   2  233.18    6.30
  -2   7  -2  234.58    6.50
   2   7   2  237.38    7.20
  -3  -7  -2   56.19    2.30
  -3  -7  -2   55.29    2.90
  -3  -7  -2   56.89    2.70
   3  -7   2   59.89    2.60
   3  -7   2   57.59    2.40
   3  -7   2   60.59    2.90
   3   7   2   54.99    2.30
   3   7   2   58.29    2.50
  -3   7  -2   57.09    2.70
  -3   7  -2   56.79    2.60
  -3   7  -2   58.89    2.50
   3   7   2   57.79    2.90
   3   7   2   61.69    2.90
  -4  -7  -2  164.18    5.40
   4  -7   2  174.48    5.20
   4  -7   2  173.38    5.20
  -4  -7  -2  158.28    5.60
   4  -7   2  168.28    5.70
  -4  -7  -2  161.58    5.00
  -4   7  -2  166.58    5.20
   4   7   2  161.08    5.60
  -4   7  -2  171.58    5.40
   4   7   2  160.88    5.10
   4   7   2  159.18    5.30
   4   7   2  148.59    5.60
  -4   7  -2  164.18    5.60
   4   7   2  163.98    5.10
  -5  -7  -2  120.09    4.80
   5  -7   2  117.09    4.70
  -5  -7  -2  115.69    4.20
  -5  -7  -2  122.09    4.50
   5  -7   2  125.09    4.50
   5   7   2  118.79    4.20
   5   7   2  114.99    4.30
   5   7   2  109.59    4.40
   5   7   2  118.49    4.70
  -5   7  -2  123.69    4.70
   5   7   2  113.29    4.40
  -5   7  -2  123.59    4.70
   5   7   2  114.49    4.70
   6  -7   2    4.10    1.60
   6  -7   2    4.80    1.70
   6   7   2    4.00    1.50
   6   7   2    5.90    1.70
  -6   7  -2    4.00    1.80
   6   7   2    4.70    1.80
   6   7   2    4.40    1.80
  -6   7  -2    2.30    1.70
   6   7   2    1.40    1.50
   6   7   2    3.30    1.60
  -6  -8   2   13.40    3.20
   6  -8  -2    8.50    1.80
   6  -8  -2   12.70    3.20
  -6  -8   2    9.80    2.10
  -6   8   2   13.80    2.90
   6   8  -2    9.20    1.80
   6   8  -2   13.90    2.70
   6   8  -2   12.20    2.90
   6   8  -2    8.40    1.90
   5  -8  -2   27.30    2.90
  -5  -8   2   23.10    3.00
   5  -8  -2   32.60    2.90
  -5  -8   2   21.50    2.80
   5   8  -2   28.30    2.80
   5   8  -2   25.60    2.80
   5   8  -2   26.30    2.60
  -5   8   2   23.40    2.70
  -5   8   2   25.70    2.60
   4  -8  -2   49.90    2.50
   4  -8  -2   46.60    2.90
   4  -8  -2   48.00    2.60
  -4  -8   2   49.50    2.50
  -4  -8   2   48.70    3.10
  -4  -8   2   45.80    3.10
  -4   8   2   52.09    2.90
  -4   8   2   39.70    2.50
  -4   8   2   48.60    3.00
   4   8  -2   48.80    2.80
   4   8  -2   45.80    3.00
   4   8  -2   44.60    2.60
   3  -8  -2   20.80    2.20
  -3  -8   2   20.50    2.40
  -3  -8   2   21.10    2.20
   3  -8  -2   21.30    1.80
  -3  -8   2   22.80    1.90
   3  -8  -2   21.90    2.00
   3   8  -2   25.10    2.30
   3   8  -2   25.30    2.00
  -3   8   2   19.90    2.10
   3   8  -2   25.20    2.00
  -3   8   2   19.80    2.30
   2  -8  -2  979.20   25.00
   2  -8  -2  883.41   25.10
   2  -8  -2  959.80   24.60
  -2  -8   2  915.91   25.20
  -2  -8   2  981.40   24.90
   2   8  -2  959.20   24.60
   2   8  -2  931.31   25.30
  -2   8   2  966.00   25.10
   2   8  -2  947.21   25.10
  -2   8   2  971.00   25.20
  -1  -8   2   18.70    2.00
   1  -8  -2   21.10    1.50
  -1  -8   2   18.50    1.80
   1  -8  -2   20.80    1.90
   1  -8  -2   18.10    1.90
   1   8  -2   23.20    1.40
  -1   8   2   18.30    1.80
   1   8  -2   20.50    2.00
   1   8  -2   19.70    1.80
  -1   8   2   21.10    2.00
   0  -8  -2  111.49    4.10
   0  -8  -2  106.39    3.40
   0  -8  -2  109.89    4.10
   0  -8   2  110.89    4.10
   0  -8   2  114.29    4.00
   0   8   2  114.39    4.30
   0   8   2  110.69    3.90
   0   8  -2  111.39    4.20
   0   8  -2  112.09    3.50
   0   8  -2  109.19    4.00
  -1  -8  -2  119.69    4.30
   1  -8   2  118.09    4.30
  -1  -8  -2  119.79    4.40
  -1  -8  -2  117.39    3.60
   1  -8   2  118.49    4.40
  -1   8  -2  117.69    4.30
  -1   8  -2  123.89    3.80
   1   8   2  122.99    4.10
  -1   8  -2  120.09    4.30
   1   8   2  122.49    4.50
  -2  -8  -2   19.50    2.00
   2  -8   2   24.70    2.10
  -2  -8  -2   21.00    2.10
   2  -8   2   23.20    2.10
   2  -8   2   23.60    1.50
  -2  -8  -2   21.10    1.50
   2   8   2   24.50    1.90
  -2   8  -2   23.30    1.70
   2   8   2   19.00    2.10
  -2   8  -2   18.50    1.90
  -2   8  -2   23.10    2.00
  -3  -8  -2   84.79    3.80
   3  -8   2   87.49    3.50
  -3  -8  -2   85.29    3.10
  -3  -8  -2   84.89    3.60
   3  -8   2   82.49    3.10
   3  -8   2   86.69    3.80
   3   8   2   82.29    3.70
  -3   8  -2   87.19    3.30
   3   8   2   87.99    3.80
  -3   8  -2   88.39    3.40
  -3   8  -2   79.69    3.60
   3   8   2   80.99    3.40
  -4  -8  -2  365.26   10.20
  -4  -8  -2  370.96   10.70
   4  -8   2  368.56   10.30
   4  -8   2  376.66   11.00
  -4  -8  -2  360.46   10.90
   4  -8   2  382.76   10.50
  -4   8  -2  357.56   10.80
  -4   8  -2  370.26   10.40
   4   8   2  361.66   10.90
   4   8   2  376.16   11.10
   4   8   2  357.36   10.60
   4   8   2  373.76   10.20
  -4   8  -2  379.96   10.60
  -5  -8  -2    3.70    1.60
   5  -8   2    3.80    1.50
   5  -8   2    3.10    1.50
  -5  -8  -2    4.50    1.60
   5   8   2    2.90    1.50
  -5   8  -2    3.20    1.60
  -5   8  -2    3.60    1.60
   5   8   2    1.70    1.40
   5   8   2    4.90    1.60
   5   8   2    3.00    1.60
   6  -8   2  113.79    5.00
  -6  -8  -2  103.49    4.90
   6  -8   2  113.29    5.20
   6   8   2  111.79    5.20
  -6   8  -2  119.19    5.20
   6   8   2  107.79    5.00
   6   8   2  113.49    4.90
   6   8   2  109.29    5.00
  -6   8  -2  116.69    5.40
  -5  -9   2   32.70    3.40
   5  -9  -2   31.70    3.00
   5  -9  -2   27.00    3.10
   5   9  -2   30.30    3.10
  -5   9   2   27.50    3.00
   5   9  -2   34.60    3.10
  -5   9   2   28.10    3.40
   4  -9  -2   25.80    2.50
  -4  -9   2   27.50    2.90
   4  -9  -2   25.00    2.50
  -4  -9   2   22.50    2.50
  -4   9   2   25.40    3.10
  -4   9   2   27.30    2.70
   4   9  -2   25.40    2.60
   4   9  -2   19.50    2.60
   3  -9  -2  274.57    8.00
  -3  -9   2  277.77    8.20
   3  -9  -2  284.17    8.70
   3  -9  -2  287.57    8.40
  -3  -9   2  274.47    8.70
  -3   9   2  273.47    8.70
   3   9  -2  275.37    8.50
  -3   9   2  272.77    8.50
   3   9  -2  275.77    8.80
  -2  -9   2    6.60    1.40
   2  -9  -2   10.00    2.00
  -2  -9   2    6.30    1.30
   2  -9  -2    9.20    2.00
   2  -9  -2    7.60    1.70
  -2   9   2    7.90    1.40
   2   9  -2    7.90    1.90
   2   9  -2    8.60    1.80
  -2   9   2    7.70    1.60
   2   9  -2    8.60    2.10
  -1  -9   2  186.68    6.30
   1  -9  -2  190.68    6.20
   1  -9  -2  191.88    5.50
   1  -9  -2  166.78    6.00
  -1  -9   2  193.98    6.10
  -1   9   2  191.18    6.40
  -1   9   2  167.08    5.90
   1   9  -2  193.78    6.10
   1   9  -2  195.48    5.80
   1   9  -2  189.78    6.40
   0  -9   2   67.59    3.30
   0  -9   2   71.59    3.40
   0  -9  -2   68.69    3.40
   0  -9  -2   74.99    3.40
   0  -9  -2   65.79    2.60
   0   9  -2   74.39    3.50
   0   9  -2   70.79    3.30
   0   9  -2   72.99    2.90
   0   9   2   72.89    3.60
   0   9   2   71.59    3.20
   1  -9   2   52.49    2.80
   1  -9   2   43.90    2.90
  -1  -9  -2   52.69    3.00
  -1  -9  -2   47.40    2.90
   1   9   2   50.39    2.70
   1   9   2   46.80    2.90
  -1   9  -2   41.40    2.80
  -1   9  -2   46.10    2.80
  -1   9  -2   51.29    2.70
   2  -9   2   59.49    3.20
  -2  -9  -2   57.19    3.10
  -2  -9  -2   58.79    3.30
   2  -9   2   47.50    2.90
   2   9   2   61.09    3.00
   2   9   2   63.89    3.30
   2   9   2   60.49    3.30
  -2   9  -2   53.09    3.10
  -2   9  -2   58.89    3.10
   3  -9   2   54.59    3.20
  -3  -9  -2   55.99    3.20
  -3  -9  -2   46.20    3.10
   3  -9   2   52.89    3.10
   3   9   2   48.70    3.00
   3   9   2   54.89    3.30
  -3   9  -2   54.19    3.00
  -3   9  -2   55.79    3.00
   3   9   2   53.19    3.10
  -4  -9  -2   19.80    2.70
  -4  -9  -2   19.00    2.90
   4  -9   2   10.00    2.70
   4  -9   2   15.20    2.60
   4   9   2   16.80    2.70
  -4   9  -2   14.70    2.50
   4   9   2   16.20    2.60
  -4   9  -2   18.40    2.50
   4   9   2   14.80    2.60
  -5  -9  -2   91.99    4.60
   5  -9   2   86.59    4.70
  -5  -9  -2   88.59    4.50
   5   9   2   88.19    4.30
   5   9   2   91.69    4.50
  -5   9  -2   86.59    4.70
   5   9   2   91.69    4.70
   5   9   2   79.49    4.40
  -4 -10   2   10.90    3.00
   4 -10  -2   15.30    3.00
   4  10  -2   14.70    2.80
  -4  10   2   19.40    2.70
  -4  10   2   16.30    3.30
   4  10  -2   14.20    3.00
   3 -10  -2   36.60    3.10
  -3 -10   2   36.30    3.20
  -3 -10   2   33.40    2.90
   3 -10  -2   34.10    3.20
  -3  10   2   37.80    2.90
   3  10  -2   36.60    3.30
  -3  10   2   35.40    3.40
  -3  10   2   35.90    3.10
   3  10  -2   34.80    2.90
   2 -10  -2   41.10    3.10
   2 -10  -2   45.60    3.10
  -2 -10   2   42.60    3.10
  -2 -10   2   43.20    3.10
  -2  10   2   38.80    3.20
   2  10  -2   44.00    2.90
   2  10  -2   41.30    3.20
  -2  10   2   39.30    2.80
  -1 -10   2   32.60    2.90
   1 -10  -2   31.20    2.60
   1 -10  -2   35.10    2.70
  -1 -10   2   29.90    2.70
   1  10  -2   36.30    2.50
   1  10  -2   35.90    2.90
  -1  10   2   28.80    2.50
  -1  10   2   31.70    2.90
   0 -10   2   57.59    3.20
   0 -10  -2   52.09    3.20
   0 -10  -2   54.79    3.20
   0 -10   2   48.50    3.30
   0  10   2   53.99    3.30
   0  10  -2   54.99    3.40
   0  10   2   52.69    3.00
   0  10  -2   53.09    3.10
  -1 -10  -2  184.18    6.30
   1 -10   2  178.18    6.30
  -1 -10  -2  181.08    6.40
   1 -10   2  181.88    6.30
   1  10   2  185.48    6.50
   1  10   2  177.98    6.10
  -1  10  -2  183.68    6.20
  -1  10  -2  177.38    6.40
  -2 -10  -2    2.70    1.30
   2 -10   2    4.60    1.50
  -2 -10  -2    2.20    1.50
   2 -10   2    2.30    1.40
  -2  10  -2   -0.30    1.60
   2  10   2    2.90    1.40
   2  10   2    3.10    1.50
   2  10   2    4.00    1.40
  -2  10  -2   -0.50    1.20
   3 -10   2  358.06   11.00
   3 -10   2  368.46   10.70
  -3 -10  -2  355.36   10.70
  -3 -10  -2  354.06   11.00
   3  10   2  347.67   10.90
   3  10   2  356.76   11.00
   3  10   2  361.56   10.60
  -3  10  -2  353.96   10.80
  -3  10  -2  348.07   10.60
  -4 -10  -2   34.00    3.50
  -4 -10  -2   35.60    3.60
   4 -10   2   39.30    3.60
   4  10   2   38.40    3.40
   4  10   2   33.80    3.20
  -4  10  -2   34.50    3.40
   4  10   2   33.30    3.30
   3 -11  -2   13.00    3.20
   3 -11  -2    9.20    2.20
  -3 -11   2   13.40    3.40
  -3 -11   2   18.40    3.10
  -3  11   2    9.40    2.10
  -3  11   2   20.70    3.00
   3  11  -2   12.70    3.40
  -3  11   2   17.50    3.50
   3  11  -2   15.10    3.00
  -2 -11   2    0.60    1.70
  -2 -11   2   -0.30    1.60
   2 -11  -2   -1.00    1.60
   2 -11  -2    1.00    1.60
   2  11  -2    1.50    1.50
  -2  11   2   -0.60    1.70
  -2  11   2   -1.30    1.50
   2  11  -2   -0.50    1.90
  -2  11   2   -1.30    1.70
   1 -11  -2   12.20    2.90
  -1 -11   2   11.50    2.70
  -1 -11   2   13.00    3.00
   1 -11  -2   14.60    2.70
  -1  11   2   10.80    2.80
   1  11  -2   16.40    2.50
   1  11  -2   14.20    2.80
  -1  11   2   13.80    2.60
   0 -11   2  146.09    5.80
   0 -11  -2  147.29    5.70
   0 -11  -2  151.98    5.80
   0 -11   2  151.98    5.80
   0  11   2  152.38    6.00
   0  11   2  154.78    5.60
   0  11  -2  145.99    5.60
   0  11  -2  151.48    5.90
   0  11   2  151.58    6.10
   1 -11   2   13.20    2.60
  -1 -11  -2   14.60    2.70
  -1 -11  -2   16.20    2.80
   1 -11   2   12.10    2.80
  -1  11  -2   18.60    3.20
  -1  11  -2   16.40    2.50
   1  11   2   12.40    2.70
   1  11   2   18.10    3.10
   1  11   2   13.40    3.10
  -2 -11  -2  126.19    5.40
  -2 -11  -2  121.19    5.50
   2 -11   2  128.39    5.50
   2 -11   2  132.29    5.40
   2  11   2  134.99    5.30
  -2  11  -2  128.19    5.50
   2  11   2  129.09    5.70
   2  11   2  121.09    5.50
  -2  11  -2  120.99    5.20
   8   0  -3    0.70    1.50
  -8   0   3   -0.80    1.50
   8   0  -3   -1.10    1.30
  -8   0   3   -1.30    1.60
   7   0  -3  190.28    5.90
  -7   0   3  196.08    6.20
   7   0  -3  188.08    6.50
   7   0  -3  186.98    6.30
  -7   0   3  188.28    6.40
  -7   0   3  187.28    6.50
   6   0  -3   -1.00    0.90
  -6   0   3   -0.90    0.80
  -6   0   3   -1.30    0.90
   6   0  -3   -1.60    0.80
   6   0  -3   -0.20    0.90
  -6   0   3   -0.50    1.00
  -5   0   3  280.07    8.00
   5   0  -3  300.97    8.20
  -5   0   3  270.27    8.10
  -5   0   3  272.77    7.70
   5   0  -3  271.87    7.70
  -5   0   3  293.27    8.20
   5   0  -3  272.87    8.00
   4   0  -3    0.10    0.60
  -4   0   3    0.90    0.50
  -4   0   3    1.50    0.60
  -4   0   3   -0.20    0.50
   4   0  -3    0.10    0.40
  -3   0   3   10.60    0.90
  -3   0   3   12.70    1.10
   3   0  -3   13.90    1.00
   3   0  -3   14.20    1.20
  -3   0   3   11.10    1.00
   3   0  -3   10.70    1.10
  -3   0   3   12.30    0.80
   3   0  -3   10.00    1.00
   3   0  -3   13.70    1.00
   3   0  -3   11.80    0.80
  -2   0   3   -0.10    0.30
  -2   0   3    0.00    0.20
  -2   0   3   -0.70    0.30
   2   0  -3    0.10    0.40
   2   0  -3   -0.30    0.20
  -2   0   3   -0.10    0.30
   2   0  -3   -0.50    0.30
   2   0  -3   -0.20    0.30
   2   0  -3    0.00    0.30
  -2   0   3   -0.30    0.30
   2   0  -3   -0.40    0.30
   2   0  -3    0.10    0.20
   1   0  -3  512.05   12.80
  -1   0   3  510.65   12.80
  -1   0   3  515.35   13.00
   1   0  -3  502.75   13.00
  -1   0   3  514.95   13.00
   1   0  -3  506.35   13.00
   1   0  -3  501.95   13.10
   1   0  -3  509.25   13.00
  -1   0   3  506.55   13.00
  -1   0   3  499.05   13.00
   1   0  -3  502.35   13.00
   0   0   3   -3.00    0.40
   0   0  -3   -2.80    0.40
   0   0   3   -2.60    0.30
   0   0   3   -2.30    0.30
   0   0  -3   -2.70    0.30
   0   0   3   -2.10    0.30
   0   0   3   -2.40    0.30
   0   0  -3   -2.70    0.30
   1   0   3 3324.77   88.29
  -1   0  -3 3109.99   87.59
  -2   0  -3   -1.20    0.30
  -2   0  -3   -0.80    0.30
  -2   0  -3   -0.40    0.30
   2   0   3   -0.70    0.40
  -2   0  -3    0.70    0.50
   2   0   3   -0.60    0.40
   2   0   3    1.10    0.60
   2   0   3   -0.30    0.40
  -2   0  -3   -0.90    0.40
   2   0   3    0.60    0.50
   2   0   3   -0.80    0.30
   3   0   3  805.92   20.30
  -3   0  -3  758.92   20.50
   3   0   3  817.32   20.40
  -3   0  -3  768.32   20.50
   3   0   3  778.82   20.50
  -3   0  -3  828.92   20.30
  -3   0  -3  806.02   20.40
   3   0   3  759.42   20.50
   4   0   3   -0.30    0.50
  -4   0  -3    0.60    0.50
   4   0   3    0.10    0.40
   4   0   3    0.30    0.50
  -4   0  -3    0.20    0.60
   4   0   3    0.00    0.60
  -4   0  -3    0.00    0.50
   4   0   3    0.00    0.40
  -4   0  -3    0.20    0.60
   5   0   3   25.00    1.30
   5   0   3   25.70    1.80
  -5   0  -3   22.60    1.80
   5   0   3   22.90    1.60
  -5   0  -3   28.60    1.70
  -5   0  -3   25.40    1.20
   5   0   3   21.10    1.40
   5   0   3   24.40    1.80
   6   0   3   -0.10    0.90
   6   0   3    0.00    0.90
  -6   0  -3    0.60    1.00
  -6   0  -3   -0.40    0.80
   6   0   3    0.40    0.70
   6   0   3    0.60    0.70
  -7   0  -3  181.48    6.20
   7   0   3  175.78    6.00
  -7   0  -3  173.78    6.20
   7   0   3  169.98    6.00
   8   0   3   -1.30    1.60
   8   0   3    0.20    1.70
  -8   0  -3    0.40    1.90
   8   0   3   -0.40    1.60
  -8   0  -3    1.60    1.80
  -8  -1   3   84.59    4.30
  -8  -1   3   86.09    4.20
   8  -1  -3   80.59    4.40
   8  -1  -3   89.19    4.00
   8   1  -3   79.79    3.90
  -8   1   3   85.99    4.40
  -8   1   3   79.69    4.10
   8   1  -3   85.09    4.40
   7  -1  -3    0.30    1.20
   7  -1  -3    0.60    1.10
  -7  -1   3    1.10    1.30
   7  -1  -3    0.10    1.10
  -7  -1   3   -0.30    1.10
   7   1  -3    0.80    1.10
   7   1  -3   -0.90    1.00
  -7   1   3    0.10    1.20
   7   1  -3    1.20    1.10
  -7   1   3   -1.40    1.00
  -7   1   3    0.20    1.10
   6  -1  -3  310.17    8.80
   6  -1  -3  301.97    9.30
  -6  -1   3  328.57    9.10
   6  -1  -3  308.17    9.10
  -6  -1   3  311.77    9.20
  -6   1   3  304.27    9.20
  -6   1   3  330.97    9.00
  -6   1   3  317.67    9.20
   6   1  -3  312.47    9.10
   6   1  -3  308.67    9.30
   6   1  -3  314.17    8.70
   5  -1  -3   84.19    3.00
   5  -1  -3   87.09    3.20
  -5  -1   3   86.69    3.20
  -5  -1   3   88.59    2.90
  -5  -1   3   90.09    3.20
   5  -1  -3   88.39    3.40
  -5   1   3   85.69    3.30
  -5   1   3   84.79    3.30
   5   1  -3   83.19    3.20
   5   1  -3   88.09    2.60
  -5   1   3   92.89    3.20
   5   1  -3   81.79    2.80
   5   1  -3   90.69    3.40
   5   1  -3   86.09    2.90
  -4  -1   3   21.60    1.40
  -4  -1   3   24.70    1.10
   4  -1  -3   24.20    1.50
   4  -1  -3   26.00    1.30
  -4  -1   3   24.10    1.00
   4  -1  -3   24.30    1.50
   4   1  -3   25.30    1.10
  -4   1   3   25.00    1.50
  -4   1   3   24.60    1.40
   4   1  -3   24.70    1.10
   4   1  -3   23.40    1.60
  -4   1   3   22.30    1.40
   4   1  -3   24.70    1.10
  -4   1   3   24.80    1.30
   4   1  -3   22.50    1.40
  -3  -1   3 2069.19   51.09
   3  -1  -3 2073.39   51.49
  -3  -1   3 1999.00   51.49
  -3  -1   3 2078.39   51.19
   3  -1  -3 2058.29   51.49
  -3  -1   3 2096.69   51.39
   3  -1  -3 2017.30   51.49
   3  -1  -3 2103.09   51.49
   3  -1  -3 2015.70   51.29
  -3  -1   3 2036.20   51.49
  -3   1   3 1855.71   51.39
  -3   1   3 2021.50   51.49
   3   1  -3 2015.50   51.49
   3   1  -3 2007.90   51.09
  -3   1   3 2012.10   51.49
   3   1  -3 2052.89   51.59
   3   1  -3 2057.39   51.09
   3   1  -3 1803.42   51.29
   3   1  -3 2043.50   51.19
  -3   1   3 2089.69   51.29
   2  -1  -3   49.60    1.70
   2  -1  -3   49.10    1.40
  -2  -1   3   52.09    1.70
  -2  -1   3   51.29    1.60
  -2  -1   3   48.30    1.70
  -2  -1   3   48.00    1.70
   2  -1  -3   49.30    1.60
   2  -1  -3   50.39    1.70
  -2  -1   3   47.90    1.60
   2  -1  -3   49.30    1.70
   2  -1  -3   53.09    1.70
   2  -1  -3   48.10    1.70
   2   1  -3   48.70    1.60
   2   1  -3   48.20    1.70
  -2   1   3   50.89    1.70
   2   1  -3   47.90    1.70
   2   1  -3   49.80    1.60
   2   1  -3   48.10    1.70
  -2   1   3   46.80    1.70
  -2   1   3   47.60    1.60
   2   1  -3   51.59    1.80
  -2   1   3   50.69    1.70
  -2   1   3   47.20    1.70
  -2   1   3   49.30    1.40
   1  -1  -3  166.38    4.50
   1  -1  -3  159.78    4.40
  -1  -1   3  161.68    4.50
  -1  -1   3  164.98    4.50
  -1  -1   3  168.28    4.50
   1  -1  -3  169.18    4.40
   1  -1  -3  164.28    4.40
   1  -1  -3  168.68    4.40
  -1  -1   3  154.38    4.50
   1  -1  -3  168.88    4.40
  -1  -1   3  167.88    4.40
   1   1  -3  164.18    4.40
   1   1  -3  170.08    4.50
  -1   1   3  162.58    4.50
   1   1  -3  164.68    4.40
  -1   1   3  174.48    4.40
  -1   1   3  167.68    4.40
   1   1  -3  163.08    4.50
   1   1  -3  166.78    4.50
  -1   1   3  164.58    4.40
   1   1  -3  158.08    4.50
  -1   1   3  165.08    4.40
   0  -1  -3 1766.82   43.30
   0  -1   3 1641.64   43.40
   0  -1   3 1747.53   43.30
   0  -1  -3 1719.13   43.30
   0  -1  -3 1720.63   43.30
   0  -1   3 1813.52   43.30
   0  -1  -3 1681.03   43.30
   0   1   3 1715.73   43.30
   0   1  -3 1668.43   43.30
   0   1  -3 1678.83   43.30
   0   1   3 1677.23   43.30
   0   1   3 1776.82   43.30
   0   1   3 1651.73   43.30
   0   1  -3 1752.32   43.30
   0   1  -3 1691.23   43.30
   1  -1   3   24.20    1.00
   1  -1   3   24.20    0.90
  -1  -1  -3   23.20    1.00
   1  -1   3   24.50    1.00
  -1  -1  -3   21.60    0.90
  -1  -1  -3   22.80    1.00
   1  -1   3   24.10    0.90
  -1  -1  -3   23.50    0.90
  -1  -1  -3   22.50    0.90
   1   1   3   24.60    1.00
  -1   1  -3   23.50    1.00
  -1   1  -3   23.80    0.90
   1   1   3   23.80    1.00
   1   1   3   22.80    1.00
  -1   1  -3   23.40    1.00
  -1   1  -3   23.20    1.00
  -1   1  -3   24.40    0.90
   1   1   3   22.80    0.90
   1   1   3   22.90    0.90
   1   1   3   22.60    0.70
  -2  -1  -3  690.33   18.10
   2  -1   3  715.33   18.00
   2  -1   3  731.63   18.10
   2  -1   3  700.43   18.20
  -2  -1  -3  690.53   17.90
  -2  -1  -3  676.23   18.10
  -2  -1  -3  691.33   18.10
   2  -1   3  707.63   18.10
   2  -1   3  717.83   18.00
   2  -1   3  710.33   18.20
  -2  -1  -3  707.43   18.10
   2   1   3  685.83   18.10
   2   1   3  702.13   17.90
  -2   1  -3  720.13   18.20
   2   1   3  688.53   18.10
   2   1   3  688.63   17.90
   2   1   3  680.23   18.10
   2   1   3  691.43   18.00
  -2   1  -3  708.13   18.20
   2   1   3  718.53   18.10
  -2   1  -3  714.13   18.00
   2   1   3  666.43   17.90
   2   1   3  684.43   18.10
  -2   1  -3  718.23   18.10
  -2   1  -3  738.43   18.00
  -3  -1  -3  403.86   10.70
  -3  -1  -3  420.96   10.80
   3  -1   3  418.16   10.70
   3  -1   3  398.26   10.90
   3  -1   3  417.96   10.80
  -3  -1  -3  400.86   10.90
  -3  -1  -3  392.36   10.90
   3  -1   3  399.66   11.00
  -3   1  -3  404.26   10.90
  -3   1  -3  416.96   10.80
   3   1   3  416.96   10.60
  -3   1  -3  432.66   10.70
   3   1   3  403.86   10.70
   3   1   3  401.16   10.90
   3   1   3  411.56   10.60
   3   1   3  411.26   10.80
   3   1   3  394.26   10.90
  -3   1  -3  405.86   11.00
   3   1   3  414.96   10.80
  -4  -1  -3  138.99    4.20
  -4  -1  -3  139.99    4.50
  -4  -1  -3  134.39    4.40
  -4  -1  -3  143.29    4.00
   4  -1   3  139.59    4.00
   4  -1   3  136.29    4.40
   4  -1   3  140.79    4.40
  -4   1  -3  149.79    4.10
   4   1   3  144.09    4.00
   4   1   3  141.49    4.20
  -4   1  -3  142.79    4.30
   4   1   3  138.19    4.40
   4   1   3  139.69    4.10
   4   1   3  137.89    4.40
   4   1   3  142.29    4.00
  -4   1  -3  137.29    4.50
  -5  -1  -3  170.88    5.50
   5  -1   3  177.58    4.90
  -5  -1  -3  174.28    5.30
   5  -1   3  165.88    5.40
  -5  -1  -3  173.38    5.40
   5  -1   3  169.98    5.40
  -5  -1  -3  172.68    4.90
   5  -1   3  178.28    4.90
   5   1   3  175.38    4.90
   5   1   3  168.18    5.40
   5   1   3  171.98    5.40
  -5   1  -3  176.18    4.90
   5   1   3  170.48    5.00
  -5   1  -3  172.48    5.30
   5   1   3  174.08    5.00
  -5   1  -3  170.68    5.50
   6  -1   3   69.99    2.50
   6  -1   3   67.49    3.10
  -6  -1  -3   58.59    3.20
  -6  -1  -3   68.19    2.60
   6  -1   3   70.09    3.20
  -6  -1  -3   72.19    3.10
   6   1   3   75.59    3.10
   6   1   3   66.39    3.10
   6   1   3   72.59    2.60
   6   1   3   71.79    2.70
  -6   1  -3   71.39    3.10
  -6   1  -3   76.19    3.40
   7  -1   3  114.59    4.50
  -7  -1  -3  112.49    4.60
  -7  -1  -3  115.49    4.70
   7  -1   3  108.09    4.50
  -7   1  -3  112.69    4.60
   7   1   3  113.09    4.50
   7   1   3  121.19    4.50
  -7   1  -3  110.19    4.60
  -8  -1  -3   58.19    4.10
   8  -1   3   65.99    3.90
   8  -1   3   57.49    3.70
  -8  -1  -3   63.29    4.20
   8   1   3   62.29    3.90
   8   1   3   60.69    3.70
  -8   1  -3   61.69    4.20
   8   1   3   62.79    4.00
  -8   1  -3   59.99    3.90
   8  -2  -3   16.60    2.50
   8  -2  -3   15.20    2.90
   8  -2  -3   16.20    2.90
  -8  -2   3   22.70    2.90
  -8  -2   3   24.60    3.00
   8   2  -3   17.10    2.60
  -8   2   3   20.20    2.90
  -8   2   3   14.40    2.70
   8   2  -3   16.90    2.80
   7  -2  -3    3.80    1.30
  -7  -2   3    2.20    1.40
   7  -2  -3   -0.10    1.30
  -7  -2   3    4.30    1.40
   7  -2  -3    2.80    1.10
  -7   2   3    2.50    1.20
   7   2  -3    2.60    1.20
  -7   2   3    2.60    1.30
   7   2  -3    2.00    1.30
  -7   2   3    2.30    1.30
  -6  -2   3   81.49    2.70
   6  -2  -3   78.89    3.60
  -6  -2   3   88.69    3.50
   6  -2  -3   85.59    3.40
  -6  -2   3   83.39    3.50
   6  -2  -3   80.69    3.20
  -6   2   3   83.39    3.30
   6   2  -3   79.89    3.30
   6   2  -3   80.49    3.60
   6   2  -3   85.49    2.70
  -6   2   3   80.39    3.50
  -6   2   3   80.59    3.50
   6   2  -3   80.09    3.00
   5  -2  -3    1.30    0.70
  -5  -2   3    1.00    0.80
  -5  -2   3    3.50    0.90
  -5  -2   3    1.40    0.80
   5  -2  -3    0.80    0.70
   5  -2  -3   -1.50    0.80
  -5   2   3   -0.20    0.70
   5   2  -3    1.40    0.60
  -5   2   3    1.00    0.80
   5   2  -3    1.20    0.80
   5   2  -3    2.80    0.70
   5   2  -3    0.60    0.70
  -5   2   3    1.10    0.80
   5   2  -3    1.60    0.70
   4  -2  -3  270.67    7.50
   4  -2  -3  269.97    7.70
  -4  -2   3  271.17    7.70
  -4  -2   3  261.37    7.70
   4  -2  -3  277.47    7.70
  -4  -2   3  277.67    7.30
  -4   2   3  274.97    7.70
  -4   2   3  275.57    7.60
   4   2  -3  272.37    7.20
   4   2  -3  276.87    7.20
   4   2  -3  267.97    7.50
   4   2  -3  272.07    7.40
   4   2  -3  263.47    7.70
  -4   2   3  276.87    7.70
   3  -2  -3    0.70    0.50
   3  -2  -3    1.20    0.50
   3  -2  -3    2.20    0.60
  -3  -2   3    0.60    0.50
   3  -2  -3   -0.10    0.40
  -3  -2   3    1.00    0.50
  -3  -2   3    1.10    0.50
   3  -2  -3    0.50    0.60
  -3  -2   3    0.90    0.40
   3   2  -3    0.60    0.50
  -3   2   3    1.00    0.50
   3   2  -3    0.80    0.50
  -3   2   3    0.50    0.40
  -3   2   3    1.10    0.50
   3   2  -3    0.90    0.30
  -3   2   3    1.30    0.50
   3   2  -3    1.40    0.50
   3   2  -3    1.30    0.30
   2  -2  -3 1508.35   36.60
  -2  -2   3 1394.26   36.10
   2  -2  -3 1485.75   36.40
  -2  -2   3 1469.35   36.60
   2  -2  -3 1434.26   36.50
   2  -2  -3 1420.86   36.50
   2  -2  -3 1494.55   36.40
  -2  -2   3 1370.36   36.40
  -2  -2   3 1402.86   36.30
   2  -2  -3 1415.96   36.40
  -2  -2   3 1418.96   36.60
  -2   2   3 1419.06   36.50
  -2   2   3 1426.26   36.50
   2   2  -3 1391.96   36.30
   2   2  -3 1440.86   36.50
  -2   2   3 1485.95   36.40
  -2   2   3 1468.55   36.20
   2   2  -3 1380.16   36.40
  -2   2   3 1453.05   36.50
  -2   2   3 1400.46   36.40
   2   2  -3 1439.56   36.60
  -2   2   3 1432.16   36.30
   2   2  -3 1419.76   36.50
   1  -2  -3    0.40    0.30
  -1  -2   3    0.30    0.30
  -1  -2   3    0.20    0.20
   1  -2  -3    0.70    0.20
   1  -2  -3    0.40    0.30
   1  -2  -3    0.20    0.30
   1  -2  -3    0.30    0.30
  -1  -2   3    0.80    0.20
   1  -2  -3    0.40    0.20
  -1  -2   3    0.50    0.30
  -1  -2   3    0.40    0.30
  -1  -2   3    0.40    0.30
   1   2  -3    0.40    0.30
   1   2  -3    0.40    0.30
   1   2  -3    1.10    0.30
   1   2  -3    0.50    0.30
   1   2  -3    0.30    0.30
  -1   2   3    0.50    0.30
   1   2  -3    0.90    0.20
  -1   2   3    0.70    0.30
   1   2  -3    0.70    0.20
  -1   2   3    0.20    0.30
  -1   2   3    0.10    0.30
  -1   2   3    0.30    0.20
  -1   2   3    0.40    0.20
   0  -2   3  562.74   14.10
   0  -2  -3  549.45   14.10
   0  -2   3  565.74   13.80
   0  -2   3  538.35   14.00
   0  -2  -3  555.04   14.00
   0  -2  -3  526.45   13.80
   0  -2   3  540.55   14.00
   0  -2  -3  519.45   14.00
   0  -2   3  570.54   14.00
   0  -2  -3  536.35   13.90
   0  -2  -3  555.64   14.10
   0  -2   3  529.15   14.10
   0   2  -3  538.65   14.10
   0   2  -3  527.75   13.80
   0   2   3  538.45   14.00
   0   2   3  559.04   14.00
   0   2  -3  541.25   14.00
   0   2   3  515.65   13.90
   0   2  -3  557.24   14.10
   0   2  -3  544.05   14.00
   0   2   3  549.95   14.10
   0   2   3  547.55   14.10
   0   2   3  536.45   14.10
   0   2  -3  546.35   14.00
  -1  -2  -3   32.10    1.20
  -1  -2  -3   35.30    1.40
  -1  -2  -3   34.90    1.30
   1  -2   3   35.20    1.30
  -1  -2  -3   32.30    1.20
   1  -2   3   34.40    1.30
   1  -2   3   36.20    1.20
   1  -2   3   34.30    1.20
  -1  -2  -3   32.20    1.30
   1  -2   3   32.50    1.30
   1  -2   3   34.90    1.30
   1  -2   3   33.90    1.10
  -1   2  -3   36.00    1.30
  -1   2  -3   35.30    1.10
   1   2   3   31.00    1.20
   1   2   3   34.00    1.30
   1   2   3   32.10    1.20
   1   2   3   32.40    1.30
  -1   2  -3   35.00    1.20
  -1   2  -3   33.70    1.30
   1   2   3   31.40    1.30
  -1   2  -3   34.70    1.10
  -1   2  -3   35.40    1.30
   1   2   3   32.90    1.30
   1   2   3   36.40    1.10
  -1   2  -3   32.80    1.30
   1   2   3   32.60    1.10
  -2  -2  -3   14.60    0.80
   2  -2   3   13.90    1.00
  -2  -2  -3   15.90    0.90
  -2  -2  -3   12.90    0.90
   2  -2   3   15.50    1.00
   2  -2   3   16.30    0.90
   2  -2   3   15.20    0.90
  -2  -2  -3   13.20    1.00
  -2  -2  -3   14.20    0.90
   2  -2   3   16.30    1.10
   2  -2   3   15.80    0.90
   2   2   3   12.60    0.90
   2   2   3   13.50    0.90
   2   2   3   14.40    0.90
   2   2   3   13.30    1.00
   2   2   3   14.30    0.90
  -2   2  -3   13.50    1.10
   2   2   3   14.30    0.80
   2   2   3   13.60    0.90
   2   2   3   14.00    0.80
  -2   2  -3   14.30    0.90
  -2   2  -3   13.30    0.90
  -2   2  -3   15.10    0.90
   2   2   3   12.90    0.80
  -2   2  -3   14.70    0.90
   2   2   3   15.90    1.00
   3  -2   3   31.00    1.60
   3  -2   3   34.60    1.40
  -3  -2  -3   31.20    1.50
   3  -2   3   31.50    1.50
  -3  -2  -3   32.60    1.30
  -3  -2  -3   29.40    1.40
  -3  -2  -3   30.70    1.50
   3   2   3   31.10    1.40
   3   2   3   29.80    1.40
  -3   2  -3   32.10    1.60
   3   2   3   29.80    1.40
   3   2   3   32.10    1.50
  -3   2  -3   34.80    1.40
   3   2   3   33.10    1.60
   3   2   3   31.90    1.40
  -3   2  -3   31.30    1.40
  -4  -2  -3 1098.89   27.50
  -4  -2  -3 1062.19   27.80
   4  -2   3 1068.59   27.80
  -4  -2  -3 1030.80   27.60
   4  -2   3 1059.79   27.90
  -4  -2  -3 1048.90   27.70
   4  -2   3 1082.29   27.40
   4   2   3 1046.70   27.70
   4   2   3 1068.19   27.50
  -4   2  -3 1081.69   27.90
   4   2   3 1062.69   27.70
  -4   2  -3 1128.49   27.40
  -4   2  -3 1078.29   27.70
   4   2   3 1058.69   27.60
   4   2   3 1094.79   27.50
  -5  -2  -3    0.50    0.80
  -5  -2  -3   -0.80    0.70
   5  -2   3    0.20    0.80
   5  -2   3   -0.40    0.80
   5  -2   3    0.00    0.50
  -5  -2  -3    0.40    0.70
  -5  -2  -3   -0.10    0.80
   5   2   3    0.10    0.60
  -5   2  -3    0.30    0.60
   5   2   3    0.80    0.80
  -5   2  -3    0.30    0.80
   5   2   3    0.50    0.70
  -5   2  -3    0.40    0.80
   5   2   3   -0.30    0.80
   5   2   3   -0.20    0.60
   6  -2   3  360.26   10.30
  -6  -2  -3  364.16   10.10
  -6  -2  -3  344.27    9.70
  -6  -2  -3  317.37   10.30
   6  -2   3  367.16   10.40
   6   2   3  367.86    9.80
   6   2   3  374.06    9.90
  -6   2  -3  365.66   10.50
   6   2   3  348.57   10.30
  -6   2  -3  357.06   10.30
   6   2   3  356.66   10.20
   7  -2   3    0.10    1.30
   7  -2   3   -0.60    1.30
  -7  -2  -3    1.70    1.40
  -7  -2  -3    0.10    1.40
   7   2   3    0.50    1.30
  -7   2  -3    1.00    1.20
  -7   2  -3    2.00    1.60
   7   2   3    0.50    1.20
   7   2   3   -0.50    1.30
   8  -2   3   35.80    3.30
  -8  -2  -3   37.00    3.50
   8  -2   3   33.00    3.40
  -8  -2  -3   30.20    3.60
  -8   2  -3   36.20    3.60
   8   2   3   35.50    3.50
   8   2   3   35.90    3.10
   8   2   3   35.10    3.40
  -8   2  -3   36.80    3.40
   8  -3  -3   71.99    4.20
   8  -3  -3   67.59    4.10
  -8  -3   3   65.79    4.10
   8  -3  -3   61.29    3.80
  -8  -3   3   66.69    4.10
   8   3  -3   68.19    3.80
  -8   3   3   70.29    3.90
  -8   3   3   68.99    4.10
   8   3  -3   62.69    3.90
   8   3  -3   74.89    3.90
  -7  -3   3    2.60    1.50
   7  -3  -3    0.90    1.40
  -7  -3   3   -0.20    1.30
   7  -3  -3   -0.10    1.30
   7  -3  -3    1.30    1.20
  -7   3   3   -0.10    1.10
   7   3  -3   -0.20    1.20
  -7   3   3    0.40    1.20
  -7   3   3   -1.30    1.20
   7   3  -3   -0.70    1.20
   6  -3  -3  178.08    5.80
  -6  -3   3  171.68    5.20
   6  -3  -3  178.18    6.00
  -6  -3   3  187.28    5.90
  -6  -3   3  167.48    5.80
   6  -3  -3  180.18    5.70
  -6   3   3  169.88    5.90
   6   3  -3  183.38    5.30
  -6   3   3  184.18    5.60
   6   3  -3  183.78    5.70
  -6   3   3  182.28    5.90
   6   3  -3  157.68    5.80
   6   3  -3  182.38    5.30
  -5  -3   3  141.59    4.30
   5  -3  -3  143.59    4.70
  -5  -3   3  143.59    4.70
   5  -3  -3  139.59    4.60
  -5  -3   3  148.69    4.80
   5  -3  -3  140.49    4.70
  -5   3   3  148.29    4.60
   5   3  -3  138.89    4.20
  -5   3   3  143.19    4.70
   5   3  -3  141.39    4.70
  -5   3   3  138.89    4.70
   5   3  -3  140.99    4.50
   5   3  -3  132.79    4.10
   5   3  -3  141.49    4.80
   4  -3  -3   23.00    1.50
   4  -3  -3   20.80    1.40
  -4  -3   3   22.90    1.60
  -4  -3   3   22.00    1.30
   4  -3  -3   20.70    1.50
  -4  -3   3   24.30    1.60
   4   3  -3   22.40    1.60
   4   3  -3   21.60    1.30
   4   3  -3   22.40    1.10
   4   3  -3   23.90    1.20
  -4   3   3   23.30    1.50
   4   3  -3   25.10    1.70
  -4   3   3   21.40    1.50
  -4   3   3   22.50    1.60
  -3  -3   3  923.21   23.30
  -3  -3   3  893.41   23.50
   3  -3  -3  948.01   23.50
  -3  -3   3  902.01   23.70
  -3  -3   3  914.01   23.20
   3  -3  -3  924.81   23.60
  -3  -3   3  879.01   23.60
   3  -3  -3  908.41   23.60
   3  -3  -3  931.31   23.50
   3   3  -3  898.91   23.30
   3   3  -3  911.31   23.20
  -3   3   3  954.70   23.20
  -3   3   3  920.21   23.60
   3   3  -3  908.11   23.20
   3   3  -3  900.71   23.30
  -3   3   3  884.91   23.60
  -3   3   3  944.11   23.50
  -3   3   3  926.31   23.20
   3   3  -3  881.31   23.60
   3   3  -3  904.51   23.50
   3   3  -3  877.71   23.60
  -2  -3   3  171.18    4.50
   2  -3  -3  175.38    4.60
  -2  -3   3  169.28    4.50
  -2  -3   3  169.18    4.80
   2  -3  -3  163.98    4.70
   2  -3  -3  170.58    4.80
  -2  -3   3  159.38    4.90
   2  -3  -3  175.08    4.60
   2  -3  -3  175.88    4.60
   2  -3  -3  170.78    4.70
  -2  -3   3  143.79    4.70
   2  -3  -3  166.38    4.80
  -2   3   3  181.38    4.60
   2   3  -3  139.09    4.80
  -2   3   3  172.28    4.70
   2   3  -3  161.28    4.80
   2   3  -3  163.48    4.80
  -2   3   3  168.68    4.70
  -2   3   3  167.38    4.80
  -2   3   3  173.08    4.60
  -2   3   3  169.78    4.80
   2   3  -3  165.68    4.50
  -2   3   3  171.68    4.60
   2   3  -3  167.98    4.50
   2   3  -3  168.08    4.50
   2   3  -3  152.98    4.70
   1  -3  -3  145.39    4.10
  -1  -3   3  142.59    4.20
   1  -3  -3  149.59    4.20
   1  -3  -3  147.79    4.20
   1  -3  -3  144.39    4.10
  -1  -3   3  148.39    4.00
  -1  -3   3  152.48    4.20
  -1  -3   3  142.39    4.20
   1  -3  -3  144.89    4.10
   1  -3  -3  147.89    3.90
   1  -3  -3  152.28    3.90
  -1  -3   3  140.99    4.20
  -1   3   3  145.99    4.10
   1   3  -3  144.69    4.20
   1   3  -3  149.69    4.10
  -1   3   3  143.19    4.10
   1   3  -3  138.19    4.20
  -1   3   3  144.29    4.20
  -1   3   3  148.09    4.10
   1   3  -3  146.19    4.00
  -1   3   3  148.79    4.20
   1   3  -3  146.89    4.30
   1   3  -3  142.79    4.20
  -1   3   3  152.08    4.10
   0  -3  -3 1704.23   44.30
   0  -3   3 1720.83   44.50
   0  -3  -3 1738.33   44.40
   0  -3  -3 1731.53   44.40
   0  -3  -3 1767.12   44.50
   0  -3   3 1709.23   44.40
   0  -3   3 1813.62   44.40
   0  -3   3 1811.22   44.40
   0  -3  -3 1749.72   44.20
   0  -3   3 1690.53   44.30
   0   3  -3 1785.22   44.40
   0   3   3 1789.12   44.40
   0   3   3 1754.72   44.50
   0   3  -3 1763.32   44.40
   0   3   3 1701.63   44.50
   0   3  -3 1703.73   44.30
   0   3   3 1768.62   44.30
   0   3  -3 1793.92   44.50
   0   3   3 1727.53   44.20
   0   3  -3 1766.62   44.40
   1  -3   3    6.80    0.60
   1  -3   3    6.90    0.80
  -1  -3  -3    6.70    0.80
  -1  -3  -3    6.60    0.70
  -1  -3  -3    7.80    0.50
   1  -3   3    6.70    0.80
   1  -3   3    6.80    0.60
   1  -3   3    7.90    0.80
   1  -3   3    6.70    0.60
   1  -3   3    8.10    0.80
  -1  -3  -3    6.50    0.60
  -1  -3  -3    5.90    0.70
  -1  -3  -3    7.60    0.60
  -1   3  -3    7.00    0.80
  -1   3  -3    7.70    0.80
  -1   3  -3    6.70    0.60
   1   3   3    7.40    0.80
  -1   3  -3    9.60    0.70
   1   3   3    7.10    0.80
   1   3   3    8.00    0.50
   1   3   3    6.40    0.70
   1   3   3    7.20    0.60
  -1   3  -3    7.10    0.90
   1   3   3    6.80    0.70
   1   3   3    7.40    0.80
   1   3   3    6.10    0.70
  -1   3  -3    8.20    0.60
   1   3   3    6.70    0.60
   2  -3   3  987.20   24.50
   2  -3   3  898.71   24.40
  -2  -3  -3  922.91   24.30
   2  -3   3  973.50   24.40
  -2  -3  -3  913.81   24.50
  -2  -3  -3  890.21   24.30
   2  -3   3  946.41   24.50
   2  -3   3  982.30   24.30
   2  -3   3 1039.90   24.30
  -2  -3  -3  941.81   24.40
  -2  -3  -3  911.61   24.40
   2   3   3  905.51   24.30
  -2   3  -3  946.31   24.40
   2   3   3  909.41   24.20
   2   3   3  921.91   24.40
  -2   3  -3 1032.10   24.20
   2   3   3  960.30   24.20
  -2   3  -3  977.50   24.50
   2   3   3  918.01   24.50
  -2   3  -3 1006.70   24.40
   2   3   3  948.91   24.40
   2   3   3  916.31   24.30
  -2   3  -3  983.30   24.10
  -3  -3  -3  175.48    5.20
   3  -3   3  186.28    5.20
   3  -3   3  189.48    5.10
  -3  -3  -3  178.28    5.30
  -3  -3  -3  153.68    5.00
  -3  -3  -3  176.48    5.20
   3  -3   3  180.88    5.40
   3  -3   3  198.08    4.80
   3   3   3  162.48    5.00
   3   3   3  175.88    5.20
   3   3   3  176.38    5.10
   3   3   3  177.48    5.20
  -3   3  -3  188.58    5.30
   3   3   3  175.38    5.30
   3   3   3  178.38    5.20
  -3   3  -3  183.88    5.30
  -3   3  -3  190.08    5.10
  -3   3  -3  192.98    4.80
   4  -3   3   43.90    1.70
   4  -3   3   46.40    2.20
  -4  -3  -3   39.50    2.00
  -4  -3  -3   41.80    2.00
  -4  -3  -3   40.20    1.80
   4  -3   3   42.20    2.10
  -4   3  -3   42.50    1.80
   4   3   3   41.30    2.00
  -4   3  -3   39.80    2.10
  -4   3  -3   41.70    2.10
   4   3   3   40.80    1.80
   4   3   3   39.10    1.90
   4   3   3   41.20    1.80
   4   3   3   37.10    2.00
  -5  -3  -3  205.68    6.20
   5  -3   3  211.18    6.50
   5  -3   3  214.38    6.40
  -5  -3  -3  209.68    6.50
  -5  -3  -3  207.28    6.30
   5  -3   3  212.68    5.80
  -5  -3  -3  209.28    6.20
   5   3   3  203.28    6.30
  -5   3  -3  207.18    6.50
   5   3   3  206.78    6.20
  -5   3  -3  203.88    6.40
   5   3   3  209.18    6.30
   5   3   3  210.48    6.10
   6  -3   3   48.10    2.90
   6  -3   3   46.00    2.80
  -6  -3  -3   46.40    2.90
  -6  -3  -3   51.19    2.60
   6   3   3   53.19    2.50
  -6   3  -3   49.20    2.90
   6   3   3   50.89    2.50
  -6   3  -3   51.29    2.80
   6   3   3   50.69    2.70
   6   3   3   44.30    2.70
   6   3   3   52.89    2.70
   7  -3   3   72.69    3.80
  -7  -3  -3   73.69    4.00
   7  -3   3   77.69    3.80
  -7  -3  -3   75.09    3.80
   7   3   3   79.79    3.90
  -7   3  -3   77.99    3.90
  -7   3  -3   72.39    3.90
   7   3   3   76.59    3.90
   7   3   3   74.99    3.60
   8  -3   3   90.69    4.80
  -8  -3  -3   95.69    4.90
   8  -3   3   90.69    4.70
  -8  -3  -3   95.99    4.80
   8   3   3   91.49    4.70
  -8   3  -3   96.89    4.80
   8   3   3   93.09    4.70
  -8   3  -3   90.59    4.80
   8   3   3   90.49    4.50
   8  -4  -3   -0.90    1.70
   8  -4  -3   -1.10    1.80
  -8  -4   3   -3.40    1.90
   8  -4  -3   -0.40    1.80
  -8  -4   3    0.50    1.80
   8   4  -3   -2.00    1.50
  -8   4   3    1.10    1.60
  -8   4   3    0.40    1.90
   8   4  -3    2.00    1.70
   8   4  -3    1.80    1.70
   7  -4  -3  119.49    5.10
   7  -4  -3  122.09    4.90
  -7  -4   3  123.59    5.00
  -7  -4   3  122.79    4.90
   7  -4  -3  121.59    4.90
  -7   4   3  124.69    4.90
  -7   4   3  118.79    4.60
   7   4  -3  126.29    4.90
   7   4  -3  120.49    4.70
  -7   4   3  119.89    4.90
   7   4  -3  124.19    5.00
   6  -4  -3    0.80    1.20
   6  -4  -3    3.00    1.30
  -6  -4   3    1.20    1.30
  -6  -4   3    2.30    1.00
   6  -4  -3    3.40    1.20
  -6  -4   3    1.40    1.30
  -6   4   3    2.00    1.10
  -6   4   3    1.30    1.20
   6   4  -3    2.30    1.10
   6   4  -3    3.20    0.90
  -6   4   3    4.00    1.10
   6   4  -3    5.20    1.30
   6   4  -3    3.90    1.10
   6   4  -3    0.90    0.90
   5  -4  -3  594.24   16.40
  -5  -4   3  606.14   16.60
  -5  -4   3  618.24   16.10
  -5  -4   3  596.24   16.40
   5  -4  -3  611.94   16.40
   5  -4  -3  621.14   16.40
   5   4  -3  603.04   16.50
  -5   4   3  611.24   16.50
   5   4  -3  612.34   16.50
  -5   4   3  609.64   16.30
   5   4  -3  607.24   15.90
   5   4  -3  609.14   16.10
  -5   4   3  601.44   16.40
   4  -4  -3   20.20    1.60
   4  -4  -3   20.20    1.50
  -4  -4   3   19.90    1.50
  -4  -4   3   22.50    1.20
  -4  -4   3   24.30    1.70
  -4  -4   3   22.30    1.70
   4  -4  -3   22.40    1.70
  -4   4   3   22.70    1.70
   4   4  -3   23.90    1.70
   4   4  -3   23.80    1.70
  -4   4   3   21.20    1.50
   4   4  -3   20.00    1.30
  -4   4   3   21.10    1.50
   4   4  -3   23.20    1.30
   4   4  -3   23.60    1.20
   3  -4  -3    0.90    0.60
   3  -4  -3    3.60    0.80
  -3  -4   3    1.60    0.70
   3  -4  -3    1.40    0.60
   3  -4  -3    1.90    0.60
  -3  -4   3    0.70    0.50
  -3  -4   3    1.30    0.40
   3  -4  -3    0.80    0.40
  -3   4   3    1.40    0.60
   3   4  -3    1.00    0.60
   3   4  -3    4.20    0.90
  -3   4   3    1.70    0.40
   3   4  -3    1.70    0.50
  -3   4   3    2.70    0.60
  -3   4   3    1.40    0.60
   3   4  -3    0.70    0.40
  -3   4   3    1.00    0.50
   3   4  -3    1.40    0.60
   2  -4  -3   94.39    2.90
  -2  -4   3   95.49    2.80
   2  -4  -3   97.29    3.10
   2  -4  -3   98.59    2.80
   2  -4  -3  100.69    2.80
  -2  -4   3   91.79    3.10
  -2  -4   3   88.99    3.20
  -2  -4   3   92.19    3.10
   2  -4  -3   94.39    3.00
   2   4  -3   97.59    2.80
   2   4  -3   93.99    2.60
   2   4  -3   95.69    3.10
   2   4  -3   95.09    3.00
   2   4  -3   93.69    2.60
  -2   4   3   95.39    2.80
  -2   4   3   99.39    2.90
  -2   4   3   98.99    2.90
  -2   4   3   93.69    3.10
  -2   4   3   93.59    3.00
  -1  -4   3 2095.69   54.29
   1  -4  -3 2254.97   54.19
   1  -4  -3 2142.69   54.29
  -1  -4   3 2249.57   54.19
   1  -4  -3 2234.28   54.09
   1  -4  -3 1924.81   54.09
  -1  -4   3 2043.20   54.29
  -1  -4   3 2153.58   54.09
   1   4  -3 2167.98   54.19
   1   4  -3 2106.39   54.19
  -1   4   3 1902.51   54.09
   1   4  -3 2165.88   54.09
  -1   4   3 2083.59   54.29
  -1   4   3 2224.68   54.09
  -1   4   3 2212.98   54.19
  -1   4   3 2197.18   54.19
   0  -4   3    8.10    0.90
   0  -4  -3    8.30    0.80
   0  -4  -3    7.70    0.80
   0  -4  -3    8.40    0.70
   0  -4   3    7.50    0.80
   0  -4   3    8.60    0.90
   0  -4   3    9.10    0.90
   0  -4  -3    8.60    0.80
   0   4  -3    4.80    0.90
   0   4  -3    8.20    1.00
   0   4  -3    8.10    0.80
   0   4   3    8.40    0.80
   0   4  -3    8.40    1.00
   0   4   3    7.30    1.00
   0   4   3    9.70    0.90
   0   4   3    8.00    0.80
   0   4  -3    7.40    0.80
   0   4   3    8.70    0.70
   0   4  -3    6.80    0.80
  -1  -4  -3 2214.48   57.09
   1  -4   3 2350.86   56.59
  -1  -4  -3 2280.17   56.79
   1  -4   3 2214.98   56.99
  -1  -4  -3 2211.18   56.79
   1  -4   3 2217.68   56.99
   1  -4   3 2350.56   56.89
  -1  -4  -3 2175.68   56.59
   1  -4   3 2203.08   56.59
  -1  -4  -3 2189.18   56.99
  -1   4  -3 2301.17   56.89
  -1   4  -3 2305.47   56.89
  -1   4  -3 2249.27   56.99
  -1   4  -3 2272.27   56.99
   1   4   3 2235.88   56.79
   1   4   3 2167.88   56.79
   1   4   3 2226.88   57.09
   1   4   3 2202.68   56.99
   1   4   3 2164.88   56.59
  -1   4  -3 2340.27   56.89
  -2  -4  -3    9.10    0.80
  -2  -4  -3    8.60    1.00
   2  -4   3    8.40    0.90
  -2  -4  -3   11.40    1.00
   2  -4   3    8.70    0.90
   2  -4   3   10.60    1.10
   2  -4   3   10.90    1.00
  -2  -4  -3    9.20    0.80
   2   4   3    9.50    0.80
   2   4   3    9.10    0.80
   2   4   3    9.30    1.00
   2   4   3   11.30    1.10
  -2   4  -3   10.10    0.80
  -2   4  -3    8.80    0.80
   2   4   3   11.10    1.00
  -2   4  -3   10.70    0.90
   2   4   3    8.70    0.90
   2   4   3   11.00    0.90
  -2   4  -3   10.10    1.00
  -2   4  -3    9.20    1.10
   3  -4   3  785.52   19.70
   3  -4   3  779.12   19.70
  -3  -4  -3  715.23   19.80
  -3  -4  -3  729.73   19.90
  -3  -4  -3  724.23   19.70
   3  -4   3  830.92   19.50
   3  -4   3  757.92   20.00
  -3  -4  -3  732.33   19.70
  -3   4  -3  783.12   19.90
   3   4   3  726.03   19.80
  -3   4  -3  790.42   19.50
  -3   4  -3  772.82   19.70
   3   4   3  721.33   19.90
  -3   4  -3  759.92   19.90
   3   4   3  726.13   19.70
  -3   4  -3  820.52   19.50
   3   4   3  720.93   19.60
   4  -4   3   55.49    1.90
  -4  -4  -3   53.99    2.30
  -4  -4  -3   49.40    2.30
  -4  -4  -3   49.20    2.10
   4  -4   3   53.59    2.30
  -4  -4  -3   53.79    2.40
   4  -4   3   51.59    2.50
   4  -4   3   57.19    2.10
   4   4   3   51.89    2.30
   4   4   3   47.30    2.20
  -4   4  -3   53.89    2.50
  -4   4  -3   52.39    2.20
  -4   4  -3   52.59    1.90
  -4   4  -3   54.29    2.40
   4   4   3   50.89    2.30
   4   4   3   50.79    2.10
   4   4   3   52.59    2.40
   4   4   3   50.69    2.30
  -4   4  -3   54.29    1.80
  -5  -4  -3   53.79    2.70
   5  -4   3   55.29    2.80
  -5  -4  -3   52.59    2.40
   5  -4   3   54.99    2.70
  -5  -4  -3   51.39    2.60
   5  -4   3   55.09    2.10
   5   4   3   53.79    2.60
   5   4   3   52.19    2.50
  -5   4  -3   56.39    2.80
  -5   4  -3   53.69    2.80
   5   4   3   51.69    2.60
   5   4   3   50.09    2.60
   5   4   3   52.99    2.40
   5   4   3   55.79    2.50
  -6  -4  -3   15.30    2.40
   6  -4   3   15.40    2.50
  -6  -4  -3   22.00    2.10
   6  -4   3   16.60    2.30
   6   4   3   18.10    2.10
   6   4   3   15.10    2.20
   6   4   3   18.80    2.00
   6   4   3   15.50    1.90
   6   4   3   20.30    2.10
   6   4   3   17.60    2.00
  -6   4  -3   18.60    2.30
  -6   4  -3   17.00    2.40
   7  -4   3   90.49    4.20
  -7  -4  -3   86.39    4.10
   7  -4   3   83.89    4.20
  -7  -4  -3   84.99    4.40
   7   4   3   89.29    4.20
  -7   4  -3   92.09    4.30
   7   4   3   87.99    4.10
  -7   4  -3   89.59    4.30
   7   4   3   89.39    4.20
   7   4   3   93.59    4.30
   7  -5  -3    0.30    1.60
   7  -5  -3    0.50    1.40
  -7  -5   3    0.30    1.80
  -7  -5   3   -0.60    1.50
   7  -5  -3    0.40    1.70
  -7   5   3    0.60    1.40
  -7   5   3   -0.70    1.50
   7   5  -3    0.60    1.50
   7   5  -3   -0.30    1.40
   7   5  -3    0.70    1.40
  -6  -5   3  216.68    6.60
  -6  -5   3  209.88    7.00
   6  -5  -3  218.88    7.00
  -6  -5   3  216.28    7.20
   6  -5  -3  213.18    7.00
   6  -5  -3  219.68    6.90
   6   5  -3  213.98    6.50
  -6   5   3  215.68    7.00
  -6   5   3  217.38    7.00
   6   5  -3  220.28    7.00
   6   5  -3  208.08    6.90
  -6   5   3  216.98    6.70
  -5  -5   3   57.19    2.70
  -5  -5   3   58.49    3.10
  -5  -5   3   56.19    2.90
   5  -5  -3   57.69    2.90
   5  -5  -3   58.89    2.70
   5  -5  -3   61.89    2.90
   5   5  -3   59.39    2.90
   5   5  -3   57.29    2.40
   5   5  -3   61.59    2.90
  -5   5   3   61.29    2.70
  -5   5   3   60.09    2.70
  -5   5   3   57.19    2.90
   5   5  -3   60.09    2.30
   4  -5  -3   89.19    3.10
  -4  -5   3   83.99    3.50
   4  -5  -3   83.79    3.30
   4  -5  -3   88.39    3.30
  -4  -5   3   89.09    3.20
  -4  -5   3   85.69    2.90
  -4   5   3   89.29    2.90
   4   5  -3   87.79    3.30
   4   5  -3   86.89    3.30
  -4   5   3   86.39    3.10
  -4   5   3   86.09    3.30
   4   5  -3   88.29    2.90
   4   5  -3   85.19    2.80
  -4   5   3   90.79    3.30
   4   5  -3   83.59    2.90
  -4   5   3   85.29    2.70
   3  -5  -3  198.28    5.60
   3  -5  -3  196.68    5.40
   3  -5  -3  192.28    5.70
  -3  -5   3  179.38    5.20
   3  -5  -3  184.98    5.30
  -3  -5   3  190.78    5.80
   3  -5  -3  166.98    5.20
  -3  -5   3  195.58    5.70
  -3   5   3  189.38    5.70
  -3   5   3  173.78    5.30
  -3   5   3  193.88    5.70
  -3   5   3  170.78    5.30
   3   5  -3  191.68    5.60
   3   5  -3  192.68    5.10
   3   5  -3  193.18    5.70
   3   5  -3  187.18    5.30
   3   5  -3  194.48    5.10
  -3   5   3  189.68    5.30
  -2  -5   3  287.47    8.60
   2  -5  -3  326.17    8.80
  -2  -5   3  324.07    9.10
  -2  -5   3  322.47    9.10
   2  -5  -3  320.37    8.80
   2  -5  -3  343.17    8.50
   2  -5  -3  345.77    8.60
   2  -5  -3  320.57    9.00
  -2   5   3  338.17    8.60
   2   5  -3  332.37    8.80
  -2   5   3  315.07    8.80
  -2   5   3  326.07    9.10
   2   5  -3  328.77    9.00
  -2   5   3  333.87    8.80
   2   5  -3  323.07    8.90
  -2   5   3  323.17    8.90
  -1  -5   3  298.47    8.50
  -1  -5   3  313.47    8.30
  -1  -5   3  297.07    8.50
   1  -5  -3  307.07    8.40
   1  -5  -3  302.87    8.50
   1  -5  -3  308.97    8.20
  -1  -5   3  307.57    8.20
  -1   5   3  306.67    8.30
   1   5  -3  308.37    8.30
  -1   5   3  311.77    8.20
   1   5  -3  305.07    8.50
   1   5  -3  311.07    8.30
  -1   5   3  297.37    8.50
   1   5  -3  302.87    8.40
   0  -5  -3  873.21   23.10
   0  -5  -3  790.92   22.70
   0  -5   3  891.61   23.10
   0  -5   3  887.91   23.00
   0  -5  -3  901.11   23.10
   0  -5   3  889.61   23.00
   0  -5   3  941.01   22.90
   0  -5  -3  899.81   22.90
   0   5  -3  867.51   22.80
   0   5   3  899.41   23.10
   0   5  -3  892.61   23.00
   0   5   3  890.71   23.10
   0   5   3  927.31   22.80
   0   5  -3  872.81   23.00
   0   5   3  891.71   22.90
  -1  -5  -3    1.50    0.60
  -1  -5  -3    2.90    0.70
   1  -5   3    3.90    1.00
  -1  -5  -3    4.80    0.90
   1  -5   3    3.30    0.60
   1  -5   3    3.00    0.70
   1  -5   3    2.20    0.40
  -1  -5  -3    3.60    0.90
   1  -5   3    1.80    0.60
  -1   5  -3    3.10    0.70
   1   5   3    2.00    0.60
   1   5   3    2.80    0.50
  -1   5  -3    2.70    0.60
  -1   5  -3    1.60    0.70
   1   5   3    2.90    0.70
   1   5   3    2.50    0.60
   2  -5   3  538.75   13.70
  -2  -5  -3  503.95   14.00
  -2  -5  -3  513.85   13.70
   2  -5   3  521.35   13.90
   2  -5   3  548.05   13.70
  -2  -5  -3  517.15   14.10
   2  -5   3  524.05   14.10
   2   5   3  518.85   13.60
   2   5   3  505.15   13.70
  -2   5  -3  541.35   13.80
  -2   5  -3  541.35   13.90
   2   5   3  520.35   14.10
  -2   5  -3  530.45   14.10
   2   5   3  527.15   14.10
  -2   5  -3  528.25   13.80
   2   5   3  513.05   13.60
  -3  -5  -3   99.79    3.20
  -3  -5  -3  100.99    3.30
  -3  -5  -3  100.39    3.60
   3  -5   3  103.19    3.30
   3  -5   3  105.79    3.70
  -3  -5  -3  100.79    3.50
   3  -5   3  104.49    3.40
   3   5   3  100.29    3.30
   3   5   3   98.69    3.20
  -3   5  -3  107.49    3.50
   3   5   3  101.29    3.60
  -3   5  -3   94.19    3.10
  -3   5  -3  101.19    3.60
  -3   5  -3  108.49    3.30
   3   5   3  101.49    3.60
  -4  -5  -3   16.00    1.50
   4  -5   3   16.50    1.50
  -4  -5  -3   15.00    1.70
   4  -5   3   17.40    1.60
  -4  -5  -3   15.80    1.50
   4  -5   3   18.70    1.50
  -4  -5  -3   16.70    1.70
   4  -5   3   18.10    1.80
  -4   5  -3   18.50    1.70
   4   5   3   15.80    1.40
  -4   5  -3   18.30    1.30
   4   5   3   15.90    1.70
   4   5   3   17.80    1.60
  -4   5  -3   15.00    1.70
   4   5   3   15.70    1.50
   4   5   3   17.80    1.50
   4   5   3   15.70    1.60
  -5  -5  -3  137.29    4.70
  -5  -5  -3  135.89    4.70
  -5  -5  -3  140.29    4.80
   5  -5   3  142.49    4.30
   5  -5   3  137.39    5.00
   5  -5   3  141.09    4.80
   5   5   3  140.19    4.60
  -5   5  -3  143.29    5.00
   5   5   3  134.69    4.70
   5   5   3  137.59    4.70
  -5   5  -3  140.89    5.00
   5   5   3  140.19    4.80
   5   5   3  137.49    4.80
   5   5   3  136.89    4.80
  -6  -5  -3    6.80    1.60
   6  -5   3    8.30    1.60
   6  -5   3    7.30    1.50
  -6  -5  -3    7.90    2.10
   6   5   3    8.40    1.60
  -6   5  -3    9.10    2.40
   6   5   3   10.50    2.10
   6   5   3   11.20    2.20
   6   5   3    6.20    1.40
  -6   5  -3    9.40    2.20
   6   5   3    5.20    1.40
   6   5   3    4.50    1.40
  -7  -5  -3    6.30    1.80
   7  -5   3    6.00    1.80
  -7  -5  -3    4.20    1.90
   7  -5   3    4.10    1.70
  -7   5  -3    6.50    1.70
   7   5   3    4.70    1.60
   7   5   3    5.60    1.80
   7   5   3    4.90    1.80
  -7   5  -3    6.20    1.70
   7   5   3    7.30    1.80
   7  -6  -3   15.00    2.90
  -7  -6   3   11.70    2.40
   7  -6  -3   13.00    3.10
   7  -6  -3   14.80    2.90
   7   6  -3   12.10    2.90
   7   6  -3   12.40    3.00
   7   6  -3   17.70    2.70
  -7   6   3   19.10    3.10
  -7   6   3   14.70    2.90
   6  -6  -3  100.79    4.40
   6  -6  -3  103.09    4.20
   6  -6  -3   95.99    4.30
  -6  -6   3  102.69    4.60
  -6  -6   3   99.79    4.10
  -6   6   3  100.29    4.20
   6   6  -3   93.59    4.30
   6   6  -3  103.49    4.30
   6   6  -3   96.69    4.20
  -6   6   3   98.39    4.20
   6   6  -3  101.79    3.80
  -6   6   3  100.09    4.10
   5  -6  -3    2.50    1.00
  -5  -6   3    2.50    1.00
   5  -6  -3    2.90    1.20
   5  -6  -3    2.10    1.00
  -5  -6   3    4.10    1.50
  -5  -6   3    3.50    1.00
   5   6  -3    3.80    0.90
   5   6  -3    1.50    0.90
   5   6  -3    4.00    1.30
   5   6  -3    3.00    1.10
  -5   6   3    2.80    1.00
  -5   6   3    2.00    1.20
  -5   6   3    3.50    1.20
   5   6  -3    2.50    1.10
  -4  -6   3  255.17    7.90
   4  -6  -3  259.07    7.80
   4  -6  -3  263.17    7.40
  -4  -6   3  256.07    7.20
  -4  -6   3  262.07    7.70
   4  -6  -3  264.17    7.20
   4  -6  -3  269.67    7.60
   4   6  -3  258.17    7.10
  -4   6   3  259.47    7.70
  -4   6   3  260.37    7.40
  -4   6   3  257.87    7.80
   4   6  -3  256.07    7.70
  -4   6   3  253.07    7.20
   4   6  -3  256.97    7.90
   4   6  -3  257.97    7.60
  -3  -6   3    7.00    1.40
  -3  -6   3    3.90    0.80
   3  -6  -3    4.10    1.00
   3  -6  -3    3.30    0.90
   3  -6  -3    6.40    1.30
   3  -6  -3    6.80    1.30
  -3  -6   3    5.60    1.40
   3  -6  -3    5.00    1.10
   3   6  -3    6.30    1.30
  -3   6   3    4.40    1.10
   3   6  -3    7.70    1.50
  -3   6   3    5.20    1.40
   3   6  -3    6.10    0.90
  -3   6   3    5.80    1.00
  -3   6   3    6.10    1.10
   3   6  -3    5.90    1.30
   3   6  -3    4.70    0.80
   2  -6  -3  823.12   20.80
  -2  -6   3  795.62   20.70
  -2  -6   3  779.02   21.10
   2  -6  -3  805.22   20.70
  -2  -6   3  792.92   21.10
   2  -6  -3  798.52   21.10
   2  -6  -3  819.92   20.30
   2   6  -3  788.12   21.00
   2   6  -3  783.22   21.10
  -2   6   3  794.12   20.90
  -2   6   3  800.92   21.10
   2   6  -3  788.52   20.80
   1  -6  -3    4.50    1.10
  -1  -6   3    3.60    0.80
  -1  -6   3    4.60    1.20
  -1  -6   3    4.20    0.90
   1  -6  -3    3.40    0.90
  -1  -6   3    2.60    0.70
   1  -6  -3    4.00    1.10
   1   6  -3    4.70    1.20
   1   6  -3    4.20    0.90
  -1   6   3    4.10    0.90
  -1   6   3    4.90    1.00
   1   6  -3    5.10    1.10
   0  -6   3  460.65   12.30
   0  -6  -3  444.96   12.10
   0  -6  -3  450.05   12.20
   0  -6   3  451.55   12.00
   0  -6  -3  448.46   11.70
   0  -6   3  450.35   11.90
   0   6   3  443.46   11.80
   0   6  -3  434.66   12.10
   0   6  -3  440.96   11.80
   0   6   3  453.05   11.90
   0   6   3  435.76   12.20
   0   6  -3  443.46   12.10
  -1  -6  -3  112.39    3.70
   1  -6   3  107.49    3.70
  -1  -6  -3  108.19    3.70
   1  -6   3  102.59    3.70
  -1  -6  -3  111.59    3.30
   1  -6   3  108.59    3.10
  -1   6  -3  111.49    3.60
   1   6   3  106.89    3.80
   1   6   3  109.39    3.40
  -1   6  -3  109.99    3.40
   1   6   3  111.19    3.80
   1   6   3  100.09    3.30
  -1   6  -3  109.79    3.70
  -2  -6  -3   35.80    1.60
   2  -6   3   34.70    1.70
   2  -6   3   31.70    1.40
  -2  -6  -3   35.00    1.90
  -2  -6  -3   35.60    2.00
   2  -6   3   39.00    2.10
   2  -6   3   36.40    1.90
   2   6   3   37.40    2.00
  -2   6  -3   36.70    1.70
   2   6   3   36.70    1.50
  -2   6  -3   36.50    2.00
   2   6   3   32.80    1.70
   2   6   3   38.90    2.00
  -2   6  -3   36.80    1.80
   2   6   3   35.10    1.40
  -3  -6  -3   51.49    2.10
   3  -6   3   51.39    2.30
   3  -6   3   52.89    2.70
  -3  -6  -3   50.39    2.40
   3  -6   3   53.39    2.20
  -3  -6  -3   51.99    2.50
   3   6   3   49.99    2.10
  -3   6  -3   52.49    2.40
   3   6   3   50.99    2.50
   3   6   3   48.60    2.20
  -3   6  -3   52.69    2.20
  -3   6  -3   51.79    2.50
   3   6   3   49.20    2.20
   3   6   3   49.80    2.50
  -4  -6  -3 1103.09   29.50
   4  -6   3 1183.18   29.10
   4  -6   3 1182.48   29.20
  -4  -6  -3 1105.39   29.10
  -4  -6  -3 1108.99   29.30
   4  -6   3 1091.09   29.50
   4   6   3 1083.69   29.10
   4   6   3 1109.39   29.10
   4   6   3 1093.29   29.40
   4   6   3 1118.09   29.10
  -4   6  -3 1137.09   29.50
  -4   6  -3 1124.99   28.90
  -4   6  -3 1155.68   29.40
   4   6   3 1119.09   29.30
   4   6   3 1114.09   29.50
  -5  -6  -3    0.30    1.20
   5  -6   3    0.40    1.20
  -5  -6  -3    0.40    1.00
   5  -6   3    1.10    0.90
   5  -6   3   -0.30    1.20
  -5   6  -3   -0.40    1.10
  -5   6  -3    1.20    1.20
   5   6   3    0.70    1.30
   5   6   3    0.90    1.00
   5   6   3   -0.10    1.00
   5   6   3    0.70    1.00
   5   6   3    0.70    1.10
   5   6   3   -0.90    0.90
   6  -6   3  202.78    7.00
   6  -6   3  211.88    6.90
   6   6   3  199.58    6.80
   6   6   3  201.58    6.70
  -6   6  -3  218.98    7.00
  -6   6  -3  212.78    7.10
   6   6   3  199.88    6.80
   6   6   3  199.48    6.90
   6   6   3  206.18    6.90
   6   6   3  197.08    6.60
   7  -6   3   23.30    3.00
   7  -6   3   21.20    3.60
   7   6   3   17.80    3.00
   7   6   3   13.20    3.10
   7   6   3   20.50    3.20
   7   6   3   17.60    3.10
   7   6   3   21.20    3.40
  -7   6  -3   19.60    3.30
  -7   6  -3   18.30    3.20
  -6  -7   3   78.19    4.00
   6  -7  -3   79.69    4.20
  -6  -7   3   82.39    4.30
   6  -7  -3   69.39    3.80
   6  -7  -3   79.89    4.00
  -6   7   3   82.39    3.90
   6   7  -3   83.39    3.90
  -6   7   3   77.49    3.90
   6   7  -3   86.09    4.20
  -6   7   3   79.39    4.00
   6   7  -3   79.09    4.10
   5  -7  -3   74.49    3.70
  -5  -7   3   73.79    3.90
   5  -7  -3   76.59    3.30
   5  -7  -3   76.59    3.70
  -5  -7   3   74.39    3.70
  -5   7   3   79.89    3.30
  -5   7   3   77.49    3.70
  -5   7   3   77.59    3.60
   5   7  -3   75.89    3.80
   5   7  -3   86.39    3.60
   5   7  -3   75.39    3.60
   5   7  -3   73.99    3.60
   4  -7  -3   14.10    1.90
  -4  -7   3   14.30    2.10
   4  -7  -3   13.30    1.60
   4  -7  -3   13.60    1.80
  -4  -7   3   15.70    2.20
  -4  -7   3   11.90    1.60
   4  -7  -3   16.00    1.90
   4   7  -3   13.80    1.80
   4   7  -3   13.30    1.80
  -4   7   3   12.20    1.70
  -4   7   3   12.80    1.90
  -4   7   3   12.40    1.70
  -4   7   3   14.60    2.00
   4   7  -3   14.40    2.10
  -3  -7   3  886.11   24.10
   3  -7  -3  910.61   23.70
  -3  -7   3  898.01   24.10
  -3  -7   3  918.71   23.60
   3  -7  -3  896.51   24.00
   3  -7  -3  939.81   23.70
   3  -7  -3  878.21   23.30
  -3   7   3  923.31   23.70
   3   7  -3  900.61   23.70
  -3   7   3  897.41   23.90
  -3   7   3  900.51   24.00
  -3   7   3  935.31   23.30
   3   7  -3  898.71   24.20
   3   7  -3  893.21   24.00
  -2  -7   3    8.10    1.20
  -2  -7   3    6.80    1.50
   2  -7  -3    5.60    1.20
   2  -7  -3    6.40    1.50
  -2  -7   3    6.30    1.60
   2  -7  -3    5.00    1.30
  -2   7   3    5.30    1.40
   2   7  -3    6.70    1.40
  -2   7   3    8.30    1.60
   2   7  -3    8.10    1.60
   2   7  -3    7.00    1.30
   1  -7  -3  112.29    3.90
   1  -7  -3  111.09    3.50
   1  -7  -3  111.49    3.90
  -1  -7   3  108.19    3.70
  -1  -7   3  110.99    4.00
  -1  -7   3  109.69    4.00
   1   7  -3  110.69    3.50
  -1   7   3  111.19    4.00
   1   7  -3  105.89    3.80
   1   7  -3  114.29    4.00
  -1   7   3  108.29    3.70
   0  -7  -3  331.87    9.30
   0  -7  -3  330.47    9.30
   0  -7  -3  323.47    8.70
   0  -7   3  317.37    9.30
   0  -7   3  322.47    9.10
   0   7   3  322.07    9.40
   0   7  -3  325.57    9.20
   0   7  -3  319.57    8.80
   0   7  -3  325.67    9.30
   0   7   3  331.07    9.10
   1  -7   3   22.50    1.80
  -1  -7  -3   23.90    1.40
  -1  -7  -3   19.10    1.70
   1  -7   3   23.90    1.80
  -1  -7  -3   21.80    1.70
   1   7   3   23.40    1.80
  -1   7  -3   20.30    1.70
  -1   7  -3   21.70    1.40
   1   7   3   23.00    1.50
   1   7   3   21.70    1.80
  -1   7  -3   25.10    1.70
  -2  -7  -3    3.30    1.00
  -2  -7  -3    2.40    0.80
   2  -7   3    4.00    0.60
   2  -7   3    2.80    0.90
   2  -7   3    3.30    1.00
  -2   7  -3    3.90    0.80
   2   7   3    2.50    0.90
  -2   7  -3    4.90    1.00
   2   7   3    3.70    1.00
   2   7   3    3.40    0.90
  -2   7  -3    4.90    1.00
   3  -7   3  519.45   14.50
  -3  -7  -3  510.65   14.50
  -3  -7  -3  522.65   14.30
   3  -7   3  533.45   14.20
   3  -7   3  528.45   13.90
  -3  -7  -3  525.55   13.90
   3   7   3  512.65   13.70
   3   7   3  525.95   14.60
   3   7   3  513.65   14.10
  -3   7  -3  531.75   14.10
  -3   7  -3  526.85   14.10
   3   7   3  513.65   14.50
  -3   7  -3  524.65   14.40
  -4  -7  -3   53.69    3.00
   4  -7   3   60.49    2.60
  -4  -7  -3   54.89    3.10
   4  -7   3   56.19    2.60
  -4  -7  -3   53.89    2.50
   4  -7   3   51.49    3.00
  -4   7  -3   49.80    2.50
   4   7   3   52.19    2.60
   4   7   3   44.90    2.80
   4   7   3   55.19    2.50
  -4   7  -3   48.50    2.90
   4   7   3   53.89    2.90
  -4   7  -3   53.79    2.80
   4   7   3   50.79    2.40
   5  -7   3  188.18    6.40
  -5  -7  -3  181.48    6.20
  -5  -7  -3  180.18    6.30
   5  -7   3  186.78    6.00
  -5  -7  -3  170.68    5.80
   5   7   3  178.78    5.90
  -5   7  -3  178.58    6.30
   5   7   3  178.98    6.10
  -5   7  -3  192.38    6.30
   5   7   3  180.58    5.90
   5   7   3  182.98    6.20
   5   7   3  186.58    5.90
   5   7   3  183.58    6.40
   6  -7   3   15.90    2.80
   6  -7   3   18.00    2.60
   6   7   3   14.80    2.90
   6   7   3   10.40    1.90
   6   7   3   17.00    2.80
   6   7   3   10.50    2.10
  -6   7  -3   16.00    3.10
   6   7   3   12.00    2.80
  -6   7  -3   15.20    3.10
   6   7   3   18.50    2.80
   6  -8  -3    2.90    1.60
   6  -8  -3    3.00    1.90
  -6  -8   3    1.50    1.90
  -6  -8   3    3.40    1.80
   6   8  -3    4.30    1.80
   6   8  -3    4.70    1.80
   6   8  -3    3.10    1.60
  -6   8   3    0.50    2.10
  -6   8   3    5.60    1.80
  -5  -8   3  202.18    6.90
   5  -8  -3  193.68    6.60
   5  -8  -3  191.08    6.70
  -5  -8   3  194.38    7.00
   5   8  -3  194.88    6.90
   5   8  -3  201.58    6.60
  -5   8   3  194.68    6.70
  -5   8   3  195.88    6.70
   5   8  -3  192.58    6.60
   4  -8  -3   28.20    2.40
   4  -8  -3   23.80    2.40
  -4  -8   3   29.70    2.60
  -4  -8   3   27.70    2.10
  -4  -8   3   27.20    2.70
   4  -8  -3   29.50    2.10
   4   8  -3   26.90    2.60
   4   8  -3   27.80    2.40
   4   8  -3   24.70    2.20
  -4   8   3   24.70    2.20
  -4   8   3   27.40    2.40
  -4   8   3   28.90    2.70
  -3  -8   3    1.70    1.20
   3  -8  -3    1.90    1.20
   3  -8  -3    3.20    0.90
  -3  -8   3    1.80    0.90
   3  -8  -3    3.30    1.00
  -3  -8   3    2.50    1.20
  -3   8   3    1.20    1.10
   3   8  -3    1.70    1.00
  -3   8   3    2.20    1.30
   3   8  -3    2.30    1.20
   3   8  -3    2.30    0.90
  -3   8   3    1.90    0.90
  -2  -8   3   98.59    4.00
   2  -8  -3   93.99    3.90
  -2  -8   3  108.59    3.70
   2  -8  -3  103.29    3.80
  -2  -8   3   98.59    4.10
   2  -8  -3  101.69    3.50
  -2   8   3  102.29    4.10
   2   8  -3  109.79    3.60
   2   8  -3  108.69    3.90
  -2   8   3  101.19    3.80
  -2   8   3  101.19    3.80
   2   8  -3   97.39    4.00
  -1  -8   3  439.46   12.50
  -1  -8   3  446.26   12.10
   1  -8  -3  436.46   11.80
   1  -8  -3  449.86   12.30
   1  -8  -3  431.76   12.40
  -1   8   3  442.26   12.50
   1   8  -3  442.46   11.80
   1   8  -3  440.36   12.30
  -1   8   3  441.26   12.20
   1   8  -3  434.06   12.40
   0  -8  -3    6.50    1.20
   0  -8   3    8.50    1.70
   0  -8  -3    5.40    1.10
   0  -8   3   10.10    1.60
   0  -8  -3    6.90    1.20
   0   8   3    6.70    1.80
   0   8  -3    7.60    1.30
   0   8   3    7.80    1.50
   0   8  -3   10.30    1.60
   0   8  -3    7.90    1.70
  -1  -8  -3  629.84   17.50
  -1  -8  -3  643.44   16.80
   1  -8   3  644.14   17.50
  -1  -8  -3  648.64   17.40
   1  -8   3  645.84   17.40
   1   8   3  640.64   17.60
   1   8   3  646.24   17.20
  -1   8  -3  647.34   17.50
  -1   8  -3  648.84   17.00
  -1   8  -3  639.74   17.40
   1   8   3  644.24   17.60
  -2  -8  -3   28.90    2.30
   2  -8   3   28.80    2.20
  -2  -8  -3   30.10    1.80
  -2  -8  -3   31.20    2.30
   2  -8   3   22.20    2.30
   2  -8   3   26.20    1.50
   2   8   3   29.30    2.00
   2   8   3   31.90    2.40
  -2   8  -3   26.90    2.20
  -2   8  -3   31.40    2.00
   2   8   3   30.70    2.30
  -2   8  -3   29.60    1.90
  -3  -8  -3  127.39    4.90
   3  -8   3  129.29    4.10
  -3  -8  -3  121.59    4.20
  -3  -8  -3  125.99    4.70
   3  -8   3  133.79    4.90
   3  -8   3  128.89    4.60
  -3   8  -3  131.19    4.40
   3   8   3  128.69    4.90
  -3   8  -3  127.39    4.40
  -3   8  -3  131.39    4.70
   3   8   3  126.29    4.90
   3   8   3  126.09    4.40
  -4  -8  -3   56.29    2.80
   4  -8   3   59.29    2.80
  -4  -8  -3   65.19    3.50
   4  -8   3   60.39    3.10
   4  -8   3   61.19    3.40
  -4  -8  -3   57.49    3.40
   4   8   3   56.09    2.80
   4   8   3   57.29    3.30
  -4   8  -3   59.39    3.30
   4   8   3   62.29    3.40
  -4   8  -3   56.99    3.10
  -4   8  -3   60.59    2.90
   4   8   3   59.89    3.10
   5  -8   3   -1.70    1.40
  -5  -8  -3    0.80    1.50
   5  -8   3   -0.80    1.40
  -5  -8  -3    0.30    1.60
  -5   8  -3    0.30    1.50
   5   8   3    3.50    1.40
   5   8   3    2.60    1.50
  -5   8  -3    0.60    1.60
   5   8   3   -0.40    1.50
   5   8   3    0.40    1.60
  -6  -8  -3   17.70    3.30
   6  -8   3   10.60    2.10
   6  -8   3    6.30    2.00
   6   8   3   13.20    3.00
  -6   8  -3   19.50    3.60
   6   8   3   12.00    2.30
   6   8   3   17.60    3.30
  -6   8  -3   19.70    3.50
   5  -9  -3   -0.90    1.50
  -5  -9   3    0.60    1.90
   5  -9  -3   -1.30    1.60
  -5  -9   3    2.40    1.80
  -5   9   3    3.80    1.70
  -5   9   3    2.00    1.90
   5   9  -3    3.70    1.80
   5   9  -3    1.30    1.50
   4  -9  -3   29.50    2.60
   4  -9  -3   33.60    2.80
  -4  -9   3   32.10    3.00
  -4  -9   3   32.30    3.10
   4   9  -3   31.40    2.70
  -4   9   3   29.70    2.70
   4   9  -3   34.70    2.80
  -4   9   3   26.30    3.20
   4   9  -3   31.50    2.90
   3  -9  -3   18.60    2.10
  -3  -9   3   20.10    2.20
   3  -9  -3   21.10    2.30
   3  -9  -3   23.40    2.40
  -3  -9   3   21.50    2.60
   3   9  -3   25.30    2.50
   3   9  -3   20.20    2.30
  -3   9   3   21.00    2.30
  -3   9   3   17.50    2.40
  -3   9   3   21.60    2.70
   3   9  -3   21.40    2.10
  -2  -9   3   90.69    3.70
   2  -9  -3   90.49    3.40
  -2  -9   3   95.39    4.10
   2  -9  -3   93.39    4.00
   2  -9  -3   98.49    3.90
   2   9  -3   95.39    3.90
   2   9  -3  101.49    4.20
   2   9  -3   98.49    3.50
  -2   9   3   96.59    4.10
  -2   9   3   95.29    4.20
  -2   9   3   96.69    3.90
   1  -9  -3   15.70    1.70
   1  -9  -3   15.80    2.00
   1  -9  -3   15.50    2.00
  -1  -9   3   13.70    2.10
  -1  -9   3   19.10    2.20
   1   9  -3   16.50    2.40
  -1   9   3   13.70    2.30
   1   9  -3   20.40    1.70
  -1   9   3   14.90    2.20
  -1   9   3   16.30    2.00
   1   9  -3   17.00    2.00
   0  -9  -3  470.95   13.10
   0  -9  -3  458.05   13.00
   0  -9   3  454.25   13.10
   0  -9   3  456.75   12.90
   0  -9  -3  446.06   12.20
   0   9   3  468.25   13.20
   0   9  -3  462.35   13.10
   0   9  -3  457.95   12.30
   0   9  -3  454.05   13.00
   0   9   3  448.26   13.20
   0   9   3  470.15   12.80
   1  -9   3    2.30    1.30
  -1  -9  -3   -0.50    1.20
   1  -9   3   -1.30    1.00
  -1  -9  -3   -0.20    1.00
  -1  -9  -3    0.30    0.90
   1   9   3    1.30    1.00
  -1   9  -3   -0.30    1.00
   1   9   3    0.70    1.20
  -1   9  -3   -0.10    1.20
   1   9   3    1.40    1.10
  -1   9  -3    0.60    0.90
  -2  -9  -3  333.77   10.00
  -2  -9  -3  336.67    9.90
   2  -9   3  324.37    9.80
   2  -9   3  330.07    9.90
  -2   9  -3  323.37    9.70
   2   9   3  331.17   10.00
  -2   9  -3  336.77    9.30
   2   9   3  332.27    9.60
   2   9   3  332.87   10.10
  -2   9  -3  318.07    9.80
  -3  -9  -3    1.60    1.20
  -3  -9  -3   -1.60    1.30
   3  -9   3    0.60    1.30
   3  -9   3    1.70    1.30
   3   9   3    2.50    1.40
  -3   9  -3    0.10    1.20
  -3   9  -3   -0.20    1.10
   3   9   3    1.30    1.10
   3   9   3    0.30    1.30
  -3   9  -3   -0.20    1.20
   4  -9   3   23.10    2.90
  -4  -9  -3   26.30    2.80
  -4  -9  -3   20.60    3.00
   4  -9   3   21.50    2.70
   4   9   3   22.30    2.70
  -4   9  -3   20.20    2.80
   4   9   3   22.10    2.60
   4   9   3   17.10    2.60
  -5  -9  -3   18.50    3.30
   5  -9   3   15.60    3.30
  -5  -9  -3   12.30    2.10
   5   9   3   19.80    3.10
   5   9   3   14.40    2.90
  -5   9  -3   12.20    2.20
   5   9   3   17.60    2.90
   5   9   3   20.00    3.10
  -4 -10   3   61.79    4.00
   4 -10  -3   63.29    4.00
   4  10  -3   57.69    4.20
  -4  10   3   58.29    4.20
   4  10  -3   61.19    3.60
  -4  10   3   66.19    3.80
  -3 -10   3    3.10    1.50
  -3 -10   3    0.50    1.40
   3 -10  -3    0.70    1.50
   3 -10  -3    2.30    1.50
  -3  10   3    0.10    1.70
  -3  10   3    1.30    1.50
   3  10  -3    1.50    1.70
   3  10  -3    2.50    1.40
  -3  10   3    3.50    1.50
   2 -10  -3  155.58    5.60
  -2 -10   3  151.78    5.90
  -2 -10   3  150.18    5.40
   2 -10  -3  147.29    5.70
  -2  10   3  159.78    5.80
   2  10  -3  154.28    5.60
  -2  10   3  146.79    5.80
   2  10  -3  152.48    5.90
  -2  10   3  152.58    5.50
  -1 -10   3   14.30    2.30
   1 -10  -3   11.30    2.40
   1 -10  -3   11.60    2.20
  -1 -10   3   12.90    2.50
  -1  10   3    8.70    1.50
  -1  10   3   13.50    2.50
   1  10  -3   10.20    2.30
   1  10  -3   10.40    2.20
  -1  10   3   10.40    2.70
   0 -10  -3   32.60    2.70
   0 -10  -3   31.00    2.60
   0 -10   3   31.70    2.90
   0 -10   3   33.50    2.80
   0  10  -3   26.20    2.90
   0  10   3   34.10    2.90
   0  10   3   30.40    2.80
   0  10  -3   27.40    2.50
   0  10   3   32.40    2.60
   1 -10   3   75.29    3.80
   1 -10   3   70.09    3.70
  -1 -10  -3   76.69    3.80
  -1 -10  -3   75.59    3.70
  -1  10  -3   75.79    3.60
   1  10   3   76.39    3.90
   1  10   3   73.79    3.70
  -1  10  -3   70.19    3.90
   1  10   3   73.89    4.00
  -2 -10  -3   10.10    2.40
   2 -10   3   10.00    2.40
   2 -10   3    5.40    1.60
  -2 -10  -3    6.40    1.70
   2  10   3    6.40    1.60
   2  10   3    8.20    1.70
   2  10   3    5.10    1.60
  -2  10  -3   11.10    2.20
  -2  10  -3    2.50    1.60
   3 -10   3   37.50    3.30
  -3 -10  -3   29.50    3.20
   3 -10   3   36.50    3.30
  -3 -10  -3   33.90    3.30
   3  10   3   34.60    3.20
  -3  10  -3   31.40    3.00
   3  10   3   38.90    3.20
   3  10   3   32.30    3.10
  -3  10  -3   35.30    3.00
  -4 -10  -3   89.19    4.60
   4 -10   3   82.29    4.70
  -4 -10  -3   84.89    4.60
  -4  10  -3   75.69    4.50
   4  10   3   83.99    4.50
   4  10   3   89.29    4.30
   4  10   3   88.49    4.40
   2 -11  -3    2.00    1.80
  -2 -11   3    3.50    1.70
  -2 -11   3   -1.50    1.60
   2 -11  -3    1.30    1.60
  -2  11   3    4.10    1.90
  -2  11   3    3.70    1.90
  -2  11   3    2.00    1.60
   2  11  -3    1.00    1.90
   2  11  -3   -0.40    1.50
   1 -11  -3   52.59    3.80
  -1 -11   3   56.09    3.70
  -1 -11   3   59.79    3.70
   1 -11  -3   59.89    3.70
  -1  11   3   47.90    3.90
   1  11  -3   56.19    3.40
   1  11  -3   47.70    3.70
  -1  11   3   58.89    3.90
  -1  11   3   59.59    3.50
   0 -11  -3   14.70    2.70
   0 -11   3   19.40    3.10
   0 -11  -3   12.00    2.70
   0 -11   3   19.10    2.80
   0  11  -3   20.90    3.00
   0  11   3   15.00    3.00
   0  11   3   10.50    3.00
   0  11   3   18.90    2.80
   0  11  -3   14.50    2.50
   1 -11   3    1.20    1.70
  -1 -11  -3    0.40    1.60
   1 -11   3   -1.30    1.40
  -1 -11  -3   -1.20    1.40
   1  11   3    0.20    1.70
  -1  11  -3    0.10    1.50
  -1  11  -3    2.60    2.00
   1  11   3    0.90    1.60
   1  11   3    1.30    1.70
  -2 -11  -3   42.20    3.50
   2 -11   3   43.30    3.50
   2 -11   3   32.30    3.50
  -2 -11  -3   37.10    3.50
   2  11   3   38.80    3.70
  -2  11  -3   35.60    3.30
  -2  11  -3   32.80    3.60
   2  11   3   40.60    3.70
   2  11   3   44.30    3.50
   8   0  -4    2.70    1.40
   8   0  -4    2.40    1.70
  -8   0   4    2.60    1.70
  -8   0   4    2.90    1.70
  -7   0   4   -1.70    1.20
  -7   0   4    0.50    1.10
   7   0  -4    1.60    1.10
   7   0  -4    2.20    1.10
   7   0  -4    0.00    1.20
  -6   0   4   97.69    3.90
   6   0  -4   98.59    4.00
   6   0  -4  100.29    3.80
  -6   0   4  100.19    3.80
   6   0  -4   97.79    3.40
   5   0  -4    0.30    0.50
   5   0  -4   -0.80    0.60
  -5   0   4    0.80    0.70
  -5   0   4    0.20    0.70
   5   0  -4   -0.20    0.70
   4   0  -4 3286.47   82.99
   4   0  -4 3209.28   82.49
  -4   0   4 3247.88   82.89
  -4   0   4 3399.66   82.49
   4   0  -4 3174.28   82.79
  -4   0   4 3286.17   82.89
   3   0  -4    0.10    0.60
  -3   0   4    0.30    0.30
   3   0  -4    0.20    0.30
   3   0  -4   -0.10    0.30
  -3   0   4    0.50    0.30
   3   0  -4    0.50    0.40
  -3   0   4   -0.20    0.50
   3   0  -4    0.70    0.40
  -3   0   4   -0.40    0.40
  -3   0   4   -0.30    0.40
   3   0  -4    0.10    0.60
   2   0  -4  491.45   12.50
   2   0  -4  484.95   12.40
  -2   0   4  497.45   12.70
  -2   0   4  481.75   12.70
  -2   0   4  489.55   12.50
   2   0  -4  493.25   12.70
  -2   0   4  477.05   12.80
  -2   0   4  487.45   12.60
   2   0  -4  472.95   12.60
   2   0  -4  484.35   12.60
   2   0  -4  482.15   12.70
  -2   0   4  491.45   12.40
   1   0  -4   -2.70    0.30
   1   0  -4   -3.00    0.30
  -1   0   4   -2.80    0.30
  -1   0   4   -1.60    0.40
  -1   0   4   -3.00    0.30
  -1   0   4   -1.70    0.50
   1   0  -4   -1.60    0.40
  -1   0   4   -2.70    0.30
   1   0  -4   -2.40    0.30
   1   0  -4   -2.90    0.30
   1   0  -4   -2.60    0.30
  -1   0   4   -1.80    0.30
   0   0   4   10.50    0.60
   0   0   4   10.50    0.60
   0   0  -4    9.80    0.70
   0   0  -4   10.90    0.60
   0   0  -4   10.10    0.60
   0   0  -4   11.30    0.50
   0   0   4   10.60    0.70
   0   0  -4   10.60    0.50
   0   0   4   13.00    0.60
   0   0   4   10.20    0.60
   0   0  -4   11.30    0.60
   0   0   4   10.80    0.60
   1   0   4   -1.50    0.30
  -1   0  -4   -1.40    0.30
   1   0   4   -1.70    0.30
   1   0   4   -1.40    0.30
   1   0   4   -0.90    0.20
  -1   0  -4   -0.10    0.30
   1   0   4   -1.10    0.20
  -1   0  -4   -0.90    0.30
  -1   0  -4   -0.70    0.20
   1   0   4   -1.00    0.30
  -1   0  -4   -1.40    0.30
  -1   0  -4   -1.00    0.30
   1   0   4   -1.20    0.30
   2   0   4 3225.38   79.59
   2   0   4 3174.68   79.49
   2   0   4 3194.88   79.59
  -2   0  -4 3264.17   79.59
  -2   0  -4 3252.47   79.59
  -2   0  -4 2926.51   79.59
   2   0   4 3155.78   79.59
   2   0   4 3254.77   79.59
   2   0   4 3205.88   79.39
  -2   0  -4 2824.72   79.49
   3   0   4   -0.40    0.40
   3   0   4   -0.60    0.40
  -3   0  -4   -0.50    0.40
  -3   0  -4   -0.60    0.40
  -3   0  -4   -0.70    0.40
   3   0   4    0.00    0.50
   3   0   4    0.50    0.50
  -3   0  -4   -0.10    0.40
   4   0   4 1039.90   27.00
  -4   0  -4 1038.20   27.00
  -4   0  -4 1063.09   26.80
   4   0   4 1020.50   27.10
  -4   0  -4 1042.10   26.80
  -4   0  -4 1039.80   27.10
   4   0   4 1045.20   26.80
   4   0   4 1041.60   26.70
   5   0   4    0.30    0.80
   5   0   4   -0.10    0.60
   5   0   4    0.40    0.80
  -5   0  -4   -0.10    0.80
  -5   0  -4    0.00    0.80
  -5   0  -4   -0.30    0.80
  -6   0  -4  367.16   10.20
   6   0   4  358.26   10.40
   6   0   4  352.46   10.30
  -6   0  -4  350.26   10.50
   6   0   4  359.86    9.70
   7   0   4    1.90    1.30
   7   0   4   -0.10    1.10
  -7   0  -4   -0.50    1.40
  -7   0  -4    0.80    1.30
  -8   0  -4    2.30    1.80
  -8   0  -4    2.40    1.90
   8   0   4    0.60    1.70
   8   0   4    0.60    1.60
   8  -1  -4   71.19    3.50
  -8  -1   4   63.49    3.90
  -8  -1   4   71.99    4.00
   8  -1  -4   70.09    4.20
   8   1  -4   68.89    3.60
   8   1  -4   69.99    4.10
  -8   1   4   71.59    4.10
  -8   1   4   73.59    3.90
   7  -1  -4   17.20    2.10
  -7  -1   4   17.90    2.40
   7  -1  -4   17.50    2.50
   7  -1  -4   18.40    1.90
  -7  -1   4   15.80    2.40
   7   1  -4   18.80    2.20
   7   1  -4   18.30    2.30
  -7   1   4   20.90    2.20
  -7   1   4   20.20    2.30
  -6  -1   4   75.09    3.20
  -6  -1   4   70.49    3.20
   6  -1  -4   72.39    2.80
   6  -1  -4   70.39    3.10
   6  -1  -4   66.19    3.40
   6   1  -4   70.59    2.60
  -6   1   4   75.89    3.10
   6   1  -4   72.09    3.30
   6   1  -4   71.89    3.10
  -6   1   4   71.09    3.20
   5  -1  -4  459.95   12.70
  -5  -1   4  458.05   12.00
  -5  -1   4  474.15   12.60
   5  -1  -4  454.95   12.50
  -5  -1   4  463.15   12.60
   5  -1  -4  459.55   12.20
   5   1  -4  458.25   11.90
  -5   1   4  461.05   12.60
   5   1  -4  449.76   12.40
   5   1  -4  458.85   12.00
  -5   1   4  455.45   12.50
  -5   1   4  462.95   12.70
   5   1  -4  456.85   12.00
   5   1  -4  450.05   12.70
  -4  -1   4   14.20    0.90
  -4  -1   4   14.90    0.90
   4  -1  -4   16.10    1.40
   4  -1  -4   14.80    1.00
  -4  -1   4   14.30    1.30
   4  -1  -4   15.50    1.20
  -4  -1   4   13.80    1.30
   4   1  -4   16.40    1.40
  -4   1   4   14.10    1.30
   4   1  -4   16.30    0.90
   4   1  -4   15.80    0.90
  -4   1   4   16.80    1.10
  -4   1   4   13.80    1.20
   4   1  -4   14.70    1.00
   4   1  -4   14.30    1.20
  -3  -1   4 1218.18   31.20
  -3  -1   4 1188.88   31.50
  -3  -1   4 1241.48   31.60
  -3  -1   4 1245.98   31.40
   3  -1  -4 1244.08   31.30
   3  -1  -4 1133.19   31.50
   3  -1  -4 1281.97   31.60
   3  -1  -4 1227.98   31.50
   3  -1  -4 1254.87   31.60
   3   1  -4 1232.28   31.30
  -3   1   4 1241.38   31.60
  -3   1   4 1278.57   31.30
   3   1  -4 1216.08   31.40
   3   1  -4 1214.18   31.60
  -3   1   4 1221.78   31.50
   2  -1  -4  476.55   11.90
   2  -1  -4  462.25   12.00
   2  -1  -4  448.26   11.80
  -2  -1   4  455.65   11.90
  -2  -1   4  451.85   11.80
   2  -1  -4  451.75   11.70
  -2  -1   4  453.45   12.00
   2  -1  -4  449.16   11.90
  -2  -1   4  451.15   12.00
  -2  -1   4  443.66   11.80
   2  -1  -4  472.15   11.70
   2  -1  -4  459.55   11.90
  -2   1   4  452.55   12.00
   2   1  -4  443.56   11.80
   2   1  -4  459.35   11.90
   2   1  -4  437.36   12.00
   2   1  -4  456.55   11.80
  -2   1   4  451.55   11.90
  -2   1   4  469.65   11.90
  -2   1   4  453.85   11.90
   2   1  -4  442.36   11.90
  -2   1   4  458.35   11.70
  -2   1   4  454.15   11.70
  -1  -1   4   47.10    1.50
   1  -1  -4   46.50    1.50
   1  -1  -4   47.10    1.70
   1  -1  -4   48.70    1.50
  -1  -1   4   47.60    1.60
  -1  -1   4   47.90    1.60
   1  -1  -4   46.00    1.60
  -1  -1   4   48.30    1.60
   1  -1  -4   49.10    1.50
  -1  -1   4   48.00    1.50
   1  -1  -4   48.50    1.50
   1   1  -4   46.10    1.60
   1   1  -4   48.30    1.50
   1   1  -4   49.00    1.60
   1   1  -4   47.90    1.60
  -1   1   4   46.90    1.60
  -1   1   4   48.80    1.50
   1   1  -4   46.10    1.60
   1   1  -4   48.70    1.50
  -1   1   4   47.00    1.50
  -1   1   4   47.40    1.50
  -1   1   4   48.70    1.50
   0  -1   4  740.53   18.70
   0  -1   4  723.23   18.70
   0  -1   4  710.43   18.60
   0  -1   4  708.73   18.60
   0  -1  -4  714.43   18.70
   0  -1   4  773.22   18.60
   0  -1  -4  746.03   18.60
   0  -1  -4  710.73   18.60
   0  -1  -4  737.33   18.60
   0  -1  -4  741.03   18.70
   0  -1   4  745.23   18.50
   0   1   4  727.23   18.60
   0   1   4  714.33   18.60
   0   1  -4  711.93   18.70
   0   1  -4  736.13   18.60
   0   1  -4  741.93   18.50
   0   1  -4  727.93   18.60
   0   1  -4  708.03   18.70
   0   1   4  697.43   18.70
   0   1   4  724.53   18.70
   0   1   4  767.92   18.60
   0   1  -4  720.93   18.60
   1  -1   4  962.80   23.90
   1  -1   4  926.71   23.80
   1  -1   4  946.81   24.10
   1  -1   4  980.00   23.90
   1  -1   4  935.51   24.00
  -1  -1  -4  947.61   24.00
  -1  -1  -4  940.41   23.90
  -1  -1  -4  910.31   24.00
  -1  -1  -4  907.01   23.90
   1  -1   4  936.71   24.00
  -1   1  -4  948.41   24.00
   1   1   4  917.11   24.00
  -1   1  -4  967.50   23.90
  -1   1  -4  917.31   23.90
   1   1   4  983.70   24.00
   1   1   4  938.91   24.00
   1   1   4  919.61   23.90
  -1   1  -4  918.01   23.80
  -1   1  -4  954.70   24.00
   1   1   4  929.91   23.90
   1   1   4  932.11   24.00
  -2  -1  -4  322.07    8.30
  -2  -1  -4  316.87    8.30
   2  -1   4  324.47    8.50
  -2  -1  -4  325.67    8.50
   2  -1   4  328.47    8.40
   2  -1   4  310.97    8.60
  -2  -1  -4  311.87    8.50
  -2  -1  -4  301.67    8.50
   2  -1   4  321.47    8.50
   2  -1   4  321.07    8.60
  -2   1  -4  323.27    8.60
   2   1   4  318.17    8.20
   2   1   4  314.77    8.50
  -2   1  -4  318.37    8.40
  -2   1  -4  332.07    8.50
  -2   1  -4  309.87    8.60
   2   1   4  324.97    8.30
   2   1   4  297.47    8.50
   2   1   4  319.27    8.50
   2   1   4  308.47    8.50
  -2   1  -4  331.67    8.50
   2   1   4  313.27    8.30
   3  -1   4  768.82   20.40
  -3  -1  -4  801.42   20.40
   3  -1   4  813.12   20.30
   3  -1   4  778.42   20.50
  -3  -1  -4  778.82   20.50
  -3  -1  -4  771.82   20.20
  -3  -1  -4  760.12   20.40
   3  -1   4  819.82   20.30
   3   1   4  777.82   20.30
  -3   1  -4  782.92   20.40
   3   1   4  776.62   20.10
  -3   1  -4  767.52   20.50
   3   1   4  798.32   20.40
  -3   1  -4  840.42   20.30
   3   1   4  785.52   20.20
   3   1   4  775.02   20.10
   3   1   4  765.02   20.50
  -3   1  -4  800.42   20.30
   4  -1   4    1.90    0.50
   4  -1   4    2.90    0.70
  -4  -1  -4    2.40    0.60
  -4  -1  -4    4.80    1.10
  -4  -1  -4    3.00    0.80
   4  -1   4    1.80    0.80
   4   1   4    1.60    0.60
  -4   1  -4    2.70    0.80
  -4   1  -4    2.50    0.60
   4   1   4    2.70    0.70
  -4   1  -4    0.90    0.60
   4   1   4    2.90    0.80
  -4   1  -4    1.80    0.70
   4   1   4    2.40    0.70
   4   1   4    3.10    0.80
   5  -1   4  337.17    9.70
  -5  -1  -4  340.27    9.60
  -5  -1  -4  331.97    9.70
   5  -1   4  339.07    9.20
   5  -1   4  344.97    9.20
   5  -1   4  336.27    9.60
  -5  -1  -4  341.07    9.40
  -5   1  -4  336.07    9.80
   5   1   4  329.57    9.60
  -5   1  -4  348.07    9.20
   5   1   4  342.67    9.00
   5   1   4  338.57    9.00
   5   1   4  337.57    9.30
  -5   1  -4  347.77    9.50
   5   1   4  337.37    9.60
  -6  -1  -4   58.99    2.80
  -6  -1  -4   62.29    3.20
   6  -1   4   58.79    3.00
   6  -1   4   60.89    2.40
   6  -1   4   61.69    3.00
   6   1   4   59.59    3.00
  -6   1  -4   62.69    3.00
   6   1   4   58.29    2.60
   6   1   4   64.39    3.00
  -6   1  -4   57.59    3.10
   7  -1   4   19.20    2.40
   7  -1   4   12.00    2.30
  -7  -1  -4   13.50    2.50
  -7  -1  -4   13.50    2.50
   7   1   4   17.40    2.20
   7   1   4   16.70    2.30
  -7   1  -4   16.50    2.70
  -7   1  -4   14.90    2.40
   8  -1   4   25.10    3.20
  -8  -1  -4   25.10    3.50
  -8  -1  -4   26.00    3.50
   8  -1   4   26.40    3.30
  -8   1  -4   30.60    3.60
   8   1   4   28.60    3.20
   8   1   4   27.10    3.20
   8   1   4   28.60    3.10
  -8   1  -4   26.70    3.40
  -8  -2   4   -0.60    1.70
   8  -2  -4   -1.80    1.50
  -8  -2   4   -3.20    1.80
   8  -2  -4   -1.40    1.40
   8   2  -4    1.20    1.30
   8   2  -4    2.10    1.50
  -8   2   4   -2.30    1.60
  -7  -2   4   84.09    4.00
   7  -2  -4   98.89    4.30
  -7  -2   4   97.59    4.20
   7  -2  -4   93.69    3.90
   7  -2  -4   96.89    3.80
  -7   2   4   97.99    4.10
   7   2  -4   89.59    3.90
  -7   2   4   97.59    3.90
   7   2  -4   86.79    4.10
  -7   2   4   95.19    4.10
  -6  -2   4   -0.50    1.00
  -6  -2   4    0.10    1.00
   6  -2  -4   -1.20    0.80
   6  -2  -4    1.40    0.90
   6  -2  -4   -1.30    1.00
  -6  -2   4   -1.00    0.60
   6   2  -4    0.20    1.00
   6   2  -4   -0.40    0.80
   6   2  -4    0.40    0.70
  -6   2   4    0.10    0.90
  -6   2   4    0.60    1.00
  -6   2   4   -0.20    1.00
   6   2  -4   -2.00    0.90
   5  -2  -4  118.19    3.80
  -5  -2   4  120.19    4.10
  -5  -2   4  116.09    4.10
   5  -2  -4  115.19    4.00
  -5  -2   4  117.39    3.50
   5  -2  -4  117.39    4.10
  -5   2   4  124.19    4.10
   5   2  -4  119.89    4.20
  -5   2   4  119.59    4.10
   5   2  -4  109.09    3.60
   5   2  -4  115.59    3.40
   5   2  -4  113.99    3.90
  -5   2   4  117.59    4.00
   5   2  -4  116.59    3.50
  -4  -2   4    1.00    0.40
   4  -2  -4    1.10    0.60
   4  -2  -4    1.80    0.60
  -4  -2   4   -0.10    0.60
   4  -2  -4    1.00    0.60
  -4  -2   4    1.90    0.80
  -4   2   4    1.10    0.60
  -4   2   4    0.80    0.70
   4   2  -4    4.60    1.00
   4   2  -4    2.20    0.60
   4   2  -4    0.50    0.60
  -4   2   4    1.80    0.60
  -4   2   4    1.30    0.60
   4   2  -4    1.50    0.40
  -3  -2   4  248.68    6.70
   3  -2  -4  245.58    6.80
   3  -2  -4  238.48    6.80
   3  -2  -4  248.58    6.80
  -3  -2   4  237.38    6.90
  -3  -2   4  246.38    6.60
   3  -2  -4  244.88    6.70
  -3  -2   4  240.08    6.80
   3   2  -4  246.08    6.70
   3   2  -4  241.08    6.90
  -3   2   4  240.78    6.90
   3   2  -4  248.38    6.60
  -3   2   4  246.48    6.70
  -3   2   4  243.08    6.80
   2  -2  -4   21.70    1.00
   2  -2  -4   21.50    1.10
  -2  -2   4   20.90    1.20
  -2  -2   4   21.10    1.10
  -2  -2   4   20.80    1.00
   2  -2  -4   21.80    1.00
   2  -2  -4   20.50    1.00
  -2  -2   4   21.70    1.10
   2  -2  -4   21.50    0.90
   2  -2  -4   22.30    1.20
  -2  -2   4   21.10    1.20
   2   2  -4   21.80    0.90
  -2   2   4   23.80    0.90
   2   2  -4   21.50    1.10
   2   2  -4   21.60    1.20
  -2   2   4   20.70    1.10
  -2   2   4   23.10    0.90
  -2   2   4   22.10    1.10
  -2   2   4   22.30    1.10
   2   2  -4   21.60    1.20
   2   2  -4   20.60    1.20
  -2   2   4   21.50    1.10
  -2   2   4   21.00    1.00
   1  -2  -4  144.19    3.90
  -1  -2   4  134.39    3.70
  -1  -2   4  139.59    4.00
   1  -2  -4  142.99    3.90
  -1  -2   4  143.59    3.80
   1  -2  -4  133.59    3.90
   1  -2  -4  143.99    3.90
  -1  -2   4  134.99    4.00
  -1  -2   4  131.89    4.00
  -1  -2   4  145.09    4.00
   1  -2  -4  142.99    3.80
   1  -2  -4  139.49    4.10
  -1   2   4  140.99    3.90
   1   2  -4  139.59    4.00
  -1   2   4  135.09    4.10
  -1   2   4  139.49    3.90
  -1   2   4  137.59    3.90
   1   2  -4  136.39    3.70
   1   2  -4  136.49    4.00
   1   2  -4  137.29    4.00
  -1   2   4  149.49    3.80
   1   2  -4  142.89    4.00
  -1   2   4  140.09    4.00
  -1   2   4  144.39    3.90
   1   2  -4  133.89    4.00
   1   2  -4  142.79    3.70
   0  -2  -4   14.10    0.70
   0  -2  -4   13.90    0.80
   0  -2  -4   14.30    0.60
   0  -2  -4   14.80    0.90
   0  -2   4   15.10    0.60
   0  -2   4   13.60    0.90
   0  -2  -4   15.30    0.90
   0  -2   4   15.50    0.80
   0  -2   4   13.80    0.80
   0  -2  -4   14.70    0.80
   0  -2   4   15.50    0.90
   0  -2   4   14.90    0.80
   0   2  -4   15.30    0.80
   0   2   4   14.60    0.90
   0   2   4   15.00    0.70
   0   2   4   14.70    0.80
   0   2  -4   15.10    0.60
   0   2  -4   14.20    0.80
   0   2  -4   14.70    0.80
   0   2  -4   13.80    0.90
   0   2   4   14.50    0.60
   0   2   4   14.80    0.80
   0   2  -4   15.40    0.80
   0   2   4   15.20    0.80
   0   2   4   14.00    0.80
   1  -2   4 7243.38  183.48
  -1  -2  -4 6510.15  176.78
   1   2   4 6384.76  176.68
   2  -2   4    9.00    0.90
  -2  -2  -4    9.00    1.00
  -2  -2  -4    8.40    0.80
   2  -2   4    7.60    0.90
   2  -2   4    9.10    0.80
  -2  -2  -4    7.20    0.70
   2  -2   4    9.40    0.80
  -2  -2  -4    7.60    0.80
  -2  -2  -4   10.10    0.80
   2  -2   4    9.20    0.90
   2  -2   4   10.70    0.90
  -2  -2  -4    8.50    0.60
  -2   2  -4    8.80    0.90
   2   2   4    7.50    0.80
   2   2   4    6.40    0.90
  -2   2  -4    9.80    0.80
  -2   2  -4    9.10    0.90
   2   2   4    8.90    0.90
   2   2   4    8.30    0.80
  -2   2  -4    6.30    0.90
   2   2   4    8.00    1.00
   2   2   4    8.80    0.60
  -2   2  -4    8.50    0.80
   2   2   4    7.50    0.70
   2   2   4    8.20    0.60
   2   2   4    7.30    0.90
   2   2   4    7.50    0.80
   3  -2   4  119.69    3.50
  -3  -2  -4  109.99    3.60
   3  -2   4  119.39    3.60
  -3  -2  -4  111.79    3.60
  -3  -2  -4  110.09    3.50
  -3  -2  -4  109.29    3.30
   3  -2   4  114.09    3.70
  -3   2  -4  114.59    3.50
   3   2   4  110.09    3.50
  -3   2  -4  119.19    3.50
   3   2   4  113.19    3.40
   3   2   4  110.19    3.60
   3   2   4  112.29    3.40
  -3   2  -4  114.49    3.70
   3   2   4  111.49    3.30
  -3   2  -4  113.79    3.50
  -4  -2  -4   11.20    1.30
  -4  -2  -4   11.70    1.30
   4  -2   4   14.00    1.40
   4  -2   4   13.60    1.10
   4  -2   4   12.70    1.40
  -4  -2  -4   12.50    1.10
  -4   2  -4   14.70    1.30
   4   2   4   12.00    1.10
  -4   2  -4   12.60    1.20
   4   2   4   12.40    1.20
   4   2   4   11.70    1.20
   4   2   4   10.20    1.30
   4   2   4   13.70    1.40
  -4   2  -4   11.70    1.40
   5  -2   4   57.89    2.70
  -5  -2  -4   57.09    2.60
  -5  -2  -4   58.29    2.80
   5  -2   4   55.79    2.20
  -5  -2  -4   63.19    2.50
   5  -2   4   57.29    2.70
  -5   2  -4   53.29    2.30
   5   2   4   52.99    2.40
   5   2   4   58.49    2.60
   5   2   4   56.49    2.20
   5   2   4   57.89    2.40
  -5   2  -4   57.69    2.80
  -5   2  -4   57.49    2.60
   5   2   4   58.89    2.60
   6  -2   4    1.10    1.20
  -6  -2  -4    1.90    1.00
   6  -2   4    2.50    1.20
  -6  -2  -4    1.00    1.20
  -6   2  -4   -1.00    1.10
   6   2   4    1.60    0.90
   6   2   4    1.70    1.10
   6   2   4    2.00    1.10
   6   2   4    1.00    1.00
  -6   2  -4    3.10    1.20
   7  -2   4  458.05   13.60
  -7  -2  -4  471.35   13.70
  -7  -2  -4  478.15   13.30
   7  -2   4  479.15   13.60
   7   2   4  460.95   13.40
  -7   2  -4  494.85   13.60
   7   2   4  460.85   13.50
  -7   2  -4  478.25   13.80
   8  -2   4    0.80    1.80
  -8  -2  -4    3.10    2.00
   8  -2   4    5.90    2.00
  -8  -2  -4   -0.30    1.90
  -8   2  -4    2.70    2.00
  -8   2  -4    5.10    1.90
   8   2   4    4.00    1.70
   8   2   4    4.50    1.70
   8   2   4   -0.80    1.80
   8  -3  -4   84.09    4.60
   8  -3  -4   86.59    4.30
  -8  -3   4   92.99    4.60
  -8  -3   4   87.79    4.70
   8   3  -4   91.69    4.10
   8   3  -4   85.89    4.60
   8   3  -4   93.09    4.40
  -8   3   4   80.79    4.50
   7  -3  -4   36.00    2.70
   7  -3  -4   33.20    3.00
  -7  -3   4   36.50    2.80
  -7  -3   4   35.10    3.10
   7  -3  -4   34.90    2.60
  -7   3   4   31.80    2.70
  -7   3   4   34.90    2.70
  -7   3   4   32.40    2.70
   7   3  -4   36.00    2.80
   7   3  -4   34.40    2.70
   7   3  -4   32.30    2.60
  -6  -3   4  220.08    7.00
   6  -3  -4  209.08    6.80
   6  -3  -4  210.98    6.90
  -6  -3   4  215.98    6.90
   6  -3  -4  222.88    6.60
  -6  -3   4  209.98    6.20
  -6   3   4  213.98    6.90
   6   3  -4  211.08    6.10
  -6   3   4  222.38    6.70
   6   3  -4  220.88    7.00
   6   3  -4  216.98    6.90
  -6   3   4  213.48    6.80
   6   3  -4  214.98    6.60
  -5  -3   4  144.39    4.80
   5  -3  -4  141.19    4.80
   5  -3  -4  142.79    4.80
  -5  -3   4  141.39    4.90
   5  -3  -4  146.29    4.60
  -5  -3   4  143.49    4.40
  -5   3   4  141.49    4.70
  -5   3   4  150.28    4.80
   5   3  -4  143.09    4.10
   5   3  -4  145.69    4.60
   5   3  -4  146.79    4.90
   5   3  -4  143.69    4.80
  -5   3   4  147.39    4.80
   5   3  -4  146.49    4.10
   4  -3  -4    1.90    0.60
   4  -3  -4    1.30    0.70
  -4  -3   4    1.90    0.80
  -4  -3   4    2.00    0.70
  -4  -3   4    1.90    0.50
   4  -3  -4    1.60    0.60
   4   3  -4    1.70    0.70
  -4   3   4    2.40    0.70
   4   3  -4    1.60    0.40
  -4   3   4    1.70    0.60
  -4   3   4    4.20    1.10
   4   3  -4    2.20    0.50
   4   3  -4    1.40    0.70
   4   3  -4    2.20    0.60
   3  -3  -4  158.58    4.60
  -3  -3   4  158.38    4.50
   3  -3  -4  157.18    4.70
  -3  -3   4  158.98    4.80
   3  -3  -4  160.28    4.60
  -3  -3   4  155.58    4.60
  -3  -3   4  153.68    4.80
   3  -3  -4  164.98    4.60
   3   3  -4  147.49    4.70
   3   3  -4  162.88    4.20
  -3   3   4  155.08    4.70
  -3   3   4  163.18    4.30
  -3   3   4  170.48    4.30
   3   3  -4  159.28    4.80
   3   3  -4  159.68    4.50
   3   3  -4  153.88    4.80
   3   3  -4  153.58    4.50
  -3   3   4  158.48    4.80
  -2  -3   4 1413.46   38.30
   2  -3  -4 1501.95   38.30
  -2  -3   4 1478.45   38.00
  -2  -3   4 1500.25   38.00
   2  -3  -4 1531.55   38.30
   2  -3  -4 1562.04   38.20
   2  -3  -4 1556.94   38.20
  -2  -3   4 1461.35   38.40
  -2  -3   4 1450.85   38.50
   2  -3  -4 1514.35   38.30
   2   3  -4 1480.55   38.00
   2   3  -4 1490.15   38.40
   2   3  -4 1494.55   38.00
  -2   3   4 1531.55   38.30
   2   3  -4 1519.55   38.40
  -2   3   4 1565.04   38.20
  -2   3   4 1521.95   38.20
  -2   3   4 1501.35   38.30
   2   3  -4 1481.65   38.40
  -2   3   4 1514.85   38.50
  -1  -3   4   97.69    3.20
   1  -3  -4  100.09    3.10
   1  -3  -4  106.19    2.80
   1  -3  -4  103.19    3.10
   1  -3  -4  103.69    3.30
  -1  -3   4  105.69    3.20
  -1  -3   4  102.89    3.10
   1  -3  -4  107.59    2.80
   1  -3  -4  102.19    3.00
  -1  -3   4   91.99    3.10
  -1  -3   4  104.29    2.90
   1   3  -4  107.99    3.20
   1   3  -4  100.69    3.20
   1   3  -4  105.99    3.10
  -1   3   4  108.79    3.10
   1   3  -4   99.99    3.30
  -1   3   4  103.09    3.10
  -1   3   4  101.29    3.00
  -1   3   4  105.39    3.10
  -1   3   4  100.69    3.20
  -1   3   4  106.49    2.80
   1   3  -4  100.29    3.10
   1   3  -4  107.19    2.90
  -1   3   4  107.99    3.10
   0  -3   4 1504.95   39.20
   0  -3   4 1647.44   39.30
   0  -3  -4 1517.45   39.20
   0  -3  -4 1595.54   39.40
   0  -3  -4 1390.16   39.30
   0  -3   4 1619.14   39.30
   0  -3   4 1520.15   39.40
   0  -3  -4 1541.85   39.00
   0  -3   4 1559.74   38.90
   0  -3   4 1516.45   39.30
   0   3  -4 1510.05   38.90
   0   3  -4 1610.64   39.30
   0   3  -4 1545.45   39.40
   0   3   4 1552.64   39.30
   0   3  -4 1572.74   39.30
   0   3   4 1471.95   39.30
   0   3   4 1513.35   39.10
   0   3   4 1569.74   39.20
   0   3   4 1552.24   39.30
   0   3  -4 1532.85   39.20
   0   3  -4 1582.94   39.30
   1  -3   4  237.48    6.20
  -1  -3  -4  207.68    6.40
   1  -3   4  243.88    6.50
  -1  -3  -4  225.48    6.50
   1  -3   4  234.98    6.50
   1  -3   4  252.07    6.30
   1  -3   4  212.08    6.50
   1  -3   4  241.18    6.30
  -1  -3  -4  247.18    6.20
   1  -3   4  247.08    6.50
  -1  -3  -4  238.38    6.20
  -1  -3  -4  238.68    6.50
  -1   3  -4  250.87    6.30
   1   3   4  232.28    6.40
  -1   3  -4  235.08    6.50
   1   3   4  233.58    6.20
  -1   3  -4  239.48    6.30
  -1   3  -4  234.18    6.50
   1   3   4  221.18    6.50
   1   3   4  231.88    6.50
   1   3   4  246.88    6.20
   1   3   4  238.28    6.60
  -1   3  -4  244.78    6.30
   1   3   4  245.58    6.20
  -1   3  -4  226.98    6.50
   1   3   4  226.98    6.50
  -1   3  -4  236.38    6.50
   2  -3   4  687.03   18.10
  -2  -3  -4  678.63   17.90
  -2  -3  -4  661.13   17.90
   2  -3   4  703.33   18.00
   2  -3   4  742.13   17.90
  -2  -3  -4  664.43   18.10
   2  -3   4  719.43   17.90
  -2  -3  -4  661.53   17.90
  -2   3  -4  714.73   17.90
  -2   3  -4  736.53   17.70
   2   3   4  700.43   17.70
  -2   3  -4  715.93   18.00
  -2   3  -4  701.63   18.10
   2   3   4  638.44   17.90
   2   3   4  668.83   18.00
  -2   3  -4  732.23   17.70
   2   3   4  676.43   18.10
  -2   3  -4  713.73   18.00
   2   3   4  665.83   17.70
   2   3   4  670.13   17.90
  -3  -3  -4  150.88    4.30
   3  -3   4  158.48    4.50
  -3  -3  -4  150.78    4.60
  -3  -3  -4  149.59    4.60
   3  -3   4  159.58    4.60
   3  -3   4  158.18    4.80
  -3  -3  -4  149.39    4.70
  -3   3  -4  157.68    4.80
   3   3   4  152.08    4.70
   3   3   4  152.18    4.40
  -3   3  -4  154.28    4.60
   3   3   4  154.78    4.60
  -3   3  -4  158.58    4.50
   3   3   4  153.88    4.70
   3   3   4  151.48    4.40
   3   3   4  153.58    4.50
  -4  -3  -4   48.40    2.20
  -4  -3  -4   48.60    2.00
   4  -3   4   51.19    2.20
   4  -3   4   50.29    2.00
   4  -3   4   47.20    2.40
  -4  -3  -4   49.10    2.20
   4   3   4   49.60    2.20
  -4   3  -4   52.89    2.30
   4   3   4   51.09    2.30
  -4   3  -4   48.90    2.40
  -4   3  -4   50.89    2.10
   4   3   4   48.70    2.00
   4   3   4   49.50    2.00
   4   3   4   50.69    2.20
  -5  -3  -4  233.98    6.90
  -5  -3  -4  232.28    7.20
   5  -3   4  238.78    6.70
   5  -3   4  241.88    7.10
  -5  -3  -4  231.48    7.10
   5  -3   4  240.78    7.30
   5   3   4  239.68    7.00
  -5   3  -4  236.68    7.30
   5   3   4  234.88    6.80
   5   3   4  233.68    7.10
  -5   3  -4  245.88    7.20
   5   3   4  238.38    7.10
  -6  -3  -4   67.69    3.50
   6  -3   4   70.39    3.40
   6  -3   4   66.19    3.30
  -6  -3  -4   70.29    3.00
  -6  -3  -4   63.59    3.40
  -6   3  -4   64.29    3.30
   6   3   4   61.99    3.10
   6   3   4   65.19    3.20
   6   3   4   69.59    2.80
   6   3   4   67.69    2.90
  -6   3  -4   65.59    3.30
   7  -3   4    3.30    1.50
  -7  -3  -4    0.70    1.40
  -7  -3  -4   -2.70    1.40
   7  -3   4    0.90    1.40
   7   3   4   -1.10    1.40
   7   3   4    1.40    1.30
  -7   3  -4    1.80    1.30
  -7   3  -4   -2.10    1.50
   7   3   4    0.10    1.40
  -8  -4   4   -0.30    1.80
   8  -4  -4    1.30    1.80
   8  -4  -4    2.50    1.80
  -8  -4   4   -0.30    2.00
   8  -4  -4   -2.10    2.00
   8   4  -4    0.70    1.70
   8   4  -4    1.30    1.60
  -8   4   4   -2.90    1.80
   8   4  -4   -0.30    1.70
  -7  -4   4    4.20    1.50
   7  -4  -4    5.20    1.80
   7  -4  -4   13.20    2.60
  -7  -4   4    7.20    1.90
   7  -4  -4    5.40    1.50
  -7   4   4    3.40    1.40
   7   4  -4    5.40    1.50
   7   4  -4    4.40    1.50
  -7   4   4    5.70    1.40
   7   4  -4    6.10    1.60
  -7   4   4    5.00    1.60
  -6  -4   4  186.18    5.80
   6  -4  -4  190.78    6.30
  -6  -4   4  193.68    6.40
   6  -4  -4  189.18    6.30
  -6  -4   4  180.38    6.40
   6  -4  -4  193.38    6.20
  -6   4   4  194.38    6.30
  -6   4   4  189.38    6.40
  -6   4   4  200.08    6.20
   6   4  -4  191.08    6.40
   6   4  -4  195.78    6.00
   6   4  -4  192.58    6.40
  -5  -4   4    1.60    1.10
   5  -4  -4    2.00    1.00
   5  -4  -4    1.20    0.90
  -5  -4   4    4.20    1.00
  -5  -4   4    3.00    0.80
   5  -4  -4    3.30    1.00
   5   4  -4    3.90    1.00
  -5   4   4    2.40    0.90
   5   4  -4    2.80    0.90
   5   4  -4    4.80    1.10
  -5   4   4    3.60    1.00
  -5   4   4    0.90    0.90
   5   4  -4    2.30    0.80
  -4  -4   4  562.84   15.60
   4  -4  -4  586.44   15.30
   4  -4  -4  581.34   15.40
  -4  -4   4  573.94   15.30
  -4  -4   4  565.24   15.50
   4  -4  -4  583.54   15.40
   4   4  -4  570.24   15.50
  -4   4   4  585.24   15.50
   4   4  -4  569.34   15.50
   4   4  -4  574.74   14.80
   4   4  -4  567.34   15.10
   4   4  -4  580.84   14.90
  -4   4   4  575.94   15.50
  -4   4   4  584.04   15.30
   3  -4  -4    5.70    0.90
  -3  -4   4    3.80    1.00
   3  -4  -4    5.40    1.00
   3  -4  -4    6.60    1.10
  -3  -4   4    4.30    0.70
   3  -4  -4    5.10    1.00
  -3  -4   4    4.70    0.80
  -3  -4   4    4.50    0.90
  -3   4   4    5.20    1.00
  -3   4   4    5.00    1.10
  -3   4   4    4.20    0.90
   3   4  -4    5.20    1.10
   3   4  -4    6.20    0.90
   3   4  -4    4.20    0.70
   3   4  -4    4.30    1.00
   3   4  -4    5.80    0.80
  -3   4   4    7.30    0.80
  -2  -4   4  451.55   12.90
   2  -4  -4  472.15   12.70
   2  -4  -4  499.85   12.40
   2  -4  -4  487.55   12.80
   2  -4  -4  488.05   12.60
   2  -4  -4  496.95   12.40
  -2  -4   4  469.65   12.80
  -2  -4   4  475.85   12.40
   2   4  -4  483.95   12.40
  -2   4   4  494.95   12.60
   2   4  -4  471.35   12.80
   2   4  -4  469.35   12.70
  -2   4   4  478.65   12.70
  -2   4   4  490.55   12.60
  -2   4   4  461.75   12.80
   2   4  -4  484.65   12.30
   1  -4  -4   49.30    1.80
  -1  -4   4   48.40    1.90
  -1  -4   4   54.79    2.10
   1  -4  -4   49.99    1.80
   1  -4  -4   49.00    1.90
  -1  -4   4   50.59    2.00
  -1  -4   4   50.09    1.70
   1  -4  -4   49.90    1.90
   1   4  -4   49.50    1.90
  -1   4   4   48.60    1.90
   1   4  -4   49.10    1.90
  -1   4   4   47.40    2.00
  -1   4   4   47.50    1.90
   1   4  -4   48.70    1.80
  -1   4   4   49.10    1.90
  -1   4   4   48.10    1.80
   0  -4  -4   14.00    0.80
   0  -4   4   15.10    1.10
   0  -4  -4   14.80    0.90
   0  -4   4   14.80    1.00
   0  -4   4   13.20    1.00
   0  -4   4   13.70    1.10
   0  -4  -4   10.70    1.00
   0  -4  -4   14.40    1.00
   0   4   4   13.60    0.80
   0   4   4   14.10    1.00
   0   4  -4   14.80    1.00
   0   4  -4   14.50    1.00
   0   4   4   12.00    1.00
   0   4   4   13.00    1.00
   0   4  -4   15.90    1.00
   0   4  -4   14.60    1.10
   0   4  -4   14.30    1.20
  -1  -4  -4   57.19    1.70
  -1  -4  -4   54.59    2.20
   1  -4   4   59.19    1.80
  -1  -4  -4   56.09    2.00
  -1  -4  -4   59.69    1.90
   1  -4   4   55.69    2.10
   1  -4   4   57.39    2.00
   1  -4   4   55.09    2.10
  -1  -4  -4   53.99    2.10
   1  -4   4   56.89    2.20
   1  -4   4   55.59    1.80
  -1   4  -4   54.99    2.10
  -1   4  -4   60.99    2.00
   1   4   4   55.19    2.20
   1   4   4   52.99    2.10
  -1   4  -4   56.39    2.10
  -1   4  -4   58.39    2.00
   1   4   4   58.39    1.70
   1   4   4   54.09    2.00
   1   4   4   54.49    1.80
  -2  -4  -4  590.44   16.00
   2  -4   4  613.54   16.10
  -2  -4  -4  601.24   15.70
   2  -4   4  604.94   16.00
   2  -4   4  638.74   15.70
  -2  -4  -4  580.94   16.00
   2  -4   4  629.34   15.70
  -2  -4  -4  581.54   15.80
   2   4   4  587.54   15.60
   2   4   4  578.24   16.00
  -2   4  -4  640.04   15.70
  -2   4  -4  621.84   16.00
  -2   4  -4  619.64   16.00
   2   4   4  588.64   16.10
   2   4   4  588.54   15.70
  -2   4  -4  641.24   15.70
   2   4   4  600.44   15.70
  -3  -4  -4    0.20    0.80
   3  -4   4   -0.10    0.70
  -3  -4  -4    0.30    0.60
   3  -4   4    0.40    0.50
  -3  -4  -4    0.50    0.50
   3  -4   4    0.80    0.50
   3   4   4    0.10    0.60
  -3   4  -4    0.80    0.50
   3   4   4    0.00    0.60
  -3   4  -4    0.50    0.60
  -3   4  -4    1.20    0.40
   3   4   4    1.10    0.70
  -3   4  -4    0.40    0.60
   3   4   4    0.50    0.70
   3   4   4    0.80    0.50
  -4  -4  -4  795.02   21.60
   4  -4   4  867.61   21.40
  -4  -4  -4  787.12   21.30
   4  -4   4  857.31   21.90
  -4  -4  -4  802.82   21.50
   4  -4   4  865.41   21.60
  -4  -4  -4  810.32   21.60
  -4   4  -4  848.32   21.80
  -4   4  -4  833.22   21.70
   4   4   4  819.32   21.50
   4   4   4  806.42   21.60
   4   4   4  802.52   21.70
   4   4   4  787.02   21.30
   5  -4   4    9.70    1.90
   5  -4   4    8.90    1.40
  -5  -4  -4   10.40    1.50
  -5  -4  -4    9.00    1.70
  -5  -4  -4   10.90    1.80
   5  -4   4    7.50    1.30
   5   4   4   14.00    1.70
   5   4   4    8.80    1.60
   5   4   4   11.60    1.60
   5   4   4    6.80    1.70
  -5   4  -4    9.30    1.90
   5   4   4   10.40    1.70
   5   4   4    9.70    1.50
  -5   4  -4    9.50    1.80
   6  -4   4   66.49    3.40
  -6  -4  -4   63.69    3.00
  -6  -4  -4   64.89    3.30
   6  -4   4   68.19    3.40
  -6  -4  -4   68.39    3.60
   6   4   4   59.99    3.00
   6   4   4   64.29    3.30
  -6   4  -4   63.09    3.40
   6   4   4   57.79    3.10
   6   4   4   57.89    2.90
  -6   4  -4   64.19    3.40
   6   4   4   60.59    3.10
   6   4   4   63.09    3.00
  -7  -4  -4    7.60    2.00
   7  -4   4   10.70    2.70
   7  -4   4    7.40    1.70
  -7  -4  -4   13.10    2.70
   7   4   4    8.30    1.70
  -7   4  -4    5.80    1.60
  -7   4  -4   10.80    2.80
   7   4   4    7.90    1.70
   7   4   4   11.00    2.80
   7   4   4   13.30    2.70
  -7  -5   4   49.00    3.70
  -7  -5   4   43.10    3.20
   7  -5  -4   40.20    3.20
   7  -5  -4   40.70    3.50
   7  -5  -4   42.20    3.40
  -7   5   4   43.40    3.20
  -7   5   4   43.80    3.40
   7   5  -4   39.50    3.30
  -7   5   4   47.80    3.30
   7   5  -4   42.50    3.20
   7   5  -4   43.00    3.10
   6  -5  -4   72.79    3.60
  -6  -5   4   73.59    3.20
   6  -5  -4   68.29    3.40
  -6  -5   4   76.19    3.60
   6  -5  -4   69.59    3.50
  -6  -5   4   79.49    3.90
   6   5  -4   73.29    3.50
  -6   5   4   72.19    3.50
  -6   5   4   74.89    3.40
   6   5  -4   73.99    3.10
  -6   5   4   77.69    3.60
   6   5  -4   74.39    3.60
  -5  -5   4  274.57    9.00
  -5  -5   4  317.07    8.90
   5  -5  -4  318.47    9.00
  -5  -5   4  305.67    9.30
   5  -5  -4  310.37    9.00
   5  -5  -4  312.17    8.90
   5   5  -4  320.67    8.40
  -5   5   4  313.87    8.90
  -5   5   4  312.97    9.00
   5   5  -4  296.87    9.10
   5   5  -4  307.67    8.60
   5   5  -4  314.77    9.10
  -5   5   4  308.27    9.10
   4  -5  -4    1.40    0.70
  -4  -5   4    2.40    0.60
   4  -5  -4    1.10    0.80
  -4  -5   4    2.30    1.00
   4  -5  -4    2.00    0.90
  -4  -5   4    1.50    0.80
   4   5  -4    2.60    0.80
   4   5  -4    1.80    0.80
   4   5  -4    2.20    0.70
  -4   5   4    2.60    0.90
  -4   5   4    1.80    0.70
   4   5  -4    3.00    0.90
   4   5  -4    2.00    0.60
  -4   5   4    1.80    0.50
  -4   5   4    1.50    0.80
  -4   5   4    3.10    0.70
   4   5  -4    2.60    0.70
  -3  -5   4  569.74   15.60
  -3  -5   4  547.75   15.40
  -3  -5   4  571.64   15.00
   3  -5  -4  595.34   15.10
   3  -5  -4  572.44   15.30
   3  -5  -4  586.34   15.50
   3  -5  -4  576.94   15.10
   3  -5  -4  578.14   15.10
  -3   5   4  587.94   15.10
   3   5  -4  563.84   15.00
  -3   5   4  589.24   15.10
   3   5  -4  579.74   14.90
   3   5  -4  573.24   15.40
   3   5  -4  586.74   15.50
  -3   5   4  590.24   15.50
  -3   5   4  574.74   15.40
   3   5  -4  575.64   14.90
   2  -5  -4  291.77    8.00
   2  -5  -4  293.57    8.00
   2  -5  -4  299.97    7.70
   2  -5  -4  287.97    8.20
  -2  -5   4  283.27    8.30
   2  -5  -4  306.97    7.70
  -2  -5   4  296.47    7.80
  -2  -5   4  290.67    8.30
   2   5  -4  281.77    8.20
  -2   5   4  290.37    8.00
  -2   5   4  288.27    8.10
  -2   5   4  285.17    8.20
   2   5  -4  291.27    7.90
   2   5  -4  289.37    8.10
   1  -5  -4  143.09    4.20
   1  -5  -4  139.49    4.40
  -1  -5   4  139.49    4.40
  -1  -5   4  141.79    4.50
  -1  -5   4  143.09    4.10
   1  -5  -4  142.69    4.30
   1   5  -4  142.09    4.40
   1   5  -4  143.99    4.40
  -1   5   4  139.19    4.50
   1   5  -4  141.79    4.20
  -1   5   4  137.59    4.20
   1   5  -4  143.39    4.20
  -1   5   4  143.79    4.30
   0  -5  -4  155.38    4.70
   0  -5   4  153.78    4.70
   0  -5  -4  160.88    4.50
   0  -5  -4  159.48    4.80
   0  -5   4  153.38    4.60
   0  -5  -4  159.88    4.50
   0  -5   4  148.59    4.80
   0   5   4  153.08    4.80
   0   5  -4  153.28    4.70
   0   5  -4  159.38    4.70
   0   5   4  156.58    4.80
   0   5   4  162.58    4.50
   0   5  -4  157.98    4.60
   1  -5   4  356.36    9.10
   1  -5   4  345.37    9.60
  -1  -5  -4  347.57    9.40
   1  -5   4  341.57    9.60
   1  -5   4  363.56    9.10
  -1  -5  -4  363.06    9.30
  -1  -5  -4  346.17    9.70
  -1  -5  -4  347.57    9.60
  -1   5  -4  336.97    9.60
   1   5   4  350.26    9.30
   1   5   4  349.27    9.70
  -1   5  -4  352.56    9.50
  -1   5  -4  356.46    9.50
   1   5   4  344.67    9.70
   2  -5   4   88.19    3.10
   2  -5   4   88.79    3.30
   2  -5   4   90.19    2.80
  -2  -5  -4   87.09    3.20
  -2  -5  -4   91.19    2.70
   2  -5   4   88.99    2.80
  -2  -5  -4   87.19    3.20
  -2  -5  -4   87.99    2.90
   2   5   4   87.59    2.80
  -2   5  -4   87.29    3.00
   2   5   4   86.89    2.70
  -2   5  -4   88.69    2.80
   2   5   4   88.99    3.20
   2   5   4   83.89    3.10
  -2   5  -4   90.09    3.20
   2   5   4   89.09    2.70
  -2   5  -4   90.09    2.90
   2   5   4   87.79    2.90
  -3  -5  -4  734.23   19.40
   3  -5   4  768.12   19.50
  -3  -5  -4  725.93   19.30
   3  -5   4  734.03   19.80
  -3  -5  -4  737.23   19.70
  -3  -5  -4  724.03   19.60
   3  -5   4  749.33   19.30
  -3   5  -4  782.12   19.20
   3   5   4  726.73   19.60
   3   5   4  719.53   19.30
  -3   5  -4  770.32   19.60
  -3   5  -4  746.03   19.60
  -3   5  -4  765.42   19.20
   3   5   4  728.33   19.70
   3   5   4  712.53   19.20
  -4  -5  -4   13.70    1.50
  -4  -5  -4   13.10    1.50
   4  -5   4    9.50    1.70
  -4  -5  -4   11.50    1.70
   4  -5   4   12.30    1.50
   4  -5   4   12.30    1.50
   4   5   4    9.30    1.60
   4   5   4   13.00    1.50
  -4   5  -4   11.00    1.60
  -4   5  -4   11.70    1.70
  -4   5  -4   12.00    1.10
   4   5   4   13.70    1.60
   4   5   4    8.40    1.50
   4   5   4   12.40    1.40
   5  -5   4  286.07    8.60
   5  -5   4  292.37    7.90
  -5  -5  -4  271.97    8.20
   5  -5   4  285.77    8.30
  -5  -5  -4  275.07    8.40
  -5  -5  -4  272.87    8.20
   5   5   4  274.27    8.00
   5   5   4  281.77    8.40
   5   5   4  282.47    8.30
   5   5   4  272.67    8.20
   5   5   4  272.97    8.30
  -5   5  -4  286.67    8.50
  -5   5  -4  281.57    8.40
   5   5   4  271.47    8.20
   6  -5   4    4.50    1.60
  -6  -5  -4    3.20    1.50
  -6  -5  -4    5.20    1.30
  -6  -5  -4    4.00    1.50
   6  -5   4    4.00    1.50
   6   5   4    8.20    2.00
   6   5   4    8.30    2.20
   6   5   4    2.80    1.20
   6   5   4    4.70    1.30
   6   5   4    4.50    1.50
  -6   5  -4    3.50    1.30
  -6   5  -4    4.20    1.60
   6   5   4    3.20    1.40
   7  -5   4    5.20    1.80
  -7  -5  -4    3.20    1.90
   7  -5   4    4.70    1.80
  -7  -5  -4    4.60    1.70
   7   5   4    6.60    1.80
   7   5   4    6.90    1.80
   7   5   4    6.60    1.80
  -7   5  -4    5.70    1.70
  -7   5  -4    5.50    1.90
   7   5   4    6.70    1.70
   7  -6  -4   61.89    3.90
   7  -6  -4   68.59    3.90
   7  -6  -4   65.19    4.00
  -7  -6   4   64.49    4.30
   7   6  -4   66.79    3.70
   7   6  -4   56.49    3.90
  -7   6   4   63.49    3.80
   7   6  -4   64.79    3.90
  -7   6   4   59.99    4.00
   6  -6  -4    9.90    2.40
  -6  -6   4   14.80    2.70
   6  -6  -4   15.20    2.30
   6  -6  -4   12.10    2.50
  -6  -6   4   14.40    2.30
   6   6  -4   14.80    2.30
  -6   6   4   11.70    2.30
   6   6  -4   10.80    2.30
   6   6  -4   18.50    2.40
  -6   6   4   13.50    2.50
  -6   6   4   11.20    2.40
   5  -6  -4   60.59    2.80
   5  -6  -4   52.09    2.90
  -5  -6   4   60.29    3.00
  -5  -6   4   55.69    3.30
   5  -6  -4   61.29    3.20
  -5   6   4   60.29    3.00
  -5   6   4   59.19    2.80
  -5   6   4   55.99    3.10
   5   6  -4   57.69    3.10
   5   6  -4   62.59    3.10
   5   6  -4   61.99    3.20
   5   6  -4   58.69    2.40
  -4  -6   4   13.40    2.00
  -4  -6   4   12.60    1.30
  -4  -6   4   13.80    1.80
   4  -6  -4   12.80    1.60
   4  -6  -4   13.20    1.80
   4  -6  -4   14.20    1.70
  -4   6   4   13.20    1.90
  -4   6   4   11.20    1.70
   4   6  -4   12.70    1.20
   4   6  -4   13.00    1.80
  -4   6   4   14.00    1.40
  -4   6   4   13.90    1.50
   4   6  -4   16.10    1.70
   3  -6  -4  103.89    3.70
  -3  -6   4  103.79    3.90
   3  -6  -4  104.89    3.20
   3  -6  -4  104.29    3.30
  -3  -6   4  104.19    3.30
  -3  -6   4  102.39    3.80
   3  -6  -4  104.69    3.40
   3  -6  -4  105.59    3.60
   3   6  -4  102.29    3.60
  -3   6   4  103.49    3.80
  -3   6   4  103.99    3.70
   3   6  -4  100.99    3.70
  -3   6   4  103.59    3.40
  -2  -6   4   36.40    2.00
   2  -6  -4   34.90    2.00
   2  -6  -4   33.30    1.70
  -2  -6   4   31.10    2.00
   2  -6  -4   34.00    1.70
  -2  -6   4   34.30    1.60
  -2   6   4   29.70    1.90
  -2   6   4   32.70    1.90
   2   6  -4   34.40    1.90
   2   6  -4   35.50    1.80
  -2   6   4   31.80    1.70
   2   6  -4   38.00    2.10
  -1  -6   4  141.79    4.30
  -1  -6   4  138.09    4.60
   1  -6  -4  144.29    4.50
   1  -6  -4  136.59    4.20
  -1  -6   4  161.38    4.70
   1  -6  -4  139.79    4.60
   1   6  -4  160.58    4.70
   1   6  -4  140.09    4.30
  -1   6   4  137.09    4.30
   1   6  -4  136.09    4.50
  -1   6   4  135.39    4.60
  -1   6   4  140.59    4.50
   0  -6   4    8.20    1.20
   0  -6   4    9.60    1.10
   0  -6  -4    8.40    0.90
   0  -6  -4    8.80    1.30
   0  -6  -4    7.30    1.20
   0  -6   4    8.90    1.30
   0   6   4    8.10    1.00
   0   6  -4    7.40    1.20
   0   6   4    8.60    1.30
   0   6  -4    9.00    1.20
   0   6   4    8.50    1.30
   0   6  -4    8.40    1.10
   1  -6   4  835.92   21.60
  -1  -6  -4  816.52   21.20
   1  -6   4  816.22   21.50
  -1  -6  -4  820.72   21.50
  -1  -6  -4  821.72   21.60
  -1   6  -4  829.32   21.40
   1   6   4  812.62   21.20
  -1   6  -4  800.12   21.50
   1   6   4  827.22   21.70
  -1   6  -4  814.52   21.30
   1   6   4  820.02   21.70
   2  -6   4   10.80    1.10
   2  -6   4   16.50    1.60
   2  -6   4   13.80    1.50
   2  -6   4   12.30    1.30
  -2  -6  -4   15.40    1.50
  -2  -6  -4   16.20    1.20
  -2  -6  -4   15.00    1.50
  -2   6  -4   14.70    1.30
   2   6   4   14.40    1.50
   2   6   4   14.20    1.00
   2   6   4   14.90    1.20
   2   6   4   16.30    1.60
  -2   6  -4   16.50    1.50
  -2   6  -4   14.70    1.30
   2   6   4   13.60    1.00
   3  -6   4   92.49    3.30
  -3  -6  -4   84.49    3.40
  -3  -6  -4   91.09    3.20
  -3  -6  -4   84.39    3.50
   3  -6   4   92.29    3.60
   3  -6   4   91.39    3.10
   3   6   4   85.79    3.50
   3   6   4   87.79    3.00
  -3   6  -4   95.09    3.40
  -3   6  -4   94.69    3.10
   3   6   4   83.79    3.00
  -3   6  -4   88.99    3.40
   3   6   4   88.29    3.50
   3   6   4   84.39    3.00
   4  -6   4   72.29    3.40
   4  -6   4   72.89    2.90
  -4  -6  -4   67.19    3.30
  -4  -6  -4   71.09    2.90
   4  -6   4   72.19    3.00
  -4  -6  -4   76.99    2.90
   4   6   4   74.69    2.90
   4   6   4   68.89    3.30
   4   6   4   72.39    3.20
  -4   6  -4   73.49    2.70
   4   6   4   74.79    3.30
   4   6   4   73.39    2.90
  -4   6  -4   76.29    3.30
  -4   6  -4   74.99    3.30
  -5  -6  -4    1.20    1.30
   5  -6   4    1.90    1.00
   5  -6   4    1.00    1.30
   5  -6   4    0.60    1.20
  -5  -6  -4    1.00    1.20
  -5  -6  -4    0.10    1.10
   5   6   4    1.80    1.30
   5   6   4    1.20    1.20
   5   6   4    1.00    1.00
   5   6   4    1.40    1.00
  -5   6  -4    2.40    1.40
   5   6   4    2.20    1.20
  -5   6  -4    0.90    1.10
   5   6   4    2.50    1.10
  -6  -6  -4   11.60    2.70
   6  -6   4    9.60    2.40
   6  -6   4   16.90    2.90
  -6  -6  -4   12.00    2.60
   6   6   4    9.70    1.90
  -6   6  -4   10.90    2.70
   6   6   4   11.20    2.30
   6   6   4   15.60    2.60
  -6   6  -4   15.80    2.60
   6   6   4    8.10    1.60
   6   6   4   13.10    2.60
   6   6   4    8.10    1.70
  -6  -7   4   93.49    4.40
   6  -7  -4   98.29    4.40
  -6  -7   4   99.09    4.60
   6  -7  -4   92.49    4.50
   6   7  -4   86.39    4.20
  -6   7   4   98.69    4.40
   6   7  -4   91.99    4.50
  -6   7   4   93.29    4.40
   6   7  -4   99.99    4.50
  -5  -7   4   41.80    3.20
  -5  -7   4   45.50    3.20
   5  -7  -4   51.49    2.80
   5  -7  -4   46.80    3.10
   5  -7  -4   45.40    2.90
   5   7  -4   46.10    3.20
   5   7  -4   49.20    3.00
  -5   7   4   44.30    3.00
  -5   7   4   48.70    2.60
   5   7  -4   45.50    2.90
  -5   7   4   49.70    3.10
  -4  -7   4    0.70    0.90
  -4  -7   4    0.30    1.20
   4  -7  -4    0.40    0.90
  -4  -7   4   -0.70    1.10
   4  -7  -4    1.80    1.10
   4  -7  -4    1.70    1.00
   4  -7  -4    0.40    0.80
   4   7  -4    1.20    1.00
   4   7  -4   -0.40    1.20
   4   7  -4    0.30    1.00
  -4   7   4    0.60    1.20
  -4   7   4    0.40    0.90
  -4   7   4    1.70    1.00
  -3  -7   4   63.49    3.10
  -3  -7   4   61.39    2.50
   3  -7  -4   62.29    2.70
   3  -7  -4   63.09    3.00
   3  -7  -4   63.79    2.70
   3  -7  -4   61.19    2.20
  -3  -7   4   62.59    3.00
   3   7  -4   68.99    3.00
   3   7  -4   60.69    3.10
   3   7  -4   66.39    2.70
  -3   7   4   59.09    2.70
  -3   7   4   61.39    2.90
  -3   7   4   63.69    3.10
  -2  -7   4  462.45   13.00
   2  -7  -4  472.55   12.70
  -2  -7   4  467.45   12.50
   2  -7  -4  463.85   12.90
  -2  -7   4  467.75   13.00
   2  -7  -4  468.25   12.50
  -2   7   4  475.95   12.70
  -2   7   4  461.75   12.70
   2   7  -4  465.95   12.60
   2   7  -4  461.75   13.00
  -2   7   4  464.25   13.00
   2   7  -4  454.75   12.80
  -1  -7   4   73.29    3.00
  -1  -7   4   74.29    3.10
   1  -7  -4   78.39    3.00
  -1  -7   4   76.49    2.80
   1  -7  -4   76.19    2.70
   1  -7  -4   75.49    3.10
   1   7  -4   73.19    3.00
  -1   7   4   74.69    2.90
   1   7  -4   76.39    3.20
  -1   7   4   76.09    3.10
   1   7  -4   75.89    2.80
  -1   7   4   78.59    3.20
   0  -7  -4  430.66   11.50
   0  -7  -4  423.76   11.90
   0  -7  -4  428.86   11.90
   0  -7   4  430.46   11.70
   0  -7   4  437.76   12.10
   0   7  -4  421.96   11.60
   0   7   4  425.86   12.00
   0   7  -4  429.66   11.90
   0   7  -4  437.76   11.90
   0   7   4  427.26   12.00
   0   7   4  428.86   11.60
  -1  -7  -4   52.49    2.10
   1  -7   4   50.49    2.50
  -1  -7  -4   54.09    2.60
   1  -7   4   53.69    2.50
  -1  -7  -4   53.79    2.50
  -1   7  -4   47.90    2.20
   1   7   4   48.90    2.60
  -1   7  -4   51.39    2.40
  -1   7  -4   52.39    2.50
   1   7   4   49.20    2.60
   1   7   4   50.79    2.20
  -2  -7  -4  154.98    4.70
   2  -7   4  153.28    5.10
   2  -7   4  138.99    4.40
  -2  -7  -4  154.08    5.20
  -2  -7  -4  156.78    5.10
   2  -7   4  158.48    5.20
   2   7   4  159.68    5.20
   2   7   4  153.18    4.70
  -2   7  -4  152.58    5.10
  -2   7  -4  155.78    4.90
   2   7   4  154.28    5.20
  -2   7  -4  153.48    4.90
   3  -7   4  242.88    7.00
  -3  -7  -4  239.08    7.20
  -3  -7  -4  215.08    7.20
  -3  -7  -4  235.38    6.70
   3  -7   4  235.08    6.60
   3  -7   4  214.08    7.20
  -3   7  -4  212.08    7.10
   3   7   4  227.38    7.20
   3   7   4  233.08    6.50
  -3   7  -4  244.08    7.00
  -3   7  -4  240.38    6.80
   3   7   4  230.78    7.30
   3   7   4  236.58    6.80
  -4  -7  -4    0.80    0.90
  -4  -7  -4    0.40    1.20
   4  -7   4   -0.10    0.90
  -4  -7  -4    0.30    1.20
   4  -7   4    1.00    1.20
   4  -7   4    0.80    1.00
   4   7   4    0.00    1.10
  -4   7  -4    0.50    1.20
  -4   7  -4   -0.30    1.10
   4   7   4   -0.70    1.00
   4   7   4    1.50    0.90
  -4   7  -4    1.20    1.00
   4   7   4    1.00    0.90
  -5  -7  -4   84.79    3.60
  -5  -7  -4   85.39    4.10
   5  -7   4   87.89    4.10
   5  -7   4   86.69    3.80
  -5   7  -4   91.69    4.20
   5   7   4   84.29    3.70
   5   7   4   81.39    4.10
   5   7   4   85.79    3.90
   5   7   4   83.89    3.60
  -5   7  -4   90.39    4.10
   5   7   4   86.99    3.70
   5   7   4   94.89    4.00
  -6  -7  -4   53.19    3.50
   6  -7   4   47.30    3.60
   6  -7   4   57.59    3.80
  -6   7  -4   55.49    3.80
  -6   7  -4   55.29    3.80
   6   7   4   55.99    3.60
   6   7   4   49.50    3.70
   6   7   4   52.39    3.70
   6   7   4   52.19    3.60
  -6  -8   4   38.50    3.70
   6  -8  -4   40.80    3.40
   6  -8  -4   39.80    3.70
  -6  -8   4   46.10    3.80
   6   8  -4   40.40    3.60
  -6   8   4   32.90    3.40
   6   8  -4   41.90    3.40
  -6   8   4   39.80    3.20
   6   8  -4   33.00    3.10
  -5  -8   4    3.00    1.60
  -5  -8   4    1.90    1.60
   5  -8  -4    1.70    1.40
   5  -8  -4    3.50    1.70
  -5   8   4    3.30    1.50
   5   8  -4    2.10    1.40
   5   8  -4    1.60    1.50
  -5   8   4    2.70    1.80
   5   8  -4    2.40    1.40
  -4  -8   4  416.06   12.00
  -4  -8   4  409.56   12.10
   4  -8  -4  423.06   12.00
   4  -8  -4  388.96   11.50
  -4  -8   4  373.06   11.30
   4  -8  -4  436.06   11.30
   4   8  -4  399.86   12.10
  -4   8   4  406.56   11.30
   4   8  -4  409.06   11.60
  -4   8   4  418.26   12.00
   4   8  -4  418.36   11.90
  -4   8   4  405.06   11.80
   3  -8  -4   19.70    1.90
  -3  -8   4   19.40    2.20
  -3  -8   4   22.60    1.80
  -3  -8   4   19.10    2.40
   3  -8  -4   21.00    1.90
   3  -8  -4   19.40    2.30
  -3   8   4   21.10    1.90
   3   8  -4   17.90    2.10
  -3   8   4   21.00    2.00
   3   8  -4   20.70    2.10
   3   8  -4   17.00    1.90
  -3   8   4   22.20    2.50
  -2  -8   4   96.99    3.90
   2  -8  -4   92.49    3.30
  -2  -8   4   98.79    3.40
  -2  -8   4   89.59    3.90
   2  -8  -4   96.39    3.90
   2  -8  -4   98.99    3.70
  -2   8   4   90.99    3.90
  -2   8   4   96.69    3.70
  -2   8   4   97.89    3.70
   2   8  -4   94.39    3.50
   2   8  -4   95.49    3.80
   2   8  -4   89.89    3.90
  -1  -8   4   63.69    2.70
   1  -8  -4   64.59    2.60
  -1  -8   4   64.59    3.10
   1  -8  -4   57.69    2.90
   1  -8  -4   62.89    2.90
   1   8  -4   63.39    2.90
  -1   8   4   62.29    3.00
  -1   8   4   66.89    3.10
  -1   8   4   63.49    2.80
   1   8  -4   65.79    2.60
   1   8  -4   62.49    3.10
   0  -8   4    7.40    1.60
   0  -8  -4    6.20    1.30
   0  -8  -4    5.70    1.10
   0  -8   4    5.30    1.10
   0  -8  -4    7.50    1.70
   0   8   4   10.10    1.50
   0   8   4    6.90    1.70
   0   8   4    6.00    1.20
   0   8  -4    5.60    1.20
   0   8  -4    5.80    1.20
   0   8  -4    5.10    1.40
   1  -8   4   87.29    3.50
  -1  -8  -4   81.79    3.50
  -1  -8  -4   83.29    2.90
  -1  -8  -4   84.79    3.40
   1  -8   4   81.59    3.50
   1   8   4   80.79    3.50
   1   8   4   84.89    3.10
   1   8   4   71.59    3.40
  -1   8  -4   71.09    3.30
  -1   8  -4   81.29    3.40
  -1   8  -4   82.19    3.00
  -2  -8  -4  377.06   11.10
   2  -8   4  369.06   10.90
  -2  -8  -4  382.86   10.40
  -2  -8  -4  384.06   11.00
   2  -8   4  389.86   11.10
   2   8   4  388.76   11.20
  -2   8  -4  380.66   10.60
  -2   8  -4  388.36   10.70
   2   8   4  380.76   11.20
  -2   8  -4  380.56   11.00
   2   8   4  382.66   10.60
  -3  -8  -4    9.20    2.10
   3  -8   4    7.60    1.60
   3  -8   4   10.20    2.00
  -3  -8  -4    8.80    2.10
   3  -8   4    7.70    1.50
  -3  -8  -4    8.70    1.60
   3   8   4    7.60    2.00
   3   8   4    8.90    2.10
  -3   8  -4   10.40    1.90
  -3   8  -4   12.10    1.70
  -3   8  -4    7.40    1.50
   3   8   4    8.80    1.70
   4  -8   4  271.57    8.00
  -4  -8  -4  246.38    7.60
   4  -8   4  261.47    8.30
  -4  -8  -4  265.67    8.20
  -4  -8  -4  257.47    8.30
   4  -8   4  264.47    7.60
  -4   8  -4  268.17    8.10
   4   8   4  254.87    8.30
  -4   8  -4  255.67    8.20
   4   8   4  254.67    7.70
   4   8   4  257.37    7.70
   4   8   4  258.27    8.30
   5  -8   4    7.50    1.80
   5  -8   4   11.40    2.30
  -5  -8  -4    8.70    1.60
  -5  -8  -4    6.20    2.00
  -5   8  -4    8.50    1.90
   5   8   4    8.10    1.70
  -5   8  -4    7.10    1.80
   5   8   4    9.70    2.40
   5   8   4    7.10    1.60
   5   8   4    6.60    1.80
   5   8   4   15.20    2.70
  -5  -9   4  124.89    5.70
   5  -9  -4  125.89    5.30
  -5  -9   4  128.89    5.60
   5  -9  -4  134.99    5.30
   5   9  -4  119.69    5.50
  -5   9   4  128.99    5.50
  -5   9   4  131.69    5.30
   5   9  -4  126.89    5.80
   5   9  -4  129.59    5.20
   4  -9  -4    0.60    1.40
  -4  -9   4    1.60    1.40
  -4  -9   4    4.60    1.70
   4  -9  -4    2.50    1.40
  -4   9   4    1.60    1.70
   4   9  -4    0.20    1.40
   4   9  -4    0.80    1.30
   4   9  -4    0.80    1.40
  -4   9   4    1.90    1.40
   3  -9  -4  221.18    7.40
   3  -9  -4  222.38    6.90
  -3  -9   4  222.88    6.90
  -3  -9   4  227.68    7.50
   3  -9  -4  232.48    7.20
  -3  -9   4  232.28    7.50
   3   9  -4  226.98    7.30
  -3   9   4  228.58    7.20
   3   9  -4  232.68    7.00
   3   9  -4  221.98    7.60
  -3   9   4  219.98    7.50
  -3   9   4  230.78    7.30
  -2  -9   4   36.50    2.30
   2  -9  -4   36.80    2.20
  -2  -9   4   38.20    2.80
   2  -9  -4   32.10    2.60
   2  -9  -4   37.50    2.60
  -2   9   4   39.80    2.60
   2   9  -4   35.70    2.80
   2   9  -4   41.60    2.60
  -2   9   4   37.60    2.90
  -2   9   4   39.50    2.80
   2   9  -4   37.90    2.20
   1  -9  -4   22.30    2.30
  -1  -9   4   26.10    2.20
   1  -9  -4   26.40    1.90
   1  -9  -4   24.40    2.30
  -1  -9   4   24.40    2.30
  -1   9   4   24.90    2.60
  -1   9   4   27.00    2.50
  -1   9   4   24.80    2.20
   1   9  -4   25.50    2.00
   1   9  -4   25.60    2.60
   1   9  -4   29.80    2.30
   0  -9  -4   74.29    3.40
   0  -9   4   71.89    3.40
   0  -9  -4   74.89    3.50
   0  -9   4   74.29    3.50
   0  -9  -4   71.49    2.90
   0   9   4   77.29    3.60
   0   9   4   70.39    3.70
   0   9   4   73.89    3.20
   0   9  -4   75.99    3.40
   0   9  -4   72.39    3.00
   0   9  -4   74.59    3.60
  -1  -9  -4   69.29    3.50
   1  -9   4   69.59    3.40
  -1  -9  -4   68.89    2.90
   1  -9   4   70.19    3.50
  -1  -9  -4   71.09    3.40
   1   9   4   69.09    3.50
  -1   9  -4   71.09    3.40
   1   9   4   71.19    3.60
  -1   9  -4   72.49    3.00
   1   9   4   71.39    3.20
  -1   9  -4   71.59    3.40
   2  -9   4   24.90    2.50
  -2  -9  -4   29.70    2.50
  -2  -9  -4   28.20    2.70
   2  -9   4   27.20    2.70
  -2  -9  -4   20.70    1.90
   2   9   4   21.90    2.20
  -2   9  -4   28.30    2.10
   2   9   4   30.60    2.60
  -2   9  -4   28.00    2.40
   2   9   4   27.50    2.50
  -2   9  -4   26.80    2.40
   3  -9   4  199.88    6.60
   3  -9   4  187.28    6.70
  -3  -9  -4  192.38    6.60
  -3  -9  -4  198.48    6.80
   3   9   4  197.78    6.30
   3   9   4  197.88    6.80
   3   9   4  190.18    6.80
  -3   9  -4  187.98    6.60
  -3   9  -4  201.18    6.30
  -3   9  -4  182.88    6.20
  -4  -9  -4   -0.80    1.70
  -4  -9  -4   -1.00    1.40
   4  -9   4    2.80    1.50
   4  -9   4    0.70    1.70
   4   9   4   -0.80    1.60
  -4   9  -4    0.90    1.60
   4   9   4   -0.10    1.50
   4   9   4    0.00    1.30
  -4   9  -4    0.20    1.50
   5  -9   4   74.79    4.70
  -5  -9  -4   86.49    4.70
   5   9   4   93.29    4.70
   5   9   4   84.49    4.50
   5   9   4  104.49    4.70
  -5   9  -4   90.49    4.80
   4 -10  -4   15.70    3.00
  -4 -10   4   16.10    3.10
   4  10  -4   16.30    3.20
  -4  10   4   12.90    2.00
  -4  10   4   15.90    3.40
   4  10  -4   12.10    2.70
  -3 -10   4   36.40    3.40
   3 -10  -4   34.10    3.10
   3 -10  -4   36.90    3.20
   3  10  -4   40.50    3.50
  -3  10   4   39.50    3.10
  -3  10   4   37.10    3.20
   3  10  -4   36.80    2.90
  -3  10   4   40.30    3.50
  -2 -10   4   31.20    3.00
   2 -10  -4   27.00    2.90
  -2 -10   4   25.60    2.60
   2 -10  -4   28.00    2.80
  -2  10   4   33.50    3.00
  -2  10   4   31.60    2.70
   2  10  -4   28.00    3.00
   2  10  -4   28.60    2.70
  -2  10   4   29.80    3.10
   1 -10  -4  114.59    4.60
  -1 -10   4  109.09    4.50
  -1 -10   4  107.99    4.70
   1 -10  -4  114.89    4.70
  -1  10   4  107.09    4.80
   1  10  -4  102.19    4.40
  -1  10   4  108.09    4.40
  -1  10   4  115.59    4.90
   1  10  -4  112.79    4.80
   0 -10   4    4.60    1.60
   0 -10  -4    5.00    1.40
   0 -10  -4    8.90    2.20
   0 -10   4    5.20    1.40
   0  10   4    6.30    1.50
   0  10   4    4.60    1.60
   0  10  -4    6.30    1.70
   0  10  -4    5.30    1.40
   0  10   4    4.80    1.50
  -1 -10  -4  532.25   15.30
   1 -10   4  548.15   15.40
  -1 -10  -4  551.44   15.50
   1 -10   4  543.35   15.30
  -1  10  -4  550.14   15.30
   1  10   4  546.25   15.60
   1  10   4  538.35   15.60
  -1  10  -4  533.15   15.30
   1  10   4  537.65   15.00
  -2 -10  -4   30.10    2.80
   2 -10   4   28.30    2.80
   2 -10   4   24.60    2.90
  -2 -10  -4   26.00    2.80
   2  10   4   24.70    3.00
   2  10   4   23.20    2.70
  -2  10  -4   25.40    2.80
  -2  10  -4   30.00    2.80
   2  10   4   28.20    2.80
   3 -10   4   13.80    2.90
  -3 -10  -4   11.10    2.90
  -3 -10  -4   13.80    2.80
   3 -10   4   18.10    3.00
   3  10   4   14.50    2.80
   3  10   4   14.90    2.70
  -3  10  -4   10.90    2.80
   3  10   4    9.70    1.80
   2 -11  -4  123.09    5.50
  -2 -11   4  130.39    5.00
   2 -11  -4  132.69    5.40
  -2 -11   4  121.69    5.60
  -2  11   4  118.79    5.10
  -2  11   4  121.89    5.60
   2  11  -4  115.39    5.00
  -2  11   4  132.19    5.60
   2  11  -4  113.19    5.50
   1 -11  -4    4.40    1.60
  -1 -11   4    4.10    1.60
  -1 -11   4    3.10    1.90
   1 -11  -4    5.70    1.80
   1  11  -4    4.00    1.90
  -1  11   4   10.80    2.80
  -1  11   4    4.40    1.80
   1  11  -4    4.80    1.60
  -1  11   4    4.70    1.90
   0 -11  -4  172.68    6.60
   0 -11   4  178.28    6.60
   0 -11  -4  185.08    6.60
   0 -11   4  185.48    6.70
   0  11   4  180.28    6.40
   0  11   4  171.58    6.80
   0  11   4  186.18    6.80
   0  11  -4  177.08    6.70
   0  11  -4  174.18    6.50
   1 -11   4   19.10    2.80
  -1 -11  -4   19.00    2.90
  -1 -11  -4   15.50    2.90
   1 -11   4   23.20    3.30
  -1  11  -4   21.10    2.90
   1  11   4   18.30    3.40
   1  11   4   14.30    3.00
  -1  11  -4   17.50    3.30
   1  11   4   17.40    3.00
  -2 -11  -4  136.69    5.70
   2 -11   4  143.39    5.70
  -2 -11  -4  133.89    5.80
   2 -11   4  145.29    5.90
  -2  11  -4  137.79    5.70
   2  11   4  133.09    6.00
   2  11   4  145.89    5.50
   2  11   4  133.49    5.90
  -2  11  -4  129.69    5.70
   8   0  -5   -0.50    1.60
  -8   0   5   -2.40    1.50
  -8   0   5   -0.70    1.70
   8   0  -5    1.30    1.30
  -7   0   5   43.50    3.00
   7   0  -5   46.10    2.70
  -7   0   5   43.20    2.80
   7   0  -5   46.00    3.00
   6   0  -5    0.10    0.70
   6   0  -5    0.50    0.90
  -6   0   5    0.60    1.00
   6   0  -5   -0.10    1.00
   5   0  -5    8.90    1.50
   5   0  -5    4.10    1.00
  -5   0   5    5.20    1.00
   5   0  -5    6.70    1.20
  -5   0   5    7.90    1.20
  -5   0   5    5.80    1.40
   4   0  -5   -0.50    0.50
  -4   0   5    0.20    0.70
   4   0  -5   -1.00    0.60
  -4   0   5    0.60    0.40
   4   0  -5    0.20    0.40
  -4   0   5   -0.70    0.40
  -4   0   5    0.90    0.70
  -3   0   5  705.63   18.60
   3   0  -5  724.23   18.30
   3   0  -5  704.53   18.50
   3   0  -5  723.73   18.10
  -3   0   5  721.23   18.30
  -3   0   5  687.23   18.70
  -3   0   5  732.43   18.10
   3   0  -5  706.03   18.60
  -2   0   5   -0.60    0.40
  -2   0   5   -1.00    0.30
  -2   0   5   -1.10    0.40
   2   0  -5   -0.70    0.40
   2   0  -5   -0.20    0.50
   2   0  -5   -0.60    0.40
  -2   0   5   -0.90    0.20
  -2   0   5   -0.70    0.40
  -2   0   5   -0.90    0.30
   2   0  -5   -0.50    0.20
   2   0  -5   -0.70    0.40
   2   0  -5   -0.90    0.40
   1   0  -5  652.73   16.70
  -1   0   5  678.53   16.90
   1   0  -5  642.94   16.80
  -1   0   5  656.13   16.80
  -1   0   5  653.23   16.90
  -1   0   5  661.03   16.70
   1   0  -5  659.03   17.00
  -1   0   5  662.83   16.80
  -1   0   5  642.14   17.00
   1   0  -5  650.83   16.80
   1   0  -5  644.14   16.90
   1   0  -5  656.43   16.90
   0   0   5   -0.70    0.30
   0   0   5   -0.30    0.30
   0   0  -5   -0.70    0.20
   0   0  -5   -0.90    0.30
   0   0   5   -1.40    0.30
   0   0  -5   -0.70    0.30
   0   0   5   -0.80    0.30
   0   0   5   -0.60    0.30
   0   0  -5   -1.40    0.30
   0   0  -5   -0.60    0.30
   0   0  -5   -0.90    0.20
   0   0  -5   -1.00    0.20
   0   0   5   -0.40    0.30
  -1   0  -5 1310.77   32.90
  -1   0  -5 1349.96   33.10
   1   0   5 1286.87   33.10
   1   0   5 1349.96   33.10
  -1   0  -5 1281.67   33.20
   1   0   5 1308.87   33.20
  -1   0  -5 1288.67   33.10
   1   0   5 1275.27   33.20
  -1   0  -5 1285.47   33.20
   1   0   5 1297.37   32.80
  -1   0  -5 1254.77   32.80
   1   0   5 1369.56   33.20
   1   0   5 1248.28   32.90
   2   0   5   -0.50    0.30
  -2   0  -5    1.30    0.50
  -2   0  -5   -0.50    0.40
   2   0   5   -0.80    0.40
   2   0   5   -0.40    0.30
   2   0   5   -0.60    0.50
   2   0   5   -0.40    0.40
  -2   0  -5    0.20    0.40
   2   0   5   -0.60    0.50
  -2   0  -5   -0.50    0.40
  -2   0  -5   -0.80    0.50
   3   0   5   93.69    3.20
   3   0   5   97.49    2.90
  -3   0  -5   92.69    3.20
  -3   0  -5   90.69    3.10
  -3   0  -5   90.99    3.10
   3   0   5   95.19    3.00
  -3   0  -5   95.29    2.90
   4   0   5    0.50    0.60
  -4   0  -5    0.40    0.60
  -4   0  -5    0.00    0.70
   4   0   5    0.00    0.70
   4   0   5   -0.10    0.50
  -4   0  -5    0.10    0.60
  -5   0  -5  176.08    5.80
   5   0   5  182.58    5.70
   5   0   5  183.78    5.40
  -5   0  -5  184.48    5.50
  -5   0  -5  178.98    5.70
   5   0   5  181.28    5.80
  -6   0  -5   -1.10    1.10
   6   0   5    1.60    1.10
   6   0   5   -0.80    0.80
   6   0   5    0.00    1.10
  -6   0  -5    0.60    1.00
  -7   0  -5  188.18    6.70
   7   0   5  179.68    6.40
  -7   0  -5  192.28    6.40
   7   0   5  188.08    6.50
   8   0   5   -0.50    1.80
  -8   0  -5    2.60    2.00
  -8   0  -5   -0.60    1.70
   8   0   5    0.60    1.80
  -8  -1   5  100.09    4.60
  -8  -1   5   93.29    4.50
   8  -1  -5   85.99    4.50
   8  -1  -5   89.29    4.10
   8   1  -5   83.79    4.00
   8   1  -5   85.59    4.60
  -8   1   5   92.39    4.40
  -8   1   5   89.89    4.50
  -7  -1   5   18.20    2.20
   7  -1  -5   13.40    2.00
   7  -1  -5   12.40    2.50
   7  -1  -5   16.90    1.90
  -7  -1   5   15.20    2.50
  -7   1   5   16.80    2.40
   7   1  -5   14.60    2.30
  -7   1   5   15.20    2.20
   7   1  -5   15.70    1.90
   6  -1  -5    1.90    1.00
   6  -1  -5    2.60    0.90
  -6  -1   5    0.40    1.10
  -6  -1   5    1.50    1.00
   6  -1  -5    2.30    1.10
   6   1  -5    1.70    0.90
  -6   1   5    2.20    1.10
   6   1  -5    1.70    0.80
   6   1  -5    3.80    1.10
  -6   1   5    4.10    1.10
   5  -1  -5  752.52   20.10
   5  -1  -5  750.52   20.00
  -5  -1   5  763.82   20.00
  -5  -1   5  746.73   19.30
  -5  -1   5  753.62   20.10
   5  -1  -5  744.63   19.50
   5   1  -5  761.72   19.90
   5   1  -5  772.42   19.30
  -5   1   5  752.02   20.00
  -5   1   5  752.62   20.00
   5   1  -5  740.43   19.30
   5   1  -5  753.02   20.20
   5   1  -5  749.82   19.30
  -5   1   5  749.03   19.50
  -4  -1   5    6.10    1.20
   4  -1  -5    6.50    1.20
  -4  -1   5    6.30    0.80
  -4  -1   5    5.50    1.20
   4  -1  -5    5.70    1.10
   4  -1  -5    5.00    0.80
   4   1  -5    6.90    0.90
  -4   1   5    5.90    0.90
   4   1  -5    5.30    0.90
   4   1  -5    6.10    1.30
  -4   1   5    7.10    1.10
  -4   1   5    6.00    1.20
  -3  -1   5  240.18    6.40
  -3  -1   5  230.98    6.50
   3  -1  -5  238.28    6.30
   3  -1  -5  239.68    6.60
   3  -1  -5  229.08    6.60
   3  -1  -5  241.48    6.20
  -3  -1   5  231.58    6.70
  -3  -1   5  227.58    6.60
  -3   1   5  233.08    6.70
   3   1  -5  233.78    6.70
  -3   1   5  242.88    6.20
   3   1  -5  234.48    6.50
  -3   1   5  238.98    6.30
   3   1  -5  234.88    6.40
  -3   1   5  233.98    6.60
   2  -1  -5 1385.06   36.20
   2  -1  -5 1439.66   36.30
  -2  -1   5 1456.85   36.30
  -2  -1   5 1470.85   36.20
  -2  -1   5 1377.16   36.30
  -2  -1   5 1411.46   36.10
   2  -1  -5 1415.66   36.20
  -2  -1   5 1423.66   36.10
   2  -1  -5 1422.16   36.00
   2  -1  -5 1414.06   36.10
   2  -1  -5 1419.76   36.00
  -2   1   5 1451.85   36.20
  -2   1   5 1415.86   36.10
   2   1  -5 1395.96   36.30
   2   1  -5 1410.26   36.30
  -2   1   5 1388.36   36.30
  -2   1   5 1419.26   36.00
   2   1  -5 1382.76   36.10
  -2   1   5 1407.46   36.00
   2   1  -5 1411.66   36.10
  -2   1   5 1495.15   36.20
   2   1  -5 1438.06   36.20
  -1  -1   5    3.00    0.40
   1  -1  -5    2.60    0.40
   1  -1  -5    3.90    0.60
  -1  -1   5    4.00    0.50
  -1  -1   5    2.80    0.60
   1  -1  -5    3.10    0.50
  -1  -1   5    3.20    0.50
  -1  -1   5    3.80    0.60
   1  -1  -5    3.40    0.70
  -1  -1   5    3.20    0.40
   1  -1  -5    3.50    0.60
  -1  -1   5    2.80    0.60
   1  -1  -5    2.70    0.50
  -1   1   5    2.60    0.50
  -1   1   5    3.00    0.60
   1   1  -5    2.50    0.70
  -1   1   5    3.30    0.60
  -1   1   5    3.90    0.60
   1   1  -5    4.10    0.50
   1   1  -5    3.50    0.60
  -1   1   5    2.90    0.50
  -1   1   5    2.60    0.60
   1   1  -5    3.20    0.50
   1   1  -5    3.80    0.70
   0  -1  -5  818.42   21.20
   0  -1  -5  837.32   21.30
   0  -1  -5  808.02   21.20
   0  -1  -5  836.82   21.30
   0  -1   5  830.32   21.30
   0  -1   5  827.42   21.20
   0  -1   5  866.41   21.10
   0  -1   5  849.81   21.20
   0  -1   5  815.12   21.40
   0  -1   5  834.72   21.20
   0  -1   5  799.92   21.20
   0  -1  -5  819.92   21.30
   0   1   5  819.72   21.20
   0   1   5  834.72   21.20
   0   1  -5  834.52   21.20
   0   1  -5  820.12   21.30
   0   1  -5  849.41   21.40
   0   1   5  862.61   21.20
   0   1   5  813.12   21.30
   0   1  -5  819.72   21.20
   0   1  -5  838.62   21.10
   0   1  -5  841.22   21.20
   0   1   5  820.22   21.30
   1  -1   5 1088.79   27.00
   1  -1   5 1061.49   27.30
  -1  -1  -5 1019.50   27.20
  -1  -1  -5 1049.30   27.10
  -1  -1  -5 1098.19   27.30
   1  -1   5 1037.80   27.00
  -1  -1  -5 1051.09   27.20
   1  -1   5 1055.99   27.30
   1  -1   5 1102.79   27.10
  -1  -1  -5 1100.49   27.30
   1  -1   5 1060.59   27.20
   1   1   5 1120.39   27.20
  -1   1  -5 1036.40   27.00
   1   1   5 1047.80   27.20
  -1   1  -5 1076.89   27.10
   1   1   5 1037.10   27.20
  -1   1  -5 1056.89   27.00
   1   1   5 1034.80   27.10
   1   1   5 1064.19   27.30
   1   1   5 1068.19   27.20
  -1   1  -5 1046.40   27.30
  -1   1  -5 1091.09   27.20
  -1   1  -5 1073.19   27.30
  -2  -1  -5  164.68    4.30
   2  -1   5  165.68    4.60
  -2  -1  -5  157.08    4.60
  -2  -1  -5  152.88    4.60
  -2  -1  -5  156.98    4.60
   2  -1   5  165.78    4.50
   2  -1   5  163.88    4.70
  -2  -1  -5  166.48    4.40
   2  -1   5  155.18    4.60
   2   1   5  160.28    4.70
   2   1   5  166.48    4.30
   2   1   5  157.28    4.70
  -2   1  -5  165.18    4.70
   2   1   5  156.68    4.70
  -2   1  -5  158.38    4.70
   2   1   5  162.38    4.40
  -2   1  -5  164.48    4.60
  -2   1  -5  161.48    4.50
   3  -1   5  363.26    9.50
   3  -1   5  349.96    9.60
  -3  -1  -5  342.57    9.60
   3  -1   5  364.96    9.50
   3  -1   5  353.66    9.70
  -3  -1  -5  351.86    9.30
  -3  -1  -5  341.97    9.70
  -3   1  -5  351.46    9.50
   3   1   5  356.06    9.20
  -3   1  -5  347.07    9.70
  -3   1  -5  357.26    9.60
  -3   1  -5  356.96    9.40
   3   1   5  360.86    9.20
   3   1   5  356.96    9.30
   3   1   5  344.97    9.70
   3   1   5  355.66    9.60
   4  -1   5  286.57    8.20
   4  -1   5  287.67    8.10
  -4  -1  -5  287.77    7.80
   4  -1   5  293.47    7.90
  -4  -1  -5  278.67    8.10
  -4  -1  -5  281.87    8.20
   4   1   5  282.17    8.20
   4   1   5  282.87    8.10
   4   1   5  278.97    7.90
   4   1   5  284.17    7.50
  -4   1  -5  284.87    7.90
  -4   1  -5  281.57    8.10
  -4   1  -5  289.27    8.30
   5  -1   5  240.38    7.30
   5  -1   5  247.88    6.80
  -5  -1  -5  233.08    7.20
  -5  -1  -5  231.38    7.30
  -5  -1  -5  248.28    6.90
   5  -1   5  239.38    7.20
  -5   1  -5  241.68    7.40
   5   1   5  240.38    6.90
   5   1   5  237.78    7.20
  -5   1  -5  239.68    7.00
   5   1   5  235.28    7.20
  -5   1  -5  246.48    7.20
   6  -1   5  131.59    4.80
  -6  -1  -5  128.19    4.70
   6  -1   5  138.09    4.20
   6  -1   5  127.09    4.70
  -6  -1  -5  123.29    4.90
  -6  -1  -5  130.49    4.40
  -6   1  -5  133.59    4.90
  -6   1  -5  130.09    4.60
   6   1   5  123.59    4.70
   6   1   5  132.29    4.40
   6   1   5  123.99    4.70
   7  -1   5    0.40    1.30
  -7  -1  -5    3.30    1.50
   7  -1   5    1.90    1.30
  -7  -1  -5    1.00    1.40
   7   1   5    0.50    1.30
  -7   1  -5    2.50    1.60
   7   1   5    2.30    1.20
  -7   1  -5    4.10    1.40
  -8  -1  -5   56.69    4.20
   8  -1   5   44.50    3.60
   8  -1   5   49.50    3.90
  -8  -1  -5   49.80    3.80
   8   1   5   47.90    3.50
  -8   1  -5   47.50    4.00
  -8   1  -5   42.60    3.80
   8   1   5   43.70    3.60
  -8  -2   5   29.20    3.50
  -8  -2   5   22.20    3.20
   8  -2  -5   25.40    2.80
   8  -2  -5   26.80    3.10
   8   2  -5   23.20    3.00
   8   2  -5   20.90    2.60
  -8   2   5   25.90    3.20
  -8   2   5   23.10    3.20
  -7  -2   5    0.90    1.30
   7  -2  -5    0.20    1.10
   7  -2  -5    0.20    1.10
   7  -2  -5   -2.10    1.30
  -7  -2   5    0.40    1.50
  -7   2   5    0.70    1.20
  -7   2   5    2.50    1.40
   7   2  -5    0.30    1.10
   7   2  -5    1.40    1.10
  -6  -2   5  268.37    7.30
   6  -2  -5  268.97    7.70
   6  -2  -5  258.17    8.00
   6  -2  -5  263.67    8.20
  -6  -2   5  274.87    8.20
  -6  -2   5  268.97    8.10
   6   2  -5  264.37    7.90
  -6   2   5  271.77    8.20
  -6   2   5  276.57    8.10
   6   2  -5  269.47    7.50
   6   2  -5  270.27    8.30
  -5  -2   5    3.60    0.90
  -5  -2   5    4.90    1.00
   5  -2  -5    4.80    1.20
   5  -2  -5    4.40    1.00
  -5  -2   5    3.70    1.10
   5  -2  -5    7.80    1.40
   5   2  -5    5.40    1.50
   5   2  -5    4.90    1.30
   5   2  -5    7.30    1.20
  -5   2   5    3.80    1.00
  -5   2   5    5.20    1.40
   4  -2  -5  365.76   10.00
  -4  -2   5  329.87    9.60
  -4  -2   5  364.26   10.00
  -4  -2   5  372.56   10.10
   4  -2  -5  362.36    9.70
   4  -2  -5  360.76    9.90
   4   2  -5  357.76    9.70
  -4   2   5  365.76   10.00
  -4   2   5  357.56    9.70
  -4   2   5  366.06   10.00
   4   2  -5  360.36   10.10
   4   2  -5  362.56    9.70
  -3  -2   5    1.80    0.60
  -3  -2   5    1.80    0.60
   3  -2  -5    1.10    0.60
  -3  -2   5    0.90    0.50
   3  -2  -5    1.50    0.50
   3  -2  -5    1.20    0.40
   3  -2  -5    1.50    0.40
   3  -2  -5    1.80    0.50
   3   2  -5    1.70    0.60
  -3   2   5    1.60    0.50
   3   2  -5    1.70    0.40
   3   2  -5    1.00    0.50
   3   2  -5    1.10    0.60
  -3   2   5    1.80    0.60
  -3   2   5    1.20    0.40
  -3   2   5    1.20    0.30
  -3   2   5    1.80    0.50
   2  -2  -5  393.86   10.20
  -2  -2   5  386.66   10.20
   2  -2  -5  379.86   10.30
   2  -2  -5  394.56   10.30
  -2  -2   5  377.66   10.50
  -2  -2   5  383.96   10.40
  -2  -2   5  387.16   10.40
   2  -2  -5  389.36   10.30
   2  -2  -5  394.56   10.20
   2  -2  -5  415.86   10.30
   2   2  -5  384.86   10.40
  -2   2   5  397.66   10.20
  -2   2   5  398.36   10.20
   2   2  -5  382.86   10.40
   2   2  -5  387.56   10.20
  -2   2   5  391.66   10.30
  -2   2   5  393.46   10.20
   2   2  -5  370.16   10.30
   2   2  -5  381.76   10.40
  -2   2   5  382.56   10.50
  -2   2   5  404.76   10.30
   1  -2  -5    4.90    0.60
  -1  -2   5    6.50    0.80
   1  -2  -5    4.10    0.70
   1  -2  -5    4.40    0.60
   1  -2  -5    4.00    0.80
  -1  -2   5    3.70    0.80
  -1  -2   5    3.70    0.70
  -1  -2   5    4.40    0.50
   1  -2  -5    3.90    0.60
  -1  -2   5    3.90    0.50
   1  -2  -5    4.00    0.60
  -1   2   5    3.10    0.70
  -1   2   5    3.60    0.50
   1   2  -5    4.10    0.70
  -1   2   5    4.50    0.60
   1   2  -5    3.70    0.50
  -1   2   5    6.10    0.60
   1   2  -5    3.10    0.80
   1   2  -5    3.50    0.80
   1   2  -5    4.80    0.60
  -1   2   5    3.40    0.70
   1   2  -5    3.50    0.70
  -1   2   5    4.20    0.70
   1   2  -5    4.50    0.50
   0  -2   5    0.50    0.40
   0  -2   5    0.80    0.30
   0  -2  -5    1.00    0.40
   0  -2  -5    2.70    0.60
   0  -2   5    0.50    0.30
   0  -2  -5    0.50    0.40
   0  -2   5    0.40    0.40
   0  -2  -5    0.60    0.30
   0  -2  -5    1.10    0.40
   0  -2   5    0.40    0.30
   0   2  -5    0.60    0.40
   0   2   5    0.20    0.30
   0   2   5    0.80    0.40
   0   2   5    2.50    0.60
   0   2  -5    0.40    0.40
   0   2  -5    1.20    0.40
   0   2   5    2.30    0.50
   0   2  -5    0.50    0.40
   0   2   5    0.70    0.40
   0   2  -5    1.10    0.30
   0   2  -5    0.80    0.30
  -1  -2  -5   31.90    1.50
   1  -2   5   33.90    1.50
  -1  -2  -5   32.50    1.30
   1  -2   5   32.60    1.40
   1  -2   5   36.10    1.30
   1  -2   5   33.90    1.20
  -1  -2  -5   32.70    1.30
  -1  -2  -5   33.40    1.40
   1  -2   5   35.40    1.30
  -1  -2  -5   33.70    1.40
   1  -2   5   33.40    1.40
   1   2   5   32.10    1.30
  -1   2  -5   34.60    1.50
  -1   2  -5   33.40    1.30
  -1   2  -5   33.80    1.20
   1   2   5   29.80    1.40
   1   2   5   31.40    1.30
   1   2   5   31.90    1.40
  -1   2  -5   35.00    1.50
   1   2   5   32.60    1.50
   1   2   5   30.70    1.40
  -1   2  -5   34.60    1.20
   2  -2   5 1000.80   24.20
  -2  -2  -5  921.31   24.40
   2  -2   5  956.60   24.40
  -2  -2  -5  941.41   24.30
   2  -2   5  991.00   24.20
  -2  -2  -5  898.11   24.30
  -2  -2  -5  955.50   24.20
   2  -2   5  946.91   24.30
  -2  -2  -5  914.31   23.90
  -2   2  -5  988.20   24.20
  -2   2  -5  951.90   24.30
   2   2   5  908.11   23.90
   2   2   5  913.61   24.40
   2   2   5  920.01   24.40
   2   2   5  933.61   24.20
   2   2   5  940.21   24.20
  -2   2  -5  940.61   24.40
  -2   2  -5  968.60   24.20
   2   2   5  925.51   23.90
   2   2   5  950.40   24.20
   3  -2   5    2.90    0.80
   3  -2   5    2.00    0.70
  -3  -2  -5    2.80    0.70
  -3  -2  -5    2.30    0.60
  -3  -2  -5    2.10    0.60
  -3  -2  -5    2.20    0.60
   3  -2   5    1.30    0.50
  -3   2  -5    1.30    0.50
  -3   2  -5    1.20    0.60
   3   2   5    2.40    0.60
  -3   2  -5    1.90    0.70
   3   2   5    1.40    0.50
   3   2   5    1.90    0.60
   3   2   5    2.10    0.50
   3   2   5    2.80    0.60
  -3   2  -5    2.00    0.60
  -4  -2  -5 1065.19   28.50
  -4  -2  -5 1077.59   28.10
   4  -2   5 1110.69   28.30
   4  -2   5 1108.29   28.70
  -4  -2  -5 1085.09   28.50
   4  -2   5 1106.49   28.50
   4   2   5 1103.89   28.10
   4   2   5 1085.19   28.40
  -4   2  -5 1108.59   28.50
  -4   2  -5 1124.69   28.40
   4   2   5 1082.39   28.10
  -4   2  -5 1107.59   28.60
   4   2   5 1093.19   28.60
  -5  -2  -5    2.30    1.00
   5  -2   5    3.00    0.80
  -5  -2  -5    1.80    0.80
   5  -2   5    2.90    1.00
   5  -2   5    0.30    1.00
  -5  -2  -5    0.80    0.90
   5   2   5    3.60    1.00
  -5   2  -5    1.30    0.90
  -5   2  -5    3.10    1.00
   5   2   5    2.30    0.70
   5   2   5    1.80    0.90
   5   2   5    2.20    0.90
  -6  -2  -5  103.59    3.80
   6  -2   5  109.79    4.30
   6  -2   5  108.19    4.30
  -6  -2  -5  102.99    4.40
   6  -2   5  104.79    3.70
  -6  -2  -5  109.99    4.30
   6   2   5  106.19    4.20
   6   2   5  103.29    4.10
  -6   2  -5  108.09    4.20
  -6   2  -5  106.99    4.40
   6   2   5  103.99    3.80
   7  -2   5    5.40    1.70
   7  -2   5    5.70    1.60
  -7  -2  -5    3.80    1.60
  -7  -2  -5    4.30    1.50
   7   2   5    7.20    1.60
  -7   2  -5    5.90    1.60
  -7   2  -5    5.50    1.80
   7   2   5    6.10    1.50
  -8  -3   5   52.49    3.90
   8  -3  -5   44.50    3.40
  -8  -3   5   47.80    4.00
   8  -3  -5   46.50    3.80
  -8   3   5   45.20    3.70
   8   3  -5   46.20    3.60
   8   3  -5   47.40    3.60
   8   3  -5   40.00    3.20
  -7  -3   5   35.00    3.30
   7  -3  -5   37.30    2.70
  -7  -3   5   30.50    2.70
   7  -3  -5   28.70    3.10
   7  -3  -5   33.60    2.60
   7   3  -5   30.90    2.60
   7   3  -5   31.40    2.70
  -7   3   5   30.70    2.70
  -7   3   5   31.20    2.70
   7   3  -5   36.70    2.70
  -6  -3   5    8.80    2.20
  -6  -3   5    7.70    1.50
   6  -3  -5    8.00    1.80
   6  -3  -5   12.70    1.70
  -6  -3   5    6.40    1.40
   6  -3  -5    6.60    1.50
   6   3  -5   12.20    1.70
  -6   3   5   11.40    2.00
   6   3  -5   10.10    2.00
  -6   3   5   10.10    2.00
   6   3  -5    9.10    2.00
  -5  -3   5  398.56   10.80
   5  -3  -5  394.06   11.10
  -5  -3   5  396.76   11.20
  -5  -3   5  395.96   11.30
   5  -3  -5  406.76   11.20
   5  -3  -5  395.96   10.90
  -5   3   5  398.26   11.20
   5   3  -5  402.56   10.90
  -5   3   5  398.66   11.20
   5   3  -5  392.96   11.20
   5   3  -5  402.06   11.30
   4  -3  -5   39.70    1.80
  -4  -3   5   42.60    2.20
   4  -3  -5   43.40    2.10
  -4  -3   5   42.40    1.80
  -4  -3   5   39.60    2.00
   4  -3  -5   44.50    2.00
  -4   3   5   40.20    2.10
  -4   3   5   39.20    2.10
   4   3  -5   41.70    2.10
   4   3  -5   40.30    1.70
   4   3  -5   44.00    2.10
   3  -3  -5  298.87    8.00
  -3  -3   5  289.27    8.10
  -3  -3   5  295.47    7.80
   3  -3  -5  294.27    8.00
  -3  -3   5  285.07    8.00
   3  -3  -5  288.67    8.10
   3  -3  -5  288.77    7.90
  -3  -3   5  279.97    8.20
  -3   3   5  291.27    8.10
  -3   3   5  284.97    8.20
  -3   3   5  302.77    7.70
   3   3  -5  296.37    8.20
  -3   3   5  301.97    7.70
   3   3  -5  289.27    7.80
   3   3  -5  282.27    8.20
  -2  -3   5 1069.99   28.50
  -2  -3   5 1090.19   28.00
   2  -3  -5 1111.19   28.20
   2  -3  -5 1115.49   28.10
   2  -3  -5 1105.99   28.30
   2  -3  -5 1174.38   28.10
  -2  -3   5 1079.69   28.40
   2  -3  -5 1096.69   28.30
  -2   3   5 1073.19   28.40
  -2   3   5 1103.79   28.30
  -2   3   5 1149.89   28.20
  -2   3   5 1101.19   28.20
   2   3  -5 1081.89   28.00
  -2   3   5 1120.89   28.20
   2   3  -5 1057.19   28.40
   2   3  -5 1109.09   28.40
  -1  -3   5    2.00    0.40
  -1  -3   5    0.60    0.30
  -1  -3   5    0.80    0.50
   1  -3  -5    0.70    0.40
   1  -3  -5    1.40    0.30
   1  -3  -5    0.50    0.40
   1  -3  -5    0.70    0.40
  -1  -3   5    0.60    0.50
  -1  -3   5    0.70    0.40
  -1  -3   5    0.50    0.50
   1  -3  -5    0.60    0.40
  -1   3   5    0.70    0.40
   1   3  -5    0.20    0.50
   1   3  -5    0.70    0.40
  -1   3   5    0.30    0.40
   1   3  -5    1.10    0.40
   1   3  -5    0.50    0.40
   1   3  -5   -0.30    0.50
   1   3  -5    0.70    0.30
   1   3  -5    0.70    0.60
  -1   3   5    0.70    0.40
  -1   3   5    0.70    0.30
  -1   3   5    1.10    0.40
  -1   3   5    0.20    0.50
  -1   3   5    0.40    0.50
   0  -3   5  974.40   24.50
   0  -3   5  916.81   24.60
   0  -3  -5  936.31   24.40
   0  -3   5  962.30   24.40
   0  -3   5  994.30   24.50
   0  -3  -5  961.80   24.10
   0  -3  -5  933.11   24.50
   0  -3   5  993.10   24.10
   0  -3  -5  924.51   24.50
   0  -3  -5  962.20   24.50
   0  -3  -5  954.40   24.10
   0  -3   5  954.00   24.40
   0   3  -5  957.60   24.40
   0   3  -5  969.60   24.40
   0   3  -5  959.00   24.40
   0   3   5  937.11   24.50
   0   3   5  958.20   24.10
   0   3   5  935.01   24.50
   0   3  -5  941.01   24.10
   0   3  -5  954.60   24.50
   0   3   5  934.81   24.20
   0   3   5  962.70   24.50
   0   3   5  934.41   24.50
   0   3   5  930.61   24.40
   1  -3   5  570.84   13.90
   1  -3   5  531.05   14.30
   1  -3   5  527.15   14.20
  -1  -3  -5  517.05   14.20
   1  -3   5  562.14   14.20
  -1  -3  -5  540.45   13.90
  -1  -3  -5  524.95   14.10
  -1  -3  -5  526.55   14.20
   1  -3   5  557.24   14.00
   1   3   5  546.85   13.90
  -1   3  -5  544.75   14.00
   1   3   5  530.85   14.30
  -1   3  -5  522.25   14.20
   1   3   5  534.05   13.80
  -1   3  -5  546.95   13.90
   1   3   5  525.45   14.20
  -1   3  -5  547.05   14.10
  -1   3  -5  550.34   14.20
   1   3   5  556.24   13.80
   2  -3   5   62.79    2.10
  -2  -3  -5   60.39    2.10
   2  -3   5   66.59    2.20
   2  -3   5   61.89    2.40
  -2  -3  -5   63.09    2.40
  -2  -3  -5   58.09    2.20
   2  -3   5   63.99    2.30
  -2  -3  -5   60.59    2.20
   2   3   5   59.59    2.40
  -2   3  -5   68.19    1.90
  -2   3  -5   65.39    2.20
  -2   3  -5   63.59    2.40
  -2   3  -5   66.49    2.10
   2   3   5   62.49    2.30
   2   3   5   63.29    1.90
   2   3   5   60.29    2.20
   2   3   5   62.39    2.20
  -2   3  -5   68.49    1.90
   2   3   5   61.09    1.90
   3  -3   5  374.26    9.80
  -3  -3  -5  361.06   10.00
  -3  -3  -5  351.56    9.90
  -3  -3  -5  356.56    9.90
   3  -3   5  372.16   10.10
  -3  -3  -5  355.86    9.50
   3  -3   5  376.86    9.90
   3   3   5  365.86    9.60
   3   3   5  357.86    9.60
  -3   3  -5  378.96    9.90
  -3   3  -5  368.06    9.90
   3   3   5  355.36   10.00
   3   3   5  346.97    9.80
   3   3   5  355.46   10.00
   3   3   5  359.66    9.80
  -3   3  -5  367.76   10.10
   4  -3   5  216.48    6.00
   4  -3   5  217.58    6.20
  -4  -3  -5  206.58    6.20
  -4  -3  -5  197.78    6.20
   4  -3   5  212.58    6.40
  -4  -3  -5  196.88    5.80
   4   3   5  205.18    6.20
   4   3   5  204.68    5.90
   4   3   5  207.88    6.30
  -4   3  -5  212.18    6.40
  -4   3  -5  212.88    6.20
   4   3   5  199.18    5.90
  -5  -3  -5  125.89    4.20
  -5  -3  -5  129.39    4.50
   5  -3   5  129.09    4.10
   5  -3   5  131.89    4.70
  -5  -3  -5  125.09    4.50
   5  -3   5  131.49    4.50
   5   3   5  125.79    4.50
   5   3   5  124.59    4.50
  -5   3  -5  132.19    4.50
  -5   3  -5  133.59    4.70
   5   3   5  126.49    4.10
   5   3   5  130.39    4.30
  -6  -3  -5  213.48    6.60
   6  -3   5  215.18    7.00
  -6  -3  -5  211.68    7.00
  -6  -3  -5  213.88    7.10
   6  -3   5  218.38    7.10
   6   3   5  219.08    7.00
   6   3   5  216.78    6.70
  -6   3  -5  223.38    7.20
  -6   3  -5  219.58    7.00
   6   3   5  217.88    7.00
  -7  -3  -5    0.40    1.60
   7  -3   5    3.20    1.50
   7  -3   5    1.60    1.50
  -7  -3  -5    3.20    1.60
   7   3   5   -2.60    1.40
  -7   3  -5    4.10    1.40
  -7   3  -5    1.60    1.80
   7   3   5    0.90    1.50
   7   3   5    2.70    1.40
  -8  -4   5    3.20    2.10
   8  -4  -5    4.20    1.90
  -8  -4   5    5.30    2.30
   8  -4  -5    1.20    2.00
  -8   4   5    2.50    1.90
   8   4  -5    1.00    1.70
   8   4  -5    3.70    1.80
   8   4  -5    1.80    1.60
  -7  -4   5  130.79    5.50
   7  -4  -5  123.09    5.30
   7  -4  -5  125.19    4.90
  -7  -4   5  135.69    5.20
   7  -4  -5  129.99    5.10
   7   4  -5  129.69    4.80
   7   4  -5  131.49    5.30
  -7   4   5  131.39    5.00
   7   4  -5  133.79    5.10
  -7   4   5  127.89    5.10
  -6  -4   5   11.50    2.50
   6  -4  -5   13.20    2.00
   6  -4  -5    9.60    2.30
  -6  -4   5   11.50    1.80
   6  -4  -5   12.90    2.10
  -6  -4   5   10.30    2.00
  -6   4   5   15.40    2.20
   6   4  -5    8.90    1.70
   6   4  -5   12.40    2.10
  -6   4   5   11.70    2.00
   6   4  -5   12.80    2.30
   5  -4  -5   -0.10    0.80
  -5  -4   5    0.20    1.10
   5  -4  -5    1.30    1.00
  -5  -4   5    0.60    0.80
  -5  -4   5   -0.30    0.90
   5  -4  -5   -0.90    0.80
  -5   4   5    0.60    0.90
  -5   4   5    2.30    1.00
   5   4  -5   -0.50    0.90
   5   4  -5    0.50    0.80
   5   4  -5   -0.70    0.70
  -4  -4   5   19.20    1.60
   4  -4  -5   20.50    1.60
  -4  -4   5   22.40    1.50
  -4  -4   5   20.70    1.80
   4  -4  -5   18.60    1.50
   4  -4  -5   21.20    1.70
   4   4  -5   21.30    1.70
   4   4  -5   18.80    1.20
   4   4  -5   20.90    1.60
  -4   4   5   19.10    1.20
  -4   4   5   20.10    1.10
  -4   4   5   21.60    1.70
  -4   4   5   18.90    1.70
   3  -4  -5 1445.86   37.20
  -3  -4   5 1428.76   37.30
  -3  -4   5 1439.86   37.50
   3  -4  -5 1445.96   37.20
   3  -4  -5 1474.25   37.00
   3  -4  -5 1481.05   37.00
  -3  -4   5 1441.16   36.80
  -3   4   5 1524.85   36.90
  -3   4   5 1488.15   36.90
   3   4  -5 1406.36   37.30
  -3   4   5 1432.66   37.20
   3   4  -5 1422.56   37.30
   3   4  -5 1443.06   36.80
   3   4  -5 1449.15   36.70
   3   4  -5 1424.56   36.80
  -3   4   5 1451.35   37.40
  -2  -4   5    0.90    0.60
   2  -4  -5    0.30    0.50
   2  -4  -5    0.20    0.40
   2  -4  -5    1.10    0.50
  -2  -4   5    0.90    0.50
  -2  -4   5    0.40    0.30
   2  -4  -5    1.10    0.40
  -2  -4   5    0.90    0.40
   2   4  -5    0.50    0.50
   2   4  -5    0.30    0.60
  -2   4   5    0.20    0.60
   2   4  -5    0.80    0.50
  -2   4   5    0.80    0.50
   2   4  -5    0.40    0.30
  -2   4   5    0.10    0.50
  -2   4   5    0.50    0.50
   1  -4  -5  911.11   23.50
  -1  -4   5  872.31   23.60
   1  -4  -5  925.91   23.60
  -1  -4   5  893.91   23.70
  -1  -4   5  909.91   23.30
   1  -4  -5  947.51   23.40
  -1   4   5  911.81   23.40
  -1   4   5  931.81   23.60
   1   4  -5  921.21   23.40
  -1   4   5  887.71   23.70
   1   4  -5  909.51   23.60
   1   4  -5  912.31   23.60
   0  -4  -5    8.60    0.80
   0  -4   5    7.30    0.80
   0  -4   5    7.30    0.90
   0  -4   5    7.10    1.00
   0  -4  -5    7.80    0.70
   0  -4  -5    9.70    1.00
   0   4   5    8.40    1.00
   0   4  -5    8.00    1.10
   0   4  -5    8.20    0.90
   0   4   5    8.50    0.90
   0   4   5    7.90    0.70
   0   4  -5    6.50    0.90
   0   4  -5    8.30    1.10
   1  -4   5 1167.88   30.70
   1  -4   5 1175.58   30.20
  -1  -4  -5 1171.68   30.10
   1  -4   5 1248.28   30.20
   1  -4   5 1222.98   30.40
  -1  -4  -5 1223.38   30.20
  -1  -4  -5 1126.49   30.60
  -1  -4  -5 1162.08   30.40
   1  -4   5 1174.98   30.60
  -1   4  -5 1171.58   30.60
   1   4   5 1178.58   30.20
   1   4   5 1165.58   30.10
  -1   4  -5 1172.58   30.20
  -1   4  -5 1222.08   30.40
   1   4   5 1152.28   30.60
   1   4   5 1207.88   30.20
   1   4   5 1198.98   30.70
  -1   4  -5 1207.88   30.60
  -1   4  -5 1237.28   30.40
   2  -4   5   40.70    1.90
   2  -4   5   41.10    2.00
  -2  -4  -5   41.50    1.60
  -2  -4  -5   38.90    1.70
   2  -4   5   43.60    1.70
  -2  -4  -5   41.70    1.90
   2  -4   5   42.40    1.70
  -2   4  -5   44.30    1.50
   2   4   5   40.40    1.70
   2   4   5   38.50    1.80
   2   4   5   42.00    1.60
  -2   4  -5   43.40    1.60
  -2   4  -5   42.00    1.90
  -2   4  -5   42.50    1.80
   2   4   5   40.60    1.50
   2   4   5   40.40    2.00
   3  -4   5  180.78    5.10
  -3  -4  -5  169.38    5.20
  -3  -4  -5  172.18    5.10
   3  -4   5  175.98    5.20
  -3  -4  -5  174.08    5.40
   3  -4   5  181.48    5.50
   3   4   5  171.08    4.90
   3   4   5  172.48    5.40
   3   4   5  168.18    5.20
   3   4   5  167.38    4.90
   3   4   5  167.08    5.30
  -3   4  -5  182.18    5.40
  -3   4  -5  178.68    5.30
  -4  -4  -5   39.90    2.20
   4  -4   5   40.10    2.10
  -4  -4  -5   36.40    2.10
  -4  -4  -5   40.20    2.20
   4  -4   5   38.70    2.30
   4  -4   5   39.80    2.00
  -4   4  -5   42.90    2.30
  -4   4  -5   42.20    2.20
   4   4   5   34.80    2.10
   4   4   5   36.30    2.00
   4   4   5   38.00    2.20
   4   4   5   39.50    1.80
   5  -4   5  114.09    4.10
  -5  -4  -5  109.09    4.10
  -5  -4  -5  108.99    4.10
   5  -4   5  117.39    4.40
   5  -4   5  115.99    3.80
  -5  -4  -5  110.09    3.80
  -5   4  -5   99.59    4.20
   5   4   5  111.99    4.20
   5   4   5  109.39    4.10
   5   4   5  111.09    3.90
   5   4   5  109.19    4.10
   5   4   5  110.79    3.80
  -5   4  -5  112.09    4.20
  -6  -4  -5    3.10    1.20
  -6  -4  -5    3.20    1.50
   6  -4   5    2.60    1.30
  -6  -4  -5    3.20    1.50
   6  -4   5    3.40    1.50
  -6   4  -5    3.90    1.50
   6   4   5    3.10    1.30
   6   4   5    3.10    1.30
   6   4   5    5.00    1.30
   6   4   5    3.80    1.20
   6   4   5    3.20    1.20
   6   4   5    3.60    1.10
  -6   4  -5    5.00    1.40
   7  -4   5  449.06   13.10
  -7  -4  -5  445.96   13.30
   7  -4   5  448.16   13.30
  -7   4  -5  454.55   13.30
  -7   4  -5  445.36   13.20
   7   4   5  449.16   13.00
   7   4   5  451.45   13.20
   7   4   5  448.66   13.10
   7  -5  -5   20.70    2.80
   7  -5  -5   17.00    3.10
   7  -5  -5   22.70    3.00
  -7  -5   5   17.30    2.80
  -7  -5   5   18.20    3.20
  -7   5   5   24.90    3.00
   7   5  -5   19.50    2.60
   7   5  -5   14.90    2.50
  -7   5   5   19.20    2.60
   7   5  -5   19.40    2.60
   6  -5  -5   47.70    3.00
   6  -5  -5   47.30    2.90
  -6  -5   5   49.80    2.70
   6  -5  -5   46.10    3.00
  -6  -5   5   50.59    3.00
  -6  -5   5   46.40    3.30
  -6   5   5   46.60    3.00
  -6   5   5   45.40    3.00
   6   5  -5   46.50    2.90
   6   5  -5   46.50    2.50
   6   5  -5   48.60    3.00
  -5  -5   5   87.89    4.00
  -5  -5   5   97.59    3.90
   5  -5  -5   93.49    3.70
   5  -5  -5   94.99    3.60
   5  -5  -5   87.19    3.70
  -5  -5   5   98.89    3.60
  -5   5   5   96.79    3.80
   5   5  -5   95.69    3.90
   5   5  -5   91.79    3.80
  -5   5   5   88.29    3.70
   5   5  -5   94.09    3.20
  -4  -5   5   87.19    2.70
   4  -5  -5   90.39    3.40
   4  -5  -5   90.99    3.40
  -4  -5   5   85.39    3.30
   4  -5  -5   93.59    3.20
  -4  -5   5   85.59    3.60
  -4   5   5   87.79    2.80
   4   5  -5   83.29    3.00
   4   5  -5   88.99    2.70
   4   5  -5   90.39    3.40
   4   5  -5   88.29    3.50
   4   5  -5   86.79    2.90
  -4   5   5   87.39    3.50
  -4   5   5   93.09    3.40
  -3  -5   5  205.08    5.60
   3  -5  -5  211.68    5.80
   3  -5  -5  204.48    6.10
   3  -5  -5  199.18    5.70
  -3  -5   5  205.28    6.30
   3  -5  -5  211.28    6.20
  -3  -5   5  197.78    6.20
  -3   5   5  207.28    6.30
   3   5  -5  204.88    5.50
  -3   5   5  204.08    6.10
  -3   5   5  207.58    5.80
  -3   5   5  202.48    5.80
   3   5  -5  205.58    6.20
   3   5  -5  204.88    5.60
   3   5  -5  202.28    5.50
   3   5  -5  209.18    6.20
  -2  -5   5  831.82   21.00
   2  -5  -5  836.72   20.80
   2  -5  -5  821.52   21.30
  -2  -5   5  793.22   21.50
  -2  -5   5  809.32   21.50
   2  -5  -5  791.52   21.40
   2  -5  -5  837.92   20.80
  -2   5   5  812.72   21.50
   2   5  -5  806.82   21.40
   2   5  -5  809.52   21.40
  -2   5   5  819.72   21.30
   2   5  -5  819.52   21.00
  -2   5   5  824.82   21.20
   1  -5  -5    0.50    0.50
  -1  -5   5    0.10    0.50
  -1  -5   5    0.20    0.40
   1  -5  -5   -0.20    0.60
  -1  -5   5    0.30    0.50
   1  -5  -5    0.70    0.60
   1  -5  -5    0.70    0.50
   1   5  -5   -0.20    0.50
  -1   5   5    0.30    0.50
  -1   5   5    0.00    0.60
   1   5  -5    1.60    0.70
  -1   5   5    0.50    0.50
   1   5  -5    0.40    0.60
   0  -5   5  692.43   18.90
   0  -5  -5  728.93   18.50
   0  -5  -5  720.33   18.70
   0  -5   5  711.93   18.80
   0  -5  -5  711.33   18.80
   0  -5   5  717.13   18.70
   0  -5  -5  721.43   18.90
   0   5  -5  715.93   18.80
   0   5   5  737.83   18.50
   0   5  -5  725.53   18.80
   0   5   5  707.73   18.90
   0   5  -5  709.13   18.80
   0   5   5  725.23   18.90
  -1  -5  -5  159.78    4.50
  -1  -5  -5  150.08    4.90
   1  -5   5  159.78    4.30
   1  -5   5  152.18    4.90
   1  -5   5  160.78    4.70
  -1  -5  -5  158.28    4.60
  -1  -5  -5  158.88    4.90
   1  -5   5  164.18    4.30
   1  -5   5  153.18    4.80
   1   5   5  158.58    4.50
  -1   5  -5  163.38    4.80
   1   5   5  159.38    5.00
  -1   5  -5  158.88    4.60
  -1   5  -5  161.08    4.80
   1   5   5  154.78    4.90
  -2  -5  -5   13.30    1.30
   2  -5   5   16.80    1.20
   2  -5   5   12.60    1.10
  -2  -5  -5   14.60    1.00
  -2  -5  -5   11.90    1.10
   2  -5   5   13.60    1.30
   2  -5   5   12.20    1.40
   2   5   5   12.70    1.40
  -2   5  -5   10.90    1.30
  -2   5  -5   17.80    1.30
   2   5   5   12.80    1.40
   2   5   5   13.20    1.00
   2   5   5   10.60    1.00
  -2   5  -5   13.40    1.30
  -2   5  -5   11.20    1.00
   2   5   5   13.70    1.20
  -3  -5  -5  275.07    7.80
   3  -5   5  277.17    8.30
   3  -5   5  293.87    8.10
  -3  -5  -5  275.57    8.00
  -3  -5  -5  279.77    8.20
   3  -5   5  287.37    7.90
  -3   5  -5  295.07    8.20
  -3   5  -5  285.17    8.20
  -3   5  -5  289.77    7.70
   3   5   5  278.87    8.30
  -3   5  -5  293.37    7.60
   3   5   5  274.37    7.70
   3   5   5  277.87    8.10
  -4  -5  -5   56.69    2.60
  -4  -5  -5   53.69    2.80
   4  -5   5   56.69    2.50
   4  -5   5   62.29    2.60
  -4  -5  -5   56.89    2.60
   4  -5   5   54.79    2.90
   4   5   5   57.19    2.70
   4   5   5   58.69    2.80
   4   5   5   55.49    2.60
  -4   5  -5   62.99    2.80
   4   5   5   59.29    2.60
   4   5   5   56.69    2.30
  -4   5  -5   58.49    2.80
  -5  -5  -5   17.30    2.00
  -5  -5  -5   12.50    2.10
   5  -5   5   20.70    2.30
   5  -5   5   18.80    1.80
   5  -5   5   21.60    2.20
  -5  -5  -5   17.70    2.30
   5   5   5   18.80    1.90
   5   5   5   18.50    1.70
   5   5   5   17.90    2.00
   5   5   5   13.30    1.90
   5   5   5   17.80    2.10
  -5   5  -5   21.30    2.20
   5   5   5   15.50    2.00
  -5   5  -5   18.90    2.30
  -6  -5  -5  206.78    7.00
  -6  -5  -5  208.48    7.00
   6  -5   5  204.78    7.00
   6  -5   5  222.18    7.20
   6   5   5  206.68    7.00
   6   5   5  212.28    6.90
  -6   5  -5  206.68    7.00
   6   5   5  208.38    6.90
  -6   5  -5  217.08    7.10
   6   5   5  213.48    6.70
   6   5   5  216.08    7.00
   6   5   5  201.08    6.50
   7  -5   5    3.50    1.80
  -7  -5  -5    1.50    1.90
   7  -5   5    4.20    1.80
   7   5   5    2.60    1.70
   7   5   5    0.40    1.60
   7   5   5    3.00    2.10
  -7   5  -5    4.50    1.70
  -7   5  -5    1.60    1.90
   7   5   5    4.30    1.80
   7  -6  -5    2.20    1.80
   7  -6  -5    0.40    1.80
  -7  -6   5    1.80    2.00
   7  -6  -5    5.00    1.90
  -7   6   5    1.70    1.60
   7   6  -5    0.70    1.60
   7   6  -5    0.40    1.50
  -7   6   5    0.10    1.90
  -6  -6   5  167.88    5.80
   6  -6  -5  174.48    6.00
   6  -6  -5  172.08    5.90
   6  -6  -5  178.18    6.10
  -6  -6   5  165.48    6.30
  -6   6   5  171.08    6.10
   6   6  -5  162.48    6.00
   6   6  -5  174.08    6.10
  -6   6   5  172.78    6.10
   5  -6  -5   -0.70    1.00
  -5  -6   5    1.80    1.10
  -5  -6   5    0.80    1.30
   5  -6  -5    0.00    1.10
   5  -6  -5   -0.20    1.20
   5   6  -5   -1.00    0.80
  -5   6   5    0.60    1.30
   5   6  -5    1.10    1.00
   5   6  -5    0.30    1.10
  -5   6   5   -0.80    1.10
   4  -6  -5  249.58    7.30
  -4  -6   5  228.88    7.40
   4  -6  -5  241.38    7.20
  -4  -6   5  232.88    6.50
  -4  -6   5  240.38    7.30
   4  -6  -5  235.18    6.90
   4   6  -5  231.48    7.30
  -4   6   5  236.98    6.70
   4   6  -5  246.98    6.50
  -4   6   5  243.58    7.30
  -4   6   5  236.58    7.40
   4   6  -5  237.78    7.30
  -3  -6   5   12.80    1.70
  -3  -6   5    9.40    1.20
   3  -6  -5   10.90    1.50
   3  -6  -5   12.60    1.60
  -3  -6   5   11.10    1.60
   3  -6  -5    9.30    1.10
  -3   6   5   11.00    1.40
   3   6  -5   12.70    1.50
  -3   6   5   10.30    1.40
  -3   6   5   12.10    1.70
   3   6  -5   13.80    1.50
   3   6  -5    9.50    1.40
   2  -6  -5  390.56   10.70
  -2  -6   5  384.16   10.80
   2  -6  -5  388.66   10.50
   2  -6  -5  386.16   10.50
  -2  -6   5  379.96   10.80
  -2  -6   5  384.86   10.30
  -2   6   5  387.86   10.50
   2   6  -5  374.46   10.70
   2   6  -5  379.96   10.50
  -2   6   5  385.46   10.80
  -2   6   5  375.56   10.50
   1  -6  -5   36.60    2.00
  -1  -6   5   37.70    2.00
   1  -6  -5   35.80    1.70
  -1  -6   5   35.00    2.00
  -1  -6   5   38.00    1.70
   1  -6  -5   38.30    2.00
  -1   6   5   35.90    2.10
   1   6  -5   35.50    1.90
   1   6  -5   36.80    2.00
  -1   6   5   34.80    1.70
   1   6  -5   36.30    1.80
  -1   6   5   33.70    2.00
   0  -6  -5   71.19    2.50
   0  -6   5   68.19    2.60
   0  -6   5   71.19    2.90
   0  -6  -5   69.79    2.70
   0  -6   5   70.89    2.70
   0  -6  -5   70.29    2.80
   0   6   5   67.69    2.80
   0   6   5   67.99    2.50
   0   6  -5   70.29    2.80
   0   6   5   68.99    2.90
   0   6  -5   71.29    2.70
   0   6  -5   72.89    2.60
  -1  -6  -5   77.99    2.70
   1  -6   5   79.69    3.00
  -1  -6  -5   77.89    3.00
   1  -6   5   76.59    3.00
  -1  -6  -5   74.59    3.00
  -1   6  -5   77.69    2.80
  -1   6  -5   72.39    2.90
   1   6   5   79.69    3.10
   1   6   5   74.19    3.00
   1   6   5   77.99    2.60
  -1   6  -5   73.39    2.80
  -2  -6  -5 1296.17   33.90
  -2  -6  -5 1295.47   33.50
  -2  -6  -5 1278.17   33.70
   2  -6   5 1275.37   33.80
   2  -6   5 1287.07   33.70
   2  -6   5 1333.97   33.20
   2  -6   5 1298.17   33.20
  -2   6  -5 1311.67   33.80
  -2   6  -5 1327.17   33.40
   2   6   5 1290.27   33.30
   2   6   5 1285.57   33.80
   2   6   5 1314.67   33.10
   2   6   5 1296.07   33.10
   2   6   5 1304.07   33.90
  -2   6  -5 1322.97   33.70
   3  -6   5    0.70    0.80
   3  -6   5    0.40    1.00
  -3  -6  -5    1.30    0.70
   3  -6   5    0.50    0.80
  -3  -6  -5    0.90    0.80
  -3  -6  -5    0.10    0.90
  -3   6  -5    0.00    0.70
   3   6   5    0.40    0.60
  -3   6  -5    0.60    0.90
  -3   6  -5    0.10    0.80
   3   6   5   -1.20    0.80
   3   6   5   -1.00    0.80
   3   6   5    0.20    0.70
  -4  -6  -5  563.44   15.40
   4  -6   5  609.04   15.60
  -4  -6  -5  540.65   15.70
   4  -6   5  597.24   16.10
   4  -6   5  606.24   15.50
  -4  -6  -5  567.04   15.50
  -4   6  -5  592.84   15.80
  -4   6  -5  590.34   15.80
   4   6   5  568.04   15.40
   4   6   5  549.85   15.80
   4   6   5  554.74   15.70
   4   6   5  575.24   15.30
   4   6   5  571.84   15.80
   5  -6   5   32.00    2.20
  -5  -6  -5   29.10    2.60
  -5  -6  -5   28.70    2.30
  -5  -6  -5   28.10    2.70
   5  -6   5   25.10    2.50
   5  -6   5   29.60    2.50
   5   6   5   28.00    2.30
   5   6   5   25.70    2.50
   5   6   5   29.80    2.50
  -5   6  -5   31.80    2.70
  -5   6  -5   25.80    2.70
   5   6   5   31.40    2.10
   5   6   5   30.50    2.40
   5   6   5   26.30    2.60
   6  -6   5   23.20    3.00
   6  -6   5   26.40    3.00
  -6  -6  -5   22.70    2.90
  -6  -6  -5   15.20    2.80
   6   6   5   22.20    2.90
  -6   6  -5   24.00    2.90
   6   6   5   21.30    2.90
   6   6   5   18.10    2.80
   6   6   5   25.40    2.80
  -6   6  -5   26.30    3.10
   6   6   5   20.40    2.70
   6  -7  -5    7.40    1.80
   6  -7  -5    7.50    1.70
  -6  -7   5    2.80    1.60
  -6  -7   5   10.70    2.70
   6   7  -5   10.40    2.40
   6   7  -5    8.00    1.80
  -6   7   5    1.30    1.80
  -6   7   5    5.80    1.60
  -5  -7   5  413.26   12.30
  -5  -7   5  413.86   12.00
   5  -7  -5  419.56   12.00
   5  -7  -5  413.36   11.90
  -5   7   5  418.06   12.10
   5   7  -5  405.66   12.00
   5   7  -5  400.86   11.90
   5   7  -5  418.46   12.30
  -5   7   5  419.36   12.00
   4  -7  -5    2.20    1.20
   4  -7  -5    0.90    0.90
  -4  -7   5    2.10    1.20
  -4  -7   5    1.20    0.90
  -4  -7   5    1.20    1.10
   4  -7  -5    2.50    1.20
   4   7  -5    1.00    1.10
  -4   7   5    0.50    1.00
   4   7  -5    0.50    1.00
  -4   7   5    1.50    0.90
  -4   7   5    2.60    1.30
   4   7  -5    3.00    1.40
  -3  -7   5  106.19    4.40
  -3  -7   5  120.79    4.50
   3  -7  -5  121.19    4.30
   3  -7  -5  127.99    4.10
   3  -7  -5  123.39    4.10
  -3  -7   5  118.79    3.80
   3   7  -5  101.39    4.40
  -3   7   5  118.59    4.50
   3   7  -5  106.69    4.20
   3   7  -5  122.69    4.20
  -3   7   5  127.29    4.10
  -3   7   5  120.39    4.20
   2  -7  -5  232.88    6.80
   2  -7  -5  230.38    7.00
  -2  -7   5  221.28    7.10
  -2  -7   5  226.78    7.10
  -2  -7   5  229.88    6.60
   2  -7  -5  232.18    6.70
  -2   7   5  226.78    6.80
   2   7  -5  227.08    7.00
  -2   7   5  232.98    6.80
   2   7  -5  234.58    6.80
  -2   7   5  223.98    7.10
   2   7  -5  226.68    7.10
   1  -7  -5   31.70    2.00
   1  -7  -5   34.40    1.80
  -1  -7   5   31.20    1.80
  -1  -7   5   29.10    2.10
  -1  -7   5   31.50    2.00
   1  -7  -5   30.70    2.00
  -1   7   5   31.30    1.90
   1   7  -5   33.30    2.10
   1   7  -5   32.90    2.00
   1   7  -5   31.10    1.80
  -1   7   5   31.90    2.20
  -1   7   5   33.50    2.10
   0  -7   5   -0.40    0.70
   0  -7   5   -0.10    0.80
   0  -7  -5    0.00    0.80
   0  -7  -5    0.00    0.70
   0  -7  -5   -0.40    0.70
   0  -7   5    0.40    0.80
   0   7  -5    0.10    0.80
   0   7   5    0.70    0.70
   0   7   5   -0.70    0.80
   0   7  -5    0.30    0.70
   0   7  -5    0.50    0.80
   0   7   5    0.30    0.80
   1  -7   5  846.72   22.20
  -1  -7  -5  845.62   22.30
  -1  -7  -5  816.22   22.20
   1  -7   5  832.52   22.30
  -1  -7  -5  825.22   21.80
   1   7   5  837.62   22.40
  -1   7  -5  851.31   22.10
  -1   7  -5  837.32   22.20
  -1   7  -5  852.51   22.00
   1   7   5  836.12   21.80
   1   7   5  835.22   22.40
   2  -7   5   73.99    3.20
   2  -7   5   67.29    2.40
  -2  -7  -5   72.99    3.20
  -2  -7  -5   71.89    3.20
  -2  -7  -5   73.79    2.80
   2  -7   5   70.89    3.20
   2   7   5   75.69    2.80
   2   7   5   71.89    3.30
  -2   7  -5   73.29    3.20
  -2   7  -5   75.99    3.00
  -2   7  -5   74.69    2.90
   2   7   5   71.89    3.20
   3  -7   5  332.57    9.30
   3  -7   5  345.67    9.70
  -3  -7  -5  329.27   10.00
  -3  -7  -5  340.27    9.40
  -3  -7  -5  310.07    9.70
   3  -7   5  341.77   10.00
  -3   7  -5  344.57    9.90
   3   7   5  346.57    9.10
  -3   7  -5  330.27    9.30
  -3   7  -5  347.77    9.70
   3   7   5  331.77   10.00
   3   7   5  341.67    9.90
   3   7   5  337.07    9.30
   4  -7   5   26.60    2.60
   4  -7   5   28.50    2.20
   4  -7   5   29.40    2.30
  -4  -7  -5   28.00    2.20
  -4  -7  -5   24.00    2.60
  -4   7  -5   27.00    2.60
   4   7   5   28.50    2.30
  -4   7  -5   31.90    2.50
   4   7   5   29.60    2.50
   4   7   5   29.00    2.40
   4   7   5   30.30    2.40
   4   7   5   26.30    2.00
  -5  -7  -5  100.69    4.30
   5  -7   5  104.49    4.60
   5  -7   5  104.49    4.20
  -5  -7  -5  105.19    4.50
  -5   7  -5  106.39    4.50
  -5   7  -5  102.69    4.50
   5   7   5  103.69    4.40
   5   7   5   99.89    4.30
   5   7   5  105.39    4.40
   5   7   5  102.19    4.60
   5   7   5  101.29    4.40
   6  -7   5   19.50    3.30
   6  -7   5   23.20    3.30
  -6  -7  -5   23.40    3.30
  -6   7  -5   26.40    3.30
   6   7   5   26.70    3.20
   6   7   5   25.30    3.10
   6   7   5   25.10    3.10
   6   7   5   22.10    3.20
  -6   7  -5   23.10    3.40
   6  -8  -5   23.00    3.40
  -6  -8   5   17.60    3.40
  -6  -8   5   17.90    3.40
   6  -8  -5   22.30    3.20
   6   8  -5   15.10    3.30
   6   8  -5   15.80    3.00
   6   8  -5   20.10    2.80
  -6   8   5   20.80    3.40
  -6   8   5   13.20    2.00
   5  -8  -5    1.10    1.60
  -5  -8   5    2.50    1.60
  -5  -8   5   -1.80    1.50
   5  -8  -5   -0.20    1.40
   5   8  -5   -0.60    1.20
  -5   8   5   -0.30    1.70
   5   8  -5    0.70    1.50
   5   8  -5    4.30    1.50
  -5   8   5    2.00    1.40
   4  -8  -5   37.50    2.80
   4  -8  -5   35.60    2.70
  -4  -8   5   34.50    3.00
  -4  -8   5   39.20    2.80
   4   8  -5   34.10    2.60
   4   8  -5   33.50    2.60
  -4   8   5   37.70    2.70
  -4   8   5   40.10    3.20
  -4   8   5   27.20    2.60
   4   8  -5   37.70    2.80
  -3  -8   5  366.46   11.00
  -3  -8   5  365.06   10.20
   3  -8  -5  377.16   10.50
   3  -8  -5  385.76   10.50
  -3  -8   5  374.46   11.00
   3  -8  -5  372.16   10.80
   3   8  -5  367.16   10.80
   3   8  -5  374.56   11.00
  -3   8   5  383.86   10.50
   3   8  -5  384.86   10.60
  -3   8   5  336.37   10.60
  -3   8   5  373.46   11.00
   2  -8  -5   -0.50    0.90
   2  -8  -5    0.20    0.80
  -2  -8   5    1.10    1.10
  -2  -8   5    0.80    1.00
   2  -8  -5   -0.40    1.00
  -2  -8   5    0.20    0.90
   2   8  -5   -0.40    0.90
  -2   8   5    0.50    1.00
   2   8  -5    0.60    1.00
  -2   8   5   -0.40    0.90
   2   8  -5   -0.80    1.20
  -2   8   5   -0.40    1.20
  -1  -8   5  353.96   10.30
  -1  -8   5  347.87   10.40
   1  -8  -5  354.16    9.80
  -1  -8   5  349.96    9.90
   1  -8  -5  361.46   10.20
   1  -8  -5  358.96   10.30
  -1   8   5  358.36   10.00
  -1   8   5  359.06   10.30
   1   8  -5  355.16   10.30
   1   8  -5  351.96   10.40
  -1   8   5  357.46   10.40
   1   8  -5  358.36    9.90
   0  -8  -5   19.90    1.90
   0  -8  -5   17.10    1.90
   0  -8  -5   16.10    1.50
   0  -8   5   15.00    1.90
   0  -8   5   15.30    1.90
   0   8   5   15.70    2.10
   0   8   5   15.70    1.90
   0   8   5   17.60    1.60
   0   8  -5   15.70    1.80
   0   8  -5   20.00    2.00
   0   8  -5   17.40    1.70
  -1  -8  -5  197.38    6.50
   1  -8   5  195.28    6.40
  -1  -8  -5  203.68    6.50
  -1  -8  -5  201.28    5.90
   1  -8   5  204.88    6.50
   1   8   5  200.88    6.00
   1   8   5  205.78    6.60
  -1   8  -5  200.48    6.30
  -1   8  -5  192.38    6.40
  -1   8  -5  199.58    6.10
   1   8   5  201.08    6.60
   2  -8   5   48.90    2.80
  -2  -8  -5   48.90    2.90
  -2  -8  -5   51.49    2.90
  -2  -8  -5   49.30    2.30
   2  -8   5   50.39    3.00
   2   8   5   46.80    2.90
  -2   8  -5   49.00    2.50
  -2   8  -5   50.39    2.50
   2   8   5   51.09    2.90
   2   8   5   49.99    2.40
  -2   8  -5   49.70    2.90
  -3  -8  -5    5.50    1.40
  -3  -8  -5    7.30    1.70
   3  -8   5    8.10    1.50
   3  -8   5    9.20    2.40
  -3  -8  -5    6.40    1.40
   3   8   5    7.70    1.50
   3   8   5    6.90    1.40
  -3   8  -5   11.80    2.10
  -3   8  -5    7.70    1.80
   3   8   5    7.00    1.70
  -3   8  -5    8.10    2.00
   4  -8   5   30.20    2.90
  -4  -8  -5   31.60    2.90
   4  -8   5   32.30    2.90
  -4  -8  -5   39.30    2.50
  -4   8  -5   29.30    2.80
   4   8   5   30.10    2.80
   4   8   5   32.70    2.40
   4   8   5   29.40    2.80
  -4   8  -5   29.70    2.90
   5  -8   5   81.09    4.50
  -5  -8  -5   87.39    4.00
  -5  -8  -5   87.59    4.50
  -5   8  -5   84.09    4.40
   5   8   5   86.59    4.20
   5   8   5   81.49    4.40
   5   8   5   80.39    4.10
  -5   8  -5   92.59    4.40
   5   8   5   78.79    3.90
   5  -9  -5   15.70    3.00
  -5  -9   5   18.50    3.40
   5  -9  -5   22.00    3.30
  -5  -9   5   12.60    2.30
  -5   9   5   17.60    3.40
   5   9  -5   16.70    2.70
   5   9  -5   23.00    3.10
   5   9  -5   16.10    3.10
  -5   9   5   17.80    3.00
   4  -9  -5   31.60    2.90
   4  -9  -5   34.40    3.10
  -4  -9   5   33.40    3.10
  -4  -9   5   31.90    3.10
   4   9  -5   35.90    2.80
  -4   9   5   42.50    3.00
  -4   9   5   33.10    3.40
   4   9  -5   32.60    3.00
   4   9  -5   36.10    3.20
  -3  -9   5    7.40    1.90
   3  -9  -5    7.70    1.40
   3  -9  -5    8.70    2.30
  -3  -9   5    6.70    1.50
  -3  -9   5   10.70    2.20
   3  -9  -5    8.80    1.70
   3   9  -5   11.30    2.30
  -3   9   5   11.60    1.90
   3   9  -5   12.80    2.20
  -3   9   5    9.90    2.20
   3   9  -5   11.10    2.20
  -3   9   5   11.40    2.20
   2  -9  -5  439.16   12.40
  -2  -9   5  426.06   12.50
   2  -9  -5  432.46   12.20
  -2  -9   5  412.56   11.90
  -2  -9   5  428.96   12.60
   2  -9  -5  424.46   11.80
  -2   9   5  442.46   12.30
   2   9  -5  427.06   12.60
  -2   9   5  423.86   12.20
   2   9  -5  436.36   11.90
   2   9  -5  423.66   12.40
  -2   9   5  434.36   12.60
   1  -9  -5   -0.80    0.90
   1  -9  -5    0.80    1.10
  -1  -9   5   -1.20    1.00
  -1  -9   5    1.10    1.00
   1  -9  -5    1.90    1.10
  -1   9   5    3.30    1.30
  -1   9   5   -0.30    1.30
   1   9  -5    0.20    1.30
   1   9  -5    1.30    1.10
  -1   9   5   -1.90    1.10
   1   9  -5   -0.50    0.90
   0  -9   5  388.06   11.30
   0  -9  -5  384.76   11.40
   0  -9   5  399.26   11.60
   0  -9  -5  377.46   10.80
   0  -9  -5  399.36   11.50
   0   9   5  405.76   11.10
   0   9  -5  391.96   11.50
   0   9  -5  385.96   11.40
   0   9   5  396.76   11.60
   0   9   5  404.86   11.60
   0   9  -5  402.66   11.00
  -1  -9  -5   -0.30    1.20
  -1  -9  -5    1.50    1.00
   1  -9   5    0.70    1.10
  -1  -9  -5   -0.50    1.10
   1  -9   5    2.50    1.40
   1   9   5    2.50    1.30
  -1   9  -5    0.70    1.30
   1   9   5   -0.10    1.20
  -1   9  -5    0.20    1.00
  -1   9  -5   -1.20    1.10
   1   9   5    3.70    1.20
  -2  -9  -5   18.50    1.90
  -2  -9  -5   17.40    2.40
  -2  -9  -5   17.40    2.20
   2  -9   5   18.10    2.60
   2  -9   5   20.50    2.40
   2   9   5   17.70    2.40
   2   9   5   20.60    2.20
  -2   9  -5   19.30    2.30
  -2   9  -5   13.80    2.20
  -2   9  -5   16.70    2.20
   2   9   5   17.60    2.40
   3  -9   5   23.50    2.70
  -3  -9  -5   16.00    2.60
   3  -9   5   19.10    2.80
  -3  -9  -5   18.10    2.60
  -3   9  -5   17.80    2.60
   3   9   5   18.50    2.60
   3   9   5   20.60    2.30
  -3   9  -5   20.30    2.60
   3   9   5   16.80    2.50
  -3   9  -5   15.50    2.60
   4  -9   5   60.09    3.80
   4  -9   5   60.69    4.00
  -4  -9  -5   69.79    4.00
   4   9   5   65.89    3.90
  -4   9  -5   64.69    3.80
  -4   9  -5   62.49    3.90
   4   9   5   57.49    3.70
  -4 -10   5   65.59    4.30
   4 -10  -5   57.89    3.80
   4 -10  -5   61.69    4.40
  -4 -10   5   53.89    4.00
   4  10  -5   57.79    4.10
  -4  10   5   62.19    3.80
  -4  10   5   65.09    4.40
   4  10  -5   66.99    3.80
   3 -10  -5    8.80    1.70
   3 -10  -5   13.10    2.60
  -3 -10   5   14.40    3.00
   3 -10  -5    9.30    1.90
   3  10  -5   12.30    3.00
  -3  10   5   16.20    2.70
   3  10  -5    9.30    2.30
  -3  10   5   16.90    3.00
  -3  10   5   11.50    2.80
   2 -10  -5   46.10    3.30
  -2 -10   5   42.10    3.40
   2 -10  -5   45.40    3.10
  -2 -10   5   45.10    2.90
  -2  10   5   49.80    3.30
  -2  10   5   45.60    3.30
   2  10  -5   41.90    3.00
  -2  10   5   50.19    3.50
   2  10  -5   46.40    3.30
   1 -10  -5   37.10    2.90
  -1 -10   5   33.10    2.90
   1 -10  -5   38.00    2.90
  -1 -10   5   34.90    2.90
   1  10  -5   34.90    3.20
   1  10  -5   35.90    2.80
  -1  10   5   44.10    3.20
  -1  10   5   37.20    3.30
  -1  10   5   42.80    3.10
   0 -10  -5   21.60    2.60
   0 -10  -5   22.30    2.70
   0 -10   5   25.90    2.90
   0 -10   5   23.10    2.60
   0  10   5   22.00    2.70
   0  10   5   18.60    2.60
   0  10  -5   26.80    2.50
   0  10   5   25.10    2.90
   0  10  -5   21.20    2.90
  -1 -10  -5   46.30    3.10
   1 -10   5   50.39    3.40
   1 -10   5   43.80    3.10
  -1 -10  -5   46.00    3.30
  -1  10  -5   50.79    3.40
  -1  10  -5   52.19    3.30
   1  10   5   42.50    3.40
   1  10   5   47.30    3.20
   1  10   5   45.30    3.10
  -2 -10  -5   73.99    3.90
   2 -10   5   72.19    4.00
   2 -10   5   72.69    3.90
  -2 -10  -5   72.49    4.00
  -2  10  -5   72.99    4.00
   2  10   5   78.79    3.80
   2  10   5   73.59    4.10
   2  10   5   77.79    4.00
  -2  10  -5   68.19    3.80
  -3 -10  -5   -2.10    1.60
  -3 -10  -5    1.50    1.60
   3 -10   5    2.30    1.60
   3 -10   5    1.40    1.70
   3  10   5   -0.70    1.50
  -3  10  -5   -1.20    1.60
   3  10   5   -0.70    1.60
   2 -11  -5    9.10    2.00
  -2 -11   5    7.00    1.90
   2 -11  -5    4.40    1.70
  -2  11   5    3.90    1.90
   2  11  -5   13.10    2.90
  -2  11   5    4.70    1.80
  -2  11   5   14.00    3.30
   2  11  -5   13.20    3.30
  -1 -11   5    2.00    1.60
   1 -11  -5   -1.60    1.60
   1 -11  -5    0.30    1.50
  -1 -11   5    0.30    1.70
   1  11  -5    4.80    1.70
   1  11  -5    0.20    1.80
  -1  11   5   -0.90    1.80
  -1  11   5   -1.40    1.80
  -1  11   5   -0.20    1.80
   0 -11  -5   22.30    2.90
   0 -11   5   24.30    3.30
   0 -11  -5   22.80    3.20
   0 -11   5   19.30    2.70
   0  11  -5   26.50    3.40
   0  11  -5   16.30    2.90
   0  11   5   19.60    3.20
   0  11   5   20.80    3.00
   0  11   5   26.00    3.40
  -1 -11  -5  152.98    6.00
  -1 -11  -5  146.29    5.90
   1 -11   5  142.69    5.80
   1 -11   5  150.68    6.00
   1  11   5  151.68    6.30
  -1  11  -5  152.78    6.00
   1  11   5  149.29    6.00
  -1  11  -5  137.29    5.90
   1  11   5  139.69    6.10
  -8   0   6   26.10    3.50
   8   0  -6   30.40    3.50
   8   0  -6   29.10    2.70
  -8   0   6   28.60    3.10
  -7   0   6   -0.20    1.10
  -7   0   6   -0.50    1.50
   7   0  -6    2.30    1.20
   7   0  -6    0.60    1.10
   6   0  -6  991.60   28.80
  -6   0   6 1162.38   28.90
   6   0  -6 1034.30   27.90
   6   0  -6 1130.49   28.70
  -6   0   6 1135.39   28.80
  -5   0   6   -1.70    0.80
  -5   0   6    1.10    0.60
  -5   0   6   -2.00    0.90
   5   0  -6    0.70    0.80
   5   0  -6    0.10    0.50
   5   0  -6    1.30    0.80
   4   0  -6   72.29    2.90
   4   0  -6   72.69    2.30
   4   0  -6   74.99    2.20
  -4   0   6   71.89    2.90
  -4   0   6   71.79    2.80
  -4   0   6   72.29    2.30
  -4   0   6   75.39    2.20
   4   0  -6   73.69    2.70
  -3   0   6   -0.20    0.40
   3   0  -6   -0.60    0.50
  -3   0   6    0.20    0.50
   3   0  -6   -0.10    0.40
  -3   0   6   -0.30    0.50
   3   0  -6    0.00    0.40
   2   0  -6   34.20    1.10
   2   0  -6   35.80    1.50
   2   0  -6   34.30    1.40
  -2   0   6   34.90    1.40
  -2   0   6   35.80    1.60
   2   0  -6   33.50    1.40
  -2   0   6   34.30    1.60
  -2   0   6   33.60    1.40
  -2   0   6   35.90    1.10
  -2   0   6   35.40    1.50
   2   0  -6   34.20    1.50
  -1   0   6    0.80    0.30
  -1   0   6   -0.80    0.30
   1   0  -6    0.30    0.30
   1   0  -6    0.20    0.30
   1   0  -6   -0.10    0.40
   1   0  -6   -0.90    0.40
  -1   0   6   -0.40    0.30
   1   0  -6   -0.60    0.30
  -1   0   6   -0.80    0.40
   1   0  -6    0.00    0.40
  -1   0   6    1.60    0.50
  -1   0   6   -0.80    0.40
  -1   0   6    0.40    0.30
   1   0  -6   -0.20    0.40
   0   0   6 3077.89   78.99
   0   0   6 3171.58   78.99
   0   0   6 3191.68   78.99
   0   0   6 3218.18   78.89
   0   0   6 3134.79   78.89
   0   0  -6 3173.88   78.99
   0   0   6 2839.72   79.09
   0   0  -6 3157.38   79.09
   0   0  -6 3161.98   78.89
   0   0  -6 3139.19   78.99
   1   0   6   -0.90    0.50
  -1   0  -6   -1.30    0.30
   1   0   6   -0.60    0.20
   1   0   6   -1.50    0.40
  -1   0  -6   -0.80    0.30
  -1   0  -6   -1.00    0.20
   1   0   6   -1.20    0.30
  -1   0  -6   -1.20    0.30
   1   0   6   -1.00    0.40
   1   0   6   -1.00    0.30
   1   0   6   -1.00    0.50
  -1   0  -6   -1.20    0.40
  -1   0  -6   -1.70    0.40
   2   0   6  858.31   22.30
  -2   0  -6  842.22   22.20
   2   0   6  857.21   22.30
  -2   0  -6  834.72   22.30
  -2   0  -6  867.21   21.90
   2   0   6  897.61   21.90
   3   0   6   -0.40    0.50
  -3   0  -6   -0.90    0.50
   3   0   6   -0.10    0.40
   3   0   6    0.30    0.50
  -3   0  -6    0.50    0.60
  -3   0  -6   -0.20    0.40
   4   0   6  883.61   23.10
  -4   0  -6  875.91   22.70
   4   0   6  873.71   23.20
  -4   0  -6  872.21   23.00
   4   0   6  889.61   22.90
  -4   0  -6  878.61   23.20
   5   0   6   -0.70    0.80
  -5   0  -6   -1.00    0.80
   5   0   6   -0.80    0.70
   5   0   6   -0.20    0.80
  -5   0  -6    0.10    0.90
  -5   0  -6    1.20    0.80
   6   0   6    5.10    1.40
   6   0   6    2.70    1.00
  -6   0  -6    8.00    1.90
   6   0   6    4.30    1.20
  -6   0  -6    6.70    1.70
  -6   0  -6    4.60    1.30
   7   0   6    0.90    1.40
  -7   0  -6    0.60    1.50
   7   0   6   -0.20    1.40
  -7   0  -6    0.50    1.50
  -8  -1   6   25.50    3.40
  -8  -1   6   26.70    3.10
   8  -1  -6   19.20    2.60
   8  -1  -6   25.70    3.20
   8   1  -6   22.00    2.60
  -8   1   6   28.90    3.40
  -8   1   6   28.10    3.20
   8   1  -6   27.40    3.30
  -7  -1   6   76.19    3.60
  -7  -1   6   73.89    4.00
   7  -1  -6   74.79    3.60
   7  -1  -6   75.99    3.90
  -7   1   6   80.69    4.00
   7   1  -6   83.69    3.90
   7   1  -6   77.69    3.50
  -7   1   6   78.89    3.70
  -6  -1   6    0.80    1.20
   6  -1  -6    3.20    1.20
   6  -1  -6    1.90    0.80
  -6  -1   6    0.90    1.10
   6  -1  -6    6.20    1.50
  -6   1   6    2.70    1.20
   6   1  -6    2.70    1.10
  -6   1   6    2.90    1.20
   6   1  -6    1.10    0.90
   5  -1  -6  496.25   13.60
  -5  -1   6  514.45   13.70
  -5  -1   6  506.85   13.80
  -5  -1   6  488.05   13.00
   5  -1  -6  464.95   13.00
   5  -1  -6  502.95   13.80
   5   1  -6  491.85   13.80
  -5   1   6  514.05   13.70
  -5   1   6  501.85   13.70
   5   1  -6  492.05   13.00
   5   1  -6  503.95   13.50
  -5   1   6  503.75   13.10
   4  -1  -6  102.69    3.50
  -4  -1   6  102.19    3.10
   4  -1  -6  100.49    3.50
  -4  -1   6  101.89    3.50
  -4  -1   6  100.89    3.70
   4  -1  -6  104.49    3.00
   4   1  -6   99.79    3.30
  -4   1   6  100.19    3.60
   4   1  -6  103.39    3.60
   4   1  -6   97.59    3.10
  -4   1   6  102.29    3.50
  -4   1   6  106.19    3.10
  -3  -1   6   35.30    1.60
   3  -1  -6   37.20    1.60
   3  -1  -6   36.40    1.40
  -3  -1   6   37.70    1.50
   3  -1  -6   33.70    1.60
  -3  -1   6   34.40    1.80
   3  -1  -6   37.00    1.30
  -3   1   6   34.70    1.60
   3   1  -6   36.30    1.80
  -3   1   6   35.60    1.80
   3   1  -6   35.60    1.60
  -3   1   6   36.80    1.40
   3   1  -6   35.50    1.50
  -3   1   6   35.30    1.40
   2  -1  -6  954.00   24.00
   2  -1  -6  940.11   24.30
   2  -1  -6  862.91   24.20
   2  -1  -6  935.81   24.20
  -2  -1   6  948.11   24.30
  -2  -1   6  961.60   24.30
   2  -1  -6  950.70   24.20
  -2  -1   6  966.10   24.20
  -2  -1   6  932.01   24.40
   2   1  -6  950.40   24.20
   2   1  -6  950.20   24.30
   2   1  -6  956.50   24.30
  -2   1   6  973.40   24.30
  -2   1   6  953.00   24.20
   2   1  -6  951.60   24.30
   2   1  -6  908.91   24.40
  -2   1   6  963.40   24.00
  -2   1   6  923.21   24.40
  -2   1   6  954.90   24.20
   1  -1  -6  284.37    7.80
   1  -1  -6  280.07    7.60
  -1  -1   6  287.77    7.80
  -1  -1   6  287.97    7.40
  -1  -1   6  283.37    7.50
   1  -1  -6  284.87    7.50
   1  -1  -6  287.47    7.70
  -1  -1   6  283.87    7.70
   1  -1  -6  289.47    7.50
  -1  -1   6  289.77    7.40
  -1  -1   6  283.17    7.70
   1  -1  -6  282.07    7.60
   1   1  -6  285.17    7.70
   1   1  -6  291.37    7.60
  -1   1   6  287.17    7.50
   1   1  -6  280.37    7.70
   1   1  -6  275.87    7.70
   1   1  -6  290.17    7.50
  -1   1   6  267.87    7.70
  -1   1   6  290.67    7.60
   1   1  -6  281.87    7.50
  -1   1   6  287.87    7.70
  -1   1   6  288.87    7.50
  -1   1   6  280.87    7.60
   0  -1   6  405.06   10.70
   0  -1  -6  401.06   10.80
   0  -1   6  421.76   10.60
   0  -1   6  416.86   10.70
   0  -1   6  409.06   10.80
   0  -1  -6  419.86   10.80
   0  -1   6  406.26   10.70
   0  -1  -6  411.16   10.70
   0  -1  -6  395.66   10.70
   0  -1  -6  417.86   10.70
   0  -1   6  415.96   10.70
   0  -1   6  401.86   10.90
   0   1   6  369.66   10.80
   0   1   6  416.76   10.80
   0   1  -6  418.66   10.60
   0   1  -6  389.56   10.80
   0   1   6  424.26   10.70
   0   1  -6  407.36   10.70
   0   1   6  393.46   10.70
   0   1  -6  410.06   10.60
   0   1  -6  402.26   10.90
   0   1   6  414.36   10.70
   0   1  -6  422.56   10.60
   0   1  -6  417.66   10.70
   1  -1   6 1891.61   46.60
   1  -1   6 1844.12   46.90
   1  -1   6 1953.70   46.80
   1  -1   6 1904.71   46.70
   1  -1   6 1761.22   46.90
  -1  -1  -6 1890.51   46.70
   1  -1   6 1826.72   46.60
  -1  -1  -6 1828.22   46.80
  -1  -1  -6 1858.91   46.90
   1  -1   6 1631.14   46.80
  -1  -1  -6 1845.02   46.90
  -1  -1  -6 1789.52   46.80
   1   1   6 1908.81   46.80
  -1   1  -6 1824.42   46.90
  -1   1  -6 1861.21   46.60
   1   1   6 1857.01   46.90
   1   1   6 1893.31   46.80
  -1   1  -6 1788.42   46.90
   1   1   6 1765.92   46.90
  -1   1  -6 1830.82   46.60
  -1   1  -6 1938.41   46.80
  -1   1  -6 1913.41   46.80
   1   1   6 1778.52   46.80
   1   1   6 1824.72   46.70
  -2  -1  -6    0.30    0.30
  -2  -1  -6    0.50    0.40
  -2  -1  -6   -0.40    0.40
   2  -1   6   -0.10    0.50
   2  -1   6    0.30    0.40
   2  -1   6    1.10    0.50
  -2   1  -6   -0.10    0.40
  -2   1  -6    0.40    0.40
   2   1   6   -0.30    0.40
   2   1   6    0.30    0.30
   2   1   6    0.00    0.50
   2   1   6    0.10    0.40
   2   1   6    0.10    0.40
  -2   1  -6    0.50    0.50
   3  -1   6  476.85   12.90
   3  -1   6  484.65   12.80
   3  -1   6  488.75   12.60
  -3  -1  -6  476.45   12.40
  -3  -1  -6  461.15   12.80
  -3  -1  -6  461.45   12.80
   3   1   6  472.65   12.80
   3   1   6  484.45   12.40
   3   1   6  490.85   12.40
  -3   1  -6  480.35   12.60
   3   1   6  485.25   12.40
  -3   1  -6  480.55   12.80
   3   1   6  483.35   12.90
  -3   1  -6  471.75   12.90
   4  -1   6  229.38    6.60
  -4  -1  -6  223.78    6.60
   4  -1   6  228.38    6.80
   4  -1   6  229.68    6.50
  -4  -1  -6  227.08    6.70
  -4  -1  -6  229.18    6.30
  -4   1  -6  228.78    6.40
  -4   1  -6  230.28    6.60
   4   1   6  225.68    6.50
   4   1   6  204.28    6.20
  -4   1  -6  218.78    6.70
   4   1   6  221.58    6.70
  -5  -1  -6   23.30    2.00
  -5  -1  -6   27.60    2.20
  -5  -1  -6   27.20    1.80
   5  -1   6   29.60    2.10
   5  -1   6   26.50    1.80
   5  -1   6   23.60    2.00
   5   1   6   27.70    2.00
  -5   1  -6   28.00    2.20
   5   1   6   26.10    1.90
   5   1   6   24.00    2.00
  -5   1  -6   27.20    1.80
  -5   1  -6   27.40    2.00
   6  -1   6   46.40    2.90
  -6  -1  -6   45.40    2.50
  -6  -1  -6   48.40    3.20
   6  -1   6   50.39    2.40
  -6  -1  -6   45.70    2.70
   6  -1   6   48.70    2.90
   6   1   6   47.50    2.50
  -6   1  -6   45.80    2.90
   6   1   6   52.39    2.80
   6   1   6   43.50    2.80
  -6   1  -6   47.50    2.60
   7  -1   6  100.69    4.40
   7  -1   6   93.19    4.40
  -7  -1  -6   98.99    4.60
  -7  -1  -6   99.89    4.20
   7   1   6  104.29    4.40
  -7   1  -6   97.99    4.70
  -7   1  -6  100.89    4.40
   7   1   6  103.69    4.40
  -8  -2   6   -1.10    2.10
   8  -2  -6    0.70    1.60
  -8  -2   6   -1.20    1.70
   8  -2  -6   -1.00    1.50
   8   2  -6    1.20    1.60
  -8   2   6   -1.20    1.80
  -8   2   6   -0.70    1.70
   8   2  -6   -1.30    1.40
   7  -2  -6   10.70    2.60
  -7  -2   6   12.90    2.30
  -7  -2   6   11.10    2.70
   7  -2  -6   15.90    2.20
   7   2  -6   11.70    2.00
   7   2  -6   20.40    2.30
  -7   2   6   17.70    2.20
  -7   2   6   12.20    2.60
  -6  -2   6    1.00    1.30
   6  -2  -6    2.00    0.80
  -6  -2   6    1.60    0.80
   6  -2  -6    2.60    1.20
   6  -2  -6    3.70    1.10
  -6  -2   6   -0.10    1.00
  -6   2   6    1.70    1.20
   6   2  -6    2.90    1.10
   6   2  -6    0.60    1.00
  -6   2   6    2.30    1.20
  -5  -2   6  120.69    3.70
  -5  -2   6  117.69    4.20
  -5  -2   6  120.99    4.30
   5  -2  -6  116.99    3.70
   5  -2  -6  113.99    4.20
   5  -2  -6  112.49    4.10
  -5   2   6  124.89    4.30
   5   2  -6  120.99    3.90
   5   2  -6  111.49    3.70
  -5   2   6  118.89    4.20
   5   2  -6  113.59    4.20
   4  -2  -6    5.10    1.00
   4  -2  -6    5.10    1.20
   4  -2  -6    6.20    1.20
  -4  -2   6    5.20    1.30
  -4  -2   6    7.80    1.20
  -4  -2   6    5.80    1.00
  -4   2   6    6.10    1.20
  -4   2   6    8.20    1.30
  -4   2   6    6.70    1.30
   4   2  -6    8.50    1.30
   4   2  -6    6.80    1.30
   4   2  -6    7.60    1.00
  -3  -2   6  336.57    9.20
  -3  -2   6  336.67    9.30
   3  -2  -6  332.77    9.30
  -3  -2   6  331.97    9.10
  -3  -2   6  342.37    9.50
   3  -2  -6  348.67    9.30
   3  -2  -6  342.07    9.10
   3  -2  -6  353.06    9.00
  -3   2   6  341.17    9.50
  -3   2   6  337.47    9.30
  -3   2   6  357.76    9.00
   3   2  -6  338.07    9.40
  -3   2   6  354.56    9.00
  -3   2   6  344.27    9.10
   3   2  -6  336.47    9.40
   3   2  -6  336.27    9.10
   3   2  -6  331.17    9.20
   2  -2  -6    2.00    0.60
  -2  -2   6    2.70    0.60
   2  -2  -6    1.40    0.50
   2  -2  -6    2.70    0.70
  -2  -2   6    1.80    0.60
   2  -2  -6    2.90    0.80
  -2  -2   6    2.50    0.70
  -2  -2   6    2.50    0.80
   2  -2  -6    1.50    0.50
   2  -2  -6    1.60    0.50
   2   2  -6    2.00    0.40
  -2   2   6    1.80    0.60
  -2   2   6    2.40    0.70
  -2   2   6    0.90    0.40
  -2   2   6    2.80    0.70
   2   2  -6    1.90    0.60
   2   2  -6    2.50    0.80
  -2   2   6    1.20    0.60
   2   2  -6    1.80    0.50
   1  -2  -6 3303.67   82.19
  -1  -2   6 3318.17   82.29
   1  -2  -6 3303.67   82.19
   1  -2  -6 3270.97   82.29
  -1  -2   6 3251.07   82.09
   1  -2  -6 3168.88   82.39
  -1  -2   6 3154.48   82.39
   1  -2  -6 3277.47   82.09
   1  -2  -6 3209.78   82.29
  -1  -2   6 3136.49   82.39
   1   2  -6 3408.36   82.29
   1   2  -6 3225.08   82.39
   1   2  -6 3265.97   82.09
   1   2  -6 3221.98   82.39
   1   2  -6 3303.67   82.29
  -1   2   6 3334.27   82.19
  -1   2   6 3362.26   82.19
  -1   2   6 3187.08   82.29
   1   2  -6 3215.18   82.39
  -1   2   6 3195.28   82.39
   0  -2   6    2.80    0.60
   0  -2  -6    1.70    0.40
   0  -2  -6    1.40    0.40
   0  -2   6    1.80    0.40
   0  -2  -6    2.40    0.60
   0  -2  -6    1.90    0.50
   0  -2   6    2.30    0.40
   0  -2   6    3.10    0.70
   0  -2   6    1.00    0.50
   0  -2   6    2.00    0.40
   0  -2  -6    1.20    0.50
   0   2  -6    1.60    0.50
   0   2   6    1.40    0.50
   0   2   6    1.20    0.40
   0   2  -6    1.80    0.50
   0   2   6    2.00    0.50
   0   2  -6    1.50    0.50
   0   2   6    1.90    0.40
   0   2  -6    2.20    0.50
   0   2  -6    2.00    0.40
   0   2   6    1.60    0.50
   0   2  -6    2.30    0.60
   1  -2   6  236.68    6.00
   1  -2   6  212.58    6.20
  -1  -2  -6  221.48    6.10
   1  -2   6  229.48    6.00
  -1  -2  -6  218.48    6.10
  -1  -2  -6  212.88    6.00
  -1  -2  -6  211.48    6.10
   1  -2   6  216.88    6.10
   1  -2   6  226.38    5.90
  -1   2  -6  211.38    6.20
  -1   2  -6  221.88    5.90
   1   2   6  212.38    6.00
  -1   2  -6  224.98    6.00
  -1   2  -6  220.38    6.10
   1   2   6  218.18    6.00
  -1   2  -6  220.28    6.00
   1   2   6  206.58    6.20
  -2  -2  -6   13.30    1.00
  -2  -2  -6   12.30    1.00
  -2  -2  -6   12.50    1.10
   2  -2   6   12.60    1.10
   2  -2   6   14.20    1.20
   2  -2   6   13.10    1.10
  -2  -2  -6   14.20    1.10
  -2   2  -6   12.10    0.90
   2   2   6   14.40    0.90
   2   2   6   14.10    1.10
   2   2   6   11.20    1.20
   2   2   6   13.30    1.10
  -2   2  -6   12.10    1.10
  -2   2  -6   14.60    1.00
   3  -2   6   62.79    2.40
  -3  -2  -6   64.89    2.10
  -3  -2  -6   64.29    2.50
  -3  -2  -6   64.29    2.50
   3  -2   6   67.59    2.70
   3  -2   6   68.99    2.50
   3   2   6   64.59    2.50
   3   2   6   65.89    2.10
  -3   2  -6   64.39    2.30
  -3   2  -6   63.59    2.70
   3   2   6   66.99    2.30
  -3   2  -6   67.69    2.50
   3   2   6   63.69    2.60
   3   2   6   66.09    2.20
   4  -2   6    3.50    0.70
  -4  -2  -6    2.00    0.80
   4  -2   6    3.10    0.90
   4  -2   6    3.70    0.90
  -4  -2  -6    3.80    0.80
  -4  -2  -6    3.60    0.90
   4   2   6    3.00    0.80
  -4   2  -6    1.40    0.80
   4   2   6    4.30    0.90
  -4   2  -6    5.90    1.10
   4   2   6    2.50    0.80
  -4   2  -6    5.30    1.30
   4   2   6    5.90    1.30
   4   2   6    3.40    0.90
  -5  -2  -6  983.90   25.90
   5  -2   6  990.50   26.50
  -5  -2  -6 1002.10   26.50
  -5  -2  -6  976.20   26.30
   5  -2   6 1014.70   26.40
   5  -2   6 1034.00   26.10
   5   2   6 1026.10   25.70
   5   2   6  980.00   26.40
   5   2   6  991.00   26.40
  -5   2  -6 1016.50   26.20
  -5   2  -6 1001.60   26.60
   5   2   6 1003.90   26.20
   6  -2   6    2.90    0.90
   6  -2   6    3.80    1.30
  -6  -2  -6    4.40    1.30
  -6  -2  -6    2.40    1.10
  -6  -2  -6    0.30    1.30
   6  -2   6    8.10    2.10
  -6   2  -6    2.10    1.20
   6   2   6    2.00    1.20
  -6   2  -6    2.80    1.30
   6   2   6    3.10    1.20
   6   2   6    2.50    1.00
  -7  -2  -6  136.79    5.50
  -7  -2  -6  129.39    5.00
   7  -2   6  145.59    5.50
   7  -2   6  136.89    5.40
  -7   2  -6  140.29    5.60
  -7   2  -6  135.69    5.40
   7   2   6  137.99    5.40
   7   2   6  140.39    5.30
   8  -3  -6   60.69    4.00
   8  -3  -6   65.49    4.30
  -8  -3   6   65.49    4.20
  -8  -3   6   56.89    4.40
   8   3  -6   64.99    4.10
   8   3  -6   60.99    4.20
  -8   3   6   63.59    4.10
  -8   3   6   63.19    4.00
   8   3  -6   60.69    3.70
  -7  -3   6   33.20    2.90
   7  -3  -6   28.10    2.60
   7  -3  -6   31.30    3.10
  -7  -3   6   27.50    3.20
   7  -3  -6   33.70    2.50
   7   3  -6   34.20    2.80
  -7   3   6   34.40    2.70
   7   3  -6   32.00    2.70
  -7   3   6   31.70    3.10
   7   3  -6   34.30    2.90
   6  -3  -6    0.00    1.20
  -6  -3   6    0.50    1.00
  -6  -3   6    1.40    1.20
  -6  -3   6    0.10    0.80
   6  -3  -6    1.10    1.00
   6  -3  -6    0.50    0.90
   6   3  -6    1.60    0.90
  -6   3   6   -0.80    1.10
   6   3  -6   -0.60    1.10
  -6   3   6    0.40    1.30
   6   3  -6   -0.90    1.10
  -5  -3   6   95.19    3.70
   5  -3  -6  100.19    3.70
  -5  -3   6   98.69    3.30
   5  -3  -6   99.79    3.70
  -5  -3   6   98.29    3.90
   5  -3  -6   96.89    3.40
   5   3  -6   97.59    3.80
   5   3  -6   94.39    3.80
   5   3  -6   97.09    3.40
  -5   3   6   96.19    3.80
  -5   3   6   98.99    3.70
   4  -3  -6  367.56   10.20
  -4  -3   6  368.76   10.00
  -4  -3   6  375.66   10.30
  -4  -3   6  355.66   10.40
   4  -3  -6  365.06   10.00
   4  -3  -6  379.56   10.20
   4   3  -6  365.76   10.40
   4   3  -6  361.46    9.90
  -4   3   6  367.56   10.20
  -4   3   6  370.06   10.40
   4   3  -6  373.96   10.30
  -3  -3   6   27.60    1.40
  -3  -3   6   27.00    1.70
   3  -3  -6   26.60    1.40
   3  -3  -6   26.30    1.60
  -3  -3   6   28.10    1.60
   3  -3  -6   28.80    1.40
  -3  -3   6   25.70    1.50
  -3   3   6   26.90    1.70
   3   3  -6   24.80    1.60
  -3   3   6   26.20    1.20
   3   3  -6   25.00    1.20
  -3   3   6   26.10    1.50
  -3   3   6   28.30    1.30
   3   3  -6   23.50    1.60
   2  -3  -6 1477.05   36.70
   2  -3  -6 1432.66   36.80
   2  -3  -6 1528.55   36.60
  -2  -3   6 1455.95   36.40
   2  -3  -6 1458.45   36.70
   2  -3  -6 1494.25   36.60
  -2  -3   6 1410.16   36.80
   2  -3  -6 1477.55   36.60
  -2  -3   6 1413.76   36.90
  -2   3   6 1417.36   36.60
   2   3  -6 1417.06   36.40
  -2   3   6 1349.86   36.60
   2   3  -6 1458.85   36.80
   2   3  -6 1402.16   36.90
  -2   3   6 1487.45   36.60
  -2   3   6 1234.18   36.70
  -2   3   6 1500.45   36.60
  -2   3   6 1446.26   37.00
  -1  -3   6   68.49    2.00
  -1  -3   6   65.59    2.10
   1  -3  -6   69.59    2.30
  -1  -3   6   64.59    2.40
   1  -3  -6   67.19    2.40
  -1  -3   6   65.09    2.40
   1  -3  -6   66.59    2.10
   1  -3  -6   65.49    2.10
   1  -3  -6   65.49    2.30
  -1   3   6   67.19    2.40
  -1   3   6   63.99    2.40
   1   3  -6   67.49    2.30
  -1   3   6   69.59    2.10
   1   3  -6   68.09    2.00
   1   3  -6   67.09    2.10
   1   3  -6   68.39    2.40
  -1   3   6   66.39    2.10
  -1   3   6   69.49    2.30
   0  -3   6  868.61   22.20
   0  -3   6  864.21   22.20
   0  -3  -6  862.11   21.90
   0  -3   6  861.91   22.20
   0  -3   6  855.21   22.40
   0  -3  -6  855.71   22.30
   0  -3   6  880.21   22.00
   0  -3  -6  857.91   22.30
   0  -3  -6  872.01   22.00
   0   3  -6  864.01   22.40
   0   3  -6  856.11   22.00
   0   3  -6  869.61   22.20
   0   3  -6  870.11   22.20
   0   3   6  830.12   21.90
   0   3   6  845.72   22.40
   0   3   6  870.21   22.40
   0   3   6  875.31   22.00
   0   3  -6  866.21   22.30
   1  -3   6  339.67    9.50
   1  -3   6  364.26    9.10
  -1  -3  -6  344.27    9.40
   1  -3   6  344.17    9.40
   1  -3   6  335.37    9.30
  -1  -3  -6  336.67    9.30
  -1  -3  -6  346.27    9.10
   1  -3   6  357.86    9.10
  -1   3  -6  345.07    9.50
   1   3   6  344.97    9.10
  -1   3  -6  347.77    9.20
  -1   3  -6  350.16    9.30
   1   3   6  339.47    9.40
  -1   3  -6  353.36    9.10
   1   3   6  342.57    9.50
  -2  -3  -6   73.99    2.40
   2  -3   6   72.09    2.60
  -2  -3  -6   65.79    2.50
  -2  -3  -6   70.69    2.50
  -2  -3  -6   72.79    2.70
   2  -3   6   72.39    2.70
   2  -3   6   74.89    2.40
   2   3   6   67.59    2.60
   2   3   6   71.09    2.50
  -2   3  -6   73.69    2.50
  -2   3  -6   79.69    2.20
  -2   3  -6   72.29    2.70
  -2   3  -6   74.79    2.20
  -2   3  -6   75.19    2.40
   2   3   6   63.99    2.50
   2   3   6   71.09    2.70
   2   3   6   74.19    2.50
  -3  -3  -6  284.07    8.10
   3  -3   6  294.77    8.40
  -3  -3  -6  285.37    8.30
   3  -3   6  296.87    8.10
   3  -3   6  302.87    8.20
  -3  -3  -6  283.17    8.20
   3   3   6  292.77    7.80
   3   3   6  292.47    8.30
   3   3   6  290.47    8.30
   3   3   6  293.17    7.70
  -3   3  -6  305.77    8.10
  -3   3  -6  291.47    8.10
  -3   3  -6  297.47    8.40
   3   3   6  282.07    8.00
  -4  -3  -6  313.87    8.60
  -4  -3  -6  311.87    9.00
   4  -3   6  332.27    9.10
  -4  -3  -6  319.07    9.10
   4  -3   6  328.77    9.30
   4  -3   6  327.87    8.90
  -4   3  -6  325.27    9.30
   4   3   6  316.37    9.10
   4   3   6  304.57    8.60
  -4   3  -6  328.57    9.00
   4   3   6  315.87    8.60
   4   3   6  322.37    8.80
   4   3   6  308.67    9.20
  -5  -3  -6    2.00    1.10
   5  -3   6    1.90    1.10
  -5  -3  -6    0.40    0.90
   5  -3   6    1.20    1.10
   5  -3   6    1.00    0.90
  -5  -3  -6    3.00    1.10
   5   3   6    0.90    0.90
  -5   3  -6    1.50    1.00
   5   3   6    2.50    0.90
   5   3   6    0.20    1.00
   5   3   6    3.40    0.90
  -5   3  -6    1.50    1.00
   5   3   6    0.90    1.00
  -6  -3  -6  256.27    8.30
  -6  -3  -6  263.37    8.10
  -6  -3  -6  256.67    7.60
   6  -3   6  254.47    8.10
   6  -3   6  255.67    8.30
  -6   3  -6  258.97    8.00
   6   3   6  262.47    7.70
   6   3   6  268.57    7.90
   6   3   6  266.97    8.10
  -6   3  -6  258.47    8.30
   6   3   6  258.47    8.10
   7  -3   6    6.10    1.70
  -7  -3  -6    7.20    1.90
   7  -3   6    2.30    1.50
   7   3   6    6.20    1.70
   7   3   6    4.30    1.50
  -7   3  -6    9.30    1.90
  -7   3  -6   11.30    2.70
   7  -4  -6   -1.80    1.60
  -7  -4   6    0.20    1.70
   7  -4  -6    1.20    1.50
  -7  -4   6   -0.10    1.50
   7  -4  -6    0.80    1.40
  -7   4   6    1.20    1.70
  -7   4   6    2.00    1.40
   7   4  -6   -1.80    1.40
   7   4  -6   -0.80    1.40
   7   4  -6   -0.10    1.30
  -6  -4   6  264.07    8.20
   6  -4  -6  266.07    7.90
  -6  -4   6  256.47    7.60
  -6  -4   6  269.07    8.50
   6  -4  -6  267.17    8.20
   6  -4  -6  256.97    8.10
  -6   4   6  264.37    8.20
  -6   4   6  266.27    8.20
   6   4  -6  260.27    8.20
   6   4  -6  268.87    8.30
   6   4  -6  267.37    7.80
  -5  -4   6    6.90    1.60
  -5  -4   6    7.60    1.90
   5  -4  -6    5.60    1.20
   5  -4  -6    8.40    1.60
  -5  -4   6    8.40    1.70
   5  -4  -6    8.00    1.50
  -5   4   6    4.20    1.20
   5   4  -6    7.60    1.70
  -5   4   6   10.10    1.70
   5   4  -6    6.70    1.40
   5   4  -6    6.20    1.70
   4  -4  -6  121.39    4.00
  -4  -4   6  122.99    4.40
   4  -4  -6  126.79    4.10
   4  -4  -6  120.59    4.10
  -4  -4   6  124.09    4.20
  -4  -4   6  122.89    4.10
  -4   4   6  122.19    3.60
  -4   4   6  120.09    4.30
  -4   4   6  123.39    4.20
  -4   4   6  122.99    3.60
   4   4  -6  125.29    4.30
   4   4  -6  121.89    3.70
   4   4  -6  121.69    4.20
   3  -4  -6   28.70    1.70
  -3  -4   6   27.90    1.40
  -3  -4   6   28.80    1.70
   3  -4  -6   27.80    1.60
   3  -4  -6   26.20    1.50
  -3  -4   6   27.90    1.80
   3  -4  -6   28.00    1.60
  -3   4   6   27.70    1.60
   3   4  -6   28.20    1.30
   3   4  -6   29.10    1.70
  -3   4   6   32.10    1.70
  -3   4   6   26.40    1.40
   3   4  -6   26.50    1.80
  -3   4   6   30.10    1.80
  -2  -4   6   25.40    1.60
  -2  -4   6   24.90    1.60
   2  -4  -6   25.70    1.40
   2  -4  -6   25.30    1.20
  -2  -4   6   27.50    1.10
  -2  -4   6   24.80    1.00
   2  -4  -6   24.40    1.40
   2  -4  -6   24.70    1.20
   2   4  -6   25.30    1.50
   2   4  -6   22.10    1.50
  -2   4   6   26.20    1.30
   2   4  -6   25.30    1.00
   2   4  -6   26.40    1.10
  -2   4   6   22.30    1.60
  -2   4   6   25.10    1.30
   1  -4  -6   11.00    1.10
   1  -4  -6   11.80    1.10
  -1  -4   6   12.20    1.20
   1  -4  -6   11.20    0.90
  -1  -4   6   11.70    1.10
   1  -4  -6   12.00    0.70
  -1  -4   6    9.70    0.80
   1  -4  -6   11.80    0.70
  -1   4   6   11.00    1.00
   1   4  -6   11.20    1.00
   1   4  -6   10.90    1.10
  -1   4   6   11.30    0.90
  -1   4   6   10.90    0.70
  -1   4   6   12.20    1.20
   1   4  -6   11.10    1.10
   0  -4   6  628.24   16.60
   0  -4  -6  626.74   16.70
   0  -4  -6  653.43   16.30
   0  -4   6  630.04   16.50
   0  -4  -6  653.73   16.20
   0  -4   6  651.13   16.20
   0  -4  -6  633.94   16.60
   0  -4   6  625.74   16.80
   0   4   6  629.44   16.30
   0   4  -6  623.14   16.60
   0   4  -6  625.14   16.60
   0   4  -6  649.34   16.20
   0   4  -6  633.04   16.70
   0   4   6  626.44   16.80
   0   4   6  629.74   16.80
   1  -4   6   -0.20    0.40
  -1  -4  -6    1.00    0.50
   1  -4   6   -1.30    0.50
  -1  -4  -6   -0.20    0.40
  -1  -4  -6    0.20    0.40
   1  -4   6    0.60    0.40
   1  -4   6    1.00    0.60
  -1  -4  -6    0.10    0.60
   1  -4   6    0.50    0.40
   1   4   6    0.40    0.50
   1   4   6    0.50    0.40
   1   4   6    0.30    0.40
   1   4   6    0.20    0.40
   1   4   6    0.50    0.50
  -1   4  -6    0.80    0.50
  -1   4  -6    0.40    0.60
  -1   4  -6    0.00    0.50
  -1   4  -6   -0.30    0.50
  -1   4  -6    0.60    0.40
  -2  -4  -6  635.04   17.30
  -2  -4  -6  652.83   16.90
  -2  -4  -6  634.44   17.10
   2  -4   6  646.54   17.30
   2  -4   6  656.13   16.90
   2  -4   6  674.93   17.30
   2  -4   6  635.54   16.90
   2   4   6  634.34   17.20
  -2   4  -6  662.93   17.30
   2   4   6  661.43   16.70
   2   4   6  643.84   17.40
   2   4   6  624.14   16.70
  -2   4  -6  659.73   17.20
  -2   4  -6  658.93   16.80
  -2   4  -6  692.53   16.80
  -2   4  -6  669.13   17.00
   2   4   6  641.64   16.90
  -3  -4  -6    7.50    1.20
  -3  -4  -6    4.20    0.80
   3  -4   6    6.30    1.10
   3  -4   6    7.20    1.20
  -3  -4  -6    3.90    0.90
   3  -4   6    4.90    1.00
  -3   4  -6    5.90    1.30
   3   4   6    5.90    1.00
   3   4   6    6.30    0.90
   3   4   6    4.50    0.90
   3   4   6    4.20    0.90
  -3   4  -6    5.90    1.20
   3   4   6    7.50    1.20
  -4  -4  -6  162.08    5.20
  -4  -4  -6  161.98    5.40
   4  -4   6  170.08    5.20
   4  -4   6  170.78    5.20
  -4  -4  -6  162.68    5.20
   4  -4   6  165.58    5.50
  -4   4  -6  168.68    5.30
   4   4   6  159.48    5.00
   4   4   6  161.18    5.30
   4   4   6  159.88    4.80
   4   4   6  159.78    5.30
  -4   4  -6  167.58    5.40
   5  -4   6   10.40    1.90
   5  -4   6   12.50    2.10
  -5  -4  -6   11.50    1.60
  -5  -4  -6   14.60    2.00
  -5  -4  -6   10.90    2.00
   5  -4   6   10.80    2.20
   5   4   6   12.90    1.90
   5   4   6    9.50    1.80
  -5   4  -6   13.20    2.10
   5   4   6   11.60    1.50
   5   4   6   14.00    1.80
   5   4   6   11.20    1.70
  -5   4  -6    8.50    2.10
  -6  -4  -6    8.10    1.80
   6  -4   6   10.10    2.30
   6  -4   6   15.00    2.60
  -6  -4  -6   10.80    1.90
  -6  -4  -6   10.10    2.30
   6   4   6    6.20    1.40
   6   4   6   11.00    2.20
  -6   4  -6   10.10    2.60
   6   4   6    8.70    2.20
  -6   4  -6    6.80    1.50
   6   4   6    8.60    1.40
  -7  -4  -6    2.90    2.00
   7  -4   6    7.50    1.80
   7   4   6    4.50    1.70
  -7   4  -6    8.20    2.10
   7   4   6    3.80    1.70
  -7   4  -6    5.40    1.70
   7   4   6    4.90    1.60
   7  -5  -6   65.09    4.00
  -7  -5   6   70.49    4.00
   7  -5  -6   70.59    4.00
  -7  -5   6   62.19    4.10
   7  -5  -6   64.79    3.80
  -7   5   6   64.29    4.10
   7   5  -6   68.99    3.80
   7   5  -6   66.29    3.70
  -7   5   6   67.19    3.80
   7   5  -6   62.39    4.10
   6  -5  -6    1.20    1.30
  -6  -5   6   -1.40    1.00
   6  -5  -6    2.20    1.30
  -6  -5   6    0.30    1.50
   6  -5  -6   -0.60    1.20
  -6  -5   6    1.20    1.30
   6   5  -6    0.30    1.10
   6   5  -6   -1.60    1.10
  -6   5   6    2.10    1.30
  -6   5   6   -2.00    1.40
   6   5  -6   -0.20    1.00
   5  -5  -6  273.47    7.90
  -5  -5   6  264.77    8.30
   5  -5  -6  274.77    7.80
  -5  -5   6  273.87    7.80
   5  -5  -6  266.67    8.10
  -5   5   6  273.17    8.20
   5   5  -6  247.08    8.00
  -5   5   6  245.58    7.90
   5   5  -6  261.07    8.10
   5   5  -6  270.17    7.50
   4  -5  -6  116.39    4.10
  -4  -5   6  116.09    4.10
   4  -5  -6  116.29    3.90
   4  -5  -6  122.79    4.10
  -4  -5   6  113.59    4.40
   4   5  -6  116.89    3.60
   4   5  -6  120.39    4.20
   4   5  -6  114.49    4.20
  -4   5   6  117.99    4.30
  -4   5   6  114.19    3.60
  -4   5   6  112.09    4.10
   3  -5  -6   89.99    3.30
   3  -5  -6   95.59    3.30
  -3  -5   6   88.99    2.70
   3  -5  -6   82.09    2.90
  -3  -5   6   87.49    3.50
   3  -5  -6   91.59    3.00
  -3  -5   6   87.69    3.40
  -3   5   6   91.69    3.10
   3   5  -6   96.59    3.40
   3   5  -6   90.39    3.40
   3   5  -6   90.99    2.70
  -3   5   6   88.79    3.40
  -3   5   6   89.39    3.20
   3   5  -6   91.89    2.80
   3   5  -6   88.79    2.70
   2  -5  -6  225.68    6.50
  -2  -5   6  211.78    6.50
  -2  -5   6  225.18    6.00
  -2  -5   6  216.08    6.60
   2  -5  -6  218.68    5.90
   2  -5  -6  220.48    6.40
   2  -5  -6  225.48    5.90
   2   5  -6  221.88    6.50
   2   5  -6  217.68    6.00
  -2   5   6  211.98    6.20
  -2   5   6  222.28    6.30
  -2   5   6  208.88    6.60
   2   5  -6  216.08    6.40
   1  -5  -6  151.08    4.40
  -1  -5   6  150.98    4.40
   1  -5  -6  148.09    4.60
  -1  -5   6  147.29    4.70
  -1  -5   6  150.48    4.80
   1  -5  -6  154.88    4.70
   1   5  -6  152.48    4.70
   1   5  -6  149.99    4.70
  -1   5   6  151.28    4.80
  -1   5   6  154.38    4.70
   1   5  -6  152.38    4.50
  -1   5   6  149.29    4.40
   0  -5  -6   61.29    2.10
   0  -5  -6   58.39    2.20
   0  -5   6   59.09    2.30
   0  -5   6   56.79    2.20
   0  -5   6   60.09    2.50
   0  -5  -6   57.59    2.40
   0   5   6   62.49    2.60
   0   5   6   59.99    2.00
   0   5  -6   57.79    2.30
   0   5   6   58.99    2.50
   0   5  -6   58.29    2.40
   1  -5   6 1421.06   35.80
  -1  -5  -6 1372.56   35.90
   1  -5   6 1365.46   36.10
   1  -5   6 1451.85   35.50
  -1  -5  -6 1372.96   36.10
   1  -5   6 1383.56   36.00
  -1  -5  -6 1425.36   35.60
   1  -5   6 1403.36   35.50
  -1   5  -6 1391.96   36.00
   1   5   6 1364.36   36.10
   1   5   6 1396.06   35.60
   1   5   6 1406.26   36.20
  -1   5  -6 1416.96   35.80
  -1   5  -6 1379.16   36.00
   1   5   6 1439.16   35.60
   2  -5   6   34.10    1.90
   2  -5   6   35.10    1.70
   2  -5   6   33.10    1.60
  -2  -5  -6   34.90    1.50
  -2  -5  -6   31.60    1.90
   2  -5   6   33.00    2.00
  -2  -5  -6   33.10    1.80
  -2   5  -6   32.60    1.50
   2   5   6   34.10    1.40
  -2   5  -6   34.40    1.90
   2   5   6   32.30    1.90
   2   5   6   36.20    2.00
  -2   5  -6   35.80    1.90
   2   5   6   32.60    1.50
   2   5   6   34.50    1.50
  -2   5  -6   33.60    1.70
   3  -5   6  388.36   10.60
  -3  -5  -6  371.66   10.70
  -3  -5  -6  373.76   10.50
   3  -5   6  394.86   10.90
   3  -5   6  391.56   10.40
  -3  -5  -6  368.56   10.30
   3   5   6  379.06   10.70
  -3   5  -6  386.26   10.70
   3   5   6  388.66   10.70
   3   5   6  367.26   10.10
  -3   5  -6  389.56   10.00
   3   5   6  370.66   10.10
   3   5   6  381.06   10.80
  -3   5  -6  388.16   10.70
  -4  -5  -6   29.80    2.10
   4  -5   6   27.90    2.30
  -4  -5  -6   28.70    2.30
  -4  -5  -6   25.80    2.00
   4  -5   6   32.20    2.00
   4  -5   6   28.00    2.00
   4   5   6   26.10    2.10
  -4   5  -6   28.70    2.20
   4   5   6   28.30    1.70
  -4   5  -6   28.20    2.20
   4   5   6   27.40    2.10
   4   5   6   27.00    2.00
   5  -5   6    7.50    1.50
  -5  -5  -6    8.80    2.20
   5  -5   6    7.00    1.80
  -5  -5  -6    7.00    1.30
   5  -5   6    9.90    2.10
  -5   5  -6   13.40    2.10
   5   5   6    9.40    1.80
   5   5   6   14.00    1.70
   5   5   6    7.40    1.90
   5   5   6    7.40    1.90
   5   5   6    8.40    1.80
   5   5   6   10.50    2.10
  -5   5  -6   10.80    2.30
  -6  -5  -6   92.09    4.30
   6  -5   6   96.89    4.40
  -6  -5  -6   87.19    4.30
   6  -5   6   93.29    4.30
   6   5   6   86.79    4.30
   6   5   6   95.39    4.10
  -6   5  -6   94.89    4.40
   6   5   6   93.19    4.20
  -6   5  -6   91.59    4.40
   6   5   6   87.89    4.20
   7  -5   6   30.50    3.40
   7  -5   6   32.40    3.80
  -7   5  -6   30.50    3.40
   7   5   6   32.40    3.30
  -7   5  -6   38.80    3.80
   7   5   6   35.00    3.30
   7   5   6   36.70    3.70
   7   5   6   31.20    4.30
   7  -6  -6   14.90    3.20
   7  -6  -6    9.50    2.20
  -7  -6   6   13.30    3.30
   7  -6  -6    9.40    2.10
  -7   6   6   14.80    2.90
  -7   6   6    9.90    2.20
   7   6  -6   12.50    3.00
   7   6  -6   10.40    2.00
  -6  -6   6   13.80    2.60
   6  -6  -6   13.60    2.50
   6  -6  -6   13.80    2.60
  -6  -6   6   12.20    2.30
   6  -6  -6   12.60    2.40
   6   6  -6   12.80    2.50
  -6   6   6   12.30    2.90
  -6   6   6    9.70    1.70
   6   6  -6    9.90    2.30
   5  -6  -6   49.30    2.70
  -5  -6   6   52.59    3.00
  -5  -6   6   52.89    3.20
   5  -6  -6   52.49    3.10
   5  -6  -6   47.00    2.80
   5   6  -6   51.89    3.00
  -5   6   6   52.79    3.00
  -5   6   6   52.19    3.20
   5   6  -6   48.20    2.90
   4  -6  -6    7.50    1.70
   4  -6  -6    9.60    1.90
   4  -6  -6    9.20    1.60
  -4  -6   6    7.80    1.80
  -4  -6   6   10.30    1.90
  -4   6   6    8.70    1.40
   4   6  -6   10.30    1.80
   4   6  -6   11.30    1.80
  -4   6   6    8.30    1.70
   4   6  -6    9.40    1.20
  -4   6   6   10.20    2.00
  -3  -6   6  219.78    6.90
   3  -6  -6  219.68    6.20
   3  -6  -6  237.48    6.80
  -3  -6   6  220.88    6.20
   3  -6  -6  226.28    6.70
  -3  -6   6  220.68    7.00
  -3   6   6  226.18    6.70
  -3   6   6  228.18    6.50
  -3   6   6  228.18    7.00
   3   6  -6  221.28    6.80
   3   6  -6  227.48    6.90
   2  -6  -6    0.40    0.70
  -2  -6   6   -0.40    0.60
   2  -6  -6    3.30    0.90
  -2  -6   6    0.20    0.80
  -2  -6   6    0.20    0.80
  -2   6   6   -0.30    0.70
   2   6  -6    0.80    0.80
  -2   6   6    0.50    0.70
  -2   6   6   -0.70    0.80
   2   6  -6    0.30    0.80
   2   6  -6   -0.30    0.70
  -1  -6   6  427.06   12.20
   1  -6  -6  446.06   11.90
   1  -6  -6  442.06   12.10
  -1  -6   6  443.26   11.80
  -1  -6   6  443.56   12.20
  -1   6   6  445.86   12.10
   1   6  -6  443.26   12.10
   1   6  -6  441.66   12.00
  -1   6   6  433.26   12.30
  -1   6   6  443.96   11.80
   1   6  -6  444.46   12.20
   0  -6  -6   11.90    1.40
   0  -6  -6   10.80    1.30
   0  -6   6   12.80    1.30
   0  -6   6    9.90    1.30
   0  -6   6   10.90    1.40
   0   6   6   11.10    1.40
   0   6   6   13.00    1.50
   0   6  -6   11.20    1.30
   0   6   6   11.90    1.10
   0   6  -6    7.50    1.30
   0   6  -6   11.60    1.30
   1  -6   6  130.49    4.30
  -1  -6  -6  131.69    4.00
  -1  -6  -6  133.59    4.20
   1  -6   6  129.49    3.60
  -1  -6  -6  128.49    4.40
   1  -6   6  126.89    4.40
  -1   6  -6  131.39    4.20
   1   6   6  130.29    4.00
   1   6   6  132.29    4.50
   1   6   6  127.19    4.40
   1   6   6  132.09    3.90
  -1   6  -6  131.89    4.40
  -1   6  -6  129.19    4.30
   2  -6   6   65.89    2.90
   2  -6   6   59.99    2.30
  -2  -6  -6   64.29    2.60
  -2  -6  -6   60.29    2.80
  -2  -6  -6   61.49    2.10
   2  -6   6   64.29    2.80
   2  -6   6   60.29    2.40
   2   6   6   62.79    2.30
   2   6   6   64.19    2.10
   2   6   6   61.79    2.50
  -2   6  -6   65.09    2.50
  -2   6  -6   65.89    2.80
   2   6   6   64.79    2.40
   2   6   6   64.39    2.90
   2   6   6   64.39    2.80
  -2   6  -6   66.59    2.70
   3  -6   6    5.90    1.60
  -3  -6  -6    6.90    1.50
  -3  -6  -6    3.60    0.80
  -3  -6  -6    5.10    1.20
   3  -6   6    4.30    0.90
   3  -6   6    5.10    1.30
  -3   6  -6    4.70    0.90
  -3   6  -6    4.30    1.10
   3   6   6    4.10    0.80
   3   6   6    4.50    1.00
   3   6   6    4.40    1.10
   3   6   6    3.30    0.80
  -3   6  -6    4.10    1.10
  -4  -6  -6   27.20    2.20
   4  -6   6   34.70    2.60
   4  -6   6   30.60    2.20
  -4  -6  -6   27.20    2.20
  -4  -6  -6   27.40    2.50
   4  -6   6   29.10    2.00
   4   6   6   30.90    2.30
   4   6   6   26.40    2.30
   4   6   6   28.50    2.10
  -4   6  -6   29.70    2.30
   4   6   6   29.40    1.90
   4   6   6   25.50    2.30
  -4   6  -6   32.70    2.50
  -5  -6  -6  365.16   11.10
   5  -6   6  407.26   11.00
  -5  -6  -6  382.96   11.50
  -5  -6  -6  384.16   11.30
   5  -6   6  404.66   11.70
   5  -6   6  400.16   11.20
  -5   6  -6  409.56   11.60
  -5   6  -6  400.86   11.50
   5   6   6  389.26   11.20
   5   6   6  385.86   11.40
   5   6   6  385.16   11.10
   5   6   6  382.56   11.30
   5   6   6  391.26   11.50
   6  -6   6    0.60    1.70
   6  -6   6   -2.20    1.50
  -6  -6  -6    0.20    1.70
  -6  -6  -6    0.60    1.60
   6   6   6   -1.50    1.50
  -6   6  -6    1.10    1.70
   6   6   6   -1.30    1.50
   6   6   6    1.00    1.40
  -6   6  -6   -0.30    1.50
   6   6   6   -1.20    1.40
   6  -7  -6    2.00    1.60
  -6  -7   6   -1.20    1.60
  -6  -7   6   -0.20    1.50
   6  -7  -6   -0.30    1.60
   6   7  -6   -0.30    1.40
  -6   7   6   -0.70    1.80
  -6   7   6    2.00    1.50
   6   7  -6   -1.20    1.50
  -5  -7   6   27.90    3.00
   5  -7  -6   30.10    2.90
  -5  -7   6   36.00    3.00
   5  -7  -6   34.50    2.70
   5   7  -6   34.10    2.70
  -5   7   6   29.60    2.60
   5   7  -6   33.50    2.60
  -5   7   6   31.90    3.10
   4  -7  -6  177.28    5.90
  -4  -7   6  174.28    6.00
   4  -7  -6  170.58    5.80
  -4  -7   6  175.08    6.10
   4   7  -6  176.68    5.90
  -4   7   6  181.18    6.20
  -4   7   6  169.08    5.80
  -4   7   6  172.48    5.40
   4   7  -6  175.48    5.80
   3  -7  -6   20.10    2.00
  -3  -7   6   18.90    1.50
  -3  -7   6   17.80    2.10
   3  -7  -6   19.60    2.00
  -3  -7   6   21.30    2.20
  -3   7   6   19.20    1.90
  -3   7   6   18.80    1.70
   3   7  -6   20.30    2.00
   3   7  -6   21.10    2.00
  -3   7   6   19.60    2.20
  -2  -7   6  456.25   12.90
   2  -7  -6  453.95   12.80
  -2  -7   6  455.65   12.90
  -2  -7   6  450.25   12.20
   2  -7  -6  461.25   12.50
   2   7  -6  469.55   12.60
  -2   7   6  459.35   12.50
   2   7  -6  447.76   12.70
  -2   7   6  473.75   12.60
   2   7  -6  447.66   12.90
  -2   7   6  456.75   12.90
  -1  -7   6   21.00    1.60
  -1  -7   6   18.80    1.90
   1  -7  -6   19.20    1.80
   1  -7  -6   18.60    1.60
   1  -7  -6   21.60    1.80
  -1  -7   6   17.90    1.70
  -1   7   6   21.90    1.90
   1   7  -6   21.80    1.90
   1   7  -6   17.60    1.70
   1   7  -6   19.10    1.80
  -1   7   6   19.90    1.90
  -1   7   6   23.80    1.70
   0  -7   6  169.48    5.20
   0  -7  -6  175.08    5.50
   0  -7   6  167.38    5.60
   0  -7  -6  173.68    5.20
   0  -7   6  168.98    5.40
   0  -7  -6  165.38    5.50
   0   7  -6  162.98    5.40
   0   7   6  168.18    5.10
   0   7  -6  167.18    5.30
   0   7  -6  172.18    5.40
   0   7   6  168.68    5.60
   0   7   6  167.98    5.60
  -1  -7  -6  308.27    9.20
  -1  -7  -6  313.07    8.70
   1  -7   6  313.27    9.20
   1  -7   6  315.47    9.00
  -1  -7  -6  314.27    9.10
   1   7   6  307.57    9.20
  -1   7  -6  319.07    8.90
  -1   7  -6  312.87    9.10
  -1   7  -6  310.67    8.90
   1   7   6  311.97    9.20
   1   7   6  312.27    8.60
  -2  -7  -6    0.20    0.90
   2  -7   6    1.00    0.70
   2  -7   6    1.90    1.20
  -2  -7  -6    0.30    0.80
   2  -7   6   -0.10    0.90
   2   7   6   -0.40    0.80
   2   7   6    2.60    1.20
  -2   7  -6    0.60    0.90
  -2   7  -6    0.80    0.90
   2   7   6    0.50    0.80
  -2   7  -6   -0.50    0.90
   3  -7   6  102.39    4.00
  -3  -7  -6  102.89    3.70
  -3  -7  -6  100.89    4.10
   3  -7   6  106.29    4.30
   3  -7   6   94.29    3.50
  -3   7  -6  102.19    4.10
  -3   7  -6   95.39    3.50
   3   7   6  103.09    4.20
   3   7   6   98.39    4.00
   3   7   6  101.39    3.50
  -3   7  -6   97.39    3.90
   4  -7   6  161.98    5.50
   4  -7   6  160.58    5.20
  -4  -7  -6  163.58    5.80
  -4  -7  -6  149.39    5.30
   4  -7   6  168.68    5.90
   4   7   6  164.18    5.50
   4   7   6  160.38    5.70
  -4   7  -6  164.38    5.80
   4   7   6  163.48    5.80
  -4   7  -6  167.78    5.70
   4   7   6  158.38    5.70
  -5  -7  -6    1.00    1.50
   5  -7   6   -0.10    1.50
   5  -7   6    0.20    1.40
  -5  -7  -6   -0.60    1.50
  -5   7  -6    0.70    1.40
   5   7   6   -0.80    1.40
   5   7   6   -0.70    1.50
   5   7   6   -1.30    1.40
   5   7   6    1.90    1.30
  -5   7  -6    4.20    1.60
  -6  -7  -6  120.39    5.40
   6  -7   6  117.19    5.60
   6  -7   6  128.39    5.30
  -6   7  -6  133.49    5.60
   6   7   6  143.39    5.60
   6   7   6  125.59    5.30
  -6   7  -6  130.49    5.60
   6   7   6  125.49    5.40
  -5  -8   6   14.90    2.90
   5  -8  -6   14.90    2.70
  -5  -8   6   20.00    3.20
   5  -8  -6   19.00    3.00
  -5   8   6   18.40    2.70
   5   8  -6   21.30    2.90
   5   8  -6   15.00    2.50
  -5   8   6   21.40    3.20
   5   8  -6   15.90    2.80
  -4  -8   6   21.30    2.70
   4  -8  -6   24.30    2.50
   4  -8  -6   17.70    2.60
  -4  -8   6   24.60    2.50
   4   8  -6   21.90    2.40
  -4   8   6   21.40    2.40
   4   8  -6   22.20    2.60
  -4   8   6   22.40    2.80
   4   8  -6   20.90    2.60
  -3  -8   6   47.00    3.00
   3  -8  -6   48.90    2.80
  -3  -8   6   46.80    3.10
  -3  -8   6   50.19    2.40
   3  -8  -6   53.59    3.00
   3   8  -6   50.09    2.80
  -3   8   6   48.30    3.20
   3   8  -6   51.89    2.90
  -3   8   6   47.00    2.70
  -3   8   6   39.40    2.60
   3   8  -6   48.70    3.10
   2  -8  -6    4.60    1.30
  -2  -8   6    5.80    1.00
  -2  -8   6    6.00    1.30
   2  -8  -6    6.50    1.70
   2  -8  -6    6.90    1.80
  -2  -8   6    6.90    1.90
   2   8  -6    7.30    1.80
  -2   8   6    7.10    1.80
   2   8  -6   10.70    2.10
  -2   8   6    7.20    1.70
  -2   8   6    8.90    2.10
   2   8  -6    5.70    1.20
   1  -8  -6   27.70    2.20
  -1  -8   6   24.90    2.30
   1  -8  -6   25.80    2.20
  -1  -8   6   27.50    2.20
  -1  -8   6   27.60    1.90
   1  -8  -6   28.90    1.90
   1   8  -6   31.10    2.00
  -1   8   6   28.40    2.00
   1   8  -6   26.30    2.40
  -1   8   6   26.70    2.40
   1   8  -6   27.00    2.20
  -1   8   6   25.10    2.30
   0  -8  -6  412.56   11.10
   0  -8   6  411.96   11.40
   0  -8  -6  411.96   11.60
   0  -8  -6  382.26   11.50
   0  -8   6  402.46   11.70
   0   8   6  425.76   11.20
   0   8  -6  402.06   11.60
   0   8  -6  408.76   11.50
   0   8  -6  422.46   11.30
   0   8   6  379.46   11.60
   0   8   6  402.56   11.70
   1  -8   6    1.90    1.00
  -1  -8  -6    1.70    1.10
  -1  -8  -6    1.80    0.90
   1  -8   6    1.50    1.20
  -1  -8  -6    3.10    1.10
   1   8   6    2.40    1.00
  -1   8  -6    1.80    0.90
   1   8   6    1.70    1.10
  -1   8  -6    2.40    1.10
   1   8   6    2.60    1.20
  -1   8  -6    2.40    1.10
  -2  -8  -6  240.38    7.70
   2  -8   6  237.38    7.60
  -2  -8  -6  240.08    7.10
  -2  -8  -6  245.08    7.60
   2  -8   6  238.88    7.50
  -2   8  -6  241.18    7.30
   2   8   6  243.18    7.70
  -2   8  -6  234.58    7.50
   2   8   6  245.48    7.70
   2   8   6  238.58    7.00
  -2   8  -6  235.98    7.10
  -3  -8  -6    5.50    1.20
   3  -8   6    4.90    1.40
   3  -8   6    5.20    1.60
  -3  -8  -6    6.30    1.50
   3   8   6    4.40    1.20
  -3   8  -6    2.80    1.80
  -3   8  -6    8.10    2.20
  -3   8  -6    7.10    1.50
   3   8   6    4.80    1.40
   3   8   6    7.30    1.60
  -4  -8  -6  102.79    4.20
   4  -8   6  102.99    4.70
  -4  -8  -6   96.99    4.50
   4  -8   6  114.89    4.60
   4   8   6  101.09    4.60
   4   8   6  104.89    4.60
   4   8   6  100.99    4.40
  -4   8  -6  103.59    4.50
  -4   8  -6  102.79    4.50
  -5  -8  -6   30.60    3.10
   5  -8   6   30.70    3.60
  -5  -8  -6   27.30    3.30
   5   8   6   33.60    3.20
  -5   8  -6   32.50    3.40
   5   8   6   27.30    3.00
   5   8   6   32.80    3.10
   5   8   6   32.80    3.50
  -5   8  -6   32.60    3.50
  -5  -9   6  129.39    6.00
  -5  -9   6  146.09    6.10
   5  -9  -6  148.79    5.70
   5  -9  -6  139.59    5.70
  -5   9   6  136.59    5.70
  -5   9   6  142.79    6.10
   5   9  -6  142.69    5.80
   5   9  -6  134.89    5.60
   5   9  -6  133.19    6.00
  -4  -9   6   17.90    2.80
   4  -9  -6   21.60    2.90
   4  -9  -6   16.80    2.60
  -4  -9   6   19.90    2.90
   4   9  -6   24.10    2.70
   4   9  -6   20.70    2.90
  -4   9   6   16.50    2.70
  -4   9   6   18.60    3.20
   4   9  -6   21.90    3.00
   3  -9  -6   16.90    2.50
   3  -9  -6   17.30    2.40
  -3  -9   6   18.20    2.40
  -3  -9   6   14.90    2.50
   3   9  -6   15.90    2.60
   3   9  -6   19.60    2.50
  -3   9   6   11.50    2.40
  -3   9   6   12.60    2.60
  -3   9   6   13.40    2.30
   3   9  -6   15.20    2.30
  -2  -9   6   70.89    3.20
  -2  -9   6   75.49    3.70
  -2  -9   6   74.29    3.80
   2  -9  -6   71.39    3.30
   2  -9  -6   69.89    3.60
   2  -9  -6   70.49    3.60
   2   9  -6   80.69    3.60
  -2   9   6   76.69    3.50
  -2   9   6   73.19    3.80
   2   9  -6   81.49    3.50
   2   9  -6   69.79    3.80
  -2   9   6   75.19    3.70
  -1  -9   6   32.30    2.30
   1  -9  -6   32.80    2.50
   1  -9  -6   30.50    2.40
  -1  -9   6   30.50    2.50
   1  -9  -6   28.40    2.20
  -1   9   6   29.70    2.60
   1   9  -6   27.50    2.30
   1   9  -6   31.40    2.40
   1   9  -6   31.80    2.80
  -1   9   6   28.90    2.40
  -1   9   6   25.40    2.80
   0  -9  -6   17.90    2.20
   0  -9  -6   14.90    1.80
   0  -9  -6   16.90    2.10
   0  -9   6   14.40    2.20
   0  -9   6   18.30    2.30
   0   9  -6   17.30    2.00
   0   9   6   13.90    2.10
   0   9   6   18.10    2.60
   0   9  -6   13.50    2.00
   0   9   6   18.50    2.00
   0   9  -6   17.70    2.50
  -1  -9  -6  362.26   10.80
  -1  -9  -6  366.76   10.70
  -1  -9  -6  358.76   10.10
   1  -9   6  364.76   10.80
   1  -9   6  366.16   10.70
  -1   9  -6  358.96   10.70
   1   9   6  368.66   10.20
   1   9   6  358.36   10.80
  -1   9  -6  344.37   10.50
   1   9   6  368.76   10.90
  -1   9  -6  362.66   10.30
  -2  -9  -6    5.60    1.20
   2  -9   6    9.40    2.30
  -2  -9  -6    5.90    1.40
  -2  -9  -6    5.50    1.30
   2  -9   6    6.10    1.60
   2   9   6    6.60    1.30
   2   9   6    9.80    2.30
  -2   9  -6    5.90    1.40
   2   9   6    5.10    1.40
  -2   9  -6    6.90    1.50
  -2   9  -6    5.80    1.40
  -3  -9  -6  107.59    4.30
   3  -9   6  113.89    4.90
   3  -9   6  113.49    4.90
  -3  -9  -6  117.89    4.80
  -3   9  -6  107.59    4.80
   3   9   6  106.39    4.80
   3   9   6  114.59    4.90
  -3   9  -6  116.09    4.70
   4  -9   6   24.00    3.20
   4  -9   6   27.80    3.40
  -4  -9  -6   22.30    3.20
   4   9   6   25.10    3.00
  -4   9  -6   29.60    3.20
   4   9   6   21.80    3.10
  -4   9  -6   22.50    3.20
  -3 -10   6   96.69    4.70
   3 -10  -6   87.29    4.40
   3 -10  -6   94.39    4.20
  -3 -10   6   89.19    4.70
   3  10  -6   88.69    4.40
  -3  10   6   90.79    4.70
  -3  10   6   96.49    4.50
   3  10  -6   95.89    4.90
  -3  10   6   93.99    4.50
   2 -10  -6    3.50    1.40
   2 -10  -6   -1.40    1.30
   2 -10  -6    2.00    1.50
  -2 -10   6   -0.20    1.40
  -2  10   6    0.10    1.50
  -2  10   6    1.20    1.50
   2  10  -6   -0.90    1.50
   2  10  -6   -0.70    1.40
  -2  10   6    2.00    1.60
  -1 -10   6  401.26   11.50
  -1 -10   6  399.66   12.00
   1 -10  -6  394.16   11.90
   1 -10  -6  373.16   11.80
   1 -10  -6  415.56   11.90
  -1  10   6  409.16   12.20
   1  10  -6  397.36   11.90
   1  10  -6  398.06   12.00
  -1  10   6  407.06   11.60
  -1  10   6  412.26   12.00
   0 -10  -6   19.30    2.60
   0 -10  -6   20.40    2.70
   0 -10   6   18.90    2.50
   0 -10   6   24.50    2.90
   0  10  -6   24.60    3.00
   0  10   6   23.20    2.70
   0  10   6   19.50    2.50
   0  10   6   20.30    2.80
   0  10  -6   25.90    2.70
  -1 -10  -6   26.40    2.90
   1 -10   6   26.30    2.80
   1 -10   6   23.20    3.10
  -1 -10  -6   30.40    2.70
   1  10   6   25.20    2.70
   1  10   6   25.10    2.80
  -1  10  -6   29.10    3.00
   1  10   6   27.60    3.10
  -1  10  -6   25.90    2.90
  -2 -10  -6   65.79    3.70
   2 -10   6   63.99    3.90
  -2 -10  -6   60.29    3.80
   2 -10   6   63.69    4.00
  -2  10  -6   60.19    3.60
  -2  10  -6   64.59    3.80
   2  10   6   65.89    3.80
   2  10   6   58.59    4.00
   3 -10   6   23.10    3.30
  -3 -10  -6   19.70    3.20
   3 -10   6   21.70    3.30
   3  10   6   18.30    3.30
  -3  10  -6   25.50    3.30
   3  10   6   22.10    3.10
   1 -11  -6   10.50    1.90
  -1 -11   6   13.50    3.00
  -1 -11   6    8.80    2.00
   1 -11  -6    8.80    2.00
  -1  11   6    9.40    2.00
   1  11  -6    7.20    2.10
  -1  11   6    8.60    2.10
   1  11  -6   11.40    2.20
  -1  11   6   13.00    3.20
   0 -11   6  133.89    5.60
   0 -11  -6  134.29    5.70
   0 -11  -6  149.69    5.80
   0 -11   6  134.89    5.70
   0  11   6  140.49    6.00
   0  11  -6  138.99    5.90
   0  11   6  131.69    5.90
   0  11  -6  138.39    5.80
   8   0  -7   -0.20    1.70
  -8   0   7   -3.60    1.50
  -8   0   7   -0.70    2.00
   8   0  -7    0.40    1.40
  -7   0   7    4.40    1.70
   7   0  -7    1.90    1.10
  -7   0   7    1.20    1.20
   7   0  -7    1.50    1.30
  -6   0   7    1.30    1.00
  -6   0   7   -1.00    1.20
   6   0  -7    1.80    1.00
   6   0  -7   -1.20    1.10
   5   0  -7  403.16   11.20
  -5   0   7  404.86   11.30
   5   0  -7  393.56   11.40
  -5   0   7  411.66   11.50
  -4   0   7   -0.90    0.40
   4   0  -7    0.10    0.60
   4   0  -7    0.60    0.70
   4   0  -7   -0.40    0.70
  -4   0   7   -0.10    0.60
  -4   0   7   -0.10    0.80
   3   0  -7  376.46   10.30
  -3   0   7  382.16   10.00
   3   0  -7  378.66   10.00
   3   0  -7  369.66   10.10
  -3   0   7  365.66   10.40
  -3   0   7  378.86   10.10
   2   0  -7   -0.30    0.40
  -2   0   7    0.00    0.30
  -2   0   7   -0.20    0.40
   2   0  -7   -0.20    0.30
   2   0  -7   -0.40    0.40
   2   0  -7   -0.50    0.50
  -2   0   7   -0.80    0.50
  -2   0   7   -0.40    0.40
   2   0  -7   -0.50    0.50
  -1   0   7  634.74   16.60
   1   0  -7  625.44   16.60
  -1   0   7  625.14   16.60
   1   0  -7  634.24   16.30
   1   0  -7  626.74   16.60
  -1   0   7  642.44   16.30
   1   0  -7  641.14   16.60
   1   0  -7  644.54   16.30
   1   0  -7  635.34   16.50
  -1   0   7  644.14   16.30
   1   0  -7  639.04   16.30
  -1   0   7  634.84   16.60
  -1   0   7  625.04   16.50
  -1   0   7  636.64   16.30
   0   0   7   -0.30    0.50
   0   0   7   -0.70    0.40
   0   0  -7   -1.20    0.40
   0   0  -7   -0.80    0.40
   0   0   7   -0.50    0.40
   0   0   7   -0.60    0.40
   0   0  -7   -1.00    0.30
   0   0   7   -0.50    0.50
   0   0  -7   -0.80    0.40
   0   0   7   -0.50    0.40
   0   0  -7   -0.10    0.40
  -1   0  -7  337.17    8.60
  -1   0  -7  321.77    8.90
  -1   0  -7  330.37    8.40
  -1   0  -7  321.57    8.80
   1   0   7  324.97    8.60
   1   0   7  319.67    8.90
   1   0   7  322.57    8.80
  -2   0  -7    0.90    0.50
  -2   0  -7    0.30    0.30
  -2   0  -7    0.30    0.30
   2   0   7    0.20    0.50
   2   0   7    0.30    0.40
  -2   0  -7    0.00    0.50
   2   0   7    0.40    0.50
   2   0   7    0.60    0.40
  -3   0  -7   63.69    2.10
   3   0   7   58.79    2.50
  -3   0  -7   59.69    2.50
   3   0   7   62.59    2.40
   3   0   7   63.19    2.10
  -3   0  -7   60.59    2.40
  -4   0  -7   -0.80    0.60
  -4   0  -7    0.90    0.80
   4   0   7   -0.10    0.70
  -4   0  -7    0.30    0.70
   4   0   7    1.20    0.90
   4   0   7   -0.10    0.70
  -5   0  -7  352.46    9.40
   5   0   7  314.87    9.70
   5   0   7  346.67   10.00
   5   0   7  360.96    9.60
  -5   0  -7  337.77   10.00
  -5   0  -7  320.47    9.70
   6   0   7    0.50    1.10
   6   0   7   -0.40    1.00
  -6   0  -7   -0.30    1.00
  -6   0  -7   -1.30    1.10
  -6   0  -7   -2.20    1.10
   6   0   7    0.70    1.20
   7   0   7  148.19    5.80
   7   0   7  146.99    5.70
  -7   0  -7  154.48    6.10
  -7   0  -7  151.08    5.50
   8  -1  -7    1.20    1.80
  -8  -1   7   -0.40    1.60
   8  -1  -7   -0.80    1.40
  -8  -1   7   -1.10    2.00
  -8   1   7   -2.50    1.90
  -8   1   7   -0.80    1.60
   8   1  -7    0.20    1.50
   8   1  -7    1.10    1.80
  -7  -1   7  173.48    5.90
   7  -1  -7  163.58    5.80
   7  -1  -7  164.18    6.10
  -7  -1   7  166.08    6.10
   7   1  -7  156.38    5.60
  -7   1   7  165.28    6.10
  -7   1   7  167.68    5.90
   7   1  -7  160.38    6.10
  -6  -1   7    4.30    1.40
   6  -1  -7    3.60    1.20
   6  -1  -7    4.60    0.80
   6  -1  -7    3.30    1.10
  -6  -1   7    1.20    1.10
  -6   1   7    3.00    1.40
   6   1  -7    2.80    1.00
  -6   1   7    6.50    1.30
   6   1  -7    2.50    1.20
   5  -1  -7  131.29    4.50
   5  -1  -7  131.69    3.90
  -5  -1   7  132.39    4.50
   5  -1  -7  130.69    4.60
  -5  -1   7  133.79    4.70
  -5  -1   7  127.19    3.90
  -5   1   7  133.99    4.70
   5   1  -7  130.29    4.40
   5   1  -7  132.39    4.10
  -5   1   7  134.29    4.50
   5   1  -7  132.29    4.70
   4  -1  -7  315.27    8.80
  -4  -1   7  315.87    8.50
  -4  -1   7  314.17    8.80
   4  -1  -7  315.37    8.30
   4  -1  -7  320.17    8.30
  -4  -1   7  313.07    9.00
   4  -1  -7  311.77    8.90
   4   1  -7  313.17    8.70
  -4   1   7  315.77    8.30
   4   1  -7  312.87    9.00
  -4   1   7  311.67    9.00
  -4   1   7  314.37    8.80
   4   1  -7  301.47    8.50
  -4   1   7  317.47    8.30
  -3  -1   7    5.10    1.00
  -3  -1   7    7.50    1.20
   3  -1  -7    6.50    0.90
  -3  -1   7    6.70    0.90
   3  -1  -7    6.10    0.70
   3  -1  -7    4.80    1.00
   3  -1  -7    5.10    1.00
   3   1  -7    4.00    1.10
  -3   1   7    8.70    1.20
  -3   1   7    6.50    0.80
   3   1  -7    4.20    1.10
  -3   1   7    6.10    0.80
   3   1  -7    5.30    0.80
  -3   1   7    5.20    0.90
  -2  -1   7  801.42   20.30
   2  -1  -7  800.12   20.30
  -2  -1   7  800.12   20.30
   2  -1  -7  782.52   20.30
  -2  -1   7  796.22   20.40
   2  -1  -7  779.42   20.20
  -2  -1   7  782.52   20.50
   2  -1  -7  796.72   20.40
   2  -1  -7  811.22   20.10
  -2   1   7  796.82   20.20
  -2   1   7  777.02   20.50
   2   1  -7  788.32   20.50
   2   1  -7  782.22   20.40
  -2   1   7  743.83   20.30
   2   1  -7  803.22   20.30
  -2   1   7  674.13   20.30
   2   1  -7  779.82   20.30
  -2   1   7  820.62   20.10
   2   1  -7  796.02   20.20
  -1  -1   7  531.15   13.50
   1  -1  -7  477.95   13.60
   1  -1  -7  517.55   13.70
  -1  -1   7  535.55   13.40
  -1  -1   7  518.85   13.80
   1  -1  -7  526.15   13.40
  -1  -1   7  511.65   13.70
  -1  -1   7  537.05   13.40
   1  -1  -7  526.35   13.70
   1  -1  -7  527.75   13.50
   1   1  -7  505.85   13.70
  -1   1   7  543.05   13.70
  -1   1   7  525.55   13.80
   1   1  -7  526.25   13.80
   1   1  -7  548.75   13.60
   1   1  -7  525.95   13.50
  -1   1   7  525.05   13.40
   1   1  -7  538.55   13.60
   1   1  -7  438.16   13.70
  -1   1   7  528.75   13.50
  -1   1   7  523.55   13.70
   0  -1   7  144.79    4.10
   0  -1  -7  143.09    4.20
   0  -1   7  148.49    4.00
   0  -1  -7  144.99    4.20
   0  -1   7  141.79    4.30
   0  -1   7  144.49    4.10
   0  -1   7  143.49    4.10
   0  -1  -7  144.89    4.20
   0  -1  -7  144.19    4.10
   0  -1   7  140.69    4.10
   0   1   7  142.99    4.30
   0   1  -7  138.89    4.30
   0   1  -7  147.09    4.00
   0   1  -7  145.89    4.00
   0   1   7  143.99    4.10
   0   1  -7  145.59    4.20
   0   1   7  144.29    4.20
   0   1   7  137.29    4.20
   0   1   7  131.89    4.10
   0   1  -7  145.79    4.10
   0   1  -7  145.99    4.10
   1  -1   7  923.61   24.00
   1  -1   7  938.81   24.30
  -1  -1  -7  923.51   24.20
   1  -1   7  985.00   23.90
   1  -1   7  942.21   23.90
   1  -1   7  903.61   24.10
  -1  -1  -7  964.50   24.00
  -1  -1  -7  936.31   24.10
   1  -1   7  940.61   24.20
  -1  -1  -7  919.01   24.10
   1   1   7  912.91   24.20
   1   1   7  918.61   24.20
  -1   1  -7  941.81   23.90
  -1   1  -7  913.51   24.10
   1   1   7  932.11   24.10
  -1   1  -7  925.81   24.30
  -1   1  -7  951.40   24.10
   1   1   7  944.91   24.00
  -1   1  -7  978.20   23.90
  -2  -1  -7  375.16    9.70
  -2  -1  -7  361.66   10.00
   2  -1   7  371.36   10.10
   2  -1   7  367.96   10.10
  -2  -1  -7  358.06   10.00
   2  -1   7  384.46    9.70
   2   1   7  369.96    9.70
   2   1   7  367.06   10.10
  -2   1  -7  373.86    9.70
  -2   1  -7  362.16   10.10
  -2   1  -7  373.96    9.90
   2   1   7  358.76   10.00
  -3  -1  -7  341.37    9.70
   3  -1   7  351.46    9.40
  -3  -1  -7  357.46    9.20
   3  -1   7  355.46    9.90
  -3  -1  -7  347.37    9.80
   3  -1   7  357.76    9.70
   3   1   7  350.36    9.20
  -3   1  -7  347.77    9.40
  -3   1  -7  351.86    9.90
   3   1   7  362.76    9.20
  -3   1  -7  345.77    9.70
   3   1   7  341.67    9.70
   3   1   7  351.56    9.80
   3   1   7  358.86    9.20
   4  -1   7  425.96   11.60
  -4  -1  -7  411.66   10.90
   4  -1   7  409.06   11.40
   4  -1   7  416.86   11.30
  -4  -1  -7  410.86   11.50
  -4  -1  -7  412.66   11.40
  -4   1  -7  412.96   11.10
   4   1   7  410.16   11.30
  -4   1  -7  404.66   11.50
   4   1   7  408.16   11.50
  -4   1  -7  408.96   11.30
   4   1   7  409.86   10.90
   5  -1   7    3.10    1.10
  -5  -1  -7    4.10    1.20
  -5  -1  -7    3.50    0.90
   5  -1   7    5.60    1.10
  -5  -1  -7    4.90    1.00
   5  -1   7    4.80    1.00
  -5   1  -7    3.30    1.00
  -5   1  -7    5.60    1.40
   5   1   7    4.30    1.00
   5   1   7    3.20    0.90
   5   1   7    6.20    1.30
  -5   1  -7    4.50    1.10
  -6  -1  -7   70.29    3.10
   6  -1   7   68.59    3.50
   6  -1   7   73.79    3.10
  -6  -1  -7   66.19    3.30
  -6  -1  -7   64.69    3.70
   6  -1   7   66.39    3.40
   6   1   7   63.49    3.50
   6   1   7   70.39    3.20
   6   1   7   73.49    3.40
  -6   1  -7   70.09    3.20
  -6   1  -7   72.29    3.60
   7  -1   7  128.29    5.10
   7  -1   7  118.39    5.00
  -7  -1  -7  118.69    5.20
   7   1   7  116.19    4.90
  -7   1  -7  113.19    4.80
  -7   1  -7  115.79    5.20
   7   1   7  117.19    4.90
   8  -2  -7  125.49    5.60
  -8  -2   7  118.59    5.40
   8  -2  -7  119.69    5.20
  -8  -2   7  129.19    5.60
   8   2  -7  117.19    5.50
  -8   2   7  117.19    5.30
   8   2  -7  121.09    4.90
  -8   2   7  116.29    5.40
   7  -2  -7    1.80    1.20
   7  -2  -7    4.00    1.50
  -7  -2   7    0.10    1.60
  -7  -2   7    1.90    1.30
   7   2  -7    3.60    1.40
   7   2  -7    1.80    1.20
  -7   2   7    2.80    1.70
  -7   2   7   -0.20    1.30
   6  -2  -7  167.48    6.20
   6  -2  -7  185.68    5.50
  -6  -2   7  184.78    6.20
  -6  -2   7  189.48    6.40
   6  -2  -7  182.28    6.10
   6   2  -7  187.88    5.90
   6   2  -7  192.78    6.40
  -6   2   7  187.68    6.20
  -6   2   7  189.68    6.30
   5  -2  -7    3.80    0.80
  -5  -2   7    4.60    1.10
   5  -2  -7    3.70    1.00
   5  -2  -7    2.30    0.90
  -5  -2   7    4.50    1.20
  -5  -2   7    7.80    1.30
  -5   2   7    3.50    1.10
  -5   2   7    3.60    1.10
   5   2  -7    3.10    0.90
   5   2  -7    3.60    1.00
   4  -2  -7  103.29    3.20
  -4  -2   7  103.19    3.60
   4  -2  -7   98.99    3.60
   4  -2  -7  107.19    3.70
   4  -2  -7  106.69    3.10
  -4  -2   7  104.39    3.80
  -4  -2   7  102.39    3.40
  -4   2   7  103.69    3.80
   4   2  -7  103.49    3.60
  -4   2   7  101.89    3.60
  -4   2   7  104.59    3.10
   4   2  -7  105.69    3.40
  -4   2   7  102.49    3.10
  -4   2   7   95.99    3.30
   4   2  -7  106.79    3.80
  -3  -2   7    5.60    1.20
   3  -2  -7    5.20    1.00
  -3  -2   7    3.30    0.60
  -3  -2   7    4.60    1.00
   3  -2  -7    5.10    0.80
   3  -2  -7    4.10    0.90
   3  -2  -7    3.10    0.70
  -3   2   7    5.60    1.00
   3   2  -7    4.10    0.80
   3   2  -7    6.10    0.80
  -3   2   7    3.20    0.80
  -3   2   7    5.20    0.80
  -3   2   7    4.50    0.90
   3   2  -7    4.30    1.20
   2  -2  -7  138.49    4.00
   2  -2  -7  138.69    4.20
   2  -2  -7  139.19    4.10
   2  -2  -7  140.79    4.10
   2  -2  -7  141.29    4.00
  -2  -2   7  141.29    4.00
  -2  -2   7  135.69    4.40
  -2  -2   7  133.79    4.20
  -2  -2   7  141.49    4.20
   2   2  -7  140.69    4.00
  -2   2   7  147.79    4.10
  -2   2   7  141.49    4.20
  -2   2   7  140.69    4.10
   2   2  -7  135.29    4.30
   2   2  -7  135.99    4.20
  -2   2   7  137.49    4.40
  -2   2   7  140.69    4.00
   1  -2  -7    3.10    0.70
  -1  -2   7    3.50    0.60
   1  -2  -7    4.80    0.80
  -1  -2   7    5.20    0.60
   1  -2  -7    3.80    0.90
  -1  -2   7    5.20    0.60
   1  -2  -7    4.10    0.80
   1  -2  -7    6.00    0.60
  -1  -2   7    5.20    0.70
  -1  -2   7    4.80    0.90
   1   2  -7    6.00    0.90
   1   2  -7    2.50    0.60
  -1   2   7    2.80    0.60
   1   2  -7    4.20    0.70
   1   2  -7    4.50    0.60
  -1   2   7    4.00    0.80
  -1   2   7    3.90    0.80
  -1   2   7    6.70    0.90
  -1   2   7    4.50    0.90
   1   2  -7    4.60    0.70
   0  -2  -7  738.23   19.00
   0  -2   7  749.92   18.90
   0  -2   7  757.62   19.10
   0  -2   7  749.73   19.00
   0  -2   7  761.62   19.00
   0  -2  -7  722.63   19.10
   0  -2   7  723.73   19.30
   0  -2  -7  717.33   19.10
   0  -2  -7  708.53   19.10
   0   2  -7  712.23   19.20
   0   2  -7  737.43   19.00
   0   2  -7  759.82   18.90
   0   2  -7  738.33   19.00
   0   2  -7  748.93   19.00
   0   2   7  742.83   19.00
   0   2   7  712.43   19.20
   0   2   7  722.13   19.10
  -1  -2  -7   -0.90    0.50
   1  -2   7   -0.10    0.40
   1  -2   7    0.40    0.50
  -1  -2  -7   -0.40    0.40
   1  -2   7    0.70    0.50
  -1  -2  -7   -0.40    0.40
  -1  -2  -7    0.40    0.50
   1  -2   7    0.20    0.50
   1   2   7    0.30    0.50
  -1   2  -7    0.20    0.40
  -1   2  -7    0.20    0.40
   1   2   7   -0.10    0.50
  -1   2  -7    0.00    0.40
   1   2   7   -0.30    0.50
   1   2   7    0.20    0.40
  -1   2  -7    0.00    0.50
  -2  -2  -7 1348.77   35.40
   2  -2   7 1400.46   35.60
  -2  -2  -7 1358.46   35.60
  -2  -2  -7 1338.17   35.50
  -2  -2  -7 1418.46   35.30
   2  -2   7 1386.86   35.60
   2  -2   7 1462.45   35.30
  -2   2  -7 1363.76   35.30
   2   2   7 1339.17   35.60
  -2   2  -7 1413.76   35.40
   2   2   7 1395.46   35.30
   2   2   7 1359.76   35.60
  -2   2  -7 1382.86   35.60
   3  -2   7    0.40    0.60
  -3  -2  -7    0.70    0.60
   3  -2   7    1.60    0.70
  -3  -2  -7    1.10    0.40
  -3  -2  -7    0.90    0.60
  -3  -2  -7    0.50    0.60
   3  -2   7    0.40    0.70
   3   2   7    1.10    0.70
  -3   2  -7    1.50    0.70
  -3   2  -7    0.50    0.50
   3   2   7    1.30    0.50
   3   2   7    2.30    0.70
  -3   2  -7    1.10    0.70
   3   2   7    1.90    0.80
   3   2   7    2.10    0.50
  -4  -2  -7  233.88    6.50
  -4  -2  -7  229.38    7.10
   4  -2   7  243.88    7.00
   4  -2   7  240.98    7.00
   4  -2   7  243.68    7.30
  -4  -2  -7  232.58    7.10
   4   2   7  234.98    7.00
   4   2   7  235.78    6.60
   4   2   7  241.08    6.50
  -4   2  -7  239.48    7.30
  -4   2  -7  242.98    7.00
   4   2   7  236.68    7.20
  -4   2  -7  246.88    6.90
   4   2   7  231.38    6.60
  -5  -2  -7   13.20    1.80
  -5  -2  -7   10.30    2.10
   5  -2   7   10.80    1.90
   5  -2   7    7.80    1.80
   5  -2   7   10.60    1.60
  -5  -2  -7    9.00    1.50
  -5   2  -7    9.50    1.70
  -5   2  -7   13.20    1.60
  -5   2  -7    9.80    2.00
   5   2   7   15.00    1.90
   5   2   7    9.50    1.70
   5   2   7   11.20    1.70
  -6  -2  -7   84.89    3.40
  -6  -2  -7   81.79    4.10
   6  -2   7   81.99    3.90
  -6  -2  -7   81.09    3.80
   6  -2   7   90.99    3.40
   6  -2   7   86.39    4.00
   6   2   7   83.99    3.80
  -6   2  -7   87.79    3.70
   6   2   7   86.79    3.90
  -6   2  -7   85.79    3.90
   6   2   7   83.99    3.70
   7  -2   7    2.60    1.60
   7  -2   7    4.20    1.60
  -7  -2  -7    3.80    1.70
  -7   2  -7    5.40    1.80
   7   2   7    5.50    1.60
   7   2   7    2.50    1.50
  -7   2  -7    4.50    1.70
  -8  -3   7    1.80    1.80
  -8  -3   7    5.50    2.20
   8  -3  -7    6.10    1.90
   8  -3  -7    3.30    2.10
   8   3  -7    6.80    2.00
   8   3  -7    2.30    1.90
  -8   3   7    4.30    2.20
   8   3  -7    1.90    1.70
  -8   3   7    2.60    1.90
   7  -3  -7   75.39    3.90
  -7  -3   7   82.59    4.30
  -7  -3   7   85.49    4.00
   7  -3  -7   81.69    4.30
   7   3  -7   88.99    4.20
  -7   3   7   77.49    3.90
   7   3  -7   80.59    4.00
   7   3  -7   83.09    3.80
  -7   3   7   83.59    4.30
   6  -3  -7   19.40    1.80
  -6  -3   7   22.30    2.20
  -6  -3   7   18.30    2.50
   6  -3  -7   20.20    2.50
  -6  -3   7   18.40    1.80
   6  -3  -7   19.20    2.10
   6   3  -7   22.40    2.30
   6   3  -7   16.70    1.90
   6   3  -7   18.20    2.20
  -6   3   7   14.40    2.40
  -6   3   7   20.00    2.30
  -5  -3   7  187.28    5.90
   5  -3  -7  185.38    5.50
  -5  -3   7  181.08    6.10
  -5  -3   7  180.28    5.50
   5  -3  -7  178.88    5.80
   5  -3  -7  186.08    5.90
   5   3  -7  179.68    6.00
  -5   3   7  187.58    5.90
   5   3  -7  185.58    5.50
  -5   3   7  183.28    6.00
   5   3  -7  182.78    5.90
  -4  -3   7  230.98    7.20
   4  -3  -7  237.38    6.70
  -4  -3   7  241.38    6.80
   4  -3  -7  246.98    6.90
  -4  -3   7  231.68    7.00
   4  -3  -7  234.48    7.00
  -4   3   7  233.48    6.40
  -4   3   7  239.68    6.40
   4   3  -7  238.18    6.70
  -4   3   7  241.48    7.20
  -4   3   7  241.58    7.00
   4   3  -7  236.18    7.10
   4   3  -7  235.98    7.20
  -3  -3   7    1.50    0.60
  -3  -3   7    1.30    0.60
  -3  -3   7    0.20    0.70
   3  -3  -7    1.10    0.60
   3  -3  -7    1.60    0.60
   3  -3  -7    1.70    0.70
  -3  -3   7    1.80    0.70
   3  -3  -7    1.40    0.60
  -3   3   7    1.60    0.60
  -3   3   7    1.00    0.50
   3   3  -7    1.40    0.50
  -3   3   7    0.40    0.60
  -3   3   7    1.10    0.80
   3   3  -7    0.70    0.60
   3   3  -7    0.90    0.70
   2  -3  -7  646.64   18.60
  -2  -3   7  733.33   18.50
  -2  -3   7  713.93   19.00
   2  -3  -7  729.73   18.70
   2  -3  -7  738.93   18.60
   2  -3  -7  715.13   18.80
   2  -3  -7  735.13   18.60
  -2  -3   7  703.63   18.90
   2  -3  -7  724.63   18.60
  -2   3   7  662.33   18.60
  -2   3   7  731.03   18.70
  -2   3   7  716.03   19.00
  -2   3   7  722.13   18.60
   2   3  -7  732.73   18.40
  -2   3   7  744.63   18.60
   2   3  -7  734.03   18.80
   2   3  -7  725.63   18.90
   1  -3  -7  225.88    6.10
  -1  -3   7  231.68    6.10
  -1  -3   7  224.68    6.50
  -1  -3   7  228.88    6.10
   1  -3  -7  234.38    6.20
  -1  -3   7  223.58    6.60
   1  -3  -7  223.18    6.40
   1  -3  -7  228.38    6.40
   1   3  -7  230.48    6.10
  -1   3   7  224.48    6.60
  -1   3   7  230.28    6.10
  -1   3   7  225.88    6.40
  -1   3   7  230.38    6.20
   1   3  -7  228.08    6.60
   1   3  -7  226.68    6.10
   1   3  -7  229.78    6.40
   0  -3  -7   33.70    1.60
   0  -3   7   38.50    1.60
   0  -3   7   38.00    1.80
   0  -3  -7   36.40    1.40
   0  -3   7   35.60    1.60
   0  -3   7   36.90    1.40
   0  -3  -7   39.80    1.70
   0   3  -7   36.80    1.70
   0   3   7   34.80    1.70
   0   3  -7   36.10    1.70
   0   3  -7   37.00    1.50
   0   3  -7   37.50    1.40
   0   3  -7   35.40    1.60
   0   3   7   38.10    1.50
   0   3   7   37.10    1.70
  -1  -3  -7  932.51   23.60
   1  -3   7  909.61   24.00
  -1  -3  -7  911.61   23.90
   1  -3   7  961.70   23.60
   1  -3   7  917.41   23.90
   1  -3   7  941.61   23.60
  -1  -3  -7  909.61   23.80
  -1   3  -7  901.91   24.00
   1   3   7  920.91   23.60
  -1   3  -7  917.31   23.60
   1   3   7  912.01   23.90
  -1   3  -7  918.01   23.70
  -1   3  -7  934.31   23.60
   1   3   7  900.81   24.00
  -2  -3  -7  243.48    7.20
  -2  -3  -7  246.78    6.90
   2  -3   7  265.07    6.60
   2  -3   7  245.58    7.20
   2  -3   7  244.68    7.20
  -2  -3  -7  240.48    7.10
   2   3   7  245.18    7.20
  -2   3  -7  248.18    6.90
  -2   3  -7  246.38    7.20
  -2   3  -7  266.27    6.60
   2   3   7  243.78    7.00
   2   3   7  240.28    7.20
  -2   3  -7  255.07    6.60
  -2   3  -7  254.77    6.90
  -3  -3  -7  167.28    5.30
   3  -3   7  176.68    5.10
  -3  -3  -7  160.78    5.20
   3  -3   7  175.88    5.40
  -3  -3  -7  163.68    5.10
   3  -3   7  170.58    5.20
   3   3   7  165.98    5.30
  -3   3  -7  177.68    5.10
   3   3   7  171.08    5.40
   3   3   7  167.18    5.00
   3   3   7  167.48    4.60
  -3   3  -7  170.98    5.40
  -3   3  -7  174.18    5.10
   3   3   7  169.78    4.60
   4  -3   7  564.84   15.00
   4  -3   7  555.94   14.70
  -4  -3  -7  498.55   14.10
  -4  -3  -7  525.35   14.70
  -4  -3  -7  549.25   14.80
   4  -3   7  563.44   14.70
   4   3   7  535.85   14.40
  -4   3  -7  569.34   15.00
   4   3   7  538.35   14.90
  -4   3  -7  573.04   14.60
   4   3   7  484.25   14.10
  -4   3  -7  556.74   14.70
   4   3   7  549.25   14.80
  -5  -3  -7    1.90    1.00
  -5  -3  -7    1.60    1.20
   5  -3   7    3.10    0.90
   5  -3   7    1.90    1.30
  -5  -3  -7    4.30    1.20
   5  -3   7    3.90    1.20
   5   3   7    3.80    0.90
  -5   3  -7    3.50    1.20
   5   3   7    3.40    1.00
   5   3   7    5.20    1.40
   5   3   7    2.70    1.10
   5   3   7    3.60    1.20
  -5   3  -7    2.90    1.10
  -6  -3  -7   39.80    2.80
   6  -3   7   38.40    2.80
   6  -3   7   39.60    2.90
  -6  -3  -7   36.90    3.20
   6   3   7   36.80    2.80
   6   3   7   38.50    2.80
   6   3   7   33.60    2.70
  -6   3  -7   41.80    2.90
  -6   3  -7   40.10    2.90
   7  -3   7   74.69    4.10
  -7  -3  -7   66.99    4.00
   7  -3   7   70.39    4.10
  -7  -3  -7   70.79    4.40
   7   3   7   68.19    4.00
  -7   3  -7   71.59    4.10
   7   3   7   69.89    3.80
  -7   3  -7   73.39    4.30
   7  -4  -7    2.60    1.50
  -7  -4   7    1.40    1.50
  -7  -4   7   -4.00    1.60
   7  -4  -7   -1.80    1.50
   7   4  -7   -2.00    1.20
   7   4  -7    1.60    1.50
  -7   4   7   -0.10    1.70
  -7   4   7    1.10    1.40
   7   4  -7    1.60    1.40
   6  -4  -7    9.50    1.60
  -6  -4   7    8.20    1.90
  -6  -4   7   10.80    1.90
   6  -4  -7   11.50    2.10
   6  -4  -7   13.90    2.00
  -6  -4   7   13.20    2.60
  -6   4   7   13.00    2.20
   6   4  -7   13.10    2.10
   6   4  -7    9.40    1.80
  -6   4   7   12.20    2.60
   6   4  -7    8.30    2.30
  -5  -4   7  628.84   16.70
   5  -4  -7  651.03   16.80
   5  -4  -7  620.04   17.00
  -5  -4   7  623.24   17.30
   5  -4  -7  638.84   16.90
  -5  -4   7  637.74   17.10
   5   4  -7  624.74   17.10
  -5   4   7  633.54   17.20
   5   4  -7  560.54   17.10
  -5   4   7  634.44   17.00
   5   4  -7  630.94   16.60
   4  -4  -7    2.30    0.90
   4  -4  -7    1.30    0.80
   4  -4  -7    1.20    0.90
  -4  -4   7    2.30    0.80
  -4  -4   7    1.50    0.90
  -4  -4   7    2.10    0.90
   4   4  -7    4.30    1.10
  -4   4   7    1.80    1.00
  -4   4   7    1.40    0.80
  -4   4   7    2.00    1.00
   4   4  -7    1.80    0.70
   4   4  -7    2.20    0.90
  -4   4   7    1.10    0.60
  -3  -4   7  436.36   11.70
   3  -4  -7  449.36   11.90
  -3  -4   7  443.46   12.40
   3  -4  -7  441.66   12.20
   3  -4  -7  455.45   12.10
  -3  -4   7  433.66   12.20
  -3   4   7  447.26   12.10
  -3   4   7  450.75   11.90
   3   4  -7  435.66   12.30
  -3   4   7  449.16   12.40
   3   4  -7  457.05   12.30
   3   4  -7  458.05   11.70
   2  -4  -7   26.00    1.60
  -2  -4   7   25.10    1.70
   2  -4  -7   25.40    1.50
   2  -4  -7   26.10    1.20
  -2  -4   7   25.60    1.20
   2  -4  -7   27.90    1.40
  -2  -4   7   23.00    1.70
  -2   4   7   27.30    1.40
   2   4  -7   24.60    1.60
   2   4  -7   26.00    1.10
  -2   4   7   22.30    1.70
  -2   4   7   25.50    1.40
   2   4  -7   25.70    1.10
   2   4  -7   25.50    1.70
  -1  -4   7  672.93   18.10
  -1  -4   7  687.03   17.60
  -1  -4   7  685.53   18.00
   1  -4  -7  677.03   17.90
   1  -4  -7  689.53   17.50
  -1  -4   7  692.03   17.40
   1  -4  -7  685.73   17.60
   1  -4  -7  682.33   17.90
  -1   4   7  684.73   18.00
   1   4  -7  673.73   18.00
  -1   4   7  678.93   17.60
   1   4  -7  687.93   17.40
   1   4  -7  674.83   17.90
  -1   4   7  659.23   18.10
  -1   4   7  707.53   17.50
   1   4  -7  685.63   17.70
   0  -4  -7   24.30    1.50
   0  -4  -7   27.40    1.10
   0  -4   7   25.90    1.40
   0  -4   7   24.20    1.30
   0  -4  -7   25.80    1.50
   0  -4   7   26.20    1.10
   0  -4   7   24.80    1.60
   0  -4  -7   27.10    1.10
   0   4  -7   25.80    1.40
   0   4   7   23.20    1.50
   0   4  -7   25.20    1.60
   0   4   7   26.40    1.10
   0   4   7   24.40    1.60
   0   4   7   26.50    1.10
   0   4  -7   24.20    1.10
   0   4  -7   22.90    1.50
   1  -4   7  351.06    9.70
  -1  -4  -7  348.37    9.80
   1  -4   7  331.57    9.40
  -1  -4  -7  352.16    9.60
   1  -4   7  355.26    9.90
   1  -4   7  362.76    9.30
  -1  -4  -7  361.16    9.30
  -1   4  -7  365.06    9.80
  -1   4  -7  353.56    9.60
   1   4   7  355.86    9.90
  -1   4  -7  358.16    9.30
   1   4   7  347.17    9.70
  -1   4  -7  346.87    9.50
   1   4   7  351.96    9.30
   2  -4   7   16.50    1.60
  -2  -4  -7   16.10    1.50
  -2  -4  -7   18.20    1.40
   2  -4   7   20.60    1.20
   2  -4   7   18.90    1.60
  -2  -4  -7   18.30    1.30
   2   4   7   16.80    1.40
   2   4   7   17.50    1.50
  -2   4  -7   19.50    1.20
  -2   4  -7   18.40    1.20
  -2   4  -7   17.90    1.50
   2   4   7   16.40    1.40
  -2   4  -7   17.50    1.40
  -2   4  -7   18.20    1.00
  -3  -4  -7   78.49    3.00
  -3  -4  -7   77.89    2.90
   3  -4   7   82.69    2.90
   3  -4   7   76.99    3.20
  -3  -4  -7   76.09    3.10
   3  -4   7   85.39    3.10
   3   4   7   80.29    2.50
   3   4   7   75.99    3.10
  -3   4  -7   81.89    3.00
   3   4   7   79.19    2.50
   3   4   7   83.69    3.20
  -3   4  -7   81.99    3.20
   3   4   7   78.69    2.90
  -3   4  -7   79.89    2.90
   4  -4   7    8.40    1.60
  -4  -4  -7    8.80    1.50
  -4  -4  -7    8.40    1.80
   4  -4   7    6.50    1.60
   4  -4   7    7.00    1.80
  -4  -4  -7    9.90    1.80
  -4   4  -7    8.00    1.60
   4   4   7   10.30    1.60
   4   4   7    8.40    1.20
   4   4   7    9.70    1.70
   4   4   7    7.80    1.40
  -4   4  -7   10.40    1.80
   5  -4   7  885.31   23.70
  -5  -4  -7  879.41   23.40
   5  -4   7  863.41   23.30
  -5  -4  -7  849.32   23.40
   5  -4   7  928.71   23.20
   5   4   7  877.51   23.00
   5   4   7  878.51   23.50
  -5   4  -7  893.21   23.40
   5   4   7  855.71   23.40
   5   4   7  854.11   23.50
  -5   4  -7  912.61   23.80
   5   4   7  870.01   22.90
   6  -4   7    1.80    1.50
   6  -4   7   -1.50    1.40
  -6  -4  -7    3.10    1.40
  -6  -4  -7    1.20    1.60
  -6   4  -7    1.60    1.60
  -6   4  -7    3.10    1.30
   6   4   7    0.30    1.30
   6   4   7    0.60    1.20
   6   4   7    0.60    1.40
   7  -4   7   40.50    3.70
  -7  -4  -7   42.40    4.00
   7  -4   7   43.00    3.80
  -7  -4  -7   37.40    3.50
   7   4   7   43.00    3.50
  -7   4  -7   47.70    3.70
   7   4   7   40.10    3.60
   7   4   7   48.40    3.40
  -7   4  -7   49.00    3.90
  -7  -5   7   21.80    3.20
  -7  -5   7   25.70    3.20
   7  -5  -7   20.10    3.10
   7  -5  -7   21.60    3.30
   7  -5  -7   26.20    3.00
   7   5  -7   25.00    3.00
  -7   5   7   22.00    3.40
  -7   5   7   30.50    2.90
   7   5  -7   26.40    3.00
   6  -5  -7   35.30    2.90
  -6  -5   7   38.40    3.00
  -6  -5   7   34.00    2.80
  -6  -5   7   32.90    2.60
   6  -5  -7   39.10    2.80
   6  -5  -7   30.20    2.70
  -6   5   7   35.20    3.10
  -6   5   7   38.00    2.80
   6   5  -7   36.10    2.30
   6   5  -7   33.00    2.70
   6   5  -7   39.50    2.90
  -5  -5   7  113.79    4.10
   5  -5  -7  114.89    4.40
  -5  -5   7  110.79    4.60
   5  -5  -7  114.89    4.10
   5  -5  -7  111.29    4.10
   5   5  -7  109.99    3.70
  -5   5   7  112.09    4.50
   5   5  -7  112.29    4.40
  -5   5   7  116.09    4.30
   5   5  -7  105.59    4.30
  -4  -5   7  235.98    7.10
   4  -5  -7  227.58    7.10
   4  -5  -7  238.18    6.80
   4  -5  -7  236.28    7.00
  -4  -5   7  229.68    7.30
  -4   5   7  229.88    6.60
   4   5  -7  229.58    6.40
   4   5  -7  238.18    7.20
  -4   5   7  231.38    7.30
  -4   5   7  236.68    7.00
   4   5  -7  233.18    7.20
  -3  -5   7    2.30    0.90
   3  -5  -7    2.30    0.80
   3  -5  -7    1.30    0.80
  -3  -5   7    1.90    0.90
  -3  -5   7    2.80    0.70
   3  -5  -7    1.10    0.80
   3  -5  -7    1.90    0.70
  -3   5   7    2.40    0.80
   3   5  -7    0.50    0.80
   3   5  -7    1.50    0.80
   3   5  -7    2.20    0.70
  -3   5   7    2.60    1.00
   3   5  -7    2.30    0.50
  -3   5   7    1.30    0.70
   2  -5  -7  690.33   17.60
   2  -5  -7  679.43   17.60
   2  -5  -7  692.83   18.20
  -2  -5   7  682.23   18.30
  -2  -5   7  680.93   17.60
   2  -5  -7  688.93   18.10
  -2  -5   7  679.13   18.30
   2   5  -7  690.63   18.30
  -2   5   7  675.33   18.00
   2   5  -7  691.33   18.30
   2   5  -7  684.33   17.70
  -2   5   7  705.33   18.10
  -2   5   7  675.73   18.40
   1  -5  -7   73.79    2.60
   1  -5  -7   73.49    2.80
  -1  -5   7   71.09    2.90
  -1  -5   7   74.89    3.00
  -1  -5   7   76.39    2.60
   1  -5  -7   74.99    2.80
  -1   5   7   75.49    2.90
   1   5  -7   73.89    2.70
  -1   5   7   77.09    2.50
  -1   5   7   75.29    3.00
   1   5  -7   74.79    2.90
   1   5  -7   75.29    2.90
   0  -5   7   21.30    1.70
   0  -5  -7   21.70    1.50
   0  -5  -7   21.80    1.60
   0  -5   7   20.50    1.40
   0  -5   7   25.10    1.50
   0  -5  -7   22.40    1.30
   0   5  -7   22.90    1.60
   0   5   7   22.00    1.60
   0   5   7   20.00    1.60
   0   5   7   20.90    1.10
   0   5  -7   23.30    1.60
  -1  -5  -7  546.05   14.60
  -1  -5  -7  557.44   14.20
  -1  -5  -7  550.34   14.10
   1  -5   7  557.04   14.20
  -1  -5  -7  539.95   14.80
   1  -5   7  540.05   14.70
   1  -5   7  539.65   14.50
   1  -5   7  547.05   14.90
   1  -5   7  549.05   14.20
   1   5   7  559.04   14.90
   1   5   7  531.25   14.80
  -1   5  -7  546.55   14.20
   1   5   7  545.15   14.20
  -1   5  -7  539.35   14.50
  -1   5  -7  552.24   14.80
  -1   5  -7  553.24   14.70
   1   5   7  573.14   14.20
   2  -5   7   64.39    2.70
  -2  -5  -7   61.09    2.70
  -2  -5  -7   60.49    2.20
   2  -5   7   61.29    2.30
   2  -5   7   60.99    2.80
  -2  -5  -7   59.99    2.50
   2   5   7   61.49    2.60
  -2   5  -7   63.99    2.70
  -2   5  -7   62.49    2.20
   2   5   7   61.59    2.00
   2   5   7   64.09    2.10
   2   5   7   62.29    2.80
   2   5   7   60.89    2.30
  -2   5  -7   61.09    2.60
  -2   5  -7   57.79    2.40
   3  -5   7   19.80    1.80
   3  -5   7   18.50    1.60
  -3  -5  -7   15.60    1.70
  -3  -5  -7   17.50    1.80
   3  -5   7   14.70    2.00
  -3  -5  -7   19.30    1.60
   3   5   7   16.70    1.80
  -3   5  -7   19.80    1.80
   3   5   7   19.50    1.30
   3   5   7   20.40    1.90
  -3   5  -7   20.40    1.80
   3   5   7   16.10    1.60
   4  -5   7  555.74   15.10
  -4  -5  -7  527.75   14.70
   4  -5   7  562.14   14.70
   4  -5   7  562.64   14.60
  -4  -5  -7  530.85   14.90
  -4  -5  -7  546.25   14.60
  -4   5  -7  541.15   14.80
   4   5   7  535.45   14.60
   4   5   7  539.65   15.00
   4   5   7  533.95   14.10
   4   5   7  517.55   14.90
  -4   5  -7  509.05   14.90
  -5  -5  -7   12.90    2.20
   5  -5   7   11.50    2.00
  -5  -5  -7   10.20    2.30
   5  -5   7   11.90    2.30
   5  -5   7   10.60    2.40
  -5   5  -7   11.30    2.20
  -5   5  -7   13.70    2.50
   5   5   7   10.90    2.20
   5   5   7   12.80    2.10
   5   5   7   10.50    2.00
   6  -5   7   71.89    4.00
   6  -5   7   64.69    4.00
  -6  -5  -7   69.29    4.00
  -6  -5  -7   71.19    3.90
  -6   5  -7   80.29    4.00
   6   5   7   73.39    4.00
  -6   5  -7   74.29    4.10
   6   5   7   74.89    3.90
   6   5   7   71.89    3.80
   6   5   7   73.59    3.70
   7  -6  -7   -0.20    1.90
   7  -6  -7   -0.70    1.80
  -7  -6   7   -1.10    2.00
  -7   6   7    0.10    1.60
   7   6  -7    0.50    1.70
   7   6  -7   -0.50    1.70
  -7   6   7    1.90    2.10
  -6  -6   7   98.09    4.30
   6  -6  -7   98.29    4.40
  -6  -6   7   95.99    4.70
   6  -6  -7   97.09    4.20
   6  -6  -7  102.79    4.40
  -6   6   7   97.59    4.30
   6   6  -7   96.29    4.30
   6   6  -7   93.19    4.40
  -6   6   7   98.09    4.70
  -5  -6   7   21.80    2.50
  -5  -6   7   20.20    2.40
   5  -6  -7   15.90    2.30
   5  -6  -7   16.90    2.10
   5  -6  -7   16.60    2.50
   5   6  -7   18.20    2.30
   5   6  -7   21.40    2.20
  -5   6   7   17.00    2.60
  -5   6   7   24.50    2.40
   4  -6  -7  141.79    5.10
   4  -6  -7  155.08    5.10
  -4  -6   7  146.89    5.20
   4  -6  -7  148.49    4.70
  -4  -6   7  154.08    5.40
  -4   6   7  153.08    5.10
  -4   6   7  151.58    5.40
   4   6  -7  150.48    5.20
  -4   6   7  148.29    4.70
   4   6  -7  151.58    5.20
   3  -6  -7   26.10    2.00
  -3  -6   7   25.40    1.30
  -3  -6   7   26.50    2.20
   3  -6  -7   26.20    2.00
   3  -6  -7   25.10    1.50
  -3  -6   7   26.50    2.20
  -3   6   7   28.40    1.90
  -3   6   7   25.40    1.80
  -3   6   7   20.70    2.20
   3   6  -7   24.10    2.00
   3   6  -7   26.00    2.00
  -2  -6   7   98.79    3.80
   2  -6  -7   99.99    3.60
   2  -6  -7   98.79    3.50
  -2  -6   7   96.69    3.80
  -2  -6   7   95.99    3.10
   2   6  -7  102.89    3.70
  -2   6   7   96.99    3.40
  -2   6   7  104.29    3.60
   2   6  -7   99.39    3.30
   2   6  -7   97.79    3.70
  -2   6   7   97.19    3.80
  -1  -6   7   39.10    2.20
   1  -6  -7   37.30    2.00
  -1  -6   7   38.60    1.90
   1  -6  -7   41.70    2.20
  -1  -6   7   39.00    2.20
  -1   6   7   37.60    1.80
  -1   6   7   42.20    2.20
   1   6  -7   36.90    2.10
  -1   6   7   37.20    2.20
   1   6  -7   42.30    2.20
   0  -6  -7 1193.08   30.50
   0  -6   7 1179.28   31.20
   0  -6   7 1198.98   30.80
   0  -6  -7 1164.58   31.00
   0  -6  -7 1196.78   30.80
   0  -6   7 1179.48   30.90
   0   6  -7 1208.88   30.90
   0   6  -7 1209.28   31.00
   0   6   7 1194.48   31.20
   0   6   7 1189.28   31.10
   0   6  -7 1205.78   31.00
   0   6   7 1182.38   30.50
   1  -6   7    0.80    0.50
   1  -6   7    0.80    0.70
  -1  -6  -7    0.30    0.70
  -1  -6  -7    0.00    0.70
  -1  -6  -7    0.70    0.80
   1  -6   7    0.20    0.80
   1  -6   7   -0.10    0.80
   1   6   7    0.40    0.80
   1   6   7    0.70    0.80
  -1   6  -7    1.40    0.90
   1   6   7    0.30    0.60
   1   6   7    0.70    0.70
  -1   6  -7    0.40    0.70
  -1   6  -7    1.30    0.80
   2  -6   7  763.02   19.90
  -2  -6  -7  737.33   19.80
  -2  -6  -7  778.72   20.60
  -2  -6  -7  785.82   20.30
   2  -6   7  780.02   20.60
   2  -6   7  772.72   20.60
   2   6   7  693.13   19.80
   2   6   7  774.32   20.70
  -2   6  -7  805.72   20.10
  -2   6  -7  775.72   20.50
   2   6   7  781.32   19.80
   2   6   7  773.72   20.60
  -2   6  -7  783.22   20.50
   3  -6   7   21.70    1.70
   3  -6   7   20.20    2.20
   3  -6   7   25.90    2.20
  -3  -6  -7   23.30    1.90
  -3  -6  -7   20.20    1.70
  -3  -6  -7   26.20    2.20
   3   6   7   22.20    1.60
  -3   6  -7   23.50    2.10
  -3   6  -7   24.90    2.20
   3   6   7   23.90    1.50
  -3   6  -7   22.20    1.60
   3   6   7   27.20    2.20
   3   6   7   25.50    2.20
   4  -6   7   39.60    2.90
  -4  -6  -7   34.60    2.70
  -4  -6  -7   36.20    2.30
   4  -6   7   43.20    2.60
   4  -6   7   35.70    2.30
  -4  -6  -7   38.20    2.60
  -4   6  -7   38.60    2.80
   4   6   7   39.70    2.30
   4   6   7   37.40    2.60
   4   6   7   38.30    2.60
  -4   6  -7   39.70    2.70
   4   6   7   33.70    2.60
   5  -6   7   27.10    2.90
   5  -6   7   25.60    2.60
  -5  -6  -7   31.50    2.80
  -5  -6  -7   23.00    2.80
  -5  -6  -7   20.70    2.60
   5   6   7   23.30    2.60
   5   6   7   23.20    2.70
  -5   6  -7   22.70    2.60
   5   6   7   25.00    2.60
   5   6   7   26.60    2.60
  -5   6  -7   25.70    2.90
   6  -6   7   77.39    4.30
   6  -6   7   74.49    4.40
  -6  -6  -7   73.99    4.30
   6   6   7   75.19    4.10
  -6   6  -7   75.49    4.50
   6   6   7   75.59    4.10
   6   6   7   80.79    4.00
  -6   6  -7   80.59    4.20
  -6  -7   7   -1.30    1.80
   6  -7  -7   -0.70    1.60
  -6  -7   7    0.10    1.60
   6  -7  -7   -0.90    1.70
  -6   7   7    0.70    2.00
   6   7  -7    0.80    1.50
   6   7  -7    2.80    1.60
  -6   7   7   -2.20    1.60
  -5  -7   7   74.59    3.90
   5  -7  -7   74.29    3.70
   5  -7  -7   74.89    3.80
  -5  -7   7   74.79    4.00
   5   7  -7   75.29    3.70
   5   7  -7   77.59    3.70
  -5   7   7   75.69    4.10
  -5   7   7   71.49    3.60
   4  -7  -7   95.99    4.00
  -4  -7   7   93.29    4.20
  -4  -7   7   95.29    4.10
   4  -7  -7   98.19    4.00
  -4   7   7   91.89    3.90
  -4   7   7   95.29    3.60
   4   7  -7   90.09    3.90
  -4   7   7   92.89    4.20
   4   7  -7   86.79    3.90
   3  -7  -7   22.30    2.10
  -3  -7   7   23.90    2.40
  -3  -7   7   15.20    1.50
   3  -7  -7   19.80    2.20
  -3  -7   7   20.60    2.30
   3   7  -7   21.50    2.10
  -3   7   7   23.00    2.00
  -3   7   7   19.30    2.40
   3   7  -7   22.50    2.10
  -3   7   7   25.50    1.90
   2  -7  -7    1.50    1.00
  -2  -7   7    1.60    1.00
  -2  -7   7    1.20    0.90
  -2  -7   7    1.00    0.90
   2  -7  -7    2.20    1.00
   2   7  -7    2.50    0.90
   2   7  -7    2.50    1.00
   2   7  -7    2.90    1.20
  -2   7   7    1.90    1.00
  -2   7   7    0.70    1.00
  -2   7   7    1.00    0.90
   1  -7  -7  505.15   13.50
  -1  -7   7  505.95   14.00
  -1  -7   7  504.65   13.80
  -1  -7   7  502.75   13.40
   1  -7  -7  498.45   13.80
  -1   7   7  496.55   13.40
   1   7  -7  497.85   13.70
  -1   7   7  496.25   13.80
   1   7  -7  495.75   13.80
   1   7  -7  495.85   13.80
  -1   7   7  485.35   13.90
   0  -7   7   38.20    2.10
   0  -7  -7   33.40    2.00
   0  -7   7   36.00    2.40
   0  -7   7   36.30    2.20
   0  -7  -7   35.00    2.30
   0   7   7   36.60    2.40
   0   7   7   36.00    1.80
   0   7  -7   34.70    2.30
   0   7   7   34.10    2.40
   0   7  -7   35.70    2.20
   0   7  -7   31.60    2.10
   1  -7   7  651.83   18.00
  -1  -7  -7  619.64   17.90
   1  -7   7  671.83   17.80
  -1  -7  -7  671.53   17.60
  -1   7  -7  671.63   17.80
   1   7   7  661.83   18.10
  -1   7  -7  681.33   17.70
   1   7   7  665.33   17.30
  -1   7  -7  667.43   17.90
   1   7   7  656.33   18.00
  -2  -7  -7   15.20    2.00
  -2  -7  -7   13.60    1.80
   2  -7   7   18.80    2.30
   2  -7   7   16.50    2.00
   2  -7   7   13.10    1.60
  -2   7  -7   13.50    1.70
   2   7   7   14.90    2.10
  -2   7  -7   13.80    2.00
   2   7   7   16.80    1.50
  -2   7  -7   18.30    1.90
   2   7   7   10.20    1.90
   3  -7   7  148.79    5.20
  -3  -7  -7  145.59    4.90
  -3  -7  -7  149.09    5.30
   3  -7   7  145.99    4.60
   3  -7   7  144.99    5.40
   3   7   7  147.59    5.20
   3   7   7  137.29    5.20
  -3   7  -7  138.69    5.00
  -3   7  -7  144.59    5.20
  -4  -7  -7   42.00    2.90
   4  -7   7   42.10    3.20
   4  -7   7   48.70    2.70
  -4  -7  -7   42.20    2.90
   4  -7   7   46.10    3.00
   4   7   7   49.90    3.20
  -4   7  -7   47.70    3.10
  -4   7  -7   45.80    3.00
   4   7   7   39.30    3.00
   4   7   7   46.80    2.90
  -5  -7  -7    8.30    1.80
   5  -7   7    9.90    2.10
  -5  -7  -7   13.80    2.70
   5  -7   7   17.70    2.70
   5   7   7   10.10    1.70
  -5   7  -7    6.60    1.70
  -5   7  -7    9.30    2.00
   5   7   7   10.20    2.50
   5   7   7   14.00    2.60
   5   7   7    9.50    2.00
   5  -8  -7  203.88    7.00
   5  -8  -7  205.98    7.00
  -5  -8   7  196.68    7.20
  -5  -8   7  195.18    7.30
  -5   8   7  200.38    6.90
   5   8  -7  201.88    7.10
   5   8  -7  199.98    7.30
   5   8  -7  202.78    7.00
  -5   8   7  200.98    7.30
   4  -8  -7    1.10    1.30
   4  -8  -7    0.90    1.60
  -4  -8   7   -0.40    1.20
  -4  -8   7    0.20    1.40
  -4   8   7   -0.80    1.30
   4   8  -7    1.60    1.30
   4   8  -7    0.40    1.40
   4   8  -7    0.10    1.50
  -4   8   7   -0.30    1.50
   3  -8  -7  199.28    6.40
   3  -8  -7  210.28    6.70
  -3  -8   7  201.18    6.80
  -3  -8   7  200.58    6.80
  -3   8   7  201.68    6.30
   3   8  -7  199.08    6.80
   3   8  -7  205.38    6.60
  -3   8   7  182.58    6.40
  -3   8   7  196.18    6.80
   3   8  -7  193.38    6.50
  -2  -8   7   20.70    1.90
  -2  -8   7   19.70    2.30
   2  -8  -7   22.10    2.20
   2  -8  -7   23.00    2.20
  -2  -8   7   22.90    2.30
   2   8  -7   19.60    2.20
   2   8  -7   22.10    2.50
  -2   8   7   20.00    2.30
   2   8  -7   23.60    2.20
  -2   8   7   24.10    2.00
  -2   8   7   27.60    2.50
  -1  -8   7  125.49    4.70
  -1  -8   7  129.09    4.30
  -1  -8   7  126.69    4.90
   1  -8  -7  138.79    4.50
   1  -8  -7  127.59    4.70
  -1   8   7  117.59    4.70
   1   8  -7  129.59    4.80
   1   8  -7  135.09    4.60
  -1   8   7  127.79    4.30
  -1   8   7  135.29    4.90
   1   8  -7  123.69    4.80
   0  -8  -7   37.70    2.50
   0  -8   7   37.20    2.70
   0  -8   7   41.40    2.60
   0  -8  -7   38.80    2.20
   0  -8   7   34.10    2.30
   0   8  -7   38.40    2.60
   0   8  -7   34.40    2.40
   0   8  -7   35.30    2.60
   0   8   7   34.20    2.80
   0   8   7   40.50    2.10
   0   8   7   41.70    2.70
   1  -8   7   25.80    2.40
   1  -8   7   23.80    2.30
  -1  -8  -7   24.00    2.20
  -1  -8  -7   22.50    1.90
   1   8   7   21.50    2.40
  -1   8  -7   20.40    2.10
   1   8   7   23.50    1.80
   1   8   7   21.00    2.30
  -1   8  -7   22.60    2.30
  -1   8  -7   20.50    2.00
   2  -8   7   15.60    2.50
  -2  -8  -7   20.80    2.00
   2  -8   7   18.00    2.30
  -2  -8  -7   17.50    2.20
  -2   8  -7   18.80    1.90
   2   8   7   17.50    2.20
  -2   8  -7   20.80    2.40
   2   8   7   16.20    2.30
  -2   8  -7   18.90    2.30
   2   8   7   19.40    2.20
  -3  -8  -7   83.29    3.80
   3  -8   7   76.49    3.90
   3  -8   7   82.99    4.10
  -3  -8  -7   84.29    3.50
   3   8   7   83.69    3.90
  -3   8  -7   81.29    3.90
   3   8   7   86.09    4.00
  -3   8  -7   78.69    3.80
   4  -8   7    2.90    1.60
  -4  -8  -7    4.30    1.60
  -4  -8  -7    1.20    1.50
   4  -8   7    1.20    1.60
   4   8   7    1.40    1.40
   4   8   7    1.70    1.60
  -4   8  -7    2.30    1.50
   4   8   7    0.30    1.50
  -4   8  -7   -0.70    1.50
  -5  -8  -7  215.98    7.30
   5  -8   7  210.28    7.80
  -5  -8  -7  222.88    7.70
   5   8   7  217.88    7.30
   5   8   7  219.98    7.70
   5   8   7  211.28    7.50
  -5   8  -7  211.98    7.70
   5   8   7  215.88    7.60
  -5   8  -7  225.98    7.60
   4  -9  -7  173.48    6.10
  -4  -9   7  160.38    6.40
   4  -9  -7  177.48    6.20
  -4  -9   7  164.18    6.30
   4   9  -7  167.78    6.20
  -4   9   7  165.48    6.10
   4   9  -7  165.08    6.20
   4   9  -7  157.78    6.50
  -4   9   7  168.18    6.40
  -3  -9   7    2.90    1.40
  -3  -9   7    2.10    1.50
   3  -9  -7    2.40    1.50
   3  -9  -7    3.50    1.60
   3   9  -7    2.90    1.60
   3   9  -7    2.40    1.40
   3   9  -7    2.20    1.60
  -3   9   7    4.30    1.60
  -3   9   7    1.80    1.40
  -3   9   7    2.30    1.50
   2  -9  -7  372.66   10.50
   2  -9  -7  377.06   11.00
  -2  -9   7  378.16   11.00
  -2  -9   7  366.96   11.10
  -2  -9   7  312.97   10.20
   2   9  -7  373.26   11.10
  -2   9   7  368.06   11.10
   2   9  -7  374.56   10.90
  -2   9   7  375.86   10.90
   2   9  -7  391.96   10.70
  -2   9   7  337.77   10.50
  -1  -9   7    1.60    1.20
  -1  -9   7    0.70    1.20
  -1  -9   7    0.50    1.10
   1  -9  -7    1.70    1.20
   1  -9  -7   -0.20    1.10
   1   9  -7   -1.60    1.20
   1   9  -7    0.00    1.20
  -1   9   7   -0.30    1.20
  -1   9   7    0.10    1.30
  -1   9   7    0.50    1.30
   1   9  -7    0.60    1.50
   0  -9   7    8.60    2.10
   0  -9  -7   19.10    2.10
   0  -9  -7   12.10    2.10
   0  -9   7   13.50    2.20
   0   9   7   20.50    2.40
   0   9   7   17.50    2.60
   0   9   7   12.30    2.00
   0   9  -7   17.80    2.20
   0   9  -7   14.90    2.30
   0   9  -7   16.30    2.60
   1  -9   7   31.70    2.70
  -1  -9  -7   31.80    2.70
  -1  -9  -7   30.90    2.30
   1  -9   7   33.50    2.90
   1   9   7   35.20    3.20
  -1   9  -7   30.60    2.60
  -1   9  -7   34.10    2.70
   1   9   7   30.20    2.90
   1   9   7   35.50    2.80
  -1   9  -7   32.70    2.70
   2  -9   7   70.79    3.90
  -2  -9  -7   73.39    3.80
  -2  -9  -7   59.99    3.20
   2  -9   7   69.69    3.60
   2   9   7   70.39    3.80
  -2   9  -7   69.39    3.80
  -2   9  -7   72.29    3.70
   2   9   7   74.19    3.90
  -2   9  -7   67.59    3.40
   3  -9   7   12.10    2.90
   3  -9   7    6.80    1.80
  -3  -9  -7    5.40    1.60
  -3  -9  -7   11.80    2.60
  -3   9  -7   11.40    2.90
   3   9   7    5.60    1.60
   3   9   7    7.70    1.60
  -3   9  -7   10.40    2.60
   4  -9   7  290.47    9.70
  -4  -9  -7  294.87    9.60
   4  -9   7  312.07    9.50
  -4   9  -7  284.67    9.50
   4   9   7  295.37    9.50
  -4   9  -7  297.77    9.40
   4   9   7  295.27    9.60
   4   9   7  290.07    9.60
   3 -10  -7   28.20    3.00
   3 -10  -7   33.50    3.20
  -3 -10   7   31.70    3.50
  -3 -10   7   35.90    3.20
   3  10  -7   28.90    3.60
  -3  10   7   32.30    3.30
   3  10  -7   28.60    3.30
  -3  10   7   34.50    3.30
  -3  10   7   27.40    3.50
  -2 -10   7   31.50    3.10
  -2 -10   7   33.30    3.30
   2 -10  -7   35.10    2.90
   2 -10  -7   31.80    2.90
  -2  10   7   31.30    3.30
  -2  10   7   33.00    3.20
   2  10  -7   31.50    3.20
   2  10  -7   31.40    3.00
  -2  10   7   34.50    3.50
  -1 -10   7   22.50    2.80
   1 -10  -7   28.30    2.70
   1 -10  -7   26.30    2.80
  -1 -10   7   20.50    2.80
   1  10  -7   24.90    2.90
  -1  10   7   27.30    3.40
  -1  10   7   29.10    3.10
   1  10  -7   24.00    3.20
  -1  10   7   29.10    2.90
   1  10  -7   28.80    3.10
   0 -10   7   73.49    3.80
   0 -10   7   62.69    3.80
   0 -10  -7   67.99    3.80
   0  10   7   63.69    3.90
   0  10  -7   65.59    3.90
   0  10  -7   67.09    3.80
   0  10   7   69.39    3.90
   0  10  -7   65.59    3.80
  -1 -10  -7    1.60    1.50
   1 -10   7    0.30    1.70
   1 -10   7   -0.50    1.30
  -1  10  -7   -1.00    1.50
  -1  10  -7    1.00    1.70
   1  10   7    3.20    1.40
   1  10   7    1.90    1.60
   2 -10   7  230.68    7.90
   2 -10   7  233.38    7.80
  -2 -10  -7  232.08    7.90
   2  10   7  227.88    7.90
   2  10   7  218.58    8.00
  -2  10  -7  228.08    7.90
   8   0  -8  359.66   11.70
  -8   0   8  377.56   11.70
  -8   0   8  379.26   11.50
   8   0  -8  372.56   11.20
  -7   0   8   -0.70    1.70
   7   0  -8    0.40    1.20
  -7   0   8   -1.10    1.20
   7   0  -8   -1.80    1.30
  -6   0   8   24.70    2.30
   6   0  -8   23.00    2.50
  -6   0   8   25.90    2.60
   6   0  -8   23.00    2.10
  -5   0   8    0.30    0.90
   5   0  -8   -0.10    0.90
   5   0  -8   -1.70    0.70
   4   0  -8    3.90    0.80
   4   0  -8    4.00    0.90
   4   0  -8    2.80    0.90
  -4   0   8    3.00    0.60
  -4   0   8    3.90    0.90
  -4   0   8    2.50    0.90
  -3   0   8    0.00    0.50
  -3   0   8    1.00    0.80
   3   0  -8    1.00    0.60
  -3   0   8    0.30    0.50
   3   0  -8   -0.30    0.60
   3   0  -8   -0.50    0.60
  -2   0   8 2472.05   60.59
   2   0  -8 2399.56   61.09
   2   0  -8 2377.56   60.89
  -2   0   8 2389.56   60.99
   2   0  -8 2410.76   60.59
  -2   0   8 2388.56   61.19
  -2   0   8 2421.66   60.59
  -2   0   8 2398.56   60.89
   2   0  -8 2364.66   60.99
   1   0  -8   -0.30    0.50
  -1   0   8    0.00    0.50
  -1   0   8    0.00    0.40
   1   0  -8   -0.30    0.30
   1   0  -8   -0.50    0.40
  -1   0   8    0.40    0.40
  -1   0   8   -0.30    0.30
   1   0  -8   -0.80    0.30
  -1   0   8   -0.20    0.50
   1   0  -8   -0.20    0.40
   0   0  -8  321.57    9.00
   0   0   8  325.87    8.90
   0   0   8  326.77    9.00
   0   0   8  326.17    9.10
   0   0  -8  344.27    8.60
   0   0  -8  332.97    9.00
   0   0  -8  337.47    8.60
   0   0   8  337.17    8.90
   0   0  -8  333.97    9.00
  -1   0  -8    0.20    0.50
   1   0   8    0.00    0.50
  -1   0  -8    0.90    0.50
  -1   0  -8    0.10    0.40
   1   0   8    0.30    0.50
   1   0   8   -0.10    0.40
  -2   0  -8 1154.08   29.50
   2   0   8 1136.29   30.10
  -2   0  -8 1199.68   29.60
   2   0   8 1142.89   29.60
  -2   0  -8 1154.78   29.90
  -2   0  -8 1126.59   30.00
   2   0   8 1221.68   29.50
   2   0   8 1163.08   30.10
  -3   0  -8    0.30    0.60
  -3   0  -8    0.40    0.50
  -3   0  -8   -0.10    0.70
   3   0   8   -0.20    0.70
   3   0   8    0.00    0.70
   3   0   8    0.00    0.60
  -4   0  -8   30.50    2.10
  -4   0  -8   32.20    1.90
  -4   0  -8   30.10    1.70
   4   0   8   31.20    2.00
   4   0   8   32.20    2.10
  -5   0  -8    1.50    1.10
   5   0   8   -0.30    1.00
   5   0   8    1.70    1.10
  -5   0  -8   -1.00    1.10
  -5   0  -8   -0.10    0.90
   5   0   8   -0.30    0.80
  -6   0  -8  257.17    8.40
   6   0   8  264.27    8.20
  -6   0  -8  261.57    7.70
  -6   0  -8  258.57    8.10
   6   0   8  267.17    7.90
   6   0   8  258.87    8.30
   7   0   8   -0.20    1.60
  -7   0  -8    1.40    1.70
   7   0   8   -0.30    1.50
  -8  -1   8    1.00    1.80
   8  -1  -8   -1.50    1.70
  -8  -1   8    1.70    2.10
   8  -1  -8    1.30    1.60
  -8   1   8   -1.80    1.70
   8   1  -8    0.40    1.80
  -8   1   8   -0.10    2.10
   8   1  -8   -0.40    1.50
   7  -1  -8  104.79    4.30
  -7  -1   8  103.99    4.80
   7  -1  -8  107.29    4.70
  -7  -1   8  101.29    4.40
   7   1  -8  102.69    4.70
  -7   1   8  107.09    4.80
  -7   1   8  106.79    4.40
   7   1  -8   95.09    4.10
  -6  -1   8   47.90    3.10
   6  -1  -8   43.80    2.70
   6  -1  -8   46.60    3.10
  -6  -1   8   44.90    2.70
  -6   1   8   43.00    2.70
  -6   1   8   43.00    3.00
   6   1  -8   41.40    2.50
   6   1  -8   42.70    2.90
  -5  -1   8   19.60    1.80
   5  -1  -8   16.10    1.70
   5  -1  -8   19.10    2.00
   5  -1  -8   17.90    1.20
  -5  -1   8   19.40    1.40
  -5  -1   8   17.80    2.00
   5   1  -8   17.70    2.00
   5   1  -8   15.80    1.60
  -5   1   8   18.60    1.80
  -5   1   8   17.10    2.00
  -4  -1   8  298.77    8.20
   4  -1  -8  288.87    8.30
   4  -1  -8  282.27    7.80
  -4  -1   8  283.77    8.40
  -4  -1   8  284.67    7.90
   4  -1  -8  291.57    7.60
   4  -1  -8  286.07    8.20
   4   1  -8  288.87    8.40
  -4   1   8  279.07    8.20
  -4   1   8  288.97    7.80
   4   1  -8  286.57    8.10
  -4   1   8  289.47    8.40
  -4   1   8  282.77    7.70
   3  -1  -8   58.99    2.40
  -3  -1   8   60.69    2.30
  -3  -1   8   57.59    2.20
   3  -1  -8   59.49    2.30
   3  -1  -8   60.89    1.90
  -3  -1   8   59.09    2.60
   3  -1  -8   60.09    2.40
  -3   1   8   57.79    2.20
   3   1  -8   60.89    2.30
  -3   1   8   61.09    2.00
  -3   1   8   55.19    2.50
   3   1  -8   58.49    2.20
   3   1  -8   59.09    2.50
  -3   1   8   58.09    2.20
   2  -1  -8  410.96   11.00
   2  -1  -8  423.16   10.90
  -2  -1   8  422.66   11.10
  -2  -1   8  421.96   11.40
   2  -1  -8  412.66   11.20
  -2  -1   8  416.86   11.20
   2  -1  -8  420.76   11.20
   2   1  -8  427.56   11.10
  -2   1   8  376.56   10.90
  -2   1   8  416.86   11.40
   2   1  -8  424.96   11.10
  -2   1   8  415.46   11.10
   2   1  -8  405.96   11.30
  -2   1   8  431.16   10.90
  -1  -1   8 1007.80   27.00
  -1  -1   8 1034.20   27.20
   1  -1  -8 1033.00   27.10
  -1  -1   8 1061.79   26.80
  -1  -1   8 1065.19   26.90
   1  -1  -8 1056.39   27.00
   1  -1  -8 1053.69   27.10
   1  -1  -8 1046.90   26.80
  -1  -1   8 1039.20   27.20
  -1   1   8 1034.00   27.20
   1   1  -8 1059.19   27.00
   1   1  -8 1083.69   27.00
  -1   1   8 1075.19   26.90
   1   1  -8 1047.90   27.30
  -1   1   8 1074.69   27.20
  -1   1   8 1061.79   26.80
   1   1  -8 1078.09   26.90
   0  -1   8    0.50    0.50
   0  -1  -8    0.60    0.40
   0  -1   8    0.70    0.40
   0  -1  -8    0.20    0.60
   0  -1   8    0.30    0.50
   0  -1  -8    0.70    0.50
   0  -1  -8    0.30    0.50
   0  -1   8    0.60    0.40
   0  -1   8    0.10    0.50
   0  -1   8    1.10    0.40
   0   1  -8    1.30    0.40
   0   1   8    0.30    0.40
   0   1   8    0.60    0.60
   0   1  -8    1.30    0.50
   0   1   8    1.30    0.50
   0   1  -8    1.00    0.60
   0   1  -8    0.10    0.40
   0   1   8    1.30    0.60
   0   1   8    0.40    0.50
   0   1  -8    0.40    0.40
   1  -1   8  821.02   21.20
  -1  -1  -8  839.92   21.20
  -1  -1  -8  799.62   21.40
  -1  -1  -8  795.82   21.40
   1  -1   8  823.82   21.40
   1  -1   8  861.11   21.10
  -1  -1  -8  818.92   21.40
   1  -1   8  815.22   21.50
   1   1   8  838.32   21.30
  -1   1  -8  815.82   21.50
   1   1   8  818.82   21.40
  -1   1  -8  824.22   21.00
  -1   1  -8  838.82   21.30
   1   1   8  799.82   21.50
  -1   1  -8  840.02   21.10
  -2  -1  -8  314.07    8.90
   2  -1   8  318.17    9.00
  -2  -1  -8  321.37    8.50
  -2  -1  -8  312.57    8.80
   2  -1   8  330.67    8.50
   2  -1   8  319.37    8.90
   2   1   8  316.67    9.00
  -2   1  -8  328.07    8.30
  -2   1  -8  316.07    8.80
   2   1   8  322.97    8.50
   2   1   8  319.57    8.90
  -2   1  -8  320.87    9.00
  -2   1  -8  319.87    8.50
   3  -1   8   48.40    2.10
  -3  -1  -8   52.99    1.70
  -3  -1  -8   51.39    1.80
   3  -1   8   49.10    2.40
   3  -1   8   52.69    2.40
  -3  -1  -8   49.10    2.30
  -3  -1  -8   49.60    2.30
   3   1   8   51.19    2.30
  -3   1  -8   48.50    2.40
   3   1   8   51.79    1.80
   3   1   8   52.19    1.80
  -3   1  -8   53.69    2.20
  -3   1  -8   51.79    2.00
   3   1   8   50.89    1.80
   3   1   8   50.29    2.40
  -4  -1  -8  162.88    5.40
  -4  -1  -8  167.18    5.20
   4  -1   8  164.38    5.20
  -4  -1  -8  161.88    4.70
   4  -1   8  156.68    5.30
   4  -1   8  163.98    5.20
  -4   1  -8  162.28    4.90
  -4   1  -8  162.48    5.20
  -4   1  -8  164.28    5.40
   4   1   8  163.78    5.40
   4   1   8  163.08    5.20
   5  -1   8  247.48    7.60
  -5  -1  -8  233.28    7.00
   5  -1   8  244.18    7.70
  -5  -1  -8  237.28    7.50
   5  -1   8  262.97    7.40
  -5  -1  -8  237.68    7.70
   5   1   8  251.17    7.40
  -5   1  -8  253.27    7.50
   5   1   8  250.77    7.60
   5   1   8  240.08    7.70
  -5   1  -8  248.88    7.80
  -5   1  -8  251.67    7.20
   6  -1   8  128.79    5.00
  -6  -1  -8  125.89    5.00
   6  -1   8  130.09    4.90
  -6  -1  -8  123.09    4.80
   6  -1   8  124.99    4.60
  -6   1  -8  117.19    4.70
   6   1   8  125.39    4.80
  -6   1  -8  125.29    5.10
  -6   1  -8  121.39    4.50
   6   1   8  130.09    4.70
   6   1   8  120.89    4.90
   7  -1   8   76.79    4.10
   7  -1   8   70.69    4.20
  -7  -1  -8   69.89    4.30
   7   1   8   70.79    3.90
   7   1   8   71.09    4.00
  -7   1  -8   75.69    4.50
   8  -2  -8    4.60    1.80
   8  -2  -8    1.00    2.00
  -8  -2   8    0.70    2.10
  -8  -2   8    1.00    1.80
   8   2  -8    2.00    1.60
  -8   2   8   -1.10    2.10
   8   2  -8    3.40    1.90
  -8   2   8    2.30    1.80
   8   2  -8    0.30    1.80
   7  -2  -8   21.70    2.40
  -7  -2   8   21.30    2.50
   7  -2  -8   20.60    3.00
  -7  -2   8   18.40    3.00
   7   2  -8   23.50    2.90
   7   2  -8   24.60    2.50
  -7   2   8   21.30    2.70
  -7   2   8   22.20    3.10
   6  -2  -8    3.70    1.20
   6  -2  -8    4.00    1.40
  -6  -2   8    4.70    1.30
   6  -2  -8    4.20    1.00
  -6  -2   8    5.10    1.60
  -6   2   8    3.90    1.50
  -6   2   8    2.00    1.20
   6   2  -8    4.00    1.20
   6   2  -8    8.80    2.00
  -5  -2   8  361.96   10.00
  -5  -2   8  373.76   10.50
   5  -2  -8  370.66    9.90
   5  -2  -8  372.96   10.50
  -5  -2   8  371.76   10.80
   5  -2  -8  378.56   10.60
  -5   2   8  366.86   10.70
  -5   2   8  363.46   10.40
   5   2  -8  365.16   10.50
   5   2  -8  363.36   10.20
   5   2  -8  359.46   10.60
  -4  -2   8    0.90    0.80
   4  -2  -8   -0.60    0.70
   4  -2  -8   -0.70    0.60
  -4  -2   8    0.00    0.80
  -4  -2   8    0.30    0.60
   4  -2  -8    0.10    0.70
   4  -2  -8   -0.60    0.60
   4   2  -8    0.40    0.70
  -4   2   8   -1.40    0.70
  -4   2   8    0.30    0.80
   4   2  -8   -0.10    0.80
  -4   2   8    0.50    0.50
  -4   2   8   -0.50    0.70
  -4   2   8    0.70    0.70
   4   2  -8    0.00    0.80
   3  -2  -8 1262.47   32.00
  -3  -2   8 1238.68   32.20
   3  -2  -8 1216.68   31.90
  -3  -2   8 1250.47   32.20
   3  -2  -8 1240.88   32.20
  -3  -2   8 1259.67   32.50
   3  -2  -8 1267.67   32.20
  -3   2   8 1261.97   32.50
  -3   2   8 1242.28   31.90
   3   2  -8 1254.57   32.20
  -3   2   8 1262.67   32.00
  -3   2   8 1242.38   32.10
   3   2  -8 1248.08   32.40
   3   2  -8 1239.78   32.00
   2  -2  -8    5.30    0.90
  -2  -2   8    6.60    0.90
   2  -2  -8    5.60    0.80
   2  -2  -8    6.10    0.80
  -2  -2   8    6.00    1.10
   2  -2  -8    8.00    1.10
   2   2  -8    5.90    1.10
  -2   2   8    5.00    0.90
  -2   2   8    4.70    0.80
   2   2  -8    6.70    0.90
   2   2  -8    6.60    0.90
  -2   2   8    5.70    1.10
  -2   2   8    5.90    1.00
   1  -2  -8  164.58    4.80
  -1  -2   8  154.68    4.80
   1  -2  -8  159.38    4.70
  -1  -2   8  164.48    4.50
   1  -2  -8  168.48    4.70
  -1  -2   8  160.98    4.60
   1  -2  -8  166.78    4.40
  -1  -2   8  165.88    4.50
  -1  -2   8  156.58    4.90
   1   2  -8  164.98    4.40
  -1   2   8  163.68    4.90
  -1   2   8  154.98    4.70
   1   2  -8  157.28    4.70
  -1   2   8  164.48    4.80
  -1   2   8  161.98    4.70
  -1   2   8  166.58    4.40
   1   2  -8  162.08    4.90
   1   2  -8  148.99    4.50
   1   2  -8  167.28    4.70
   0  -2   8   13.80    1.10
   0  -2   8   12.40    1.00
   0  -2   8   12.30    1.20
   0  -2   8   13.80    1.00
   0  -2   8   13.70    1.10
   0  -2  -8   14.00    1.00
   0  -2  -8   11.60    1.10
   0  -2   8   12.60    1.00
   0  -2  -8   12.50    1.00
   0   2  -8   12.40    0.90
   0   2  -8   12.40    1.10
   0   2   8   11.50    1.20
   0   2  -8   13.50    1.20
   0   2  -8   13.30    1.20
   0   2   8   11.30    1.10
   0   2  -8   11.70    0.90
   0   2  -8   12.60    1.00
   0   2   8   13.50    1.20
   1  -2   8  313.27    8.20
  -1  -2  -8  300.87    8.50
  -1  -2  -8  300.97    8.40
   1  -2   8  297.47    8.40
   1  -2   8  325.17    8.30
   1  -2   8  309.47    8.60
  -1  -2  -8  304.77    8.50
  -1   2  -8  310.57    8.30
   1   2   8  306.37    8.40
   1   2   8  302.87    8.60
  -1   2  -8  311.57    8.20
   1   2   8  298.67    8.50
  -1   2  -8  309.47    8.20
  -1   2  -8  305.87    8.60
   2  -2   8    2.00    0.60
  -2  -2  -8    2.10    0.70
   2  -2   8    2.30    0.70
   2  -2   8    1.40    0.70
  -2  -2  -8    1.70    0.60
  -2  -2  -8    2.20    0.70
  -2  -2  -8    1.60    0.70
   2   2   8    1.10    0.60
  -2   2  -8    1.80    0.70
   2   2   8    1.50    0.70
   2   2   8    1.50    0.70
  -2   2  -8    2.40    0.60
  -2   2  -8    1.80    0.60
  -3  -2  -8 1246.58   32.50
  -3  -2  -8 1260.77   32.50
   3  -2   8 1282.97   32.70
   3  -2   8 1275.57   32.60
  -3  -2  -8 1216.78   32.10
   3   2   8 1239.58   32.60
   3   2   8 1278.67   32.10
   3   2   8 1248.98   32.10
  -3   2  -8 1248.68   32.70
  -3   2  -8 1290.17   32.40
  -3   2  -8 1249.77   32.20
   3   2   8 1223.58   32.60
   4  -2   8    3.60    1.00
  -4  -2  -8    4.90    1.10
  -4  -2  -8    3.20    0.70
   4  -2   8    2.70    1.10
   4  -2   8    2.60    0.90
  -4  -2  -8    2.90    1.00
  -4   2  -8    3.10    0.80
  -4   2  -8    2.50    1.00
   4   2   8    3.80    1.10
  -4   2  -8    3.40    0.90
   4   2   8    1.10    0.80
   4   2   8    2.40    0.70
  -5  -2  -8  319.07    9.40
   5  -2   8  315.07    9.40
   5  -2   8  317.87    9.60
  -5  -2  -8  293.07    9.40
  -5  -2  -8  311.87    8.80
   5  -2   8  331.37    9.20
   5   2   8  324.27    9.30
  -5   2  -8  334.97    9.40
   5   2   8  318.77    9.40
  -5   2  -8  328.07    9.10
  -5   2  -8  326.47    9.70
   5   2   8  319.27    9.60
  -6  -2  -8   -1.30    1.20
   6  -2   8    1.20    1.30
  -6  -2  -8    0.60    1.40
   6  -2   8    0.20    1.30
   6  -2   8    0.30    1.20
   6   2   8   -0.50    1.30
  -6   2  -8   -0.90    1.20
   6   2   8   -0.40    1.20
  -6   2  -8    2.30    1.30
   6   2   8   -0.50    1.30
  -7  -2  -8   36.40    3.50
   7  -2   8   38.10    3.30
   7  -2   8   45.30    3.50
  -7  -2  -8   36.80    3.70
   7   2   8   38.80    3.20
  -7   2  -8   41.20    3.40
  -7   2  -8   37.40    3.70
   7   2   8   40.50    3.30
  -7  -3   8   24.10    3.00
   7  -3  -8   21.50    2.50
   7  -3  -8   19.50    3.20
  -7  -3   8   19.20    2.50
  -7   3   8   19.30    3.20
   7   3  -8   24.80    2.80
  -7   3   8   22.10    2.70
   7   3  -8   15.20    2.50
   7   3  -8   20.70    2.90
  -6  -3   8  107.89    4.70
   6  -3  -8  113.49    4.60
  -6  -3   8  113.59    4.50
   6  -3  -8  110.89    4.40
   6  -3  -8  115.89    3.90
   6   3  -8  115.39    4.50
  -6   3   8  114.29    4.50
  -6   3   8  112.49    4.80
   6   3  -8  114.69    4.60
   6   3  -8  112.79    4.20
  -5  -3   8   18.80    1.70
  -5  -3   8   15.20    1.90
   5  -3  -8   19.20    2.00
   5  -3  -8   14.20    1.80
  -5  -3   8   14.00    2.00
   5  -3  -8   19.60    1.60
  -5   3   8   18.40    1.90
   5   3  -8   17.40    1.60
  -5   3   8   18.30    2.20
   5   3  -8   15.00    2.00
   5   3  -8   17.40    2.00
   4  -3  -8  404.96   11.00
  -4  -3   8  393.96   11.10
   4  -3  -8  397.26   10.70
  -4  -3   8  388.76   11.30
  -4  -3   8  390.16   10.90
   4  -3  -8  397.66   11.00
  -4   3   8  403.56   11.00
   4   3  -8  394.96   11.20
  -4   3   8  398.06   10.50
  -4   3   8  394.46   10.50
   4   3  -8  391.56   10.70
  -4   3   8  396.76   11.30
   4   3  -8  399.06   11.10
  -3  -3   8   31.60    1.80
   3  -3  -8   31.00    1.60
  -3  -3   8   29.30    1.90
  -3  -3   8   32.50    1.80
   3  -3  -8   32.30    1.60
   3  -3  -8   29.70    1.80
  -3   3   8   31.30    1.60
   3   3  -8   27.20    1.80
   3   3  -8   31.40    1.80
  -3   3   8   30.50    1.60
  -3   3   8   32.30    1.90
   3   3  -8   30.20    1.40
  -2  -3   8  711.73   18.30
   2  -3  -8  714.13   18.40
   2  -3  -8  713.13   18.50
   2  -3  -8  696.53   18.40
   2  -3  -8  691.33   18.60
  -2  -3   8  707.73   18.80
  -2  -3   8  700.73   18.70
   2   3  -8  730.13   18.30
  -2   3   8  701.03   18.80
   2   3  -8  703.13   18.60
   2   3  -8  704.63   18.80
  -2   3   8  709.83   18.40
  -2   3   8  713.33   18.40
  -2   3   8  720.33   18.50
   1  -3  -8  165.08    4.50
  -1  -3   8  162.68    5.10
   1  -3  -8  160.58    4.80
   1  -3  -8  163.98    4.90
   1  -3  -8  165.08    4.60
  -1  -3   8  168.68    4.60
  -1  -3   8  166.48    4.60
  -1  -3   8  161.38    4.90
   1   3  -8  163.18    4.60
   1   3  -8  162.88    4.80
  -1   3   8  159.08    4.90
  -1   3   8  167.58    4.70
  -1   3   8  161.68    5.10
  -1   3   8  165.58    4.50
   1   3  -8  164.98    4.50
   1   3  -8  156.58    5.00
   0  -3  -8   39.50    1.60
   0  -3   8   39.40    1.50
   0  -3   8   36.80    1.90
   0  -3   8   38.20    1.70
   0  -3  -8   35.20    1.80
   0  -3   8   37.60    1.70
   0  -3  -8   37.10    1.80
   0   3  -8   37.50    1.80
   0   3   8   39.40    1.80
   0   3  -8   42.10    1.70
   0   3  -8   39.00    1.50
   0   3   8   38.50    1.90
   0   3   8   38.10    1.60
   0   3  -8   37.60    1.90
   1  -3   8  423.46   10.70
   1  -3   8  405.26   11.20
  -1  -3  -8  407.26   11.00
   1  -3   8  360.66   10.60
  -1  -3  -8  407.36   10.70
   1  -3   8  408.56   11.00
  -1  -3  -8  407.06   11.00
   1   3   8  401.36   11.00
  -1   3  -8  412.86   10.70
  -1   3  -8  414.56   10.70
   1   3   8  396.46   11.10
  -1   3  -8  398.26   11.10
   1   3   8  404.96   10.80
  -1   3  -8  408.26   10.80
   2  -3   8  516.15   12.70
  -2  -3  -8  487.85   13.30
   2  -3   8  488.25   13.30
  -2  -3  -8  482.65   13.10
   2  -3   8  497.75   13.40
  -2  -3  -8  475.35   13.20
  -2   3  -8  491.15   13.00
  -2   3  -8  497.85   12.70
  -2   3  -8  499.15   13.00
   2   3   8  478.45   13.40
   2   3   8  493.85   13.30
   2   3   8  478.05   13.10
  -2   3  -8  494.95   13.40
   3  -3   8    1.50    0.80
   3  -3   8    0.80    0.70
  -3  -3  -8    1.60    0.80
   3  -3   8    2.40    1.00
  -3  -3  -8    1.50    0.80
  -3  -3  -8    1.40    0.70
   3   3   8    0.70    0.70
  -3   3  -8    0.50    0.70
   3   3   8    0.00    0.70
   3   3   8    2.10    0.80
  -3   3  -8    1.30    0.70
  -3   3  -8    2.60    0.90
  -4  -3  -8  683.43   18.70
   4  -3   8  723.83   18.70
   4  -3   8  701.33   19.00
   4  -3   8  717.33   18.70
  -4  -3  -8  675.33   18.70
   4   3   8  682.13   18.90
   4   3   8  696.13   18.80
  -4   3  -8  708.13   19.00
   4   3   8  694.43   18.30
  -4   3  -8  715.93   18.70
  -4   3  -8  693.53   18.50
   4   3   8  706.43   18.00
   5  -3   8   13.50    2.30
  -5  -3  -8   15.00    2.30
   5  -3   8   10.10    1.90
   5  -3   8   15.30    2.20
  -5  -3  -8   14.50    2.10
  -5   3  -8   12.20    2.10
   5   3   8   12.50    2.00
   5   3   8   10.80    2.10
  -5   3  -8   15.70    1.90
  -6  -3  -8   72.49    3.80
   6  -3   8   74.29    3.90
  -6  -3  -8   77.79    4.10
   6  -3   8   76.29    3.80
   6   3   8   76.39    3.70
   6   3   8   75.99    3.80
  -6   3  -8   73.49    3.70
   6   3   8   76.09    3.80
  -6   3  -8   73.69    3.80
   7  -3   8   48.00    3.80
   7  -3   8   41.90    3.70
  -7  -3  -8   54.99    4.20
  -7  -3  -8   48.40    3.70
  -7   3  -8   45.60    3.70
   7   3   8   48.50    3.60
   7   3   8   45.50    3.40
  -7   3  -8   46.50    4.00
  -7  -4   8    2.70    1.80
  -7  -4   8   -1.30    1.50
   7  -4  -8    1.90    1.60
   7  -4  -8    1.90    1.70
   7   4  -8   -1.00    1.50
  -7   4   8    0.50    1.80
   7   4  -8    0.50    1.40
   7   4  -8    4.20    1.70
  -7   4   8    3.60    1.50
   6  -4  -8   52.89    3.00
   6  -4  -8   49.40    3.10
   6  -4  -8   52.49    2.80
  -6  -4   8   53.19    3.40
  -6  -4   8   53.19    3.00
  -6  -4   8   51.19    2.80
   6   4  -8   52.89    3.20
  -6   4   8   52.09    3.10
   6   4  -8   52.09    2.70
  -6   4   8   50.69    3.40
   6   4  -8   52.59    3.10
   5  -4  -8   17.30    1.90
  -5  -4   8   21.40    2.20
   5  -4  -8   20.80    1.80
  -5  -4   8   19.50    2.30
   5  -4  -8   20.00    2.10
  -5  -4   8   18.80    1.80
   5   4  -8   22.50    2.20
  -5   4   8   21.20    2.30
   5   4  -8   19.20    1.70
  -5   4   8   18.30    2.00
   5   4  -8   21.50    2.20
   4  -4  -8    7.70    1.40
   4  -4  -8    6.80    1.40
  -4  -4   8    5.90    1.20
   4  -4  -8    4.80    1.10
  -4  -4   8    5.60    1.50
   4   4  -8    7.10    1.20
   4   4  -8    6.60    1.60
  -4   4   8    7.30    1.30
  -4   4   8    7.00    1.70
  -4   4   8    5.20    1.00
   4   4  -8    5.50    1.10
   3  -4  -8    8.10    1.30
  -3  -4   8    7.50    1.50
  -3  -4   8    9.40    1.40
   3  -4  -8    7.90    1.30
  -3  -4   8    9.20    1.30
   3  -4  -8    8.00    1.20
  -3   4   8    9.50    1.20
   3   4  -8    9.80    1.00
  -3   4   8   10.50    1.50
   3   4  -8    7.80    1.40
  -3   4   8    7.40    1.20
   3   4  -8    6.20    1.40
  -2  -4   8  686.13   18.80
   2  -4  -8  711.33   18.50
   2  -4  -8  703.23   18.30
  -2  -4   8  702.53   18.10
   2  -4  -8  705.23   18.60
   2  -4  -8  715.43   18.30
  -2  -4   8  703.63   18.80
   2   4  -8  707.03   18.60
   2   4  -8  710.53   18.10
  -2   4   8  695.53   18.80
  -2   4   8  716.63   18.50
  -2   4   8  711.43   18.30
   2   4  -8  699.43   18.80
  -2   4   8  703.53   18.40
   1  -4  -8    0.20    0.60
  -1  -4   8   -1.10    0.60
  -1  -4   8    0.60    0.60
   1  -4  -8    0.40    0.50
   1  -4  -8    0.30    0.40
  -1  -4   8    0.20    0.50
  -1  -4   8    0.20    0.50
   1  -4  -8   -0.30    0.60
  -1   4   8    1.90    0.70
   1   4  -8   -0.40    0.60
   1   4  -8    0.10    0.60
  -1   4   8    0.50    0.60
   1   4  -8    0.20    0.60
  -1   4   8    0.10    0.50
   1   4  -8    0.20    0.40
  -1   4   8    0.40    0.50
   0  -4  -8  325.47    8.90
   0  -4  -8  329.47    8.50
   0  -4   8  319.77    8.50
   0  -4   8  321.17    8.80
   0  -4   8  312.17    9.10
   0  -4   8  317.17    8.80
   0  -4  -8  320.57    9.00
   0   4  -8  322.17    8.90
   0   4  -8  327.57    8.50
   0   4   8  322.57    9.10
   0   4   8  314.77    9.10
   0   4   8  329.67    8.50
   0   4  -8  314.97    9.00
  -1  -4  -8   13.60    1.00
  -1  -4  -8   14.30    1.40
   1  -4   8   16.10    1.50
  -1  -4  -8   14.40    1.40
   1  -4   8   12.80    1.30
   1  -4   8   14.20    1.20
   1  -4   8   14.70    1.20
   1   4   8   12.50    1.20
  -1   4  -8   11.30    1.40
  -1   4  -8   13.40    1.00
   1   4   8   11.70    1.30
  -1   4  -8   13.90    1.30
  -1   4  -8   12.90    1.20
   1   4   8   11.30    1.40
   2  -4   8  205.98    5.40
  -2  -4  -8  188.08    5.80
   2  -4   8  192.58    6.00
  -2  -4  -8  193.48    5.60
   2  -4   8  196.68    6.00
   2  -4   8  197.58    5.60
  -2  -4  -8  188.88    6.00
  -2   4  -8  197.98    5.60
   2   4   8  195.28    6.10
  -2   4  -8  196.18    5.80
  -2   4  -8  190.48    5.40
   2   4   8  191.28    6.00
   2   4   8  188.98    5.80
  -2   4  -8  205.08    5.40
  -2   4  -8  195.48    6.00
   3  -4   8    4.60    1.00
  -3  -4  -8    5.50    1.50
   3  -4   8    7.40    1.30
  -3  -4  -8    5.20    1.30
  -3  -4  -8    5.10    1.00
   3  -4   8    5.70    1.20
   3   4   8    8.20    1.30
   3   4   8    5.80    1.40
  -3   4  -8    5.60    1.50
  -3   4  -8    6.60    1.30
   3   4   8    7.30    1.50
  -3   4  -8    6.70    1.30
  -4  -4  -8    1.50    0.90
   4  -4   8    3.30    1.00
   4  -4   8    3.70    1.10
  -4  -4  -8    1.90    1.10
  -4  -4  -8    3.80    1.20
   4  -4   8    4.20    1.30
   4   4   8    3.40    1.20
   4   4   8    4.20    1.00
   4   4   8    3.40    1.00
  -4   4  -8    4.80    1.20
  -4   4  -8    3.70    1.10
  -5  -4  -8    8.90    2.20
   5  -4   8    7.80    1.60
   5  -4   8    6.50    1.50
  -5  -4  -8    7.00    1.50
   5  -4   8   10.60    2.10
  -5   4  -8   11.00    2.10
   5   4   8    9.10    2.10
  -5   4  -8    5.70    1.40
   5   4   8    4.90    1.30
  -6  -4  -8   72.69    4.10
   6  -4   8   68.89    4.00
  -6  -4  -8   69.99    3.70
   6  -4   8   68.39    3.90
   6   4   8   71.59    3.70
  -6   4  -8   74.59    3.90
  -6   4  -8   76.69    3.90
   6   4   8   69.79    3.70
   6   4   8   68.59    3.90
   7  -5  -8   49.40    3.80
  -7  -5   8   57.09    4.10
  -7  -5   8   49.99    3.90
   7  -5  -8   48.20    3.80
  -7   5   8   56.49    4.20
  -7   5   8   52.69    3.60
   7   5  -8   49.10    3.80
   7   5  -8   50.79    3.60
   6  -5  -8   58.89    3.20
   6  -5  -8   57.19    3.30
  -6  -5   8   59.19    3.20
   6  -5  -8   49.30    3.20
  -6  -5   8   56.29    3.70
   6   5  -8   55.19    3.40
  -6   5   8   52.29    3.60
   6   5  -8   59.09    3.50
  -6   5   8   51.79    3.20
  -5  -5   8   46.50    3.10
   5  -5  -8   44.90    2.80
  -5  -5   8   47.60    2.70
   5  -5  -8   44.50    2.50
   5  -5  -8   45.00    2.60
   5   5  -8   45.10    2.20
   5   5  -8   43.20    2.90
  -5   5   8   41.70    3.10
  -5   5   8   48.20    2.70
   5   5  -8   46.40    2.80
  -4  -5   8   93.39    3.70
  -4  -5   8   94.19    3.90
   4  -5  -8   84.99    3.60
   4  -5  -8   94.29    3.50
   4  -5  -8   94.59    3.40
  -4   5   8   93.99    3.90
   4   5  -8   94.89    3.00
  -4   5   8   94.19    3.20
  -4   5   8   94.89    3.60
   4   5  -8   84.39    3.60
   4   5  -8   91.29    3.70
   3  -5  -8   58.09    2.20
  -3  -5   8   54.89    2.80
   3  -5  -8   56.49    2.60
  -3  -5   8   54.39    2.70
   3  -5  -8   58.39    2.70
   3   5  -8   52.19    2.60
  -3   5   8   54.49    2.80
   3   5  -8   58.39    1.90
  -3   5   8   57.19    2.40
  -3   5   8   57.49    2.40
   3   5  -8   55.39    2.70
   2  -5  -8   64.89    2.30
   2  -5  -8   64.79    2.20
   2  -5  -8   65.49    2.70
   2  -5  -8   65.19    2.70
  -2  -5   8   60.89    2.80
  -2  -5   8   65.79    2.90
  -2  -5   8   64.59    2.10
  -2   5   8   63.69    2.50
   2   5  -8   63.29    2.80
   2   5  -8   66.19    2.30
  -2   5   8   64.19    2.60
   2   5  -8   66.49    2.80
  -2   5   8   63.99    2.90
   1  -5  -8  872.41   22.50
  -1  -5   8  853.71   22.70
  -1  -5   8  858.31   22.60
  -1  -5   8  865.61   22.10
   1  -5  -8  874.21   22.50
   1  -5  -8  844.92   22.10
   1   5  -8  840.92   22.50
  -1   5   8  842.42   22.70
   1   5  -8  855.61   22.60
  -1   5   8  873.01   22.60
   1   5  -8  841.32   22.20
  -1   5   8  868.61   22.10
   0  -5   8   11.30    1.50
   0  -5   8    9.50    1.20
   0  -5  -8   12.90    1.10
   0  -5  -8   10.70    1.40
   0  -5   8   11.00    1.30
   0  -5  -8   12.50    1.40
   0  -5   8    9.40    0.90
   0   5   8   12.00    1.50
   0   5   8   11.60    0.90
   0   5  -8    8.70    1.30
   0   5  -8    8.10    1.40
   0   5   8   13.60    1.50
   0   5  -8    9.40    0.80
   1  -5   8  603.94   15.60
  -1  -5  -8  601.74   16.20
   1  -5   8  599.14   15.90
  -1  -5  -8  592.74   16.10
   1  -5   8  589.94   16.30
  -1  -5  -8  600.24   15.60
   1  -5   8  609.54   16.10
   1  -5   8  601.24   15.60
  -1   5  -8  607.24   15.60
  -1   5  -8  611.64   16.10
   1   5   8  597.14   16.20
   1   5   8  590.14   15.50
   1   5   8  612.04   16.40
  -1   5  -8  609.04   16.30
  -1   5  -8  611.24   15.90
   2  -5   8   35.30    1.80
  -2  -5  -8   32.70    1.70
   2  -5   8   34.90    2.20
  -2  -5  -8   37.10    2.10
  -2  -5  -8   34.20    2.00
   2  -5   8   34.60    2.20
  -2   5  -8   36.40    2.10
   2   5   8   31.80    1.80
  -2   5  -8   35.90    1.70
  -2   5  -8   31.70    2.00
  -2   5  -8   35.50    1.70
   2   5   8   33.90    2.20
   2   5   8   33.80    2.00
  -3  -5  -8   14.80    1.80
   3  -5   8   13.90    1.60
   3  -5   8   14.20    1.90
  -3  -5  -8   14.40    1.60
  -3  -5  -8   15.70    1.80
   3  -5   8   10.90    2.10
   3   5   8   17.40    1.70
   3   5   8   11.30    1.70
   3   5   8   15.80    1.80
  -3   5  -8   14.00    1.80
  -3   5  -8   12.30    1.80
   4  -5   8  199.48    6.10
   4  -5   8  191.98    6.50
  -4  -5  -8  188.18    6.10
  -4  -5  -8  186.88    5.90
  -4  -5  -8  185.38    6.30
   4  -5   8  190.58    5.90
   4   5   8  182.68    5.90
   4   5   8  185.28    6.30
  -4   5  -8  190.08    6.10
   4   5   8  175.48    6.20
  -4   5  -8  199.28    6.40
   5  -5   8   97.79    4.50
   5  -5   8  104.49    4.30
   5  -5   8  107.99    4.20
  -5  -5  -8   94.29    4.20
  -5  -5  -8  100.59    4.20
   5   5   8  102.89    4.30
  -5   5  -8  100.49    4.40
   5   5   8   99.49    4.40
   5   5   8  105.79    4.00
  -5   5  -8  108.49    4.50
  -6  -5  -8   77.59    4.30
  -6  -5  -8   81.19    4.10
   6  -5   8   82.09    4.30
   6  -5   8   79.59    4.50
  -6   5  -8   86.09    4.20
  -6   5  -8   78.39    4.30
   6   5   8   78.69    4.10
   6   5   8   83.69    4.00
   6   5   8   82.19    4.30
  -6  -6   8    4.30    1.80
  -6  -6   8    4.00    1.50
   6  -6  -8    8.40    1.80
   6  -6  -8    4.10    1.60
   6   6  -8   11.60    2.60
   6   6  -8    6.70    1.70
  -6   6   8    6.90    2.10
  -6   6   8    7.80    1.70
   5  -6  -8  239.88    7.50
  -5  -6   8  233.58    7.50
  -5  -6   8  234.78    7.80
   5  -6  -8  241.28    7.40
   5   6  -8  224.48    7.50
   5   6  -8  233.98    7.60
  -5   6   8  234.78    7.40
  -5   6   8  225.38    7.70
   4  -6  -8    1.20    1.00
   4  -6  -8    2.70    1.30
  -4  -6   8    0.30    1.10
   4  -6  -8    2.90    1.20
  -4  -6   8    1.80    1.20
  -4   6   8    2.80    1.40
  -4   6   8    1.00    1.10
  -4   6   8    1.20    0.90
   4   6  -8    2.70    1.20
   4   6  -8    1.90    1.10
  -3  -6   8  190.98    6.10
   3  -6  -8  187.98    5.80
  -3  -6   8  162.58    5.90
   3  -6  -8  187.58    5.20
   3  -6  -8  191.08    5.90
  -3   6   8  187.78    5.60
   3   6  -8  187.68    5.90
  -3   6   8  187.88    5.70
  -3   6   8  160.18    6.00
   3   6  -8  170.58    5.90
  -2  -6   8   33.00    2.20
   2  -6  -8   33.70    2.10
  -2  -6   8   32.90    2.30
  -2  -6   8   31.40    1.60
   2  -6  -8   30.90    2.00
  -2   6   8   29.30    2.00
   2   6  -8   34.50    2.20
  -2   6   8   33.20    2.30
   2   6  -8   31.10    2.10
  -2   6   8   32.50    1.90
  -1  -6   8  101.09    3.90
  -1  -6   8  103.79    3.40
   1  -6  -8  104.59    3.70
   1  -6  -8  103.29    3.80
  -1  -6   8  104.29    3.80
  -1   6   8  102.39    3.40
   1   6  -8  102.99    3.80
  -1   6   8  107.09    3.80
  -1   6   8  104.29    3.90
   1   6  -8   98.69    3.80
   0  -6  -8   46.90    2.40
   0  -6   8   50.69    2.40
   0  -6   8   48.40    2.60
   0  -6  -8   51.79    2.40
   0  -6   8   51.19    2.30
   0   6   8   50.79    1.90
   0   6  -8   51.19    2.40
   0   6  -8   52.99    2.50
   0   6   8   49.90    2.60
   0   6   8   46.10    2.60
   0   6  -8   50.59    2.50
   1  -6   8    7.90    1.60
  -1  -6  -8    6.30    1.50
   1  -6   8    8.90    1.30
   1  -6   8    9.90    1.60
  -1  -6  -8    7.60    1.60
   1  -6   8    6.50    1.00
  -1   6  -8    9.20    1.60
   1   6   8    5.70    1.20
   1   6   8    9.60    1.60
  -1   6  -8    5.80    1.20
  -1   6  -8    8.10    1.40
   1   6   8    8.70    1.00
  -2  -6  -8   21.30    1.40
  -2  -6  -8   20.20    1.90
  -2  -6  -8   23.70    1.90
   2  -6   8   20.50    2.00
   2  -6   8   20.90    2.10
   2  -6   8   20.80    1.60
   2   6   8   16.30    2.00
  -2   6  -8   20.30    1.70
   2   6   8   23.50    2.00
  -2   6  -8   20.90    1.90
  -2   6  -8   24.50    2.00
   2   6   8   22.10    1.30
  -3  -6  -8  400.46   11.40
  -3  -6  -8  401.06   11.60
   3  -6   8  407.06   11.80
  -3  -6  -8  392.26   10.90
   3  -6   8  418.86   11.60
   3  -6   8  402.96   11.00
  -3   6  -8  404.56   11.60
  -3   6  -8  414.76   11.50
   3   6   8  401.46   11.70
   3   6   8  402.86   11.50
   3   6   8  407.46   11.80
   4  -6   8    0.60    1.10
  -4  -6  -8    1.50    1.30
  -4  -6  -8   -0.10    1.30
   4  -6   8    0.10    1.20
  -4  -6  -8    0.20    1.10
   4  -6   8   -0.30    1.40
  -4   6  -8    2.80    1.50
   4   6   8   -0.90    1.20
  -4   6  -8    0.40    1.10
   4   6   8   -0.30    1.20
   4   6   8    0.50    1.10
   5  -6   8  259.67    8.60
  -5  -6  -8  251.97    8.20
   5  -6   8  254.47    8.00
  -5  -6  -8  255.67    8.40
   5  -6   8  261.57    8.00
   5   6   8  250.07    8.00
   5   6   8  256.97    8.30
  -5   6  -8  271.47    8.40
  -5   6  -8  259.67    8.30
   5   6   8  261.07    8.40
   6  -6   8    9.50    2.20
   6  -6   8    6.40    2.30
  -6  -6  -8    7.60    2.20
   6   6   8    8.40    1.80
  -6   6  -8    6.70    2.10
   6   6   8    9.30    1.90
   6   6   8    8.20    1.90
  -6   6  -8   11.60    3.00
  -6  -7   8   75.59    4.60
   6  -7  -8   77.29    4.20
   6  -7  -8   72.89    4.20
  -6  -7   8   74.89    4.20
  -6   7   8   79.89    4.20
  -6   7   8   73.79    4.70
   6   7  -8   75.09    4.20
   6   7  -8   71.29    4.20
   5  -7  -8   10.20    2.60
  -5  -7   8   16.90    3.00
   5  -7  -8   19.40    2.70
  -5  -7   8   21.00    2.90
  -5   7   8   13.90    2.80
  -5   7   8   11.20    2.40
   5   7  -8   13.40    2.60
   5   7  -8   13.20    2.50
   4  -7  -8  168.48    5.80
   4  -7  -8  171.38    5.90
  -4  -7   8  168.28    6.10
  -4  -7   8  169.78    6.10
  -4   7   8  173.98    5.80
   4   7  -8  169.48    5.90
   4   7  -8  166.98    5.90
  -4   7   8  166.98    6.20
  -3  -7   8   13.20    2.40
  -3  -7   8   11.30    2.00
   3  -7  -8   14.50    2.20
   3  -7  -8   14.50    2.00
   3   7  -8   11.80    2.00
  -3   7   8    9.90    2.20
   3   7  -8   10.00    2.00
  -3   7   8   13.90    1.90
  -3   7   8   16.40    1.80
  -2  -7   8  147.29    5.50
   2  -7  -8  168.18    5.40
  -2  -7   8  158.58    4.90
  -2  -7   8  169.08    5.80
   2  -7  -8  155.98    5.40
   2   7  -8  165.68    5.60
  -2   7   8  166.18    5.20
   2   7  -8  169.28    5.60
  -2   7   8  163.28    5.70
  -2   7   8  180.28    5.50
  -1  -7   8  189.18    6.30
  -1  -7   8  194.68    5.70
   1  -7  -8  170.28    6.00
   1  -7  -8  201.98    6.00
  -1  -7   8  196.58    6.20
  -1   7   8  199.28    6.40
   1   7  -8  197.78    6.20
   1   7  -8  168.38    6.00
   1   7  -8  199.88    6.10
  -1   7   8  188.98    6.20
  -1   7   8  192.58    5.70
   0  -7   8    2.50    1.00
   0  -7  -8    2.00    1.00
   0  -7   8    2.10    1.00
   0  -7  -8    0.90    1.00
   0  -7   8    0.70    0.90
   0   7   8    2.50    1.10
   0   7   8    0.40    1.00
   0   7  -8    1.80    1.00
   0   7  -8   -0.90    1.00
   0   7   8    2.20    0.80
   0   7  -8    1.00    0.90
  -1  -7  -8  117.09    4.30
   1  -7   8  116.69    4.20
   1  -7   8  119.39    4.40
  -1  -7  -8  115.89    4.10
  -1   7  -8   99.79    4.10
  -1   7  -8  120.49    4.00
   1   7   8   98.49    4.20
   1   7   8  116.69    3.60
   1   7   8  115.99    4.50
  -1   7  -8  119.59    4.30
  -2  -7  -8  189.48    6.00
  -2  -7  -8  192.08    6.30
   2  -7   8  188.88    6.30
   2  -7   8  181.48    6.30
   2   7   8  198.38    6.50
  -2   7  -8  194.88    6.20
  -2   7  -8  184.48    6.20
   2   7   8  195.88    6.30
  -2   7  -8  186.48    5.80
   3  -7   8    0.40    1.10
  -3  -7  -8   -0.20    1.20
   3  -7   8    0.40    1.40
  -3  -7  -8    0.70    1.20
  -3   7  -8    0.00    1.10
  -3   7  -8    0.30    1.30
   3   7   8    0.50    1.10
   3   7   8    0.40    1.20
   4  -7   8  298.17    9.10
   4  -7   8  297.27    9.40
  -4  -7  -8  296.47    9.00
  -4  -7  -8  272.07    9.10
   4   7   8  300.47    9.40
  -4   7  -8  306.97    9.30
  -4   7  -8  309.87    9.30
   4   7   8  295.37    9.20
   4   7   8  290.17    9.20
  -5  -7  -8   23.50    3.00
   5  -7   8   25.10    3.30
  -5  -7  -8   20.90    3.10
  -5   7  -8   21.30    3.30
  -5   7  -8   20.60    3.00
   5   7   8   19.60    2.90
   5   7   8   21.10    3.20
   5   7   8   23.60    2.90
   5  -8  -8   39.10    3.30
   5  -8  -8   37.10    3.50
  -5  -8   8   34.70    3.70
  -5  -8   8   39.10    3.70
  -5   8   8   46.00    3.30
   5   8  -8   36.60    3.40
  -5   8   8   40.30    3.60
   5   8  -8   40.30    3.40
   4  -8  -8    9.50    1.80
  -4  -8   8    8.60    1.70
   4  -8  -8    8.20    1.70
  -4  -8   8   10.60    2.50
  -4   8   8    8.40    1.80
   4   8  -8    8.40    1.90
   4   8  -8   11.40    2.40
  -4   8   8   10.40    1.90
   4   8  -8    8.40    1.70
  -3  -8   8   17.00    2.40
   3  -8  -8   17.20    2.50
   3  -8  -8   18.40    2.30
  -3  -8   8   18.40    2.40
   3   8  -8   15.30    2.40
  -3   8   8   16.90    2.30
  -3   8   8   14.80    2.40
   3   8  -8   14.20    2.50
  -3   8   8   14.80    2.30
   3   8  -8   16.50    2.50
   2  -8  -8  378.06   10.90
  -2  -8   8  339.87   10.40
  -2  -8   8  383.86   11.20
   2  -8  -8  392.06   11.10
  -2  -8   8  392.66   11.40
   2   8  -8  381.96   11.00
  -2   8   8  389.66   11.40
   2   8  -8  395.26   11.20
  -2   8   8  383.36   10.70
  -2   8   8  372.46   11.00
   2   8  -8  378.76   11.30
  -1  -8   8    0.40    1.10
  -1  -8   8    1.20    1.00
   1  -8  -8    0.00    1.20
   1  -8  -8    0.20    1.10
  -1  -8   8    1.80    1.10
   1   8  -8    0.30    1.20
   1   8  -8    1.70    1.30
   1   8  -8    0.70    1.10
  -1   8   8    1.10    1.00
  -1   8   8    0.80    1.20
  -1   8   8   -2.80    1.10
   0  -8   8  146.99    5.10
   0  -8  -8  148.79    5.20
   0  -8  -8  149.29    4.90
   0  -8   8  149.49    5.40
   0  -8   8  143.79    4.90
   0   8  -8  143.39    5.10
   0   8   8  140.19    5.40
   0   8   8  138.99    5.30
   0   8   8  148.89    4.60
   0   8  -8  140.09    5.10
   0   8  -8  145.59    5.20
   1  -8   8   17.00    2.20
   1  -8   8   14.60    2.30
  -1  -8  -8   16.80    2.00
  -1  -8  -8   17.20    2.00
  -1   8  -8   14.40    2.00
  -1   8  -8   17.20    2.40
   1   8   8   15.30    2.40
   1   8   8   18.70    2.30
  -1   8  -8   19.10    2.30
  -2  -8  -8  142.09    5.00
  -2  -8  -8  139.59    5.30
   2  -8   8  147.79    5.30
   2  -8   8  140.59    5.40
  -2   8  -8  143.49    4.80
  -2   8  -8  139.89    5.30
   2   8   8  148.89    5.40
  -2   8  -8  142.49    5.30
   2   8   8  150.08    5.40
   3  -8   8   15.90    2.60
   3  -8   8   16.20    2.90
  -3  -8  -8   20.80    2.70
  -3  -8  -8   21.50    2.60
   3   8   8   24.00    2.60
  -3   8  -8   18.50    2.60
   3   8   8   15.70    2.50
  -3   8  -8   20.40    2.70
   4  -8   8    0.70    1.60
   4  -8   8    3.30    1.80
  -4  -8  -8    2.30    1.70
  -4  -8  -8    1.30    1.60
   4   8   8    1.70    1.70
   4   8   8    0.50    1.40
   4   8   8   -0.50    1.40
  -4   8  -8    2.10    1.60
  -4   8  -8    1.80    1.70
  -4  -9   8   34.90    3.30
   4  -9  -8   38.10    3.50
   4  -9  -8   41.80    3.30
  -4  -9   8   43.70    3.60
  -4   9   8   42.50    3.50
  -4   9   8   35.50    3.60
   4   9  -8   41.10    3.70
   4   9  -8   44.50    3.60
   4   9  -8   31.10    3.20
   3  -9  -8   15.20    2.50
  -3  -9   8    9.20    1.80
   3  -9  -8   11.60    1.90
  -3  -9   8   11.50    2.50
   3   9  -8   15.30    2.70
   3   9  -8   11.30    2.80
  -3   9   8   10.40    1.80
   3   9  -8   12.90    2.60
  -3   9   8   16.60    2.70
  -3   9   8   12.20    2.80
   2  -9  -8   21.10    2.40
  -2  -9   8   21.00    2.70
   2  -9  -8   19.50    2.60
  -2  -9   8   20.10    2.60
  -2   9   8   23.70    2.50
   2   9  -8   16.40    2.80
   2   9  -8   18.80    2.80
  -2   9   8   19.80    2.90
  -2   9   8   17.30    2.70
   2   9  -8   18.90    2.60
   1  -9  -8  265.47    8.30
  -1  -9   8  254.17    7.90
   1  -9  -8  265.37    8.00
  -1  -9   8  262.17    8.60
  -1  -9   8  265.27    8.40
  -1   9   8  269.67    8.50
  -1   9   8  273.27    7.90
   1   9  -8  268.37    8.40
   1   9  -8  260.47    8.50
   1   9  -8  263.97    8.20
  -1   9   8  259.87    8.60
   0  -9  -8   -0.50    1.10
   0  -9   8    3.10    1.20
   0  -9  -8    2.10    1.30
   0  -9   8    2.50    1.30
   0   9   8    1.60    1.30
   0   9   8   -0.70    1.30
   0   9  -8    0.00    1.30
   0   9  -8    1.60    1.50
   0   9  -8    0.20    1.40
   1  -9   8  172.28    6.10
   1  -9   8  174.68    6.30
  -1  -9  -8  167.88    5.70
  -1  -9  -8  181.68    6.20
  -1   9  -8  172.08    6.20
   1   9   8  174.48    6.40
   1   9   8  173.08    6.30
  -1   9  -8  173.18    6.00
  -1   9  -8  170.48    5.90
   2  -9   8   32.20    3.40
   2  -9   8   33.80    3.00
  -2  -9  -8   35.20    3.00
  -2  -9  -8   29.70    2.70
  -2   9  -8   35.70    3.00
  -2   9  -8   32.70    3.10
   2   9   8   32.70    2.90
   2   9   8   36.90    3.20
  -3  -9  -8   29.90    3.20
   3  -9   8   38.40    3.50
   3  -9   8   35.10    3.40
  -3  -9  -8   35.50    3.10
   3   9   8   35.30    3.20
  -3   9  -8   31.90    3.40
  -3   9  -8   36.30    3.30
   3   9   8   39.30    3.40
  -3 -10   8  193.88    7.40
  -3 -10   8  200.88    7.30
   3  10  -8  197.88    7.50
  -3  10   8  200.98    7.00
  -3  10   8  201.28    7.50
  -2 -10   8   33.80    3.40
  -2 -10   8   28.90    3.10
   2 -10  -8   31.20    3.00
   2 -10  -8   33.50    3.10
  -2  10   8   39.50    3.60
   2  10  -8   31.50    3.40
   2  10  -8   30.10    3.40
  -2  10   8   30.70    3.50
  -2  10   8   28.60    3.60
   2  10  -8   32.80    3.30
  -1 -10   8   33.00    3.20
   1 -10  -8   29.10    3.00
   1 -10  -8   29.30    3.00
  -1  10   8   33.10    3.30
   1  10  -8   34.40    3.60
  -1  10   8   34.60    3.60
   1  10  -8   35.30    3.30
   1  10  -8   34.60    3.20
   0 -10  -8   52.29    3.50
   0 -10  -8   57.69    3.20
   0 -10   8   51.69    3.50
   0 -10   8   53.79    3.60
   0  10   8   53.89    3.70
   0  10  -8   51.59    3.80
   0  10  -8   56.39    3.50
   0  10  -8   48.70    3.50
   0  10   8   53.59    3.60
  -1 -10  -8   49.40    3.60
   1 -10   8   55.79    3.50
   1 -10   8   40.20    3.60
  -1  10  -8   42.90    3.50
  -1  10  -8   51.59    3.80
   1  10   8   51.39    3.60
   1  10   8   51.49    3.90
  -1  10  -8   53.99    3.60
  -2 -10  -8   25.50    3.30
   2 -10   8   25.50    3.60
   2 -10   8   22.00    3.30
   2  10   8   16.50    3.30
  -2  10  -8   15.80    4.40
  -2  10  -8   24.80    3.30
   2  10   8   22.20    2.90
   8   0  -9    0.60    1.60
  -8   0   9    4.30    1.90
  -7   0   9   88.99    4.50
   7   0  -9   84.99    3.90
   7   0  -9   85.69    4.40
  -7   0   9   88.39    4.10
   6   0  -9   -0.90    1.20
  -6   0   9    0.10    1.10
  -6   0   9    0.80    1.40
   6   0  -9    1.10    1.10
   5   0  -9  353.46   10.30
  -5   0   9  341.47    9.50
  -5   0   9  361.26   10.10
   5   0  -9  351.26   10.00
  -5   0   9  354.46   10.40
   4   0  -9   -0.50    0.70
  -4   0   9    0.70    0.90
   4   0  -9   -0.10    0.80
  -4   0   9    0.50    0.70
  -4   0   9    0.20    0.80
  -3   0   9  240.08    6.80
   3   0  -9  233.98    6.80
   3   0  -9  240.98    7.00
  -3   0   9  237.38    7.10
  -3   0   9  234.68    6.70
   2   0  -9    0.70    0.50
   2   0  -9   -0.10    0.40
   2   0  -9    0.50    0.50
  -2   0   9    0.90    0.50
  -2   0   9    0.40    0.40
  -2   0   9   -0.20    0.70
   2   0  -9    0.40    0.60
   2   0  -9    1.30    0.60
  -2   0   9    0.70    0.40
  -2   0   9   -0.40    0.50
  -1   0   9  215.28    6.40
  -1   0   9  215.58    6.40
   1   0  -9  212.68    6.30
   1   0  -9  225.88    6.00
  -1   0   9  217.28    6.00
  -1   0   9  228.58    6.00
   1   0  -9  219.88    6.00
   1   0  -9  219.98    6.20
   0   0  -9    0.80    0.50
   0   0   9    0.10    0.50
   0   0  -9    0.50    0.40
   0   0  -9   -0.40    0.30
   0   0  -9   -0.40    0.50
   0   0   9    0.30    0.40
   0   0   9    0.40    0.50
   0   0   9    0.20    0.60
   1   0   9  182.48    5.10
  -1   0  -9  176.28    5.10
   1   0   9  171.88    5.40
   1   0   9  181.68    5.30
  -1   0  -9  179.38    5.40
  -1   0  -9  175.28    5.20
  -2   0  -9    0.90    0.70
  -2   0  -9    0.10    0.50
   2   0   9    1.50    0.40
   2   0   9    0.10    0.70
   2   0   9   -0.20    0.50
  -2   0  -9    0.80    0.60
   2   0   9   -0.50    0.60
   3   0   9  244.18    7.40
  -3   0  -9  249.38    7.30
  -3   0  -9  250.97    6.80
   3   0   9  257.67    6.80
  -3   0  -9  251.97    7.50
   3   0   9  254.67    7.50
  -4   0  -9   -0.50    0.90
   4   0   9   -0.80    0.80
   4   0   9    0.20    0.90
  -4   0  -9   -0.20    0.80
  -4   0  -9   -0.20    0.70
   5   0   9  250.87    7.80
  -5   0  -9  246.88    7.80
   5   0   9  264.37    7.80
  -5   0  -9  255.07    8.10
  -5   0  -9  254.07    7.30
   5   0   9  256.57    8.00
  -6   0  -9    0.30    1.40
   6   0   9   -1.10    1.20
  -6   0  -9    0.40    1.20
   6   0   9    1.30    1.30
   6   0   9    0.10    1.30
  -7   0  -9    5.70    1.90
   7   0   9    3.90    1.80
   7   0   9    3.80    1.90
   7  -1  -9   25.60    2.60
  -7  -1   9   30.70    2.70
  -7  -1   9   32.80    3.30
   7  -1  -9   30.10    3.10
  -7   1   9   27.00    3.20
  -7   1   9   27.70    2.80
   7   1  -9   32.80    3.20
   7   1  -9   26.60    2.60
  -6  -1   9   84.09    3.70
   6  -1  -9   84.59    3.60
   6  -1  -9   78.59    3.90
  -6  -1   9   85.99    4.10
  -6   1   9   82.19    4.00
   6   1  -9   81.69    3.50
   6   1  -9   86.09    4.00
  -6   1   9   80.39    3.60
  -5  -1   9    9.30    1.70
   5  -1  -9    6.90    1.30
  -5  -1   9    8.20    1.40
  -5  -1   9    6.50    1.40
   5  -1  -9    5.30    1.10
   5   1  -9    6.00    1.30
  -5   1   9    7.20    1.60
  -5   1   9    7.60    1.20
   5   1  -9    8.50    1.60
  -5   1   9    7.40    2.00
   4  -1  -9  244.98    7.20
   4  -1  -9  226.58    6.80
  -4  -1   9  240.58    7.00
   4  -1  -9  249.58    6.60
  -4  -1   9  242.18    7.50
  -4  -1   9  248.68    7.20
   4  -1  -9  248.98    7.30
  -4   1   9  248.68    6.60
   4   1  -9  251.97    7.40
  -4   1   9  243.28    7.10
   4   1  -9  245.98    7.10
  -4   1   9  243.88    6.90
  -4   1   9  249.38    7.50
  -3  -1   9  163.18    5.20
   3  -1  -9  161.68    5.00
  -3  -1   9  166.68    4.90
   3  -1  -9  159.68    4.90
  -3  -1   9  156.58    4.90
   3  -1  -9  162.38    4.50
  -3   1   9  162.58    4.90
  -3   1   9  164.48    4.80
  -3   1   9  163.38    4.60
  -3   1   9  164.08    5.20
   3   1  -9  165.48    4.90
   3   1  -9  160.48    4.80
   3   1  -9  160.18    5.10
   2  -1  -9   86.29    2.90
  -2  -1   9   91.19    2.90
  -2  -1   9   89.49    3.10
   2  -1  -9   89.59    3.10
   2  -1  -9   89.99    2.80
   2  -1  -9   94.49    3.10
  -2  -1   9   86.89    3.20
   2   1  -9   89.89    2.90
  -2   1   9   90.59    2.80
   2   1  -9   91.59    3.20
  -2   1   9   89.69    3.30
  -2   1   9   88.49    3.00
   2   1  -9   88.09    2.90
  -2   1   9   89.59    2.80
   1  -1  -9  754.32   18.70
   1  -1  -9  732.33   18.70
  -1  -1   9  729.93   19.20
   1  -1  -9  744.53   19.10
  -1  -1   9  724.93   19.20
  -1  -1   9  751.32   18.80
   1  -1  -9  718.13   19.00
  -1  -1   9  731.03   18.70
   1  -1  -9  729.23   18.90
   1   1  -9  724.43   19.20
  -1   1   9  727.63   18.90
   1   1  -9  662.83   18.80
   1   1  -9  727.83   18.90
  -1   1   9  734.33   19.20
  -1   1   9  725.73   19.20
  -1   1   9  748.73   18.70
   1   1  -9  733.03   18.80
  -1   1   9  733.13   18.90
   0  -1   9  156.08    4.50
   0  -1   9  154.68    4.60
   0  -1   9  150.58    4.80
   0  -1   9  153.28    4.50
   0  -1  -9  158.48    4.60
   0  -1  -9  154.58    4.70
   0  -1  -9  154.98    4.70
   0   1  -9  159.68    4.40
   0   1  -9  160.38    4.40
   0   1  -9  155.68    4.60
   0   1   9  155.48    4.60
   0   1   9  157.38    4.80
   0   1  -9  154.68    4.80
   0   1   9  155.18    4.70
   1  -1   9  396.26   11.20
   1  -1   9  413.86   10.80
  -1  -1  -9  410.16   11.00
   1  -1   9  421.26   10.60
   1  -1   9  406.26   11.00
  -1  -1  -9  401.46   11.00
  -1  -1  -9  394.16   11.00
  -1  -1  -9  398.66   10.80
   1   1   9  409.36   11.00
   1   1   9  406.56   10.90
  -1   1  -9  402.16   10.70
   1   1   9  399.36   11.20
  -1   1  -9  413.76   10.90
  -1   1  -9  411.16   10.60
  -1   1  -9  397.56   11.10
   2  -1   9  628.64   16.80
  -2  -1  -9  608.84   16.60
  -2  -1  -9  605.74   16.60
   2  -1   9  624.24   16.70
   2  -1   9  638.44   16.10
  -2  -1  -9  622.14   16.20
   2  -1   9  650.73   16.20
  -2   1  -9  635.74   16.10
  -2   1  -9  620.64   16.50
   2   1   9  617.64   16.70
   2   1   9  629.84   16.30
  -2   1  -9  628.04   16.20
  -2   1  -9  621.04   16.70
   2   1   9  625.74   16.80
  -3  -1  -9   20.80    1.30
   3  -1   9   17.40    1.70
  -3  -1  -9   19.70    1.70
  -3  -1  -9   21.00    1.60
   3  -1   9   18.20    1.70
   3  -1   9   22.00    1.50
   3   1   9   18.70    1.70
  -3   1  -9   16.50    1.30
  -3   1  -9   21.30    1.80
  -3   1  -9   22.50    1.60
   3   1   9   19.00    1.70
   3   1   9   20.10    1.30
   3   1   9   19.00    1.10
   4  -1   9  136.19    4.70
   4  -1   9  136.39    4.80
  -4  -1  -9  130.49    4.00
  -4  -1  -9  138.99    4.70
   4  -1   9  137.19    4.60
  -4  -1  -9  129.89    4.70
  -4   1  -9  141.99    4.90
  -4   1  -9  136.09    4.60
   4   1   9  132.59    4.80
  -4   1  -9  129.29    4.20
   4   1   9  138.89    4.70
   5  -1   9  316.07    9.10
   5  -1   9  304.07    9.20
  -5  -1  -9  306.37    9.10
   5  -1   9  305.27    9.40
  -5  -1  -9  307.67    9.40
  -5   1  -9  315.37    9.20
   5   1   9  306.17    9.10
   5   1   9  307.97    9.20
  -5   1  -9  301.67    8.70
  -5   1  -9  307.17    9.40
   5   1   9  314.97    9.40
   6  -1   9   26.40    2.80
  -6  -1  -9   26.10    2.60
   6  -1   9   27.50    2.80
  -6  -1  -9   26.90    2.90
   6  -1   9   24.90    2.70
   6   1   9   31.20    2.80
   6   1   9   24.30    2.70
   6   1   9   25.40    2.60
  -6   1  -9   25.00    2.90
  -6   1  -9   26.70    2.50
   7  -1   9  108.69    5.10
  -7  -1  -9   95.79    4.90
   7  -1   9  109.09    5.20
  -7  -1  -9  114.49    5.30
  -7   1  -9  108.79    5.30
   7   1   9  108.89    5.00
   7   1   9  104.39    4.90
   7  -2  -9   -0.30    1.60
  -7  -2   9    0.40    1.30
  -7  -2   9    1.50    1.70
   7  -2  -9    0.00    1.30
  -7   2   9    0.30    1.40
   7   2  -9    0.10    1.50
   7   2  -9    0.70    1.60
   7   2  -9   -0.70    1.30
  -7   2   9   -0.60    1.70
   6  -2  -9   26.50    2.30
   6  -2  -9   30.30    2.90
  -6  -2   9   25.60    2.40
  -6  -2   9   24.90    2.90
   6   2  -9   26.90    2.60
   6   2  -9   26.10    2.20
   6   2  -9   27.80    2.60
  -6   2   9   24.60    2.80
  -6   2   9   24.90    2.40
   5  -2  -9    5.60    1.10
  -5  -2   9    6.80    1.80
   5  -2  -9    7.70    1.90
   5  -2  -9    7.20    1.20
  -5  -2   9    4.20    1.10
  -5  -2   9    5.60    1.50
   5   2  -9    5.20    1.10
  -5   2   9    3.40    1.10
  -5   2   9    2.60    0.70
   5   2  -9    1.90    1.10
  -5   2   9    7.10    1.90
   5   2  -9    2.80    1.20
  -4  -2   9   78.59    3.00
   4  -2  -9   76.59    3.10
   4  -2  -9   81.89    3.20
  -4  -2   9   79.69    3.40
   4  -2  -9   81.99    2.70
  -4  -2   9   85.59    3.20
   4  -2  -9   78.39    2.80
  -4   2   9   79.79    2.80
  -4   2   9   80.79    3.40
   4   2  -9   82.59    3.40
   4   2  -9   79.69    3.20
   4   2  -9   79.69    3.00
  -4   2   9   79.49    2.80
  -4   2   9   78.99    3.10
  -3  -2   9    2.10    0.90
  -3  -2   9    0.60    0.60
   3  -2  -9    1.70    0.70
   3  -2  -9    0.70    0.70
   3  -2  -9    1.50    0.60
  -3  -2   9    1.40    0.70
   3   2  -9    0.00    0.60
  -3   2   9    1.00    0.80
  -3   2   9    1.40    0.60
   3   2  -9    1.90    0.70
  -3   2   9    2.00    0.70
   3   2  -9    1.30    0.80
  -3   2   9    2.00    0.70
   2  -2  -9  965.20   25.40
   2  -2  -9  977.00   25.70
  -2  -2   9  984.70   25.90
   2  -2  -9  985.70   25.40
  -2  -2   9  993.40   25.80
   2  -2  -9  991.70   25.60
   2   2  -9 1011.30   25.60
   2   2  -9  994.90   25.40
  -2   2   9  951.50   25.40
  -2   2   9  993.90   25.90
  -2   2   9 1006.10   25.70
  -2   2   9 1010.40   25.40
   2   2  -9  989.40   25.90
   1  -2  -9    1.40    0.50
  -1  -2   9    1.60    0.50
   1  -2  -9    2.60    0.70
  -1  -2   9    1.20    0.50
   1  -2  -9    1.70    0.60
  -1  -2   9    0.80    0.60
   1  -2  -9    1.80    0.70
  -1  -2   9    0.20    0.60
   1   2  -9    1.70    0.50
  -1   2   9    1.50    0.40
  -1   2   9    1.40    0.60
   1   2  -9    1.60    0.50
  -1   2   9    1.00    0.60
   1   2  -9    1.20    0.60
   0  -2   9  851.91   21.70
   0  -2   9  853.91   21.80
   0  -2  -9  845.52   21.80
   0  -2  -9  826.92   21.90
   0  -2  -9  855.71   21.90
   0  -2   9  837.62   21.80
   0  -2   9  848.02   21.80
   0  -2   9  826.62   22.10
   0   2   9  835.22   22.10
   0   2   9  838.72   22.00
   0   2  -9  853.11   21.70
   0   2  -9  842.02   21.70
   0   2  -9  826.72   21.70
   0   2  -9  866.01   21.70
   0   2  -9  819.02   22.10
   1  -2   9    5.90    1.20
  -1  -2  -9    5.80    1.00
   1  -2   9    3.90    0.90
   1  -2   9    5.30    1.10
  -1  -2  -9    5.50    1.10
  -1  -2  -9    4.20    1.10
   1   2   9    4.10    1.00
   1   2   9    4.70    1.20
  -1   2  -9    7.30    0.90
  -1   2  -9    4.30    1.10
  -1   2  -9    6.00    0.90
   1   2   9    5.20    1.10
  -1   2  -9    5.60    1.00
   2  -2   9  316.37    8.50
   2  -2   9  309.97    8.90
  -2  -2  -9  307.67    8.80
   2  -2   9  319.17    8.90
  -2  -2  -9  323.57    8.90
  -2  -2  -9  306.07    8.70
  -2   2  -9  311.57    8.20
  -2   2  -9  300.67    8.90
   2   2   9  315.97    8.60
   2   2   9  313.57    8.90
  -2   2  -9  324.77    8.70
   2   2   9  313.67    9.00
  -2   2  -9  309.07    8.50
   3  -2   9   10.70    1.60
  -3  -2  -9    9.60    1.50
   3  -2   9    8.10    1.50
  -3  -2  -9   11.20    1.40
  -3  -2  -9   10.20    1.40
   3   2   9    9.00    1.50
   3   2   9    7.00    1.40
   3   2   9    7.80    1.20
  -3   2  -9    7.30    1.40
  -3   2  -9    9.20    1.20
   3   2   9   10.60    1.50
  -3   2  -9    9.20    1.50
   4  -2   9  243.18    7.10
   4  -2   9  245.98    7.20
   4  -2   9  215.98    7.20
  -4  -2  -9  215.08    7.00
  -4  -2  -9  231.38    7.20
  -4   2  -9  241.98    6.80
   4   2   9  242.58    6.50
   4   2   9  223.48    7.20
  -4   2  -9  215.88    7.20
   4   2   9  234.58    7.10
  -4   2  -9  247.28    7.10
   4   2   9  241.68    6.40
  -5  -2  -9    6.20    1.30
   5  -2   9    5.30    1.30
   5  -2   9    5.70    1.40
   5  -2   9    3.60    1.20
  -5  -2  -9    5.60    1.50
   5   2   9    5.00    1.20
  -5   2  -9    5.40    1.20
  -5   2  -9    5.60    1.30
  -5   2  -9    7.20    1.70
   5   2   9    4.00    1.30
   6  -2   9  151.28    5.40
   6  -2   9  139.99    5.60
   6  -2   9  147.39    5.50
  -6  -2  -9  148.99    5.50
  -6  -2  -9  142.59    5.80
   6   2   9  145.99    5.50
   6   2   9  153.78    5.50
   6   2   9  141.49    5.50
  -6   2  -9  146.69    5.20
  -6   2  -9  147.09    5.80
  -7  -3   9   46.40    3.50
   7  -3  -9   51.69    3.20
  -7  -3   9   48.60    3.30
   7  -3  -9   49.00    3.90
   7   3  -9   51.69    3.60
   7   3  -9   51.59    3.30
   7   3  -9   50.49    3.60
  -7   3   9   54.99    4.00
  -7   3   9   47.90    3.30
  -6  -3   9   50.19    3.40
   6  -3  -9   57.09    3.00
   6  -3  -9   57.29    3.40
  -6  -3   9   51.49    3.00
  -6   3   9   55.39    3.10
   6   3  -9   52.59    3.10
  -6   3   9   55.39    3.50
   6   3  -9   52.39    2.90
   6   3  -9   56.59    3.20
  -5  -3   9    6.80    1.60
   5  -3  -9    4.70    1.10
  -5  -3   9    5.50    1.50
   5  -3  -9   10.70    1.90
  -5  -3   9    6.10    1.30
   5  -3  -9    8.40    1.50
  -5   3   9    7.60    1.80
   5   3  -9    7.80    1.50
   5   3  -9    6.90    1.50
   5   3  -9    7.10    1.90
  -5   3   9    5.80    1.50
   4  -3  -9  253.97    7.00
  -4  -3   9  246.78    7.20
  -4  -3   9  247.68    7.70
   4  -3  -9  243.08    7.40
   4  -3  -9  249.38    7.30
  -4  -3   9  244.28    7.40
   4   3  -9  251.17    7.00
  -4   3   9  252.17    7.30
  -4   3   9  240.78    7.60
   4   3  -9  243.58    7.50
  -4   3   9  239.98    6.90
   4   3  -9  244.18    7.40
  -3  -3   9   63.39    2.80
   3  -3  -9   66.79    2.40
   3  -3  -9   64.49    2.70
  -3  -3   9   65.19    2.70
   3  -3  -9   67.59    2.60
  -3   3   9   61.19    2.90
  -3   3   9   64.59    2.50
   3   3  -9   66.49    2.90
  -3   3   9   66.79    2.50
   3   3  -9   67.69    2.70
   3   3  -9   65.29    2.30
   2  -3  -9   25.50    1.60
  -2  -3   9   24.10    1.70
  -2  -3   9   25.40    1.70
   2  -3  -9   24.60    1.40
   2  -3  -9   26.90    1.50
  -2  -3   9   25.90    1.40
   2  -3  -9   25.30    1.40
  -2   3   9   23.80    1.40
  -2   3   9   24.30    1.50
   2   3  -9   25.40    1.70
   2   3  -9   24.20    1.30
   2   3  -9   26.90    1.60
  -2   3   9   23.60    1.70
   1  -3  -9  710.63   19.10
  -1  -3   9  734.93   18.70
  -1  -3   9  725.43   19.10
  -1  -3   9  724.63   18.70
  -1  -3   9  723.23   19.30
   1  -3  -9  720.43   18.80
  -1  -3   9  731.33   18.70
   1  -3  -9  727.23   18.60
   1  -3  -9  719.53   19.00
  -1   3   9  731.53   19.20
   1   3  -9  730.73   19.30
  -1   3   9  715.53   19.30
  -1   3   9  730.73   18.60
   1   3  -9  729.03   18.70
  -1   3   9  725.13   18.80
   1   3  -9  728.63   18.70
   1   3  -9  728.13   19.00
   0  -3   9  111.69    3.50
   0  -3  -9  111.99    3.70
   0  -3   9  110.29    3.60
   0  -3  -9  112.19    3.50
   0  -3  -9  109.99    3.60
   0  -3   9  104.69    3.40
   0  -3   9  109.99    3.90
   0   3  -9  113.39    3.50
   0   3   9  107.09    3.50
   0   3   9  111.29    3.70
   0   3  -9  110.89    3.80
   0   3   9  113.79    3.80
   0   3  -9  111.99    3.40
  -1  -3  -9  230.68    6.60
  -1  -3  -9  227.88    6.40
   1  -3   9  226.68    6.60
   1  -3   9  217.98    6.30
   1  -3   9  230.18    6.80
  -1  -3  -9  232.38    6.70
   1   3   9  226.78    6.70
   1   3   9  230.58    6.80
  -1   3  -9  227.98    6.40
   1   3   9  227.48    6.60
  -1   3  -9  221.98    6.40
  -1   3  -9  223.78    6.80
  -1   3  -9  230.28    6.30
  -2  -3  -9  754.72   20.30
   2  -3   9  783.42   19.60
  -2  -3  -9  755.72   20.00
   2  -3   9  760.72   20.30
  -2  -3  -9  754.82   20.10
   2  -3   9  760.62   20.20
  -2   3  -9  772.22   19.90
   2   3   9  761.42   20.00
  -2   3  -9  764.62   20.30
  -2   3  -9  785.32   19.90
   2   3   9  753.32   20.30
   2   3   9  754.62   20.30
  -2   3  -9  756.52   19.60
  -3  -3  -9   25.10    1.80
  -3  -3  -9   21.10    1.80
   3  -3   9   26.90    2.00
  -3  -3  -9   25.40    2.00
   3  -3   9   26.00    1.70
   3  -3   9   22.30    2.00
  -3   3  -9   26.70    1.80
  -3   3  -9   26.40    1.70
  -3   3  -9   22.90    1.90
   3   3   9   24.30    1.90
   3   3   9   22.90    1.90
   3   3   9   23.40    1.60
   4  -3   9   83.59    3.50
   4  -3   9   81.89    3.70
   4  -3   9   79.99    3.40
  -4  -3  -9   75.09    3.40
  -4  -3  -9   76.79    3.40
  -4   3  -9   81.49    3.30
   4   3   9   80.49    3.00
  -4   3  -9   84.09    3.10
   4   3   9   78.99    3.40
   4   3   9   79.69    3.50
  -4   3  -9   79.79    3.60
  -5  -3  -9  192.88    6.60
   5  -3   9  195.58    6.50
   5  -3   9  207.08    6.50
   5  -3   9  195.88    6.70
  -5  -3  -9  192.98    6.50
   5   3   9  200.38    6.60
  -5   3  -9  196.68    6.30
   5   3   9  203.28    6.70
  -5   3  -9  207.18    6.50
  -5   3  -9  205.98    6.70
   6  -3   9    1.50    1.60
  -6  -3  -9    1.70    1.80
   6  -3   9    4.40    1.70
  -6  -3  -9    4.60    1.60
  -6   3  -9    5.70    1.60
   6   3   9    3.30    1.50
   6   3   9    5.80    1.60
  -6   3  -9    3.70    1.60
   6   3   9    3.90    1.40
  -7  -4   9  142.59    5.90
   7  -4  -9  150.18    5.80
   7  -4  -9  153.98    6.10
  -7  -4   9  159.38    6.40
  -7   4   9  155.38    5.80
   7   4  -9  145.59    6.10
   7   4  -9  150.28    6.10
  -7   4   9  149.69    6.30
   7   4  -9  150.88    5.50
  -6  -4   9    0.50    1.20
   6  -4  -9    0.90    1.30
   6  -4  -9   -1.10    1.40
   6  -4  -9    0.30    1.20
  -6  -4   9   -1.30    1.50
  -6  -4   9   -1.00    1.10
   6   4  -9   -0.30    1.20
  -6   4   9   -1.50    1.50
  -6   4   9   -1.70    1.20
   6   4  -9   -0.40    1.30
   6   4  -9   -1.10    1.20
   5  -4  -9  283.47    8.70
   5  -4  -9  295.37    8.50
  -5  -4   9  293.17    8.80
   5  -4  -9  300.77    8.30
  -5  -4   9  281.57    8.90
  -5  -4   9  290.87    8.50
   5   4  -9  289.97    8.80
  -5   4   9  276.27    9.00
   5   4  -9  298.37    8.20
   5   4  -9  294.57    9.00
  -5   4   9  278.47    8.60
   4  -4  -9   14.60    1.70
   4  -4  -9   10.00    1.70
   4  -4  -9   17.10    1.60
  -4  -4   9   14.30    1.80
  -4  -4   9   14.70    1.90
  -4   4   9   17.40    1.80
   4   4  -9   16.60    1.40
   4   4  -9   15.10    1.90
  -4   4   9   12.90    1.60
  -4   4   9   16.00    2.00
   4   4  -9   13.40    1.90
   3  -4  -9  252.77    7.50
  -3  -4   9  252.87    7.60
   3  -4  -9  259.77    7.20
  -3  -4   9  258.67    7.80
   3  -4  -9  262.17    7.30
  -3   4   9  257.77    7.30
   3   4  -9  256.07    7.00
   3   4  -9  260.07    7.60
  -3   4   9  245.88    7.70
  -3   4   9  252.07    7.30
   3   4  -9  249.97    7.60
  -2  -4   9   35.60    2.10
   2  -4  -9   35.00    1.80
   2  -4  -9   36.70    1.90
  -2  -4   9   37.60    2.20
  -2  -4   9   34.40    1.60
   2  -4  -9   38.10    2.00
   2  -4  -9   37.00    1.70
   2   4  -9   36.60    2.10
  -2   4   9   34.70    1.60
  -2   4   9   35.40    2.10
   2   4  -9   35.00    1.50
  -2   4   9   36.30    1.90
   2   4  -9   34.90    2.00
  -2   4   9   37.20    1.80
   1  -4  -9  208.08    6.20
  -1  -4   9  207.98    5.80
  -1  -4   9  213.28    6.40
   1  -4  -9  213.38    6.20
   1  -4  -9  206.18    5.70
   1  -4  -9  211.68    5.80
  -1  -4   9  207.78    6.30
  -1  -4   9  201.98    5.70
   1   4  -9  208.78    6.20
   1   4  -9  204.38    5.80
  -1   4   9  204.68    6.40
  -1   4   9  210.68    5.70
   1   4  -9  204.08    6.30
   1   4  -9  212.58    5.70
  -1   4   9  212.48    5.80
  -1   4   9  209.88    6.30
   0  -4   9    4.20    1.10
   0  -4   9    3.10    0.70
   0  -4   9    4.20    1.10
   0  -4  -9    3.40    0.80
   0  -4  -9    3.20    0.90
   0  -4   9    3.50    0.80
   0  -4  -9    4.50    1.20
   0   4  -9    4.60    1.30
   0   4   9    5.60    1.10
   0   4  -9    4.60    0.80
   0   4   9    5.90    1.30
   0   4  -9    3.30    0.60
   0   4   9    3.40    0.90
   1  -4   9  189.18    5.50
  -1  -4  -9  190.38    5.40
  -1  -4  -9  190.08    5.80
   1  -4   9  188.88    5.70
  -1  -4  -9  192.48    5.80
   1  -4   9  192.08    6.00
   1   4   9  185.38    5.80
  -1   4  -9  189.58    5.60
  -1   4  -9  195.88    5.90
   1   4   9  184.78    5.90
   1   4   9  182.28    5.40
  -1   4  -9  192.28    5.40
  -2  -4  -9    2.00    0.70
   2  -4   9    2.40    1.00
   2  -4   9    2.80    0.60
  -2  -4  -9    3.40    0.90
   2  -4   9    2.50    0.90
  -2  -4  -9    3.20    0.90
   2  -4   9    3.00    0.80
   2   4   9    2.20    0.90
  -2   4  -9    1.30    0.80
  -2   4  -9    3.30    0.90
  -2   4  -9    2.90    0.80
   2   4   9    2.40    0.90
  -2   4  -9    2.90    0.80
  -2   4  -9    2.40    0.90
   2   4   9    2.60    0.80
   3  -4   9  965.30   25.00
  -3  -4  -9  929.81   25.00
   3  -4   9  933.51   25.00
  -3  -4  -9  928.21   24.60
   3  -4   9  982.50   24.60
  -3  -4  -9  909.91   24.80
   3   4   9  934.31   25.00
  -3   4  -9  956.10   24.70
  -3   4  -9  973.00   24.60
  -3   4  -9  937.41   25.00
   3   4   9  921.01   25.00
   3   4   9  934.81   24.60
  -4  -4  -9    2.10    1.00
  -4  -4  -9    2.70    1.20
   4  -4   9    3.30    1.40
   4  -4   9    4.80    1.20
   4  -4   9    1.80    1.10
  -4   4  -9    2.10    1.10
   4   4   9    3.60    1.20
   4   4   9    1.50    1.00
  -4   4  -9    3.30    1.10
  -4   4  -9    2.90    1.20
   4   4   9    4.20    1.30
   5  -4   9   92.09    4.30
  -5  -4  -9   89.59    4.00
  -5  -4  -9   88.69    3.90
   5  -4   9   94.89    4.00
   5  -4   9   91.79    4.10
  -5   4  -9   92.89    4.10
  -5   4  -9   83.39    3.80
   5   4   9   88.59    4.00
   5   4   9   84.49    4.00
   6  -4   9    8.60    2.00
  -6  -4  -9    6.20    1.90
   6  -4   9    6.40    1.90
  -6  -4  -9    6.90    1.70
  -6   4  -9    5.40    1.80
  -6   4  -9   11.00    2.70
   6   4   9   10.50    2.50
   6   4   9    8.50    1.80
   6   4   9    7.20    1.60
   7  -5  -9   32.00    3.70
   7  -5  -9   39.10    3.40
  -7  -5   9   30.50    3.80
  -7   5   9   29.40    3.90
   7   5  -9   29.40    3.40
   7   5  -9   32.30    3.40
  -7   5   9   33.90    3.40
  -6  -5   9   69.69    4.10
   6  -5  -9   72.79    3.80
   6  -5  -9   76.59    3.60
  -6  -5   9   73.69    3.60
   6  -5  -9   72.09    3.80
   6   5  -9   66.79    3.80
   6   5  -9   66.19    3.80
  -6   5   9   68.89    3.70
  -6   5   9   70.59    4.10
   5  -5  -9    1.00    1.10
   5  -5  -9   -0.10    1.10
  -5  -5   9    1.10    1.20
  -5  -5   9    2.40    1.30
   5  -5  -9    2.30    1.10
   5   5  -9   -0.20    1.20
  -5   5   9   -1.20    1.40
  -5   5   9    1.70    1.20
   5   5  -9    2.30    1.30
  -4  -5   9  236.38    7.30
   4  -5  -9  229.18    6.80
   4  -5  -9  233.08    7.20
   4  -5  -9  242.48    7.10
  -4  -5   9  234.38    7.50
  -4   5   9  225.78    6.70
   4   5  -9  238.78    6.50
  -4   5   9  237.98    7.10
   4   5  -9  233.58    7.30
   4   5  -9  228.88    7.30
  -4   5   9  230.88    7.50
   3  -5  -9   36.30    2.30
  -3  -5   9   38.50    2.40
   3  -5  -9   36.30    1.90
  -3  -5   9   35.10    2.40
   3  -5  -9   36.90    2.10
   3   5  -9   38.70    1.70
   3   5  -9   39.00    2.40
  -3   5   9   37.40    2.20
  -3   5   9   37.00    2.00
   3   5  -9   36.10    2.30
  -3   5   9   37.40    2.40
  -2  -5   9   25.10    1.20
  -2  -5   9   24.90    2.00
   2  -5  -9   26.90    1.80
  -2  -5   9   24.70    2.10
   2  -5  -9   26.80    1.90
   2  -5  -9   25.80    1.40
  -2   5   9   28.70    1.80
  -2   5   9   27.30    1.60
   2   5  -9   27.50    2.00
  -2   5   9   23.40    2.00
   2   5  -9   23.90    1.90
   1  -5  -9  501.05   13.30
   1  -5  -9  489.15   12.80
   1  -5  -9  452.45   12.70
  -1  -5   9  481.85   12.90
  -1  -5   9  489.35   13.50
   1  -5  -9  500.25   13.30
  -1  -5   9  496.25   13.40
   1  -5  -9  480.45   12.70
  -1   5   9  446.56   12.70
   1   5  -9  501.65   12.60
  -1   5   9  502.95   12.70
   1   5  -9  496.05   13.40
  -1   5   9  484.45   13.50
  -1   5   9  499.95   13.40
   1   5  -9  492.65   13.30
   0  -5  -9   10.70    0.90
   0  -5  -9    9.80    1.50
   0  -5   9   12.70    1.60
   0  -5   9   10.50    1.40
   0  -5   9   11.00    1.10
   0  -5  -9   11.90    1.40
   0  -5   9   12.80    1.40
   0   5   9   11.20    0.90
   0   5  -9   10.70    1.50
   0   5  -9   10.10    1.00
   0   5   9   13.20    1.50
   0   5   9    8.90    1.10
   0   5  -9    9.10    1.50
   0   5   9   10.70    1.60
   1  -5   9   16.30    1.80
  -1  -5  -9   17.10    1.70
   1  -5   9   15.30    1.90
   1  -5   9   17.60    1.40
  -1  -5  -9   18.20    1.20
  -1  -5  -9   17.00    1.60
   1  -5   9   16.10    1.30
   1  -5   9   18.00    1.70
  -1   5  -9   15.30    1.60
  -1   5  -9   20.60    1.30
   1   5   9   17.90    1.80
   1   5   9   18.50    1.70
  -1   5  -9   17.10    1.50
  -1   5  -9   18.70    1.80
  -2  -5  -9  736.63   19.50
   2  -5   9  726.43   19.10
  -2  -5  -9  698.03   19.10
   2  -5   9  724.53   19.60
  -2  -5  -9  740.23   19.70
   2  -5   9  742.13   19.70
  -2   5  -9  747.33   19.50
  -2   5  -9  736.23   19.70
   2   5   9  730.23   19.80
  -2   5  -9  724.23   19.00
   2   5   9  736.63   19.60
  -2   5  -9  745.63   19.10
  -3  -5  -9   19.70    1.80
  -3  -5  -9   17.30    1.90
  -3  -5  -9   16.80    2.00
   3  -5   9   20.60    2.30
   3  -5   9   26.70    2.30
   3  -5   9   21.80    1.80
   3   5   9   20.70    1.90
  -3   5  -9   18.10    2.00
   3   5   9   21.60    2.10
  -3   5  -9   24.60    2.10
   3   5   9   21.40    2.10
  -4  -5  -9  155.98    5.30
   4  -5   9  163.88    5.90
   4  -5   9  166.08    5.30
   4  -5   9  166.28    5.60
  -4  -5  -9  153.28    5.60
  -4  -5  -9  158.58    5.60
   4   5   9  157.78    5.30
  -4   5  -9  154.58    5.50
  -4   5  -9  169.78    5.80
   4   5   9  157.08    5.60
   4   5   9  159.18    5.70
  -5  -5  -9   68.79    3.70
  -5  -5  -9   69.59    3.60
   5  -5   9   70.49    4.00
   5  -5   9   78.79    3.80
   5  -5   9   74.19    3.70
  -5   5  -9   69.89    3.80
   5   5   9   75.69    3.80
  -5   5  -9   73.29    3.80
   5   5   9   69.29    3.70
   6  -5   9    9.30    2.20
  -6  -5  -9    8.80    1.90
  -6  -5  -9    8.90    2.10
   6  -5   9    7.50    2.10
   6   5   9   13.30    2.60
   6   5   9    8.70    1.80
  -6   5  -9   10.20    1.80
   6   5   9    7.10    1.80
  -6   5  -9    6.90    2.00
   6  -6  -9   49.40    3.50
   6  -6  -9   44.40    3.40
  -6  -6   9   41.30    3.40
  -6  -6   9   44.80    3.80
   6   6  -9   38.80    3.30
   6   6  -9   49.60    3.60
  -6   6   9   49.10    3.80
  -6   6   9   46.60    3.40
   5  -6  -9   18.10    2.50
  -5  -6   9   22.50    2.80
   5  -6  -9   23.60    2.70
  -5  -6   9   20.90    2.80
  -5   6   9   21.90    2.50
  -5   6   9   25.30    2.80
   5   6  -9   18.30    2.50
   5   6  -9   17.80    2.50
  -4  -6   9   38.30    2.90
   4  -6  -9   42.30    2.70
  -4  -6   9   35.80    2.80
   4  -6  -9   39.00    2.80
  -4   6   9   35.60    2.60
  -4   6   9   35.80    2.50
  -4   6   9   39.90    2.90
   4   6  -9   35.00    2.60
   4   6  -9   34.00    2.60
   3  -6  -9   32.70    2.30
   3  -6  -9   29.70    2.30
  -3  -6   9   26.10    2.30
  -3  -6   9   24.50    2.40
   3   6  -9   22.30    2.10
   3   6  -9   25.90    2.30
  -3   6   9   29.90    2.00
  -3   6   9   26.80    2.00
  -3   6   9   28.70    2.40
   2  -6  -9 1054.79   27.70
   2  -6  -9 1080.49   27.70
  -2  -6   9 1085.19   27.90
  -2  -6   9 1058.69   28.00
  -2  -6   9 1022.20   27.00
  -2   6   9 1055.69   27.30
   2   6  -9 1072.99   27.90
  -2   6   9  966.90   27.90
  -2   6   9 1086.79   27.70
   2   6  -9 1069.29   27.80
  -1  -6   9    8.30    1.80
  -1  -6   9    5.80    1.40
  -1  -6   9    4.90    1.10
   1  -6  -9    6.60    1.70
   1  -6  -9    5.00    1.10
  -1   6   9    8.60    1.80
  -1   6   9    5.90    1.20
  -1   6   9    5.60    1.10
   1   6  -9    7.00    1.60
   1   6  -9    5.70    1.10
   0  -6  -9  550.84   15.10
   0  -6   9  547.95   14.90
   0  -6  -9  562.94   14.90
   0  -6   9  550.54   14.80
   0  -6   9  550.34   15.30
   0   6   9  534.35   15.20
   0   6  -9  552.44   15.10
   0   6  -9  556.34   15.00
   0   6   9  556.94   15.20
   0   6   9  547.15   14.30
   1  -6   9   42.90    2.40
   1  -6   9   39.60    2.50
  -1  -6  -9   39.40    2.30
  -1  -6  -9   39.70    2.40
   1  -6   9   42.10    1.80
   1  -6   9   40.60    2.10
   1   6   9   38.40    2.50
  -1   6  -9   41.30    2.20
  -1   6  -9   41.80    2.40
  -1   6  -9   41.70    2.40
   1   6   9   40.60    2.40
  -2  -6  -9   60.79    3.00
   2  -6   9   58.09    3.00
   2  -6   9   59.39    3.10
  -2  -6  -9   59.59    3.00
   2  -6   9   57.69    2.50
  -2   6  -9   59.89    2.50
  -2   6  -9   61.19    3.00
  -2   6  -9   62.69    3.00
   2   6   9   59.89    3.00
   2   6   9   65.09    3.20
  -3  -6  -9   25.60    2.40
  -3  -6  -9   26.30    2.30
   3  -6   9   21.00    2.70
   3  -6   9   24.50    2.00
   3  -6   9   27.30    2.40
  -3   6  -9   30.70    2.40
   3   6   9   23.60    2.30
  -3   6  -9   24.10    2.40
   3   6   9   27.80    2.50
   3   6   9   28.90    2.40
   4  -6   9  223.58    7.20
   4  -6   9  221.08    7.30
   4  -6   9  210.78    6.70
  -4  -6  -9  212.78    7.10
  -4  -6  -9  208.78    7.20
   4   6   9  212.78    7.00
   4   6   9  218.58    7.30
   4   6   9  218.28    7.20
  -4   6  -9  227.28    7.30
  -4   6  -9  222.68    7.20
   5  -6   9    2.20    1.90
   5  -6   9    4.60    1.60
  -5  -6  -9    3.70    1.70
   5  -6   9    4.30    1.70
   5   6   9    6.20    1.60
  -5   6  -9    5.90    1.90
   5   6   9    4.90    1.50
  -5   6  -9    5.20    1.60
  -5  -7   9    4.10    1.60
   5  -7  -9    2.50    1.50
   5  -7  -9    5.30    1.60
  -5  -7   9    6.60    1.80
   5   7  -9    5.60    1.80
  -5   7   9    5.10    1.70
   5   7  -9    5.80    1.60
  -5   7   9    4.10    1.60
  -4  -7   9    2.40    1.50
  -4  -7   9    1.00    1.30
   4  -7  -9    2.40    1.30
   4  -7  -9    3.10    1.40
  -4   7   9    1.60    1.40
   4   7  -9    2.30    1.50
  -4   7   9    2.60    1.40
   4   7  -9    1.90    1.20
   3  -7  -9  192.78    6.40
  -3  -7   9  200.98    6.80
   3  -7  -9  204.28    6.50
  -3  -7   9  198.58    6.70
  -3   7   9  192.28    6.20
  -3   7   9  199.08    6.20
   3   7  -9  196.28    6.50
  -3   7   9  197.18    6.80
   3   7  -9  194.48    6.60
   2  -7  -9   22.80    2.30
   2  -7  -9   21.90    2.10
  -2  -7   9   22.60    2.40
  -2  -7   9   25.00    2.20
  -2  -7   9   15.70    1.80
   2   7  -9   22.50    2.20
   2   7  -9   27.70    2.40
  -2   7   9   23.40    2.30
  -2   7   9   22.40    1.90
  -2   7   9   23.90    2.20
  -1  -7   9  524.55   14.80
  -1  -7   9  539.05   14.60
   1  -7  -9  532.85   14.40
  -1  -7   9  507.35   14.10
   1  -7  -9  525.85   14.60
   1   7  -9  536.85   14.60
   1   7  -9  531.15   14.60
  -1   7   9  526.45   14.00
  -1   7   9  518.95   14.80
  -1   7   9  522.75   14.60
   1   7  -9  513.05   14.60
   0  -7   9   10.30    2.10
   0  -7  -9    8.70    1.90
   0  -7   9    9.80    1.60
   0  -7   9    7.70    1.70
   0  -7  -9    7.10    1.30
   0   7   9    9.20    2.10
   0   7   9    8.00    1.30
   0   7  -9    6.90    1.50
   0   7  -9    9.30    1.70
   0   7  -9    7.60    1.30
   0   7   9    6.90    1.80
   1  -7   9  196.58    6.30
   1  -7   9  206.88    6.10
  -1  -7  -9  194.28    6.40
  -1  -7  -9  200.28    6.30
   1  -7   9  197.88    6.60
   1   7   9  193.48    6.50
  -1   7  -9  201.48    6.10
  -1   7  -9  188.18    6.30
   1   7   9  202.68    6.70
  -1   7  -9  198.08    6.50
  -2  -7  -9   55.09    3.00
   2  -7   9   54.89    3.10
   2  -7   9   50.59    3.20
  -2  -7  -9   50.19    2.90
  -2   7  -9   50.19    2.70
  -2   7  -9   54.19    2.90
   2   7   9   52.59    3.00
  -2   7  -9   53.29    3.10
   2   7   9   51.29    2.90
  -3  -7  -9    3.90    1.40
   3  -7   9    3.30    1.60
   3  -7   9    8.40    2.20
  -3  -7  -9    3.70    1.40
   3   7   9    5.30    1.30
   3   7   9    6.00    1.50
  -3   7  -9    4.30    1.30
   3   7   9    2.60    1.40
  -3   7  -9    6.50    1.60
  -4  -7  -9   24.20    2.90
  -4  -7  -9   26.90    3.00
   4  -7   9   28.00    3.10
   4  -7   9   28.20    3.00
  -4   7  -9   26.20    2.80
   4   7   9   26.40    2.60
   4   7   9   24.20    2.70
   4   7   9   28.60    3.10
  -4   7  -9   35.00    3.30
   5  -7   9  149.39    6.40
  -5  -7  -9  150.78    5.90
  -5  -7  -9  140.79    6.10
  -5   7  -9  153.48    6.10
   5   7   9  145.29    5.90
  -5   7  -9  158.48    6.10
   5   7   9  155.98    6.00
   5  -8  -9  135.79    5.60
  -5  -8   9  135.19    6.00
   5  -8  -9  133.99    5.60
  -5  -8   9  140.49    5.90
   5   8  -9  130.79    5.80
   5   8  -9  139.39    5.70
  -5   8   9  142.69    6.00
  -5   8   9  136.79    5.60
   4  -8  -9    9.10    1.80
  -4  -8   9   11.00    2.90
  -4  -8   9   12.20    2.60
   4  -8  -9    9.90    1.90
   4   8  -9   10.60    2.60
  -4   8   9    8.90    1.90
  -4   8   9    9.20    1.90
   4   8  -9   17.30    2.70
   3  -8  -9   44.80    3.20
   3  -8  -9   50.79    3.00
  -3  -8   9   45.20    3.20
  -3  -8   9   44.20    3.20
   3   8  -9   42.90    3.10
   3   8  -9   45.50    3.10
   3   8  -9   47.70    3.30
  -3   8   9   40.70    2.80
  -3   8   9   49.10    3.00
  -3   8   9   41.50    3.30
   2  -8  -9   51.99    3.00
   2  -8  -9   51.99    3.10
  -2  -8   9   49.30    3.20
  -2  -8   9   51.89    3.10
   2   8  -9   50.49    3.10
   2   8  -9   57.79    3.20
  -2   8   9   50.89    2.70
  -2   8   9   53.19    3.30
   2   8  -9   50.39    3.40
  -2   8   9   54.49    3.20
  -1  -8   9    8.90    2.10
   1  -8  -9   11.40    2.10
  -1  -8   9   11.90    1.80
  -1  -8   9    7.70    2.00
   1  -8  -9    8.90    1.60
  -1   8   9   10.10    2.50
   1   8  -9    8.50    2.20
  -1   8   9   11.40    1.60
  -1   8   9    5.20    1.30
   1   8  -9    9.80    2.40
   1   8  -9    9.00    2.20
   0  -8   9    7.70    1.90
   0  -8   9   10.70    2.20
   0  -8  -9    7.00    1.50
   0  -8  -9   10.60    2.00
   0  -8   9    7.90    1.40
   0   8   9   11.10    2.10
   0   8  -9    7.70    2.10
   0   8  -9    9.00    2.20
   0   8   9   10.00    2.50
   0   8  -9   13.60    2.20
   1  -8   9  141.99    5.10
  -1  -8  -9  135.89    5.10
  -1  -8  -9  134.19    4.90
   1  -8   9  134.19    5.20
   1   8   9  142.19    5.40
  -1   8  -9  142.89    5.20
   1   8   9  132.99    5.20
  -1   8  -9  132.99    4.80
  -1   8  -9  138.29    5.10
  -2  -8  -9    1.50    1.30
  -2  -8  -9   -0.60    1.40
   2  -8   9    3.20    1.70
   2  -8   9    0.30    1.10
  -2   8  -9    1.90    1.30
   2   8   9    2.50    1.30
   2   8   9    0.30    1.30
  -2   8  -9    0.70    1.40
   3  -8   9  213.38    7.40
   3  -8   9  208.58    7.20
  -3  -8  -9  211.88    7.30
  -3  -8  -9  213.98    6.90
  -3   8  -9  216.58    7.20
  -3   8  -9  213.58    7.20
   3   8   9  207.68    7.20
   3   8   9  198.78    7.30
  -4  -8  -9    3.70    1.90
   4  -8   9    5.50    1.80
  -4  -8  -9    4.10    1.90
   4  -8   9    5.30    2.00
   4   8   9    4.90    1.60
  -4   8  -9    6.60    1.80
   4   8   9    6.70    2.00
  -4   8  -9    6.50    2.00
   4   8   9    4.80    1.70
   4  -9  -9  162.58    6.20
   4  -9  -9  170.48    6.40
  -4  -9   9  166.98    6.50
  -4  -9   9  157.58    6.40
   4   9  -9  159.38    6.70
   4   9  -9  160.78    6.30
  -4   9   9  162.58    6.70
  -4   9   9  167.88    6.20
   4   9  -9  164.98    6.50
  -3  -9   9    1.70    1.50
   3  -9  -9    1.10    1.80
  -3  -9   9   -0.30    1.50
  -3   9   9    0.40    1.50
  -3   9   9    1.30    1.60
   3   9  -9    0.80    1.60
   3   9  -9    1.70    1.70
  -3   9   9   -1.20    1.80
   3   9  -9    1.10    1.70
  -2  -9   9   16.10    2.90
   2  -9  -9   14.70    2.40
  -2  -9   9   12.90    2.50
   2  -9  -9   11.50    2.70
   2   9  -9    9.70    2.50
  -2   9   9    8.70    1.90
   2   9  -9   11.70    2.80
   2   9  -9    9.50    1.80
  -2   9   9   11.20    2.90
  -1  -9   9   39.40    2.90
  -1  -9   9   34.60    3.00
   1  -9  -9   45.10    3.10
   1  -9  -9   37.20    2.80
  -1   9   9   37.40    3.30
   1   9  -9   38.70    3.30
   1   9  -9   40.20    3.10
   1   9  -9   40.90    3.20
  -1   9   9   37.70    3.10
   0  -9  -9   40.40    3.00
   0  -9  -9   37.30    2.90
   0  -9   9   45.40    2.90
   0  -9   9   37.30    2.90
   0   9   9   42.80    3.00
   0   9  -9   34.10    3.00
   0   9  -9   40.20    3.20
   0   9  -9   42.50    3.20
   0   9   9   38.20    3.20
   1  -9   9    0.50    1.30
   1  -9   9    2.70    1.70
  -1  -9  -9    2.60    1.40
  -1  -9  -9    2.90    1.50
   1   9   9    4.40    1.60
   1   9   9    2.10    1.50
  -1   9  -9    3.90    1.60
  -1   9  -9    3.30    1.50
  -1   9  -9    1.60    1.50
  -2  -9  -9  389.66   11.60
   2  -9   9  402.76   12.10
  -2  -9  -9  392.06   12.00
   2  -9   9  410.16   12.10
   2   9   9  407.16   12.30
   2   9   9  403.96   12.10
  -2   9  -9  409.76   11.90
  -2   9  -9  395.56   12.00
   3  -9   9   32.30    3.50
  -3  -9  -9   39.60    3.60
  -3  -9  -9   33.40    3.20
   3  -9   9   31.10    3.60
  -3   9  -9   32.40    3.60
   3   9   9   32.20    3.50
  -3   9  -9   33.60    3.40
   3   9   9   29.70    3.30
  -2 -10   9   84.89    4.40
  -2 -10   9   77.19    4.60
   2 -10  -9   75.99    4.20
   2 -10  -9   84.09    4.30
  -2  10   9   75.89    4.60
   2  10  -9   73.79    4.40
   2  10  -9   76.79    4.40
   2  10  -9   81.79    4.70
  -2  10   9   73.99    4.60
   1 -10  -9    5.10    1.80
   1 -10  -9    4.10    1.70
  -1 -10   9    3.10    1.70
   1  10  -9    0.10    1.80
   1  10  -9   -0.20    1.60
  -1  10   9    1.90    1.80
  -1  10   9   -0.60    1.90
   1  10  -9    3.60    2.00
   0 -10   9  158.38    6.30
   0 -10  -9  160.48    5.70
   0 -10   9  159.38    5.90
   0 -10  -9  156.68    6.20
   0  10   9  165.98    6.40
   0  10  -9  162.18    6.20
   0  10   9  153.08    6.30
   0  10  -9  156.78    6.20
   0  10  -9  158.38    5.90
   1 -10   9   37.00    3.40
   1 -10   9   38.70    3.60
  -1 -10  -9   32.70    3.40
  -1 -10  -9   31.60    3.40
  -1  10  -9   44.10    3.50
  -1  10  -9   40.50    3.60
   1  10   9   35.20    3.80
   1  10   9   31.50    3.20
   7   0 -10   -1.00    1.40
  -7   0  10    1.50    1.70
   7   0 -10    2.20    1.40
  -7   0  10   -0.60    1.40
   6   0 -10    0.20    1.00
  -6   0  10    1.30    1.30
   6   0 -10   -2.60    1.30
  -6   0  10   -1.00    1.40
   5   0 -10    0.80    1.00
  -5   0  10   -0.40    0.80
  -5   0  10    0.30    1.00
  -5   0  10   -0.10    1.10
   5   0 -10    1.80    1.00
  -4   0  10  848.82   22.50
   4   0 -10  830.12   22.10
  -4   0  10  837.92   22.10
  -4   0  10  841.02   21.90
   4   0 -10  833.52   22.30
  -3   0  10    1.00    0.60
   3   0 -10   -0.10    0.70
  -3   0  10    0.20    0.80
  -3   0  10    0.00    0.60
   3   0 -10    0.00    0.70
  -2   0  10  435.86   11.10
   2   0 -10  423.36   11.50
  -2   0  10  429.06   11.30
  -2   0  10  416.66   11.70
  -2   0  10  418.66   11.10
   2   0 -10  427.16   11.30
   2   0 -10  424.36   11.60
  -2   0  10  417.26   11.60
  -1   0  10    0.20    0.60
   1   0 -10    0.40    0.70
  -1   0  10   -0.20    0.60
  -1   0  10    0.30    0.50
   1   0 -10   -0.20    0.50
  -1   0  10    0.70    0.70
   1   0 -10    0.20    0.60
   1   0 -10    0.50    0.40
   0   0  10  789.02   20.70
   0   0 -10  799.22   20.80
   0   0  10  794.72   21.00
   0   0 -10  778.22   20.90
   0   0  10  789.52   20.80
   0   0 -10  812.82   20.30
   0   0 -10  811.02   20.30
   1   0  10    0.30    0.60
  -1   0 -10   -0.60    0.60
   1   0  10    0.90    0.60
   1   0  10    0.60    0.60
  -1   0 -10    2.70    0.70
  -1   0 -10   -0.10    0.60
  -2   0 -10   67.59    2.90
   2   0  10   70.19    2.90
   2   0  10   72.59    2.90
   2   0  10   71.89    2.40
  -2   0 -10   70.69    2.70
  -2   0 -10   71.39    2.40
  -3   0 -10   -0.50    0.70
  -3   0 -10    0.00    0.90
   3   0  10   -1.00    0.70
  -3   0 -10   -1.00    0.50
   3   0  10    0.40    0.90
  -4   0 -10  412.26   11.70
   4   0  10  425.86   12.00
  -4   0 -10  382.26   11.80
   4   0  10  436.86   11.80
  -4   0 -10  428.96   11.10
  -5   0 -10    1.20    1.10
  -5   0 -10   -0.60    1.30
   5   0  10    0.80    1.20
   5   0  10    1.30    1.20
   5   0  10   -0.80    1.10
  -6   0 -10  346.27   10.80
   6   0  10  345.87   10.80
  -6   0 -10  346.77   10.50
   6   0  10  349.67   10.40
   6   0  10  352.76   10.60
  -7  -1  10    4.60    1.80
   7  -1 -10    3.70    1.70
  -7  -1  10    4.50    1.50
   7  -1 -10    5.60    1.50
   7   1 -10    3.30    1.80
   7   1 -10   10.00    2.40
  -7   1  10    3.10    1.50
  -7   1  10    4.10    1.90
  -6  -1  10   67.99    3.40
  -6  -1  10   64.19    3.70
   6  -1 -10   67.49    3.70
   6  -1 -10   69.09    3.30
   6   1 -10   64.99    3.20
  -6   1  10   62.29    3.70
   6   1 -10   64.69    3.60
  -6   1  10   69.89    3.40
   5  -1 -10   39.50    2.40
   5  -1 -10   42.30    2.80
  -5  -1  10   43.10    2.50
  -5  -1  10   35.60    2.20
  -5  -1  10   42.00    2.80
  -5   1  10   41.40    2.00
   5   1 -10   41.40    2.80
  -5   1  10   42.00    2.50
  -5   1  10   43.30    2.90
   5   1 -10   42.80    2.40
   4  -1 -10  187.58    5.90
  -4  -1  10  183.58    5.60
   4  -1 -10  185.48    5.70
  -4  -1  10  186.28    6.10
   4  -1 -10  188.48    5.10
  -4  -1  10  180.58    5.70
   4   1 -10  183.18    5.60
  -4   1  10  178.28    5.50
  -4   1  10  178.18    6.10
  -4   1  10  191.38    5.70
   4   1 -10  179.28    6.00
   4   1 -10  188.88    5.80
   3  -1 -10  254.77    6.80
  -3  -1  10  257.47    7.30
  -3  -1  10  258.07    7.60
   3  -1 -10  251.67    7.40
  -3  -1  10  252.97    7.30
   3  -1 -10  243.48    7.30
   3   1 -10  254.47    7.20
  -3   1  10  249.38    7.10
  -3   1  10  253.07    7.20
   3   1 -10  249.78    7.20
   3   1 -10  259.17    7.50
  -3   1  10  253.57    7.60
  -3   1  10  245.48    6.80
   2  -1 -10    8.60    0.90
  -2  -1  10    8.70    0.80
   2  -1 -10    7.90    1.20
  -2  -1  10    8.30    1.40
  -2  -1  10    6.90    1.40
  -2  -1  10    8.50    0.80
   2  -1 -10    8.20    1.30
   2  -1 -10    8.10    1.10
  -2   1  10   10.40    1.10
   2   1 -10   10.50    1.10
  -2   1  10    9.00    1.20
   2   1 -10    8.80    1.10
  -2   1  10    9.00    1.00
  -2   1  10    7.80    1.30
   2   1 -10    8.90    1.30
   1  -1 -10  621.74   16.30
   1  -1 -10  614.74   16.00
  -1  -1  10  622.94   16.70
   1  -1 -10  643.34   16.00
   1  -1 -10  620.14   16.50
   1  -1 -10  624.34   16.50
  -1  -1  10  608.84   16.10
  -1  -1  10  614.34   16.60
  -1  -1  10  635.44   16.20
  -1   1  10  617.74   16.60
   1   1 -10  611.84   16.20
   1   1 -10  638.14   16.70
   1   1 -10  628.44   16.20
  -1   1  10  620.34   16.30
   1   1 -10  622.54   16.40
  -1   1  10  614.44   16.60
  -1   1  10  640.04   16.00
   0  -1  10  143.89    4.30
   0  -1 -10  141.79    4.50
   0  -1  10  137.59    4.60
   0  -1 -10  145.59    4.50
   0  -1  10  137.19    4.40
   0  -1 -10  143.99    4.40
   0   1 -10  143.39    4.10
   0   1 -10  145.59    4.40
   0   1  10  144.39    4.60
   0   1  10  141.39    4.50
   0   1 -10  142.89    4.60
   0   1 -10  148.09    4.10
   0   1  10  146.39    4.40
   1  -1  10   82.39    2.60
  -1  -1 -10   83.29    3.00
   1  -1  10   81.89    2.80
   1  -1  10   86.59    3.00
  -1  -1 -10   82.59    3.00
   1  -1  10   80.79    3.20
   1   1  10   82.89    3.10
  -1   1 -10   86.59    2.60
  -1   1 -10   81.59    3.10
  -1   1 -10   83.89    2.90
   1   1  10   84.69    2.90
   1   1  10   80.89    3.20
  -1   1 -10   82.39    2.60
  -1   1 -10   82.59    2.80
  -2  -1 -10  343.87    9.50
   2  -1  10  344.57    8.90
   2  -1  10  339.97    8.90
  -2  -1 -10  324.27    9.10
  -2  -1 -10  336.37    9.50
   2  -1  10  335.07    9.50
   2  -1  10  342.57    9.60
  -2   1 -10  333.97    8.90
   2   1  10  336.27    9.10
  -2   1 -10  334.27    8.90
   2   1  10  331.67    9.60
  -2   1 -10  334.87    9.60
  -2   1 -10  338.07    9.40
   2   1  10  343.17    9.60
   3  -1  10  247.48    7.40
  -3  -1 -10  248.08    7.40
   3  -1  10  247.88    7.50
  -3  -1 -10  247.48    7.30
  -3   1 -10  253.17    7.30
  -3   1 -10  240.98    6.80
   3   1  10  247.38    6.70
   3   1  10  248.38    7.50
  -3   1 -10  247.58    7.50
   3   1  10  239.18    7.40
  -4  -1 -10  195.08    6.50
  -4  -1 -10  199.08    6.30
   4  -1  10  205.08    6.40
   4  -1  10  201.18    6.60
   4   1  10  200.48    6.50
  -4   1 -10  195.38    5.80
   4   1  10  205.68    6.40
  -4   1 -10  188.88    6.20
  -4   1 -10  203.08    6.60
  -5  -1 -10  211.78    7.20
   5  -1  10  221.88    7.10
   5  -1  10  216.48    7.10
   5  -1  10  219.28    7.20
  -5  -1 -10  216.08    6.90
  -5   1 -10  215.28    7.30
   5   1  10  218.48    7.00
   5   1  10  221.18    7.00
  -5   1 -10  223.18    7.00
   5   1  10  224.08    7.20
  -6  -1 -10    0.10    1.30
   6  -1  10    0.30    1.50
   6  -1  10   -1.00    1.50
   6  -1  10    1.00    1.40
  -6  -1 -10    2.20    1.50
  -6   1 -10   -0.30    1.30
   6   1  10    0.90    1.50
  -6   1 -10    1.10    1.60
   6   1  10    0.30    1.50
   6   1  10   -3.00    1.30
   7  -2 -10  113.19    4.70
   7  -2 -10  113.99    5.30
  -7  -2  10  113.99    5.20
  -7  -2  10  122.19    4.90
  -7   2  10  121.79    4.90
   7   2 -10  120.09    4.80
   7   2 -10  113.49    5.10
   7   2 -10  114.99    5.30
  -7   2  10  111.29    5.30
  -6  -2  10    1.40    1.40
   6  -2 -10   -0.60    1.10
  -6  -2  10   -0.30    1.20
   6  -2 -10    0.40    1.40
   6   2 -10   -1.30    1.20
  -6   2  10    1.90    1.50
   6   2 -10   -2.30    1.20
   6   2 -10    0.80    1.40
  -6   2  10   -2.40    1.10
  -5  -2  10  540.05   14.90
  -5  -2  10  548.35   15.30
   5  -2 -10  557.04   15.40
   5  -2 -10  558.94   15.30
   5  -2 -10  548.75   14.60
  -5  -2  10  562.04   15.70
   5   2 -10  564.14   15.00
  -5   2  10  560.34   15.20
   5   2 -10  547.95   15.30
  -5   2  10  552.04   15.60
   5   2 -10  560.54   15.50
  -4  -2  10    3.80    1.00
  -4  -2  10    3.00    1.10
   4  -2 -10    2.50    1.00
   4  -2 -10    3.50    0.80
  -4  -2  10    3.00    0.90
   4  -2 -10    2.90    1.00
  -4   2  10    2.80    0.80
  -4   2  10    2.30    0.90
   4   2 -10    5.00    1.10
  -4   2  10    3.70    1.20
   4   2 -10    1.80    1.00
   4   2 -10    3.40    0.90
  -3  -2  10   66.89    2.70
   3  -2 -10   67.49    2.70
  -3  -2  10   66.79    3.00
   3  -2 -10   65.09    2.80
  -3  -2  10   69.79    2.80
   3  -2 -10   67.79    2.40
  -3   2  10   65.29    2.60
  -3   2  10   66.29    2.50
   3   2 -10   65.09    2.90
  -3   2  10   68.79    3.00
   3   2 -10   66.89    2.50
   3   2 -10   71.09    2.70
   2  -2 -10   16.40    1.20
   2  -2 -10   17.00    1.30
  -2  -2  10   17.40    1.60
   2  -2 -10   18.30    1.40
   2  -2 -10   16.30    1.40
  -2  -2  10   14.80    1.50
  -2   2  10   17.40    1.60
  -2   2  10   19.10    1.20
   2   2 -10   17.30    1.30
  -2   2  10   18.00    1.50
   2   2 -10   18.90    1.60
   2   2 -10   18.40    1.30
  -1  -2  10  343.57    9.20
   1  -2 -10  340.47    9.50
  -1  -2  10  354.86    9.30
   1  -2 -10  352.96    9.50
  -1  -2  10  338.77    9.80
   1  -2 -10  344.77    9.10
   1  -2 -10  352.26    9.60
  -1  -2  10  334.07    9.60
   1  -2 -10  356.86    9.10
  -1   2  10  343.67    9.80
  -1   2  10  358.16    9.10
   1   2 -10  352.06    9.40
   1   2 -10  340.67    9.30
   1   2 -10  341.17    9.80
  -1   2  10  353.96    9.70
   0  -2  10    0.00    0.60
   0  -2 -10    1.00    0.70
   0  -2 -10    0.60    0.60
   0  -2  10    1.00    0.80
   0  -2  10    1.40    0.70
   0  -2  10    2.10    0.70
   0  -2 -10    1.30    0.70
   0   2  10    2.90    0.70
   0   2  10    1.40    0.70
   0   2 -10    0.50    0.50
   0   2 -10    0.50    0.70
   0   2 -10    0.20    0.70
   0   2  10    1.50    0.70
   0   2 -10    1.90    0.60
  -1  -2 -10 1695.53   44.00
   1  -2  10 1781.92   43.60
   1  -2  10 1720.23   43.60
   1  -2  10 1747.33   43.90
  -1  -2 -10 1706.83   43.90
   1  -2  10 1709.23   44.20
  -1  -2 -10 1676.73   43.90
   1   2  10 1684.83   44.10
   1   2  10 1703.03   43.90
  -1   2 -10 1720.43   43.60
  -1   2 -10 1671.83   44.10
  -1   2 -10 1717.43   43.80
  -1   2 -10 1731.73   43.60
   1   2  10 1709.53   44.00
   2  -2  10    6.30    1.40
  -2  -2 -10    3.80    0.90
  -2  -2 -10    5.30    1.30
   2  -2  10    1.10    1.10
  -2  -2 -10    4.60    1.00
   2  -2  10    3.90    0.60
   2  -2  10    4.10    1.00
   2   2  10    3.00    0.90
  -2   2 -10    5.50    1.20
  -2   2 -10    3.70    1.00
   2   2  10    4.60    1.10
  -2   2 -10    4.00    1.10
   2   2  10    5.50    1.40
  -2   2 -10    3.10    0.90
   3  -2  10  347.87    9.90
  -3  -2 -10  345.77    9.80
  -3  -2 -10  341.77    9.80
   3  -2  10  342.77    9.90
   3   2  10  341.47    9.30
  -3   2 -10  344.97   10.00
  -3   2 -10  357.26    9.70
   3   2  10  342.27    9.90
   3   2  10  340.17    9.90
  -3   2 -10  337.67    9.40
  -4  -2 -10    0.50    1.00
   4  -2  10    1.80    1.00
  -4  -2 -10    2.60    1.20
   4  -2  10    1.70    1.10
   4  -2  10    1.20    1.20
   4   2  10    1.90    1.00
  -4   2 -10    0.30    0.90
  -4   2 -10    0.70    1.10
  -4   2 -10    1.20    0.90
   4   2  10    1.80    1.10
  -5  -2 -10   39.30    2.70
  -5  -2 -10   47.00    3.20
   5  -2  10   45.20    3.00
   5  -2  10   47.60    3.00
   5  -2  10   42.90    3.00
  -5   2 -10   47.20    3.10
   5   2  10   44.20    2.90
  -5   2 -10   48.00    2.80
  -5   2 -10   46.20    2.60
   5   2  10   44.60    3.00
   6  -2  10   -0.40    1.40
  -6  -2 -10    0.40    1.60
   6  -2  10    1.60    1.50
   6  -2  10   -3.80    1.40
  -6  -2 -10   -0.20    1.50
  -6   2 -10   -2.60    1.50
   6   2  10   -1.20    1.40
   6   2  10    1.20    1.60
   6   2  10    1.90    1.50
  -6   2 -10    0.70    1.40
  -7  -3  10    8.30    1.80
  -7  -3  10    5.20    2.10
   7  -3 -10    8.30    2.10
   7  -3 -10    6.20    1.60
   7   3 -10    5.50    1.80
  -7   3  10    4.60    2.00
   7   3 -10    6.50    1.80
   7   3 -10   12.10    3.10
  -7   3  10    7.50    1.90
  -6  -3  10   87.29    4.30
  -6  -3  10   87.29    3.90
   6  -3 -10   83.99    3.80
   6  -3 -10   82.79    4.10
  -6   3  10   83.09    3.90
   6   3 -10   84.79    4.00
   6   3 -10   82.59    3.60
   6   3 -10   87.39    4.00
  -6   3  10   80.29    4.20
   5  -3 -10   27.30    2.40
  -5  -3  10   29.00    2.10
   5  -3 -10   28.40    1.80
  -5  -3  10   27.20    2.30
  -5  -3  10   27.50    2.60
   5  -3 -10   26.30    2.30
   5   3 -10   27.90    2.00
   5   3 -10   27.90    2.50
  -5   3  10   24.60    2.30
  -5   3  10   28.50    2.70
   5   3 -10   23.80    2.50
  -4  -3  10  263.57    7.60
  -4  -3  10  269.87    7.80
   4  -3 -10  247.18    7.70
   4  -3 -10  268.17    7.60
   4  -3 -10  258.67    7.30
  -4  -3  10  251.97    8.00
   4   3 -10  259.57    7.30
  -4   3  10  251.67    7.30
   4   3 -10  246.98    7.90
  -4   3  10  253.77    8.00
   4   3 -10  260.97    7.80
  -4   3  10  262.07    7.60
  -3  -3  10   31.40    2.20
  -3  -3  10   34.90    2.10
   3  -3 -10   35.90    1.90
   3  -3 -10   35.20    2.00
   3  -3 -10   35.00    1.80
  -3   3  10   33.00    1.80
   3   3 -10   31.20    2.00
  -3   3  10   34.10    1.90
   3   3 -10   30.60    2.10
   3   3 -10   35.00    1.70
  -3   3  10   36.90    2.20
   2  -3 -10   43.10    2.10
  -2  -3  10   41.90    2.30
   2  -3 -10   44.70    2.00
   2  -3 -10   42.00    2.00
   2  -3 -10   40.60    1.90
  -2  -3  10   40.40    2.30
   2   3 -10   42.80    1.80
  -2   3  10   44.00    2.30
  -2   3  10   45.40    1.90
   2   3 -10   41.50    2.00
  -2   3  10   42.40    2.20
   2   3 -10   43.20    2.30
  -1  -3  10  347.47    9.50
   1  -3 -10  361.16    9.90
   1  -3 -10  350.86    9.30
  -1  -3  10  356.26    9.50
  -1  -3  10  354.36   10.10
   1  -3 -10  358.46    9.70
   1  -3 -10  360.06    9.80
  -1  -3  10  365.16   10.00
   1   3 -10  365.36    9.80
  -1   3  10  365.16    9.30
  -1   3  10  360.36   10.10
  -1   3  10  356.36   10.00
   1   3 -10  348.77   10.10
   1   3 -10  346.27    9.50
   1   3 -10  358.56    9.60
   0  -3 -10  224.08    6.50
   0  -3  10  219.98    6.70
   0  -3  10  217.48    6.30
   0  -3  10  219.98    6.40
   0  -3 -10  219.38    6.50
   0  -3 -10  224.88    6.30
   0   3  10  219.18    6.60
   0   3  10  221.48    6.70
   0   3 -10  224.78    6.20
   0   3 -10  222.58    6.30
   0   3 -10  216.28    6.70
  -1  -3 -10    0.50    0.70
  -1  -3 -10    0.20    0.60
   1  -3  10    0.70    0.70
  -1  -3 -10    0.20    0.70
   1  -3  10   -0.30    0.70
   1  -3  10   -0.40    0.60
  -1   3 -10    0.90    0.60
   1   3  10    0.10    0.80
  -1   3 -10    0.30    0.60
  -1   3 -10    0.10    0.70
  -1   3 -10   -0.70    0.80
   1   3  10    0.70    0.80
   1   3  10    0.80    0.70
   2  -3  10 1109.09   29.60
  -2  -3 -10 1117.89   29.40
   2  -3  10 1105.79   29.40
   2  -3  10 1145.59   28.70
  -2  -3 -10 1123.29   29.20
  -2  -3 -10 1120.99   29.50
   2   3  10 1114.19   29.60
   2   3  10 1129.09   29.20
   2   3  10 1147.19   29.50
  -2   3 -10 1138.19   29.10
  -2   3 -10 1129.99   29.60
  -2   3 -10 1146.69   29.20
  -3  -3 -10    2.10    0.90
  -3  -3 -10    3.10    0.90
  -3  -3 -10    3.20    1.00
   3  -3  10    2.70    0.90
   3  -3  10    3.00    1.30
   3   3  10    2.00    1.00
   3   3  10    1.70    0.90
  -3   3 -10    0.30    0.90
  -3   3 -10    2.30    0.90
  -3   3 -10    1.80    0.90
   3   3  10    1.70    0.90
   4  -3  10  135.19    4.80
   4  -3  10  127.39    4.60
   4  -3  10  130.69    5.00
  -4  -3 -10  124.09    4.70
  -4  -3 -10  128.99    4.70
  -4   3 -10  126.29    4.40
  -4   3 -10  132.99    4.60
   4   3  10  131.29    4.80
   4   3  10  127.19    4.80
  -4   3 -10  136.39    4.90
   4   3  10  129.09    4.20
  -5  -3 -10  103.89    4.60
   5  -3  10  108.49    4.50
   5  -3  10   96.39    4.20
   5  -3  10  103.69    4.60
  -5  -3 -10  105.29    4.30
   5   3  10   99.89    4.30
   5   3  10  104.09    4.40
  -5   3 -10  110.49    4.20
  -5   3 -10  102.49    4.00
  -5   3 -10   99.19    4.40
  -6  -3 -10    5.70    1.80
   6  -3  10    0.20    1.80
  -6  -3 -10    3.20    1.90
   6  -3  10    1.10    1.60
  -6   3 -10    1.20    1.60
   6   3  10    2.90    1.70
   6   3  10    5.80    1.80
   6   3  10    2.80    1.50
   7  -4 -10    7.30    1.90
  -7  -4  10    5.20    2.10
   7  -4 -10    3.80    2.00
  -7  -4  10    4.50    1.80
   7   4 -10    6.50    1.90
  -7   4  10    5.40    2.20
   7   4 -10    0.90    1.90
  -7   4  10    7.70    2.00
  -6  -4  10   -0.60    1.50
   6  -4 -10    0.60    1.50
   6  -4 -10    2.40    1.40
  -6  -4  10    2.00    1.40
  -6   4  10    1.60    1.40
   6   4 -10    1.70    1.50
  -6   4  10    2.60    1.60
   6   4 -10    1.90    1.30
   6   4 -10    0.90    1.40
   5  -4 -10   10.10    1.80
  -5  -4  10    9.80    2.00
   5  -4 -10    7.90    1.90
  -5  -4  10    7.30    2.00
   5  -4 -10   10.60    2.00
   5   4 -10    5.30    1.50
   5   4 -10    8.60    1.70
  -5   4  10    7.30    1.40
   5   4 -10    8.00    2.10
  -5   4  10    6.70    1.70
  -4  -4  10  274.17    8.50
   4  -4 -10  281.57    7.80
   4  -4 -10  283.77    8.00
  -4  -4  10  275.17    8.20
   4  -4 -10  276.67    8.20
   4   4 -10  271.87    7.60
   4   4 -10  264.67    8.30
  -4   4  10  267.77    8.50
   4   4 -10  253.27    8.20
  -4   4  10  270.47    7.80
  -4   4  10  279.07    8.00
   3  -4 -10   -0.10    0.90
  -3  -4  10   -0.60    0.90
   3  -4 -10   -0.20    0.70
  -3  -4  10    1.30    1.00
   3  -4 -10    1.70    0.80
   3   4 -10    0.50    1.00
  -3   4  10    0.80    0.80
  -3   4  10    1.40    1.00
   3   4 -10    0.70    0.90
  -3   4  10    2.50    0.90
   3   4 -10    1.10    0.70
   2  -4 -10  421.76   11.20
   2  -4 -10  416.86   11.60
  -2  -4  10  418.56   11.80
  -2  -4  10  402.96   11.10
  -2  -4  10  423.46   11.80
   2  -4 -10  424.66   11.50
   2   4 -10  415.16   11.80
  -2   4  10  418.86   11.90
   2   4 -10  423.46   11.60
   2   4 -10  417.06   11.00
  -2   4  10  413.96   11.10
  -2   4  10  429.06   11.60
   1  -4 -10   21.70    1.30
   1  -4 -10   20.60    1.40
   1  -4 -10   20.10    1.60
  -1  -4  10   18.60    1.80
  -1  -4  10   17.90    1.40
  -1  -4  10   19.40    1.60
   1  -4 -10   17.20    1.60
  -1  -4  10   20.60    1.40
  -1   4  10   20.20    1.10
   1   4 -10   20.20    1.50
   1   4 -10   19.50    1.30
  -1   4  10   19.80    1.70
   1   4 -10   19.50    1.60
  -1   4  10   21.30    1.60
  -1   4  10   18.40    1.70
   1   4 -10   20.10    1.80
   0  -4  10   91.59    3.30
   0  -4  10   92.89    3.60
   0  -4  10   88.79    3.20
   0  -4 -10   91.89    3.40
   0  -4 -10   92.39    3.00
   0  -4 -10   91.19    3.40
   0   4  10   90.79    3.10
   0   4  10   91.19    3.50
   0   4 -10   95.89    3.30
   0   4 -10   91.99    2.90
   0   4 -10   96.89    3.60
   0   4  10   92.49    3.50
  -1  -4 -10    9.70    1.30
   1  -4  10   12.20    1.60
   1  -4  10   10.20    1.30
  -1  -4 -10   10.40    1.50
  -1  -4 -10   13.50    1.50
   1  -4  10   10.00    1.50
   1   4  10   11.20    1.50
  -1   4 -10   13.90    1.60
   1   4  10   11.60    1.70
  -1   4 -10    9.30    1.40
  -1   4 -10   13.30    1.30
   2  -4  10    0.80    1.00
   2  -4  10    0.70    0.70
   2  -4  10    0.60    0.90
  -2  -4 -10    0.60    0.90
  -2  -4 -10    1.40    0.80
  -2  -4 -10    1.80    1.00
  -2   4 -10    1.20    0.60
  -2   4 -10   -0.70    0.80
   2   4  10    2.80    0.90
  -2   4 -10    0.20    0.90
  -2   4 -10   -0.50    0.90
   2   4  10    0.60    1.00
   2   4  10    1.20    0.90
   3  -4  10    4.80    1.30
  -3  -4 -10    7.10    1.80
  -3  -4 -10    6.10    1.20
   3  -4  10    6.50    1.20
  -3  -4 -10    4.70    1.00
   3  -4  10    5.40    1.00
   3   4  10    6.90    1.70
  -3   4 -10    6.80    1.80
   3   4  10    6.10    1.10
  -3   4 -10    7.50    1.60
   3   4  10    7.20    1.80
  -3   4 -10    9.80    1.60
   4  -4  10   97.79    4.40
  -4  -4 -10  102.69    4.20
   4  -4  10  100.49    4.00
   4  -4  10   97.79    4.10
  -4  -4 -10  102.59    4.00
  -4   4 -10  104.59    4.00
  -4   4 -10   97.29    4.20
   4   4  10  101.29    3.70
  -4   4 -10  100.19    3.80
   4   4  10   99.79    4.20
   4   4  10  101.29    4.20
  -5  -4 -10   -2.40    1.40
   5  -4  10   -1.10    1.50
   5  -4  10   -2.40    1.40
   5  -4  10    0.60    1.50
  -5  -4 -10    1.90    1.40
  -5   4 -10   -0.50    1.20
  -5   4 -10    0.50    1.50
   5   4  10    4.40    1.40
   5   4  10   -2.30    1.20
   6  -4  10  189.18    6.70
  -6  -4 -10  174.68    6.60
  -6  -4 -10  182.48    6.90
   6  -4  10  191.98    7.10
  -6   4 -10  187.48    7.00
   6   4  10  185.98    6.70
   6   4  10  182.08    6.50
  -6   4 -10  173.18    7.10
   6   4  10  188.28    6.80
  -6  -5  10   20.70    2.80
   6  -5 -10   27.70    3.00
   6  -5 -10   22.90    2.90
  -6  -5  10   26.00    3.40
   6   5 -10   26.70    2.90
   6   5 -10   29.00    3.20
  -6   5  10   29.70    3.20
  -6   5  10   28.20    2.90
  -5  -5  10   44.60    3.00
   5  -5 -10   50.79    2.90
  -5  -5  10   47.60    3.20
   5  -5 -10   46.80    3.00
   5  -5 -10   46.70    2.80
   5   5 -10   43.00    3.10
  -5   5  10   48.70    3.30
  -5   5  10   49.70    3.10
   5   5 -10   43.30    3.00
   4  -5 -10   42.70    2.40
   4  -5 -10   43.40    2.40
   4  -5 -10   38.60    2.60
  -4  -5  10   36.60    2.80
  -4  -5  10   38.80    2.80
  -4   5  10   37.40    2.40
   4   5 -10   38.10    2.80
  -4   5  10   43.20    2.50
  -4   5  10   39.50    2.90
   4   5 -10   37.20    2.40
   4   5 -10   38.70    2.70
  -3  -5  10  270.87    8.20
   3  -5 -10  258.57    7.60
  -3  -5  10  255.77    8.20
   3  -5 -10  279.17    7.90
   3  -5 -10  271.57    8.10
  -3   5  10  277.27    7.70
   3   5 -10  271.47    7.30
   3   5 -10  254.27    8.10
  -3   5  10  280.37    7.80
   3   5 -10  272.07    8.10
  -3   5  10  266.67    8.30
   2  -5 -10    1.10    1.00
  -2  -5  10    0.90    0.60
   2  -5 -10    0.10    0.80
  -2  -5  10    0.90    1.00
   2  -5 -10    0.80    0.70
  -2  -5  10    0.80    0.90
  -2   5  10    0.80    0.70
   2   5 -10    1.80    0.60
   2   5 -10   -0.70    1.00
  -2   5  10   -0.20    1.00
   2   5 -10    0.00    0.90
  -2   5  10   -0.20    0.90
  -1  -5  10  452.15   13.00
  -1  -5  10  461.75   12.70
   1  -5 -10  446.76   12.10
   1  -5 -10  460.65   12.70
  -1  -5  10  443.06   12.20
   1  -5 -10  464.95   12.70
  -1   5  10  465.75   12.10
  -1   5  10  462.15   13.00
   1   5 -10  467.05   12.70
   1   5 -10  464.75   12.90
  -1   5  10  466.65   12.80
   1   5 -10  476.75   12.00
   0  -5 -10   16.70    1.80
   0  -5 -10   13.60    1.20
   0  -5 -10   14.30    1.70
   0  -5  10   15.60    1.60
   0  -5  10   14.70    1.50
   0  -5  10   12.60    1.80
   0   5 -10   15.90    1.70
   0   5 -10   14.40    1.70
   0   5  10   14.20    1.70
   0   5 -10   12.20    1.20
   0   5  10   15.30    1.80
   1  -5  10   15.00    1.80
   1  -5  10   17.30    2.00
  -1  -5 -10   16.70    1.80
   1  -5  10   18.20    1.60
  -1  -5 -10   18.00    1.50
  -1  -5 -10   19.40    1.80
  -1   5 -10   16.20    1.80
  -1   5 -10   17.90    1.90
   1   5  10   18.90    1.90
  -1   5 -10   17.80    1.40
   1   5  10   16.70    1.80
  -2  -5 -10  254.77    8.10
  -2  -5 -10  279.17    8.30
   2  -5  10  279.27    8.30
  -2  -5 -10  258.27    7.70
   2  -5  10  271.97    7.70
   2  -5  10  287.77    7.60
   2  -5  10  285.17    8.40
   2   5  10  272.17    8.20
  -2   5 -10  275.97    7.60
   2   5  10  287.37    8.40
  -2   5 -10  261.17    8.30
  -2   5 -10  282.67    7.80
  -2   5 -10  281.97    8.10
   2   5  10  277.07    8.40
  -3  -5 -10   84.79    3.80
   3  -5  10   86.29    3.30
  -3  -5 -10   82.69    3.40
   3  -5  10   87.29    4.10
   3  -5  10   89.39    3.80
  -3  -5 -10   92.69    3.80
   3   5  10   86.39    3.80
   3   5  10   84.69    3.60
  -3   5 -10   89.19    3.60
  -3   5 -10   93.29    3.90
  -3   5 -10   95.09    3.40
   3   5  10   92.19    3.90
  -4  -5 -10  107.89    4.20
  -4  -5 -10  105.59    4.40
  -4  -5 -10  106.29    4.50
   4  -5  10  107.89    4.20
   4  -5  10  111.69    4.60
   4  -5  10  114.39    4.70
  -4   5 -10  108.49    4.50
  -4   5 -10  110.89    4.30
   4   5  10  110.39    4.20
   4   5  10  113.89    4.60
   4   5  10  112.09    4.50
   5  -5  10  204.38    7.30
  -5  -5 -10  193.18    6.70
  -5  -5 -10  196.58    6.80
   5  -5  10  198.38    6.70
   5  -5  10  199.88    6.90
   5   5  10  201.28    7.00
   5   5  10  198.78    6.90
  -5   5 -10  196.48    6.80
  -5   5 -10  201.98    7.00
  -6  -6  10    3.00    1.70
  -6  -6  10   -2.10    1.70
   6  -6 -10    1.90    1.80
   6   6 -10   -0.70    1.50
   6   6 -10    3.00    1.80
  -6   6  10   -0.30    1.80
  -6   6  10   -1.10    1.60
  -5  -6  10  126.89    5.00
   5  -6 -10  126.29    4.90
  -5  -6  10  109.89    5.00
   5  -6 -10  120.09    4.90
  -5   6  10  121.09    5.10
   5   6 -10  114.99    4.90
   5   6 -10  122.99    5.00
  -5   6  10  114.29    4.80
   4  -6 -10   22.00    2.40
  -4  -6  10   18.90    2.70
   4  -6 -10   21.10    2.40
  -4  -6  10   21.50    2.40
   4   6 -10   17.20    2.50
   4   6 -10   21.30    2.30
  -4   6  10   18.30    2.40
  -4   6  10   21.60    2.10
  -4   6  10   25.20    2.60
  -3  -6  10   35.00    2.70
   3  -6 -10   40.80    2.70
  -3  -6  10   38.40    2.90
   3  -6 -10   35.80    2.40
  -3   6  10   38.30    2.70
  -3   6  10   39.80    2.30
   3   6 -10   34.00    2.70
  -3   6  10   36.40    2.30
   3   6 -10   37.70    2.60
  -2  -6  10   57.09    3.20
   2  -6 -10   59.19    3.00
  -2  -6  10   59.79    3.00
   2  -6 -10   60.69    2.90
  -2   6  10   59.49    3.20
  -2   6  10   59.89    2.90
   2   6 -10   59.19    3.10
  -2   6  10   62.29    2.50
   2   6 -10   58.29    3.00
  -1  -6  10   18.10    1.70
  -1  -6  10   15.60    2.10
   1  -6 -10   20.60    1.90
   1  -6 -10   17.60    2.00
  -1  -6  10   19.80    1.90
   1   6 -10   16.90    2.00
   1   6 -10   17.40    2.10
  -1   6  10   20.00    1.40
  -1   6  10   16.80    2.00
  -1   6  10   19.30    2.10
   0  -6 -10    9.30    1.70
   0  -6  10   10.30    1.90
   0  -6  10   13.10    1.70
   0  -6  10   10.20    1.60
   0  -6 -10   14.10    1.90
   0   6 -10   10.60    1.80
   0   6  10   10.50    1.80
   0   6  10   11.90    2.00
   0   6 -10   16.60    1.90
  -1  -6 -10  547.35   14.70
   1  -6  10  551.44   14.50
   1  -6  10  533.05   14.90
   1  -6  10  536.35   14.30
  -1  -6 -10  457.05   14.40
  -1   6 -10  529.75   14.20
  -1   6 -10  544.65   14.60
  -1   6 -10  506.45   14.70
   1   6  10  535.65   14.80
   1   6  10  537.55   14.70
  -1   6 -10  539.25   13.90
  -2  -6 -10    3.20    1.20
   2  -6  10    4.00    1.00
   2  -6  10    1.80    1.40
   2  -6  10    2.00    1.10
  -2  -6 -10    3.50    1.30
   2   6  10    3.00    1.10
  -2   6 -10    3.10    1.30
  -2   6 -10    4.30    1.20
  -2   6 -10    4.30    1.30
   2   6  10    4.00    1.30
  -3  -6 -10  270.57    8.50
   3  -6  10  274.37    7.90
   3  -6  10  276.27    8.70
  -3  -6 -10  267.37    8.40
   3  -6  10  283.97    8.60
   3   6  10  273.77    8.60
  -3   6 -10  274.47    8.40
  -3   6 -10  272.17    8.60
   3   6  10  274.27    8.40
   3   6  10  273.27    8.50
   4  -6  10   18.30    2.90
  -4  -6 -10   23.40    2.70
  -4  -6 -10   22.80    2.70
   4  -6  10   19.60    2.50
   4  -6  10   14.90    2.90
   4   6  10   18.00    2.60
  -4   6 -10   19.20    2.50
   4   6  10   17.70    2.50
   4   6  10   23.60    2.60
  -4   6 -10   25.30    3.00
   5  -6  10   14.30    3.10
   5  -6  10   11.80    2.90
  -5  -6 -10   12.70    2.80
   5  -6  10   10.60    2.30
   5   6  10   10.80    2.90
  -5   6 -10   15.90    3.20
  -5   6 -10   15.00    2.80
   5   6  10   17.80    2.80
  -5  -7  10    7.40    1.90
   5  -7 -10   11.30    2.80
  -5  -7  10    4.70    1.90
   5  -7 -10   14.10    3.00
  -5   7  10    2.90    1.80
  -5   7  10    8.20    2.00
   5   7 -10    6.00    1.60
   5   7 -10    2.30    1.70
  -4  -7  10   72.39    4.10
   4  -7 -10   76.39    3.80
  -4  -7  10   73.89    3.80
   4  -7 -10   75.19    3.80
  -4   7  10   76.19    3.80
   4   7 -10   75.99    3.90
   4   7 -10   82.79    4.00
  -4   7  10   67.49    4.10
  -3  -7  10   76.49    3.70
   3  -7 -10   75.39    3.70
  -3  -7  10   75.19    3.90
   3  -7 -10   75.99    3.50
  -3   7  10   78.49    3.90
  -3   7  10   78.09    3.50
   3   7 -10   79.19    3.70
  -3   7  10   75.79    3.40
   3   7 -10   76.79    3.70
   2  -7 -10   -0.10    1.00
  -2  -7  10    1.30    1.20
  -2  -7  10   -1.60    1.10
   2  -7 -10    2.10    1.30
   2   7 -10    1.30    1.40
  -2   7  10    1.50    1.00
  -2   7  10   -0.40    1.10
  -2   7  10    1.20    1.20
   2   7 -10   -0.70    1.10
  -1  -7  10  108.79    4.60
  -1  -7  10  112.99    4.00
   1  -7 -10  117.49    4.40
  -1  -7  10  110.49    4.40
   1  -7 -10  122.29    4.40
  -1   7  10  119.59    4.60
  -1   7  10  118.59    4.70
   1   7 -10  111.59    4.40
   1   7 -10  111.99    4.50
   0  -7 -10   80.59    3.60
   0  -7  10   73.59    3.70
   0  -7  10   82.39    3.50
   0  -7  10   81.79    3.30
   0  -7 -10   80.49    3.60
   0   7 -10   82.09    3.50
   0   7  10   85.29    3.80
   0   7 -10   85.99    3.80
   0   7 -10   83.09    3.60
   0   7  10   81.09    3.90
  -1  -7 -10    1.20    1.20
   1  -7  10    2.30    1.10
   1  -7  10    2.30    1.30
  -1  -7 -10    0.10    1.20
   1  -7  10    0.50    1.20
   1   7  10    4.50    1.30
   1   7  10    0.20    1.10
  -1   7 -10    2.70    1.10
  -1   7 -10    0.10    1.30
  -1   7 -10    2.20    1.20
  -2  -7 -10  429.06   12.40
   2  -7  10  437.86   12.70
   2  -7  10  445.86   12.80
  -2  -7 -10  439.16   12.70
  -2   7 -10  437.76   12.60
   2   7  10  439.66   12.70
  -2   7 -10  444.96   12.70
   2   7  10  440.96   12.90
  -3  -7 -10   22.30    2.70
   3  -7  10   19.30    2.90
  -3  -7 -10   24.50    2.70
   3  -7  10   20.40    2.60
  -3   7 -10   22.10    2.70
   3   7  10   20.60    2.80
   3   7  10   18.00    2.50
  -3   7 -10   24.60    2.90
   3   7  10   18.80    2.50
   4  -7  10  120.09    5.20
   4  -7  10  111.69    5.20
  -4  -7 -10  112.59    5.00
  -4  -7 -10  111.39    5.10
   4   7  10  114.59    5.00
  -4   7 -10  124.79    5.00
   4   7  10  111.79    5.00
  -4   7 -10  121.09    5.30
   4   7  10  116.69    5.00
  -4  -8  10  184.28    6.80
   4  -8 -10  181.98    6.50
   4  -8 -10  181.68    6.50
  -4  -8  10  175.88    6.70
  -4   8  10  181.08    6.90
   4   8 -10  176.18    6.60
  -4   8  10  187.38    6.50
   4   8 -10  183.68    6.60
  -3  -8  10    0.30    1.40
   3  -8 -10    2.80    1.50
  -3  -8  10    1.20    1.40
   3  -8 -10   -0.40    1.50
   3   8 -10   -0.10    1.40
  -3   8  10   -1.40    1.40
  -3   8  10    1.70    1.30
  -3   8  10   -1.00    1.50
   3   8 -10    1.70    1.50
  -2  -8  10  140.79    5.30
  -2  -8  10  138.59    5.60
   2  -8 -10  144.19    5.30
   2  -8 -10  143.19    5.30
  -2   8  10  140.29    5.40
   2   8 -10  139.89    5.30
  -2   8  10  142.69    5.60
   2   8 -10  145.39    5.60
   2   8 -10  146.09    5.30
  -1  -8  10   25.80    2.60
  -1  -8  10   28.80    2.70
   1  -8 -10   28.50    2.80
   1  -8 -10   30.50    2.50
   1   8 -10   28.60    2.60
   1   8 -10   26.60    2.60
   1   8 -10   31.90    2.90
  -1   8  10   33.10    2.70
  -1   8  10   27.30    2.90
   0  -8  10   99.09    4.20
   0  -8  10   96.09    3.90
   0  -8  10   96.69    4.10
   0  -8 -10   96.69    4.10
   0  -8 -10   97.19    4.10
   0   8 -10   91.49    4.20
   0   8  10   95.09    4.30
   0   8  10   95.39    4.40
   0   8 -10   92.29    4.10
   0   8 -10  100.59    4.20
   1  -8  10   29.70    2.70
  -1  -8 -10   21.50    2.40
   1  -8  10   25.80    2.80
  -1  -8 -10   22.00    2.70
  -1   8 -10   24.10    2.70
  -1   8 -10   22.40    2.50
   1   8  10   23.90    2.90
   1   8  10   23.20    2.60
  -1   8 -10   24.20    2.40
  -2  -8 -10   -0.60    1.50
   2  -8  10   -1.50    1.30
   2  -8  10    2.40    1.80
  -2  -8 -10   -1.20    1.40
  -2   8 -10    4.60    1.70
   2   8  10    1.80    1.50
   2   8  10    0.90    1.40
  -2   8 -10    1.80    1.40
  -3  -8 -10   21.30    3.00
   3  -8  10   24.50    3.40
   3  -8  10   22.80    3.00
  -3  -8 -10   23.80    3.00
  -3   8 -10   18.00    3.10
  -3   8 -10   17.10    2.90
   3   8  10   20.90    3.00
   3   8  10   22.40    3.00
   3   8  10   15.40    2.90
   3  -9 -10  108.49    4.80
   3  -9 -10  111.39    4.90
  -3  -9  10  110.89    5.10
  -3  -9  10  103.69    4.80
  -3   9  10  101.19    5.20
   3   9 -10  106.49    5.10
   3   9 -10  101.89    5.00
   3   9 -10  108.99    4.90
  -3   9  10  102.59    4.70
  -2  -9  10    0.00    1.50
   2  -9 -10   -1.70    1.60
   2  -9 -10   -0.30    1.40
  -2  -9  10    0.60    1.60
   2   9 -10    4.20    1.70
  -2   9  10    0.90    1.60
   2   9 -10   -1.00    1.60
  -2   9  10    0.00    1.60
   2   9 -10    0.80    1.80
   1  -9 -10  158.78    5.80
  -1  -9  10  146.89    6.00
  -1  -9  10  157.58    5.90
   1  -9 -10  157.68    5.70
  -1   9  10  157.98    6.10
   1   9 -10  155.98    5.90
   1   9 -10  157.98    6.10
  -1   9  10  151.58    6.10
   1   9 -10  158.78    5.90
   0  -9 -10   30.70    3.00
   0  -9 -10   31.50    2.90
   0  -9  10   35.50    3.10
   0  -9  10   29.20    2.90
   0   9 -10   32.60    3.20
   0   9 -10   31.80    3.10
   0   9 -10   26.40    2.90
   0   9  10   32.70    3.10
   0   9  10   29.80    2.90
  -1  -9 -10   32.00    3.10
  -1  -9 -10   37.10    3.10
   1  -9  10   37.50    3.20
   1  -9  10   36.90    3.30
  -1   9 -10   34.10    3.30
   1   9  10   39.60    3.50
  -1   9 -10   40.90    3.20
   1   9  10   36.30    3.10
   2  -9  10   40.60    3.80
  -2  -9 -10   34.70    3.30
  -2  -9 -10   37.00    3.40
   2  -9  10   43.40    3.50
   2   9  10   36.10    3.60
   2   9  10   38.80    3.40
  -2   9 -10   45.70    3.60
  -2   9 -10   36.00    3.50
   7   0 -11  125.09    5.60
  -7   0  11  126.29    5.20
   7   0 -11  130.89    5.20
  -7   0  11  140.99    5.70
   6   0 -11    1.00    1.40
   6   0 -11    0.00    1.20
  -6   0  11   -2.10    1.40
  -6   0  11    0.90    1.30
   5   0 -11  142.69    4.80
   5   0 -11  135.29    5.20
  -5   0  11  143.09    5.30
  -5   0  11  131.49    4.50
  -5   0  11  136.39    4.80
  -4   0  11    1.30    0.80
   4   0 -11   -0.10    1.00
   4   0 -11    0.00    0.80
  -4   0  11   -1.10    1.00
  -4   0  11    0.00    0.90
  -3   0  11   39.20    2.20
   3   0 -11   39.40    2.00
  -3   0  11   39.10    2.00
   3   0 -11   41.00    2.10
   3   0 -11   38.90    2.30
  -3   0  11   42.20    2.40
  -2   0  11    0.20    0.60
   2   0 -11    0.40    0.70
  -2   0  11    0.60    0.70
  -2   0  11   -0.10    0.80
  -2   0  11    0.30    0.50
  -2   0  11    0.70    0.60
   2   0 -11    0.80    0.70
   2   0 -11    0.50    0.60
   1   0 -11  338.87    9.30
  -1   0  11  335.87    9.50
  -1   0  11  336.37    9.60
   1   0 -11  324.27    8.90
  -1   0  11  336.37    9.10
   1   0 -11  345.27    8.90
   1   0 -11  339.17    9.50
   0   0  11    1.60    0.60
   0   0 -11    2.20    0.70
   0   0 -11    1.50    0.70
   0   0  11    0.40    0.70
   0   0 -11    3.30    0.80
   0   0 -11    2.90    0.70
   0   0  11    1.80    0.70
   1   0  11  240.98    7.00
   1   0  11  235.08    7.20
  -1   0 -11  244.38    7.00
   1   0  11  235.88    6.80
  -1   0 -11  244.58    7.10
  -2   0 -11    1.20    0.90
  -2   0 -11   -0.50    0.80
   2   0  11   -0.10    0.90
   2   0  11   -0.10    0.70
  -2   0 -11   -1.20    0.70
   2   0  11    0.10    0.60
  -3   0 -11  276.17    8.40
   3   0  11  279.37    8.40
  -3   0 -11  283.17    8.30
   3   0  11  287.37    8.50
   4   0  11    0.00    1.20
  -4   0 -11    0.10    1.20
   4   0  11    0.20    1.00
  -4   0 -11    1.40    1.10
   5   0  11    3.70    1.50
   5   0  11    5.30    1.50
   5   0  11    3.40    1.40
  -5   0 -11    3.20    1.40
  -5   0 -11    3.40    1.30
   6   0  11   -0.30    1.70
   6   0  11    0.80    1.60
   6   0  11    1.00    1.60
  -6   0 -11   -0.90    1.60
  -6   0 -11   -0.20    1.40
   7  -1 -11    5.10    1.50
   7  -1 -11    4.50    1.90
  -7  -1  11    3.00    1.90
  -7  -1  11    3.90    1.60
   7   1 -11    2.60    1.50
   7   1 -11    3.40    1.70
  -7   1  11    1.70    1.50
  -7   1  11    4.20    1.90
   7   1 -11    3.00    1.70
   6  -1 -11   53.79    3.00
  -6  -1  11   52.09    3.10
   6  -1 -11   52.59    3.50
  -6  -1  11   51.99    3.50
   6   1 -11   55.09    3.00
   6   1 -11   49.99    3.30
   6   1 -11   53.59    3.40
  -6   1  11   48.80    3.40
  -6   1  11   55.09    3.10
  -5  -1  11   99.99    4.30
   5  -1 -11  104.99    3.90
  -5  -1  11   97.79    3.70
  -5  -1  11   99.99    3.90
   5  -1 -11   97.09    4.20
  -5   1  11   98.99    3.90
   5   1 -11  100.69    4.10
  -5   1  11   97.69    4.30
   5   1 -11   96.59    3.80
  -5   1  11   86.79    3.40
   5   1 -11  101.79    4.30
   4  -1 -11   37.00    2.30
  -4  -1  11   36.40    2.20
   4  -1 -11   37.80    2.40
  -4  -1  11   35.80    2.50
  -4  -1  11   39.90    2.20
  -4   1  11   37.10    2.20
   4   1 -11   36.80    2.30
  -4   1  11   34.80    2.10
   4   1 -11   36.40    2.50
  -4   1  11   33.40    2.40
   4   1 -11   36.90    2.20
  -3  -1  11  211.48    6.40
  -3  -1  11  211.98    6.30
   3  -1 -11  212.58    6.50
   3  -1 -11  208.18    6.40
  -3  -1  11  211.88    6.70
   3  -1 -11  218.88    5.90
   3   1 -11  211.78    6.30
   3   1 -11  208.38    6.60
  -3   1  11  211.58    6.70
   3   1 -11  213.08    6.30
  -3   1  11  215.08    6.20
  -3   1  11  213.18    6.40
  -2  -1  11  120.19    3.50
   2  -1 -11  120.99    3.70
  -2  -1  11  124.29    3.50
  -2  -1  11  123.29    4.20
  -2  -1  11  122.59    4.30
   2  -1 -11  123.89    4.10
   2  -1 -11  122.79    3.70
   2  -1 -11  123.89    4.20
   2   1 -11  122.29    3.90
  -2   1  11  125.29    4.30
  -2   1  11  119.99    3.70
   2   1 -11  124.29    4.00
  -2   1  11  120.89    3.80
  -2   1  11  126.49    3.70
  -2   1  11  122.59    4.20
   2   1 -11  121.49    4.30
   1  -1 -11  258.67    7.20
  -1  -1  11  265.97    7.40
  -1  -1  11  272.87    7.90
  -1  -1  11  269.07    7.90
   1  -1 -11  269.67    7.50
  -1  -1  11  274.67    7.40
   1  -1 -11  273.97    7.70
   1  -1 -11  279.67    7.20
   1  -1 -11  269.77    7.80
   1   1 -11  259.17    7.40
  -1   1  11  272.17    7.50
   1   1 -11  277.47    7.40
   1   1 -11  273.67    7.60
  -1   1  11  270.37    7.90
   1   1 -11  273.57    7.90
  -1   1  11  269.57    7.90
   0  -1 -11  306.07    8.30
   0  -1 -11  290.67    8.40
   0  -1  11  291.47    8.30
   0  -1  11  298.27    8.20
   0  -1  11  291.27    8.60
   0  -1 -11  293.87    8.30
   0   1 -11  300.57    8.30
   0   1  11  288.87    8.30
   0   1 -11  300.37    7.90
   0   1 -11  289.77    8.50
   0   1 -11  284.77    7.90
   0   1  11  295.77    8.60
   0   1  11  302.37    8.30
   1  -1  11   12.70    1.20
   1  -1  11   10.90    1.20
   1  -1  11   11.80    1.40
  -1  -1 -11   13.50    1.40
   1  -1  11   10.40    1.50
  -1  -1 -11   10.10    1.30
   1   1  11    9.30    1.50
  -1   1 -11   10.30    1.30
  -1   1 -11   11.30    0.90
  -1   1 -11   12.00    1.10
   1   1  11   10.50    1.30
   1   1  11   10.70    1.40
  -1   1 -11   12.30    1.50
  -2  -1 -11  239.28    6.90
  -2  -1 -11  228.28    6.90
   2  -1  11  226.98    7.00
   2  -1  11  230.38    7.10
   2  -1  11  237.98    6.40
  -2   1 -11  221.28    6.20
  -2   1 -11  229.08    6.80
   2   1  11  238.18    7.10
   2   1  11  230.28    7.00
  -2   1 -11  224.08    7.00
   2   1  11  226.88    6.50
   3  -1  11  362.56   10.30
  -3  -1 -11  358.96   10.30
  -3  -1 -11  346.47   10.10
   3  -1  11  358.96   10.40
   3   1  11  357.96    9.60
  -3   1 -11  358.36   10.40
   3   1  11  361.56   10.40
  -3   1 -11  361.56   10.10
   3   1  11  360.36   10.40
  -3   1 -11  339.07    9.50
  -4  -1 -11   38.80    2.60
   4  -1  11   43.10    2.80
   4  -1  11   38.30    2.50
  -4  -1 -11   38.70    2.80
   4   1  11   42.10    2.60
  -4   1 -11   44.90    2.90
   4   1  11   37.90    2.70
  -4   1 -11   44.20    2.60
   5  -1  11  278.07    8.60
   5  -1  11  271.07    8.80
  -5  -1 -11  274.87    8.80
  -5  -1 -11  285.27    8.60
   5  -1  11  283.77    8.70
  -5   1 -11  274.47    8.80
   5   1  11  279.07    8.80
   5   1  11  271.07    8.60
  -5   1 -11  280.57    8.60
   6  -1  11   14.20    2.80
   6  -1  11   11.90    3.10
  -6  -1 -11   10.80    2.80
   6  -1  11    7.90    1.90
  -6  -1 -11   14.30    3.00
  -6   1 -11    8.80    1.60
  -6   1 -11   12.10    3.20
   6   1  11   12.70    3.00
   6   1  11   12.70    2.90
   6   1  11    7.70    1.90
  -7  -2  11    3.20    1.60
  -7  -2  11    3.80    2.00
   7  -2 -11    4.00    2.00
   7  -2 -11    3.40    1.50
   7   2 -11   -0.20    1.80
  -7   2  11    4.00    2.00
  -7   2  11    2.20    1.70
   7   2 -11   -0.50    1.80
   7   2 -11    1.70    1.60
   6  -2 -11   26.40    2.50
  -6  -2  11   19.50    2.80
   6  -2 -11   20.80    3.00
  -6  -2  11   20.20    2.40
  -6   2  11   25.30    2.80
   6   2 -11   20.50    2.60
  -6   2  11   24.00    2.50
   6   2 -11   20.50    2.80
   6   2 -11   24.90    2.90
   5  -2 -11   -0.50    1.30
  -5  -2  11    1.40    1.10
   5  -2 -11   -0.20    1.10
  -5  -2  11    2.50    1.30
  -5  -2  11    2.10    1.00
  -5   2  11    0.40    1.10
  -5   2  11    1.50    1.40
   5   2 -11    0.60    1.10
   5   2 -11   -0.80    1.40
   5   2 -11   -1.50    1.10
  -4  -2  11  516.35   14.40
  -4  -2  11  526.25   14.00
   4  -2 -11  515.85   14.10
   4  -2 -11  452.45   13.90
  -4  -2  11  515.65   13.90
   4  -2 -11  512.75   13.40
  -4   2  11  532.25   13.90
  -4   2  11  520.15   14.40
   4   2 -11  497.75   14.30
  -4   2  11  500.45   13.70
   4   2 -11  511.15   13.80
   4   2 -11  526.85   14.10
   3  -2 -11    0.60    0.80
   3  -2 -11   -0.80    0.70
  -3  -2  11    0.50    0.80
  -3  -2  11    0.70    0.90
   3  -2 -11    0.30    0.80
   3   2 -11    0.50    0.80
   3   2 -11    0.00    0.70
  -3   2  11   -1.10    0.70
   3   2 -11   -1.10    0.80
  -3   2  11   -0.40    0.90
  -3   2  11   -0.80    0.90
   2  -2 -11  585.04   15.70
   2  -2 -11  572.24   15.30
  -2  -2  11  566.54   15.80
   2  -2 -11  585.94   15.60
   2  -2 -11  585.44   15.40
  -2  -2  11  571.94   15.80
   2   2 -11  598.74   15.50
   2   2 -11  584.04   15.90
  -2   2  11  592.24   16.00
  -2   2  11  590.24   15.70
   2   2 -11  583.94   15.40
  -2   2  11  589.44   15.30
  -1  -2  11   11.80    1.20
  -1  -2  11   10.70    1.30
   1  -2 -11   13.60    1.50
   1  -2 -11   11.60    1.30
  -1  -2  11   11.70    1.40
  -1  -2  11   12.20    1.60
   1  -2 -11   11.70    1.30
  -1   2  11    9.30    1.50
   1   2 -11    9.60    1.20
  -1   2  11   11.00    0.80
   1   2 -11   12.80    1.30
   1   2 -11   12.30    1.60
  -1   2  11   10.90    1.50
  -1   2  11   11.80    1.20
   0  -2 -11  252.87    7.30
   0  -2 -11  247.68    7.20
   0  -2  11  255.97    7.60
   0  -2 -11  256.37    7.30
   0  -2  11  255.27    7.20
   0  -2  11  245.28    7.20
   0   2 -11  258.77    7.10
   0   2  11  247.08    7.40
   0   2  11  253.97    7.30
   0   2 -11  255.97    7.60
   0   2 -11  253.27    7.00
   0   2  11  250.67    7.50
   1  -2  11    9.00    1.50
   1  -2  11    8.70    1.30
   1  -2  11   10.60    1.40
  -1  -2 -11   11.90    1.40
  -1  -2 -11   11.00    1.40
  -1  -2 -11   11.10    1.40
   1  -2  11   11.40    1.20
  -1   2 -11    9.10    1.30
  -1   2 -11    9.60    1.20
   1   2  11   10.90    1.50
  -1   2 -11    9.90    1.50
   1   2  11   11.80    1.60
   1   2  11   11.40    1.40
  -1   2 -11   11.40    1.30
   2  -2  11  572.34   14.50
  -2  -2 -11  566.14   15.10
  -2  -2 -11  543.15   15.10
   2  -2  11  545.25   15.30
   2  -2  11  560.34   15.20
   2   2  11  564.24   15.20
  -2   2 -11  543.45   14.60
   2   2  11  560.84   15.30
   2   2  11  564.74   14.80
  -2   2 -11  543.95   15.30
  -2   2 -11  558.44   14.90
   3  -2  11    1.70    1.20
  -3  -2 -11    1.80    1.00
  -3  -2 -11    2.70    1.00
   3  -2  11    1.70    1.00
  -3   2 -11    3.50    0.90
  -3   2 -11    2.30    1.10
   3   2  11    2.10    1.00
   3   2  11    3.30    0.90
   3   2  11    3.10    1.00
  -3   2 -11    3.50    1.00
   4  -2  11  204.08    6.80
  -4  -2 -11  200.08    6.40
  -4  -2 -11  194.18    6.50
   4  -2  11  201.48    6.50
   4  -2  11  201.08    6.50
   4   2  11  205.68    6.60
  -4   2 -11  197.58    6.70
  -4   2 -11  188.18    6.00
   4   2  11  196.48    6.60
  -4   2 -11  203.88    6.40
  -5  -2 -11   -3.80    1.40
   5  -2  11   -0.70    1.40
  -5  -2 -11   -2.10    1.10
   5  -2  11   -0.90    1.40
   5  -2  11   -0.40    1.40
  -5   2 -11   -0.10    1.30
  -5   2 -11    0.60    1.30
   5   2  11   -0.40    1.30
   5   2  11    0.20    1.30
   6  -2  11  238.78    7.80
   6  -2  11  234.08    8.20
  -6  -2 -11  216.08    7.70
  -6  -2 -11  229.48    8.10
   6  -2  11  224.68    8.10
   6   2  11  229.18    7.80
   6   2  11  232.78    8.00
   6   2  11  237.68    7.80
  -6   2 -11  228.38    7.60
  -6   2 -11  225.28    8.10
   7  -3 -11    5.80    1.70
   7  -3 -11    6.30    2.20
  -7  -3  11    0.60    2.00
  -7  -3  11    4.60    1.60
   7   3 -11    5.10    2.00
  -7   3  11    7.30    2.20
   7   3 -11    7.30    1.80
  -7   3  11    2.70    1.80
   7   3 -11    4.70    1.90
   6  -3 -11   57.09    3.30
  -6  -3  11   55.29    3.80
   6  -3 -11   61.39    3.80
  -6  -3  11   52.69    3.40
   6   3 -11   58.29    3.80
  -6   3  11   59.29    3.70
   6   3 -11   61.19    3.60
  -6   3  11   63.49    3.40
   6   3 -11   57.09    3.30
  -5  -3  11   61.29    3.00
  -5  -3  11   63.09    3.50
   5  -3 -11   66.19    3.20
   5  -3 -11   63.89    3.30
  -5  -3  11   63.49    3.20
  -5   3  11   68.19    3.60
  -5   3  11   55.39    3.10
   5   3 -11   65.19    2.90
   5   3 -11   65.39    3.40
   5   3 -11   61.39    3.40
  -4  -3  11   16.90    1.90
   4  -3 -11   14.30    1.60
   4  -3 -11   15.40    1.80
  -4  -3  11   14.30    2.20
   4  -3 -11   17.20    2.00
  -4   3  11   17.60    1.80
  -4   3  11   14.70    2.10
   4   3 -11   17.00    2.10
  -4   3  11   12.90    1.70
   4   3 -11   14.50    1.60
   4   3 -11   16.40    2.10
   3  -3 -11  247.98    7.00
  -3  -3  11  246.98    7.70
  -3  -3  11  248.98    7.50
   3  -3 -11  240.78    7.40
   3  -3 -11  245.98    7.20
  -3   3  11  251.57    7.10
   3   3 -11  248.08    7.00
   3   3 -11  238.18    7.60
  -3   3  11  247.48    7.70
   3   3 -11  248.98    7.40
  -3   3  11  251.07    7.20
   2  -3 -11   64.49    2.60
   2  -3 -11   61.19    2.70
  -2  -3  11   64.79    3.00
  -2  -3  11   66.39    2.90
   2  -3 -11   66.89    2.60
  -2   3  11   65.19    2.40
  -2   3  11   60.49    2.90
  -2   3  11   63.59    2.80
   2   3 -11   66.09    2.70
   2   3 -11   65.39    2.90
   2   3 -11   66.59    2.50
  -1  -3  11  145.79    4.80
   1  -3 -11  150.38    4.60
   1  -3 -11  143.69    4.50
  -1  -3  11  143.39    5.00
  -1  -3  11  143.29    4.40
   1  -3 -11  145.99    4.70
  -1  -3  11  152.18    4.40
   1   3 -11  143.09    4.90
   1   3 -11  149.29    4.60
  -1   3  11  143.49    4.90
  -1   3  11  146.99    4.90
   1   3 -11  148.49    4.40
   0  -3  11  441.86   11.90
   0  -3 -11  444.66   11.80
   0  -3 -11  440.46   12.00
   0  -3  11  425.06   12.30
   0  -3  11  439.86   11.80
   0  -3 -11  440.86   12.10
   0   3 -11  439.36   11.70
   0   3  11  443.06   12.20
   0   3  11  430.36   12.20
   0   3 -11  429.66   12.30
   0   3 -11  443.36   11.80
  -1  -3 -11   25.80    1.80
  -1  -3 -11   29.50    1.90
   1  -3  11   28.40    2.10
   1  -3  11   29.50    1.60
   1  -3  11   30.00    1.90
  -1  -3 -11   28.40    1.90
  -1   3 -11   30.70    1.80
  -1   3 -11   27.10    1.70
   1   3  11   28.30    1.90
   1   3  11   27.00    2.00
   1   3  11   30.60    2.00
  -1   3 -11   28.90    2.10
  -2  -3 -11  156.58    5.20
  -2  -3 -11  154.68    5.30
   2  -3  11  157.58    5.40
   2  -3  11  155.48    5.30
   2  -3  11  166.18    4.60
  -2  -3 -11  155.38    5.00
   2   3  11  156.58    5.40
   2   3  11  156.68    5.40
  -2   3 -11  161.18    5.00
  -2   3 -11  156.98    5.40
   2   3  11  161.78    5.10
  -2   3 -11  160.98    4.90
  -3  -3 -11  194.48    6.10
   3  -3  11  185.68    6.30
  -3  -3 -11  187.18    6.20
   3  -3  11  202.68    6.40
   3   3  11  193.38    6.30
  -3   3 -11  191.08    6.40
   3   3  11  198.78    5.80
  -3   3 -11  185.88    5.80
  -3   3 -11  197.78    6.00
   3   3  11  187.58    6.30
  -4  -3 -11    2.60    1.30
  -4  -3 -11    5.60    1.30
   4  -3  11    3.40    1.20
   4  -3  11    3.00    1.40
   4  -3  11    4.30    1.50
  -4   3 -11    3.30    1.20
   4   3  11    3.30    1.20
  -4   3 -11    1.80    1.10
   4   3  11    4.20    1.20
  -4   3 -11    2.90    1.10
  -5  -3 -11  239.88    7.90
   5  -3  11  239.98    8.10
   5  -3  11  242.18    7.80
  -5  -3 -11  233.48    7.80
   5  -3  11  238.48    7.80
   5   3  11  241.58    8.00
  -5   3 -11  248.88    7.70
   5   3  11  241.48    7.80
  -5   3 -11  240.48    8.10
  -6  -3 -11   20.30    3.60
   6  -3  11   22.80    3.40
   6  -3  11   22.40    3.60
  -6  -3 -11   21.10    3.10
  -6   3 -11   19.30    3.20
   6   3  11   22.10    2.90
   6   3  11   18.30    3.10
   6   3  11   15.80    3.20
   6  -4 -11    2.10    1.60
   6  -4 -11    5.50    1.60
  -6  -4  11    5.20    1.80
  -6  -4  11    4.50    1.50
  -6   4  11    3.60    1.60
  -6   4  11    1.10    1.70
   6   4 -11    4.00    1.60
   6   4 -11    1.90    1.60
   5  -4 -11  122.09    4.70
  -5  -4  11  120.89    5.00
   5  -4 -11  131.89    4.30
   5  -4 -11  124.59    4.70
  -5  -4  11  123.69    4.70
   5   4 -11  123.79    4.30
   5   4 -11  120.59    4.90
   5   4 -11  128.89    5.00
  -5   4  11  121.59    4.80
  -5   4  11  124.09    5.00
  -4  -4  11   19.50    2.30
   4  -4 -11   15.60    1.90
   4  -4 -11   18.10    1.90
   4  -4 -11   19.10    1.80
  -4  -4  11   19.50    2.30
  -4   4  11   20.10    2.30
   4   4 -11   18.00    2.30
   4   4 -11   18.80    1.80
   4   4 -11   18.50    2.20
  -4   4  11   24.00    2.00
  -4   4  11   19.30    2.00
   3  -4 -11   53.09    2.40
  -3  -4  11   49.30    2.80
   3  -4 -11   50.49    2.50
   3  -4 -11   53.59    2.70
  -3  -4  11   53.69    2.90
  -3   4  11   50.69    2.90
   3   4 -11   52.19    2.20
  -3   4  11   54.39    2.60
  -3   4  11   54.49    2.40
   3   4 -11   47.90    2.80
   3   4 -11   51.69    2.70
   2  -4 -11    8.20    1.40
  -2  -4  11    4.70    1.10
   2  -4 -11    5.80    1.40
   2  -4 -11    6.40    1.60
  -2  -4  11    3.30    1.10
  -2   4  11    4.60    1.10
  -2   4  11    5.70    1.20
   2   4 -11    6.30    1.60
   2   4 -11    5.80    1.20
  -2   4  11    6.50    1.60
   2   4 -11    4.90    1.20
  -1  -4  11  223.48    7.00
   1  -4 -11  225.88    6.70
   1  -4 -11  219.68    6.40
   1  -4 -11  222.58    6.80
  -1  -4  11  224.68    6.80
  -1  -4  11  218.08    6.30
  -1   4  11  227.18    7.00
   1   4 -11  228.78    6.60
   1   4 -11  224.28    6.20
   1   4 -11  216.38    6.90
  -1   4  11  222.98    6.90
   0  -4  11    0.40    0.90
   0  -4 -11    0.60    0.80
   0  -4  11    1.30    0.80
   0  -4  11    1.30    1.00
   0  -4 -11    0.10    0.80
   0  -4 -11    0.20    0.70
   0   4 -11    0.90    0.90
   0   4 -11    0.80    0.80
   0   4  11    2.40    0.90
   0   4 -11    0.10    0.70
   0   4  11   -0.20    0.80
  -1  -4 -11  946.11   25.20
  -1  -4 -11  950.20   25.10
   1  -4  11  952.20   25.40
   1  -4  11  955.10   24.70
   1  -4  11  966.10   25.10
  -1  -4 -11  928.71   24.70
   1   4  11  946.91   25.10
  -1   4 -11  977.00   24.70
  -1   4 -11  968.50   24.90
   1   4  11  948.01   25.20
   1   4  11  961.50   25.40
  -1   4 -11  948.61   25.40
  -2  -4 -11    7.40    1.70
   2  -4  11   10.50    1.30
  -2  -4 -11   12.40    1.70
  -2  -4 -11   12.90    1.70
   2  -4  11   14.70    2.00
   2  -4  11   12.10    1.90
  -2   4 -11   10.90    1.50
  -2   4 -11    9.90    1.30
  -2   4 -11   12.20    1.90
  -2   4 -11   10.30    1.50
   2   4  11   12.80    1.70
   2   4  11    8.90    1.90
   2   4  11    9.40    1.80
   3  -4  11  106.29    4.50
   3  -4  11  108.39    4.30
  -3  -4 -11  105.79    4.30
  -3  -4 -11  103.39    4.00
  -3  -4 -11  106.69    4.20
   3  -4  11  113.09    4.00
  -3   4 -11  113.29    3.90
  -3   4 -11  108.89    4.40
   3   4  11  110.69    4.40
   3   4  11  110.49    4.40
   3   4  11  110.19    4.00
  -3   4 -11  111.99    4.00
   4  -4  11   10.20    2.50
  -4  -4 -11   15.10    2.30
   4  -4  11    9.50    2.40
  -4  -4 -11   11.50    2.20
   4  -4  11    9.00    2.30
   4   4  11   12.90    2.20
  -4   4 -11    9.00    2.20
   4   4  11    8.10    2.10
  -4   4 -11    9.80    2.00
  -4   4 -11    8.00    2.10
   5  -4  11    3.80    1.70
   5  -4  11    1.50    1.70
   5  -4  11    3.80    1.70
  -5  -4 -11    3.20    1.50
  -5  -4 -11    1.00    1.60
  -5   4 -11    0.20    1.50
   5   4  11    1.30    1.40
   5   4  11    1.00    1.50
  -5   4 -11   -0.30    1.40
   6  -5 -11   51.69    3.70
  -6  -5  11   55.99    4.10
  -6   5  11   51.59    4.00
  -6   5  11   63.49    3.80
   6   5 -11   53.89    3.80
   6   5 -11   51.99    3.70
   5  -5 -11   29.90    2.80
   5  -5 -11   23.70    2.50
   5  -5 -11   32.90    2.70
  -5  -5  11   28.80    2.90
  -5  -5  11   26.70    2.90
  -5   5  11   24.80    2.90
   5   5 -11   24.90    2.70
   5   5 -11   27.20    2.80
  -5   5  11   24.60    3.00
   4  -5 -11   11.30    2.00
   4  -5 -11   11.10    2.10
  -4  -5  11   10.80    2.20
  -4  -5  11    8.50    1.60
   4  -5 -11   12.70    2.00
   4   5 -11   12.70    2.20
  -4   5  11   11.30    2.10
  -4   5  11    9.90    2.20
  -4   5  11    9.20    2.00
   4   5 -11    9.60    2.30
   3  -5 -11  206.18    6.20
  -3  -5  11  215.88    7.00
   3  -5 -11  208.58    6.70
   3  -5 -11  214.68    6.50
  -3  -5  11  211.28    6.90
  -3   5  11  217.48    6.50
  -3   5  11  213.28    6.30
   3   5 -11  210.38    6.80
   3   5 -11  204.48    6.80
  -3   5  11  202.68    6.90
   2  -5 -11   17.20    1.90
  -2  -5  11   16.60    2.10
   2  -5 -11   13.70    1.90
   2  -5 -11   15.60    1.50
  -2  -5  11   14.00    1.90
   2   5 -11   13.30    2.00
   2   5 -11   16.40    1.30
  -2   5  11   17.20    1.50
  -2   5  11   16.70    2.10
  -2   5  11   15.50    2.00
   2   5 -11   16.20    2.00
  -1  -5  11   22.90    2.00
  -1  -5  11   20.00    1.60
   1  -5 -11   22.80    2.00
  -1  -5  11   23.50    2.20
   1  -5 -11   22.40    1.90
   1  -5 -11   22.70    1.60
   1   5 -11   22.20    1.40
  -1   5  11   26.30    2.20
   1   5 -11   22.50    2.10
  -1   5  11   20.10    2.00
   1   5 -11   24.00    2.00
   0  -5  11  399.26   10.80
   0  -5 -11  382.56   10.50
   0  -5 -11  364.96   11.00
   0  -5  11  393.06   10.90
   0  -5 -11  399.06   11.10
   0  -5  11  398.26   11.40
   0   5 -11  394.46   11.00
   0   5 -11  387.96   11.20
   0   5  11  393.36   11.30
   0   5  11  391.96   11.30
   0   5 -11  404.76   10.50
   1  -5  11    7.80    1.90
   1  -5  11   10.50    1.50
   1  -5  11    9.80    1.80
  -1  -5 -11    9.30    1.80
  -1  -5 -11    6.80    1.50
  -1  -5 -11    6.80    1.70
   1   5  11    7.60    1.90
  -1   5 -11    8.10    1.40
  -1   5 -11   11.90    1.80
   1   5  11    6.50    1.80
  -1   5 -11    7.30    1.80
  -2  -5 -11  269.07    8.30
  -2  -5 -11  266.47    8.40
   2  -5  11  277.07    8.50
   2  -5  11  278.47    8.40
   2  -5  11  274.87    7.80
  -2  -5 -11  268.37    7.80
   2   5  11  272.67    8.40
  -2   5 -11  273.07    8.50
   2   5  11  277.37    8.30
  -2   5 -11  286.27    8.10
   2   5  11  274.47    8.50
  -2   5 -11  283.77    7.80
  -3  -5 -11   87.49    3.80
  -3  -5 -11   82.79    3.50
  -3  -5 -11   91.99    3.90
   3  -5  11   80.69    4.10
   3  -5  11   81.29    3.40
   3  -5  11   83.39    3.90
  -3   5 -11   89.59    3.90
   3   5  11   83.19    3.90
  -3   5 -11   84.09    3.60
   3   5  11   81.89    3.80
  -3   5 -11   87.99    3.50
   3   5  11   82.09    3.60
  -4  -5 -11   16.90    2.60
   4  -5  11   21.60    2.90
   4  -5  11   12.80    2.70
  -4  -5 -11   21.60    2.40
   4  -5  11   21.00    2.50
  -4  -5 -11   19.50    2.50
   4   5  11   16.10    2.60
  -4   5 -11   20.70    2.60
   4   5  11   23.20    2.70
  -4   5 -11   19.50    2.50
   5  -5  11   99.59    5.20
  -5  -5 -11  104.49    4.80
   5  -5  11  105.99    4.90
   5  -5  11  107.49    4.80
   5   5  11  107.59    4.90
   5   5  11  105.09    4.90
  -5   5 -11  112.19    4.90
  -5   5 -11  106.39    4.80
   5  -6 -11   19.60    2.80
  -5  -6  11   20.80    3.10
   5  -6 -11   19.70    2.80
  -5  -6  11   19.70    2.90
   5   6 -11   21.10    2.60
  -5   6  11   17.10    2.90
  -5   6  11   22.50    2.90
   5   6 -11   17.30    2.70
   4  -6 -11  530.15   14.70
  -4  -6  11  523.05   15.00
   4  -6 -11  523.85   14.90
  -4  -6  11  534.45   15.20
   4   6 -11  528.45   15.10
  -4   6  11  535.85   15.30
  -4   6  11  536.95   14.60
   4   6 -11  520.65   14.90
   3  -6 -11    1.70    1.30
  -3  -6  11    1.60    1.30
   3  -6 -11    1.70    1.20
  -3  -6  11   -0.30    1.20
  -3   6  11    2.10    1.10
   3   6 -11    2.30    1.40
   3   6 -11    3.20    1.20
  -3   6  11    3.40    1.30
  -3   6  11    1.60    1.10
   2  -6 -11  351.46   10.60
  -2  -6  11  379.16   10.90
  -2  -6  11  364.06   11.00
   2  -6 -11  377.16   10.70
   2   6 -11  369.96   10.80
  -2   6  11  363.66   10.10
   2   6 -11  368.46   10.90
  -2   6  11  382.66   10.70
  -2   6  11  376.76   11.10
   1  -6 -11   54.29    2.70
  -1  -6  11   47.60    2.40
  -1  -6  11   52.09    2.90
  -1  -6  11   53.99    3.10
   1  -6 -11   51.69    2.90
   1   6 -11   56.99    3.00
  -1   6  11   53.89    3.00
  -1   6  11   53.79    3.00
   1   6 -11   48.80    2.90
   0  -6 -11   50.09    2.80
   0  -6  11   54.09    2.70
   0  -6 -11   49.60    2.90
   0  -6  11   52.69    3.10
   0  -6  11   53.69    2.60
   0   6 -11   54.49    3.00
   0   6  11   56.09    3.10
   0   6  11   44.80    2.90
   0   6 -11   53.79    2.90
  -1  -6 -11   44.80    2.70
   1  -6  11   47.80    2.40
  -1  -6 -11   45.30    2.80
   1  -6  11   42.40    2.80
   1  -6  11   45.40    2.70
  -1   6 -11   47.70    2.80
   1   6  11   45.00    2.70
  -1   6 -11   43.90    2.80
   1   6  11   47.80    2.90
  -1   6 -11   42.20    2.40
   2  -6  11  416.66   11.90
  -2  -6 -11  401.06   11.70
   2  -6  11  399.36   11.90
  -2  -6 -11  408.16   11.80
  -2   6 -11  411.36   11.60
  -2   6 -11  409.46   11.90
   2   6  11  408.66   11.90
   2   6  11  394.76   11.70
   2   6  11  408.66   12.00
  -3  -6 -11    2.10    1.30
   3  -6  11    2.20    1.60
   3  -6  11   -0.80    1.30
  -3  -6 -11    0.20    1.30
  -3   6 -11    0.40    1.30
   3   6  11    1.40    1.30
   3   6  11    1.40    1.40
  -3   6 -11    0.00    1.50
   3   6  11    1.90    1.20
   4  -6  11  125.49    5.30
  -4  -6 -11  120.59    5.20
   4  -6  11  113.19    5.10
  -4  -6 -11  118.79    4.90
   4   6  11  124.39    6.40
   4   6  11  122.89    5.20
  -4   6 -11  118.29    5.00
   4   6  11  116.89    5.00
  -4   6 -11  123.29    5.10
   5  -7 -11  107.69    5.10
  -5  -7  11  109.59    5.30
  -5  -7  11  107.79    5.20
   5  -7 -11  116.89    5.00
  -5   7  11  114.69    5.00
   5   7 -11  105.69    5.00
   5   7 -11  109.99    5.20
  -5   7  11  109.49    5.30
   4  -7 -11   23.60    2.80
  -4  -7  11   27.40    2.80
  -4  -7  11   23.40    3.20
   4  -7 -11   27.00    2.80
  -4   7  11   19.30    2.80
  -4   7  11   22.90    3.20
   4   7 -11   23.50    2.80
   4   7 -11   20.10    2.70
   3  -7 -11  198.68    6.60
  -3  -7  11  204.98    6.90
   3  -7 -11  200.58    6.70
  -3  -7  11  200.58    6.90
  -3   7  11  199.58    7.00
   3   7 -11  190.78    6.70
   3   7 -11  198.78    6.80
  -3   7  11  201.48    6.40
  -3   7  11  184.88    6.40
  -2  -7  11    7.30    1.50
   2  -7 -11   10.50    2.30
   2  -7 -11    6.00    1.40
  -2  -7  11    8.20    2.20
  -2   7  11    6.70    1.50
  -2   7  11    8.60    2.20
   2   7 -11    7.20    1.60
   2   7 -11   10.10    2.20
   1  -7 -11  159.88    5.60
  -1  -7  11  154.38    5.70
   1  -7 -11  153.48    5.50
  -1  -7  11  156.88    5.60
   1   7 -11  164.58    5.70
  -1   7  11  155.68    5.70
  -1   7  11  153.48    5.70
   1   7 -11  157.48    5.60
   0  -7 -11   26.60    2.50
   0  -7  11   28.00    2.60
   0  -7 -11   29.30    2.60
   0  -7  11   26.10    2.50
   0  -7  11   28.30    2.30
   0   7 -11   26.70    2.70
   0   7 -11   30.90    2.50
   0   7  11   25.00    2.50
   0   7  11   28.50    2.80
   0   7 -11   30.80    2.50
  -1  -7 -11    5.90    1.40
   1  -7  11   10.80    2.20
   1  -7  11    7.90    1.40
   1  -7  11    5.00    1.40
  -1  -7 -11    8.30    2.00
   1   7  11    7.80    2.10
  -1   7 -11    8.00    2.10
   1   7  11    8.50    2.20
  -1   7 -11    7.90    1.70
  -1   7 -11    4.20    1.30
   2  -7  11   47.80    3.20
   2  -7  11   45.40    3.50
  -2  -7 -11   45.40    3.00
  -2  -7 -11   50.79    3.20
  -2   7 -11   51.19    3.10
   2   7  11   46.00    3.20
  -2   7 -11   46.50    3.40
   2   7  11   47.30    3.20
  -3  -7 -11  145.79    5.60
   3  -7  11  155.08    5.80
  -3  -7 -11  142.79    5.80
   3  -7  11  153.18    6.00
  -3   7 -11  153.48    5.80
   3   7  11  149.79    5.80
   3   7  11  148.69    5.70
   3   7  11  145.09    5.70
  -3   7 -11  151.28    5.70
   4  -7  11   -0.10    1.90
   4  -7  11   -1.80    1.70
  -4  -7 -11    0.90    1.80
  -4  -7 -11   -0.10    1.70
   4   7  11    0.40    1.50
   4   7  11   -2.50    1.90
  -4   7 -11    1.00    2.00
  -4   7 -11    1.00    1.60
   4   7  11   -1.20    1.80
  -4  -8  11   34.20    3.60
  -4  -8  11   33.90    3.40
   4  -8 -11   31.00    3.40
   4  -8 -11   32.80    3.20
   4   8 -11   34.30    3.40
   4   8 -11   34.00    3.50
  -4   8  11   27.50    3.70
   3  -8 -11    5.50    1.80
  -3  -8  11    2.60    1.50
  -3  -8  11    1.90    1.60
   3  -8 -11    3.00    1.60
  -3   8  11    0.50    1.80
  -3   8  11    1.40    1.50
   3   8 -11    3.10    1.60
   3   8 -11    1.90    1.60
   2  -8 -11   16.00    2.40
  -2  -8  11   15.50    2.70
   2  -8 -11   16.10    2.80
  -2  -8  11   15.40    2.70
  -2   8  11   17.70    2.90
  -2   8  11   13.90    2.50
   2   8 -11   10.70    2.90
   2   8 -11   18.60    2.70
   2   8 -11   15.20    2.60
  -1  -8  11  133.29    5.50
   1  -8 -11  140.69    5.30
  -1  -8  11  140.79    5.40
   1  -8 -11  141.39    5.30
  -1   8  11  143.69    5.50
   1   8 -11  139.69    5.50
  -1   8  11  135.29    5.50
   1   8 -11  140.89    5.30
   1   8 -11  142.49    5.40
   0  -8 -11    1.40    1.50
   0  -8  11    1.40    1.40
   0  -8  11    1.80    1.30
   0  -8  11   -0.80    1.50
   0  -8 -11    0.40    1.30
   0   8 -11    2.00    1.30
   0   8 -11    1.50    1.50
   0   8  11   -0.70    1.30
   0   8  11   -1.40    1.30
   0   8 -11    2.30    1.50
   1  -8  11  192.68    6.60
   1  -8  11  195.58    6.90
  -1  -8 -11  193.48    6.70
  -1  -8 -11  195.68    6.60
  -1   8 -11  195.38    6.70
  -1   8 -11  196.88    6.80
   1   8  11  186.88    6.90
   1   8  11  193.08    6.80
  -2  -8 -11   10.60    2.00
   2  -8  11   15.90    3.20
  -2  -8 -11   13.30    2.70
   2  -8  11   16.30    2.70
  -2   8 -11   15.70    2.70
   2   8  11   11.10    1.90
   2   8  11   15.00    2.90
  -2   8 -11   11.60    3.10
   3  -8  11  135.29    5.60
  -3  -8 -11  132.49    5.50
   3  -8  11  142.19    6.00
  -3  -8 -11  131.39    5.60
  -3   8 -11  138.59    5.60
  -3   8 -11  134.69    5.70
   3   8  11  133.09    5.80
   3   8  11  132.99    5.70
   3   8  11  139.69    5.70
  -2  -9  11   34.80    3.30
   2  -9 -11   26.90    3.00
   2  -9 -11   38.80    3.50
  -2  -9  11   32.50    3.60
   2   9 -11   29.10    3.40
   2   9 -11   39.30    3.40
  -2   9  11   40.70    3.60
   2   9 -11   40.90    3.70
  -2   9  11   33.80    3.50
  -1  -9  11    5.40    1.70
   1  -9 -11    4.70    1.90
   1  -9 -11    6.40    1.70
  -1  -9  11   11.80    2.90
   1   9 -11    5.30    1.80
   1   9 -11    6.50    2.10
   1   9 -11    2.80    1.80
  -1   9  11    4.90    1.80
  -1   9  11    7.50    1.90
   0  -9  11  260.67    8.40
   0  -9 -11  257.97    8.20
   0  -9 -11  260.57    8.40
   0  -9  11  249.58    8.60
   0   9 -11  252.97    8.40
   0   9  11  259.67    8.60
   0   9  11  255.27    8.60
   0   9 -11  249.68    8.40
   0   9 -11  238.68    8.20
   1  -9  11   10.40    2.80
   1  -9  11   17.20    3.10
  -1  -9 -11   12.00    3.00
  -1  -9 -11   14.30    3.00
  -1   9 -11   13.00    3.00
   1   9  11   18.30    3.40
   1   9  11   13.00    2.80
  -1   9 -11   18.90    3.20
  -7   0  12    0.30    1.90
   7   0 -12    0.00    1.90
  -7   0  12   -0.50    1.70
   7   0 -12    1.70    1.70
  -6   0  12  159.88    5.80
  -6   0  12  158.48    6.20
   6   0 -12  166.18    6.20
   6   0 -12  164.98    5.70
  -5   0  12   -1.80    1.10
   5   0 -12    0.40    1.30
   5   0 -12    0.40    1.10
  -5   0  12   -0.70    1.00
  -5   0  12   -0.80    1.20
  -4   0  12  291.47    8.80
   4   0 -12  286.17    8.30
   4   0 -12  286.77    8.30
  -4   0  12  284.57    8.20
   4   0 -12  256.67    8.50
  -4   0  12  288.77    8.30
   3   0 -12    0.20    1.00
  -3   0  12   -0.20    0.80
  -3   0  12    0.40    0.80
   3   0 -12   -0.90    0.80
  -3   0  12    0.10    1.00
   3   0 -12   -1.30    0.80
   2   0 -12  442.66   11.70
  -2   0  12  437.56   12.20
  -2   0  12  428.86   12.20
  -2   0  12  428.86   11.50
   2   0 -12  435.06   11.90
   2   0 -12  442.56   12.20
  -1   0  12    0.50    0.80
  -1   0  12    0.30    0.70
   1   0 -12    1.00    0.70
   1   0 -12   -0.10    0.60
  -1   0  12   -1.30    0.80
   1   0 -12    0.90    0.80
   1   0 -12   -0.10    0.70
   0   0 -12   12.70    1.50
   0   0  12   16.10    1.70
   0   0  12   14.50    1.40
   0   0 -12   13.40    1.70
   0   0  12   15.00    1.60
   1   0  12   -0.50    0.70
  -1   0 -12    1.30    0.80
   1   0  12   -1.00    0.80
  -1   0 -12    0.00    0.80
   1   0  12    0.40    0.80
  -2   0 -12  804.82   21.00
   2   0  12  781.52   20.50
   2   0  12  784.02   21.30
  -2   0 -12  783.72   21.20
   2   0  12  798.72   21.10
   3   0  12   -1.00    0.90
   3   0  12    1.40    1.30
  -3   0 -12    0.70    1.10
  -3   0 -12   -1.20    0.90
   4   0  12  477.05   13.60
  -4   0 -12  466.75   13.60
  -4   0 -12  469.95   13.40
   4   0  12  489.25   13.70
  -5   0 -12    1.00    1.40
  -5   0 -12   -2.00    1.20
   5   0  12   -0.50    1.40
   5   0  12   -3.10    1.30
   5   0  12   -0.20    1.40
  -7  -1  12   15.40    2.90
   7  -1 -12   18.10    3.60
   7  -1 -12   17.70    2.80
  -7  -1  12   22.50    3.50
   7   1 -12   21.60    2.90
   7   1 -12   23.40    3.50
   7   1 -12   17.50    3.30
  -7   1  12   14.90    3.00
  -7   1  12   19.10    3.50
  -6  -1  12   42.10    3.10
   6  -1 -12   49.00    3.60
  -6  -1  12   52.69    3.60
   6  -1 -12   51.79    3.00
  -6   1  12   47.10    3.10
   6   1 -12   51.49    3.50
   6   1 -12   51.69    3.10
  -6   1  12   50.69    3.60
   6   1 -12   46.90    3.60
  -5  -1  12  105.39    4.50
   5  -1 -12  108.29    4.10
  -5  -1  12   99.39    3.90
  -5  -1  12  103.19    4.10
   5  -1 -12  100.29    4.50
   5   1 -12  104.49    4.10
   5   1 -12  105.69    4.40
  -5   1  12  109.09    4.50
  -5   1  12  100.89    4.10
   5   1 -12  104.29    4.50
  -4  -1  12   14.40    1.80
   4  -1 -12   14.50    1.80
  -4  -1  12   14.80    2.20
   4  -1 -12   10.20    2.10
  -4  -1  12   14.10    1.80
  -4   1  12   12.50    1.70
  -4   1  12   13.50    1.70
   4   1 -12   12.50    1.80
   4   1 -12   13.10    2.20
  -4   1  12   17.60    2.20
   4   1 -12   14.20    1.90
  -3  -1  12  197.58    6.50
  -3  -1  12  205.08    6.30
   3  -1 -12  202.38    6.20
   3  -1 -12  204.38    5.70
   3  -1 -12  205.08    6.00
  -3  -1  12  202.68    6.10
   3  -1 -12  200.48    6.40
   3   1 -12  204.48    6.10
  -3   1  12  205.98    6.60
  -3   1  12  194.88    5.70
  -3   1  12  202.48    6.20
   3   1 -12  200.68    6.10
   3   1 -12  198.98    6.50
  -3   1  12  204.88    6.00
  -2  -1  12  112.89    4.10
  -2  -1  12  108.79    3.30
   2  -1 -12  112.89    3.50
   2  -1 -12  109.59    3.50
   2  -1 -12  109.29    4.00
  -2  -1  12  108.29    4.10
   2  -1 -12  111.89    3.90
   2   1 -12  110.49    3.60
   2   1 -12  114.19    3.80
  -2   1  12  114.99    3.50
  -2   1  12  108.69    4.10
   2   1 -12  109.29    4.10
  -2   1  12  111.39    4.00
  -2   1  12  109.79    3.60
   1  -1 -12   71.09    2.90
  -1  -1  12   71.99    3.10
  -1  -1  12   74.39    3.00
   1  -1 -12   71.69    2.70
  -1  -1  12   71.39    2.60
   1  -1 -12   73.29    2.30
   1  -1 -12   73.79    3.00
  -1   1  12   68.59    3.10
  -1   1  12   72.09    2.70
   1   1 -12   71.79    2.80
  -1   1  12   70.99    3.00
   1   1 -12   72.69    3.10
   1   1 -12   74.29    2.60
   0  -1 -12  200.88    6.20
   0  -1 -12  204.38    6.10
   0  -1  12  204.68    6.40
   0  -1  12  205.38    6.00
   0  -1  12  202.18    6.00
   0   1 -12  202.88    6.30
   0   1  12  205.18    6.00
   0   1 -12  205.88    5.60
   0   1 -12  208.58    6.00
   0   1  12  199.58    6.10
   0   1  12  199.68    6.30
   0   1 -12  173.98    5.60
   1  -1  12  194.38    5.80
  -1  -1 -12  190.68    5.80
  -1  -1 -12  186.98    5.90
   1  -1  12  187.28    5.50
   1  -1  12  182.38    6.00
  -1   1 -12  182.18    6.00
   1   1  12  188.68    5.70
  -1   1 -12  180.88    5.10
   1   1  12  186.58    5.80
   1   1  12  185.48    6.00
  -1   1 -12  192.78    5.70
   2  -1  12  241.68    7.30
   2  -1  12  230.08    7.40
  -2  -1 -12  242.18    7.20
  -2  -1 -12  237.68    7.30
   2  -1  12  236.08    6.60
  -2   1 -12  235.98    6.50
  -2   1 -12  243.18    7.10
   2   1  12  238.68    6.80
  -2   1 -12  241.08    7.40
   2   1  12  241.48    7.50
   2   1  12  246.28    7.40
  -3  -1 -12  243.08    7.40
   3  -1  12  241.98    7.60
  -3  -1 -12  240.88    7.60
   3  -1  12  242.98    7.60
  -3   1 -12  246.88    7.30
   3   1  12  236.68    7.60
   3   1  12  239.78    7.60
  -3   1 -12  237.18    7.60
  -4  -1 -12   -2.00    1.00
  -4  -1 -12    1.40    1.30
   4  -1  12    0.80    1.30
   4   1  12    0.10    1.10
  -4   1 -12    3.80    1.30
   4   1  12    2.00    1.30
  -4   1 -12    0.00    1.10
   5  -1  12  126.59    5.20
  -5  -1 -12  126.89    5.40
  -5  -1 -12  129.69    4.90
   5  -1  12  123.99    5.30
   5  -1  12  133.69    5.10
  -5   1 -12  129.89    5.30
   5   1  12  139.59    5.20
   5   1  12  121.49    5.30
  -5   1 -12  123.49    4.90
  -7  -2  12  176.78    7.10
   7  -2 -12  164.48    6.90
   7  -2 -12  173.18    6.40
  -7  -2  12  177.88    6.50
   7   2 -12  173.78    6.70
   7   2 -12  165.18    7.00
   7   2 -12  172.08    6.30
  -7   2  12  171.28    6.50
  -7   2  12  173.38    7.00
   6  -2 -12    2.80    1.30
   6  -2 -12    1.90    1.70
  -6  -2  12    2.40    1.40
  -6  -2  12   -0.80    1.70
   6   2 -12   -0.60    1.50
  -6   2  12   -0.20    1.60
   6   2 -12   -0.10    1.50
  -6   2  12   -1.40    1.40
   6   2 -12   -0.80    1.40
   5  -2 -12   18.90    2.80
   5  -2 -12   23.10    2.30
  -5  -2  12   14.50    2.10
  -5  -2  12   21.60    2.20
  -5  -2  12   23.50    2.50
   5   2 -12   23.00    2.50
   5   2 -12   18.40    2.60
   5   2 -12   20.20    2.30
  -5   2  12   14.80    2.30
  -5   2  12   21.80    2.50
   4  -2 -12    5.50    1.30
   4  -2 -12    9.40    2.00
   4  -2 -12    6.70    1.50
  -4  -2  12   10.40    1.80
  -4  -2  12    9.40    1.90
  -4  -2  12    8.00    2.10
   4   2 -12   12.00    1.80
  -4   2  12    7.20    1.50
   4   2 -12    7.90    2.00
  -4   2  12    9.70    1.70
   4   2 -12    6.60    1.40
  -4   2  12    8.70    1.70
   3  -2 -12   93.09    3.10
   3  -2 -12   92.29    3.60
  -3  -2  12   89.19    3.80
   3  -2 -12   91.29    3.60
  -3  -2  12   95.89    3.70
   3   2 -12   87.79    3.80
  -3   2  12   89.09    3.80
  -3   2  12   93.69    3.30
  -3   2  12   96.99    3.50
   3   2 -12   98.59    3.50
   3   2 -12   89.49    3.30
   2  -2 -12    2.20    0.90
  -2  -2  12    3.30    1.10
   2  -2 -12    3.90    0.90
  -2  -2  12    3.20    1.00
  -2  -2  12    3.80    0.90
   2  -2 -12    2.80    0.90
   2  -2 -12    1.90    0.70
   2   2 -12    3.60    0.80
   2   2 -12    2.40    1.00
  -2   2  12    0.70    0.90
  -2   2  12    2.10    0.70
  -2   2  12    4.90    1.10
   2   2 -12    2.70    0.90
  -1  -2  12 1646.14   42.60
   1  -2 -12 1648.24   42.20
  -1  -2  12 1643.24   42.00
  -1  -2  12 1624.04   42.40
   1  -2 -12 1649.63   42.30
   1  -2 -12 1619.04   42.40
   1   2 -12 1664.83   42.10
  -1   2  12 1639.44   42.20
  -1   2  12 1647.24   42.50
  -1   2  12 1645.24   42.50
   1   2 -12 1650.13   42.00
   1   2 -12 1653.03   42.60
   0  -2  12    2.20    0.90
   0  -2  12    2.10    0.90
   0  -2 -12    0.90    0.80
   0  -2 -12    2.80    0.90
   0  -2  12    1.50    0.80
   0  -2 -12    2.20    0.80
   0   2  12    3.30    0.90
   0   2  12    1.60    0.90
   0   2 -12    0.00    0.70
   0   2 -12   -0.50    0.70
   0   2 -12    0.10    0.90
   0   2  12    3.20    0.90
   1  -2  12  301.57    9.10
  -1  -2 -12  308.77    8.80
   1  -2  12  307.07    8.80
  -1  -2 -12  302.97    8.70
   1  -2  12  307.47    8.50
  -1  -2 -12  299.97    8.80
  -1   2 -12  309.77    8.60
   1   2  12  304.27    8.70
   1   2  12  306.47    8.90
   1   2  12  312.37    9.10
  -1   2 -12  294.57    8.30
  -1   2 -12  309.67    9.10
   2  -2  12    7.00    1.30
   2  -2  12    6.40    1.70
  -2  -2 -12    8.20    1.60
   2  -2  12    7.70    1.30
  -2  -2 -12    5.80    1.10
   2   2  12    6.60    1.20
   2   2  12    5.60    1.00
  -2   2 -12    7.20    1.80
   2   2  12    5.10    1.20
  -2   2 -12    7.80    1.50
  -2   2 -12    6.80    1.40
  -3  -2 -12   42.80    2.70
  -3  -2 -12   43.50    2.50
   3  -2  12   36.70    2.60
   3  -2  12   46.80    2.90
   3   2  12   47.00    2.20
  -3   2 -12   39.20    2.10
  -3   2 -12   43.60    2.80
   3   2  12   45.10    2.90
   3   2  12   43.00    2.80
  -3   2 -12   39.60    2.40
  -4  -2 -12    1.80    1.10
   4  -2  12    0.50    1.30
   4  -2  12   -0.20    1.30
   4  -2  12    0.30    1.20
  -4  -2 -12    0.20    1.30
  -4   2 -12    3.10    1.30
   4   2  12    0.90    1.20
   4   2  12   -0.40    1.10
  -4   2 -12    0.70    1.10
  -5  -2 -12  108.19    5.10
   5  -2  12  120.79    4.90
   5  -2  12  119.49    5.20
  -5  -2 -12  109.99    4.70
   5  -2  12  113.69    4.90
  -5   2 -12  116.09    4.60
   5   2  12  114.09    5.00
   5   2  12  110.39    4.80
  -5   2 -12  111.39    5.00
   6  -3 -12   63.39    3.60
  -6  -3  12   62.09    3.50
   6  -3 -12   61.89    4.00
  -6  -3  12   62.39    4.10
  -6   3  12   64.29    3.70
  -6   3  12   64.99    4.00
   6   3 -12   67.19    3.50
   6   3 -12   67.59    3.80
   6   3 -12   63.79    4.00
   5  -3 -12   20.90    2.30
  -5  -3  12   17.80    2.50
  -5  -3  12   22.00    2.40
  -5  -3  12   18.70    2.40
   5  -3 -12   24.90    2.60
   5   3 -12   20.90    2.70
   5   3 -12   25.20    2.30
   5   3 -12   17.20    2.50
  -5   3  12   19.00    2.60
  -5   3  12   18.70    2.50
   4  -3 -12   33.20    2.40
   4  -3 -12   35.00    2.00
  -4  -3  12   36.00    2.70
  -4  -3  12   33.90    2.60
   4  -3 -12   33.80    2.40
  -4   3  12   29.40    2.20
   4   3 -12   35.40    2.60
  -4   3  12   33.50    2.20
   4   3 -12   33.20    2.50
  -4   3  12   32.30    2.60
   4   3 -12   34.30    2.10
  -3  -3  12  147.09    5.20
  -3  -3  12  138.89    5.20
   3  -3 -12  153.28    4.80
   3  -3 -12  150.38    5.10
   3  -3 -12  153.18    5.00
   3   3 -12  153.48    4.70
  -3   3  12  151.78    5.40
  -3   3  12  156.48    4.70
   3   3 -12  145.79    5.30
  -3   3  12  153.18    5.00
   3   3 -12  149.79    5.00
   2  -3 -12  133.29    4.70
   2  -3 -12  136.69    4.50
   2  -3 -12  136.19    4.40
  -2  -3  12  136.29    4.80
  -2  -3  12  135.29    4.90
  -2   3  12  138.89    4.70
   2   3 -12  135.19    4.90
  -2   3  12  134.59    4.10
   2   3 -12  138.99    4.50
  -2   3  12  133.29    4.90
   2   3 -12  138.09    4.30
   1  -3 -12    1.90    0.80
  -1  -3  12    2.70    1.10
  -1  -3  12    0.10    0.90
   1  -3 -12   -0.20    0.80
   1  -3 -12   -0.70    0.80
  -1  -3  12    0.60    0.80
   1   3 -12    0.30    0.70
   1   3 -12    1.30    1.00
   1   3 -12    1.30    0.80
  -1   3  12    2.40    1.00
  -1   3  12    1.20    0.90
   0  -3  12  739.93   19.50
   0  -3  12  731.83   19.90
   0  -3  12  742.03   19.40
   0  -3 -12  739.93   19.60
   0  -3 -12  730.73   19.60
   0  -3 -12  726.73   19.40
   0   3  12  735.63   19.70
   0   3 -12  756.62   19.30
   0   3 -12  725.43   19.90
   0   3  12  725.53   19.80
   0   3 -12  742.63   19.30
   0   3  12  739.93   19.60
   1  -3  12    1.60    0.80
  -1  -3 -12    0.80    0.80
  -1  -3 -12    1.90    0.90
  -1  -3 -12    0.90    0.90
   1  -3  12    0.70    1.00
   1  -3  12    1.50    0.90
  -1   3 -12    1.90    0.80
   1   3  12    1.80    0.90
   1   3  12    0.60    0.90
  -1   3 -12    0.60    0.80
   1   3  12    2.20    1.10
  -1   3 -12    2.30    1.00
   2  -3  12  152.48    5.50
  -2  -3 -12  158.78    5.30
  -2  -3 -12  156.78    5.10
  -2  -3 -12  155.58    5.30
   2  -3  12  159.48    5.40
  -2   3 -12  151.48    4.80
   2   3  12  160.08    5.40
  -2   3 -12  166.08    5.10
  -2   3 -12  158.18    5.50
   2   3  12  153.88    5.50
   2   3  12  159.38    5.10
   3  -3  12   95.49    4.30
   3  -3  12  104.99    4.20
  -3  -3 -12  103.59    4.00
  -3  -3 -12  102.19    4.00
   3   3  12  101.59    3.80
  -3   3 -12   99.39    3.60
  -3   3 -12  103.39    4.30
  -3   3 -12  103.09    3.90
   3   3  12  104.69    4.30
   3   3  12  104.39    4.30
   4  -3  12    2.40    1.50
  -4  -3 -12    0.60    1.40
  -4  -3 -12    2.20    1.40
   4  -3  12   -0.40    1.20
   4  -3  12    0.50    1.40
   4   3  12    2.80    1.40
  -4   3 -12    0.80    1.30
  -4   3 -12   -0.80    1.20
   4   3  12    1.20    1.20
  -5  -3 -12   36.10    3.50
   5  -3  12   33.00    3.50
  -5  -3 -12   35.60    3.10
   5  -3  12   37.70    3.40
   5  -3  12   38.60    3.40
  -5   3 -12   32.30    2.90
  -5   3 -12   34.20    3.30
   5   3  12   35.90    3.20
   5   3  12   36.30    3.20
   6  -4 -12   51.99    3.50
   6  -4 -12   47.30    3.80
  -6  -4  12   46.70    3.80
   6   4 -12   52.29    3.80
  -6   4  12   52.09    3.70
  -6   4  12   44.10    3.80
   6   4 -12   51.89    3.60
   5  -4 -12    2.40    1.30
   5  -4 -12    3.00    1.40
  -5  -4  12    2.00    1.50
  -5  -4  12    4.10    1.40
  -5   4  12    2.70    1.60
   5   4 -12    2.40    2.00
   5   4 -12    2.90    1.50
  -5   4  12    1.30    1.60
   5   4 -12    2.60    1.40
   4  -4 -12  344.07    9.40
  -4  -4  12  333.67   10.20
   4  -4 -12  324.57    9.80
   4  -4 -12  323.87    9.50
  -4  -4  12  332.37    9.90
  -4   4  12  350.46    9.60
   4   4 -12  327.47    9.90
  -4   4  12  319.67    9.40
   4   4 -12  321.57   10.00
  -4   4  12  334.97   10.20
   4   4 -12  335.87    9.20
   3  -4 -12    7.20    1.60
   3  -4 -12    7.70    1.60
  -3  -4  12    3.90    1.30
   3  -4 -12    4.50    1.20
  -3  -4  12    7.40    2.00
  -3   4  12    7.10    1.60
   3   4 -12    5.70    1.40
  -3   4  12    5.90    1.10
   3   4 -12    7.60    2.00
   3   4 -12    6.60    1.50
  -3   4  12    7.40    2.00
  -2  -4  12   41.20    2.70
  -2  -4  12   47.10    2.70
   2  -4 -12   49.70    2.60
   2  -4 -12   47.10    2.40
   2  -4 -12   45.90    2.40
  -2   4  12   45.50    2.70
  -2   4  12   50.89    2.80
  -2   4  12   46.60    2.00
   2   4 -12   51.79    2.90
   2   4 -12   46.40    2.60
   2   4 -12   48.80    2.10
   1  -4 -12   17.70    1.80
   1  -4 -12   15.20    1.70
   1  -4 -12   14.10    1.80
  -1  -4  12   16.40    1.80
  -1  -4  12   16.20    1.60
  -1  -4  12   15.60    2.00
  -1   4  12   16.50    2.10
   1   4 -12   15.00    1.40
  -1   4  12   16.80    1.90
   1   4 -12   17.10    1.90
   1   4 -12   17.30    1.70
   0  -4  12   10.30    1.70
   0  -4 -12   11.50    1.70
   0  -4 -12    9.50    1.60
   0  -4  12   12.80    1.90
   0  -4 -12    8.80    1.70
   0  -4  12    8.80    1.60
   0   4 -12   12.40    1.40
   0   4  12    7.90    1.90
   0   4 -12   10.40    1.50
   0   4  12    8.90    1.70
   0   4 -12   10.70    1.80
   1  -4  12   11.00    1.60
  -1  -4 -12   12.70    1.80
  -1  -4 -12   13.30    1.70
  -1  -4 -12   15.00    1.70
   1  -4  12   10.70    2.00
   1  -4  12   10.20    1.80
   1   4  12   12.40    1.90
  -1   4 -12   11.50    1.60
   1   4  12   11.50    1.90
  -1   4 -12   11.70    1.50
   1   4  12   10.50    1.90
  -1   4 -12   14.80    2.00
  -2  -4 -12  219.98    7.00
   2  -4  12  225.38    7.20
  -2  -4 -12  216.58    6.90
  -2  -4 -12  214.18    6.60
   2  -4  12  223.38    7.10
   2   4  12  223.38    7.20
   2   4  12  218.78    7.20
  -2   4 -12  222.88    7.20
  -2   4 -12  220.58    6.60
   2   4  12  216.38    6.80
  -2   4 -12  232.48    6.60
   3  -4  12   -0.10    1.50
   3  -4  12   -0.10    1.10
  -3  -4 -12    0.20    1.10
  -3  -4 -12    2.10    1.10
  -3  -4 -12   -0.10    1.10
   3  -4  12   -0.50    1.10
   3   4  12   -0.40    1.00
  -3   4 -12    0.30    1.00
  -3   4 -12   -0.20    1.10
   3   4  12   -0.50    1.20
   3   4  12   -1.20    1.00
  -3   4 -12    0.00    1.10
  -4  -4 -12  214.78    7.10
   4  -4  12  211.18    7.30
   4  -4  12  216.48    7.20
   4  -4  12  219.28    7.00
  -4  -4 -12  196.58    6.90
   4   4  12  217.38    7.30
  -4   4 -12  221.58    6.90
  -4   4 -12  188.08    6.60
  -4   4 -12  214.28    7.30
   4   4  12  210.38    7.10
   5  -4  12    5.90    2.10
   5  -4  12    5.00    2.00
  -5  -4 -12    6.70    1.80
   5  -4  12    6.40    1.90
  -5  -4 -12    5.40    1.80
  -5   4 -12    2.00    1.70
  -5   4 -12    3.70    1.70
   5   4  12    7.90    1.90
   5   4  12    4.40    1.60
   6  -5 -12    7.50    1.90
  -6  -5  12    9.40    2.30
   6   5 -12   12.50    3.30
   6   5 -12   11.20    3.00
  -6   5  12    9.40    2.10
  -6   5  12   12.60    3.50
   5  -5 -12  114.99    5.00
  -5  -5  12  120.19    5.10
  -5  -5  12  126.89    5.30
  -5   5  12  127.99    5.50
  -5   5  12  131.69    5.10
   5   5 -12  132.19    5.20
   5   5 -12  124.89    5.10
   4  -5 -12    1.80    1.30
   4  -5 -12    1.00    1.30
  -4  -5  12    2.20    1.40
  -4  -5  12    2.70    1.40
  -4   5  12    2.10    1.20
  -4   5  12    2.30    1.50
  -4   5  12   -0.50    1.30
   4   5 -12   -0.70    1.40
   4   5 -12    1.80    1.30
   3  -5 -12  180.78    5.70
  -3  -5  12  172.58    6.10
  -3  -5  12  166.58    6.10
   3  -5 -12  174.18    5.90
  -3   5  12  183.58    5.40
   3   5 -12  167.38    6.00
  -3   5  12  172.28    6.10
  -3   5  12  170.38    5.70
   3   5 -12  169.68    6.00
   2  -5 -12   19.70    2.00
   2  -5 -12   14.00    1.70
  -2  -5  12   15.80    2.00
  -2  -5  12   13.60    2.40
   2  -5 -12   16.90    2.10
   2   5 -12   13.70    2.10
  -2   5  12   15.00    2.10
  -2   5  12   16.40    2.20
   2   5 -12   15.40    2.20
  -1  -5  12    4.10    1.00
   1  -5 -12    6.20    1.40
  -1  -5  12    4.40    1.30
  -1  -5  12    6.80    1.90
   1  -5 -12    7.80    1.90
   1  -5 -12    7.10    1.80
   1   5 -12    5.70    1.30
   1   5 -12    7.30    2.00
  -1   5  12    4.60    1.20
   1   5 -12    5.70    0.90
  -1   5  12    8.90    1.90
   0  -5  12  194.18    6.50
   0  -5 -12  196.28    6.30
   0  -5 -12  180.48    5.70
   0  -5  12  194.88    6.00
   0  -5 -12  200.28    6.20
   0  -5  12  201.78    6.10
   0   5 -12  202.88    6.50
   0   5  12  172.08    6.20
   0   5 -12  198.68    6.10
   0   5 -12  196.38    5.60
   0   5  12  193.88    6.50
   1  -5  12   68.29    3.50
  -1  -5 -12   64.09    3.20
   1  -5  12   70.99    3.20
  -1  -5 -12   59.49    2.80
   1  -5  12   67.39    2.90
  -1  -5 -12   72.59    3.30
  -1   5 -12   67.89    2.70
   1   5  12   71.49    3.50
   1   5  12   68.59    3.40
  -1   5 -12   66.29    3.00
   1   5  12   69.39    3.30
  -1   5 -12   68.09    3.40
   2  -5  12  133.29    5.00
   2  -5  12  132.49    5.00
  -2  -5 -12  129.19    4.80
   2  -5  12  122.99    4.30
  -2  -5 -12  128.29    4.90
   2   5  12  125.39    4.80
  -2   5 -12  130.79    4.30
   2   5  12  127.69    5.00
  -2   5 -12  131.09    4.60
   2   5  12  127.99    5.00
  -2   5 -12  129.39    5.00
   3  -5  12  196.78    6.70
   3  -5  12  185.28    6.20
   3  -5  12  185.68    6.80
  -3  -5 -12  204.18    6.70
  -3  -5 -12  201.28    6.60
  -3   5 -12  192.88    6.30
   3   5  12  203.88    6.90
   3   5  12  200.28    6.50
  -3   5 -12  196.38    6.80
   3   5  12  195.68    6.80
  -3   5 -12  205.08    6.30
   4  -5  12    0.60    1.60
   4  -5  12    3.00    1.60
  -4  -5 -12    2.10    1.50
   4  -5  12    1.10    1.60
  -4   5 -12    4.90    1.70
   4   5  12    1.30    1.60
   4   5  12    0.60    1.30
  -4   5 -12    3.80    1.40
  -4   5 -12    2.20    1.60
  -5  -6  12    7.30    1.90
   5  -6 -12    6.50    1.90
  -5  -6  12   10.30    2.10
   5   6 -12    7.50    1.90
   5   6 -12    8.10    1.70
  -5   6  12    8.00    2.00
  -5   6  12   12.00    3.30
   4  -6 -12   31.70    3.00
   4  -6 -12   29.70    2.90
  -4  -6  12   30.70    3.30
  -4  -6  12   39.30    2.90
  -4   6  12   36.20    3.20
  -4   6  12   34.70    2.80
   4   6 -12   33.90    3.00
   4   6 -12   32.10    2.90
   3  -6 -12    3.40    1.40
   3  -6 -12    4.20    1.40
  -3  -6  12    5.20    1.60
  -3  -6  12    3.00    1.40
   3   6 -12    3.50    1.50
   3   6 -12    4.20    1.40
  -3   6  12    3.50    1.40
  -3   6  12    4.80    1.30
  -2  -6  12   16.60    2.50
  -2  -6  12   16.70    2.30
   2  -6 -12   14.00    2.30
   2  -6 -12   11.70    2.10
  -2   6  12   15.10    2.50
   2   6 -12   10.60    2.10
   2   6 -12   15.50    2.40
  -2   6  12   15.50    2.30
   1  -6 -12  570.74   15.80
   1  -6 -12  575.44   15.80
  -1  -6  12  561.94   15.80
  -1  -6  12  565.14   16.10
   1   6 -12  575.54   15.80
   1   6 -12  565.54   16.00
  -1   6  12  586.84   16.00
  -1   6  12  569.34   16.10
   0  -6 -12    3.00    1.40
   0  -6 -12    5.80    1.30
   0  -6  12    2.90    1.20
   0  -6  12    5.90    1.30
   0  -6  12    3.90    1.20
   0   6 -12    6.00    1.50
   0   6 -12    5.00    1.30
   0   6  12    5.50    1.40
   0   6  12    6.60    1.50
  -1  -6 -12  230.68    7.40
   1  -6  12  233.48    7.30
  -1  -6 -12  237.48    7.50
   1  -6  12  228.08    7.60
   1  -6  12  240.78    7.00
   1   6  12  236.58    7.70
  -1   6 -12  232.88    7.00
  -1   6 -12  237.98    7.40
   1   6  12  225.58    7.50
  -1   6 -12  230.68    7.60
   2  -6  12   41.60    3.30
  -2  -6 -12   40.40    2.90
   2  -6  12   41.90    3.10
  -2  -6 -12   45.20    3.00
  -2   6 -12   48.30    3.10
   2   6  12   43.20    3.00
  -2   6 -12   42.20    3.00
   2   6  12   42.80    3.10
   2   6  12   44.20    3.20
   3  -6  12   16.70    2.80
   3  -6  12   20.60    3.30
  -3  -6 -12   14.50    2.50
  -3  -6 -12   19.80    2.60
   3   6  12   19.20    2.90
  -3   6 -12   19.40    2.60
   3   6  12   17.30    2.60
  -3   6 -12   20.10    2.80
   3   6  12   21.20    2.80
   4  -6  12    8.00    1.90
  -4  -6 -12    6.80    2.00
  -4  -6 -12    9.60    1.90
   4  -6  12   10.80    2.30
   4   6  12   11.70    2.80
   4   6  12    7.60    2.00
  -4   6 -12    9.20    1.70
  -4   6 -12    8.50    2.00
   4  -7 -12    6.10    1.90
  -4  -7  12    4.40    1.80
  -4  -7  12    4.80    1.70
   4  -7 -12    5.00    1.80
   4   7 -12    2.10    1.70
   4   7 -12    1.20    1.50
  -4   7  12    2.50    2.00
   3  -7 -12   56.89    3.40
   3  -7 -12   54.89    3.40
  -3  -7  12   53.99    3.50
  -3  -7  12   58.29    3.60
  -3   7  12   54.99    3.70
   3   7 -12   55.19    3.50
   3   7 -12   55.79    3.50
  -3   7  12   57.69    3.50
   2  -7 -12   59.09    3.40
   2  -7 -12   52.99    3.20
  -2  -7  12   59.69    3.60
  -2  -7  12   60.29    3.30
  -2   7  12   52.29    3.40
  -2   7  12   60.89    3.60
   2   7 -12   55.49    3.40
   2   7 -12   59.09    3.40
  -1  -7  12    3.10    1.40
  -1  -7  12    1.20    1.50
   1  -7 -12   -1.10    1.30
   1  -7 -12    1.30    1.20
   1   7 -12    0.10    1.20
  -1   7  12    0.20    1.40
  -1   7  12    0.80    1.40
   1   7 -12    0.50    1.50
   0  -7  12  271.37    8.30
   0  -7 -12  279.07    8.70
   0  -7 -12  284.37    8.60
   0  -7  12  280.47    8.90
   0  -7  12  284.47    8.50
   0   7 -12  280.07    8.70
   0   7  12  275.87    8.80
   0   7  12  274.47    8.80
   0   7 -12  271.87    8.40
   0   7 -12  283.37    8.80
  -1  -7 -12   20.30    2.50
   1  -7  12   24.20    2.70
  -1  -7 -12   23.00    2.60
   1  -7  12   22.70    2.70
  -1   7 -12   21.20    2.50
   1   7  12   22.40    2.80
   1   7  12   21.30    2.60
  -1   7 -12   27.60    3.00
   2  -7  12  140.29    5.50
  -2  -7 -12  127.79    5.20
   2  -7  12  134.09    5.40
  -2  -7 -12  134.39    5.30
   2   7  12  139.19    5.50
  -2   7 -12  140.19    5.40
   2   7  12  132.69    5.50
   2   7  12  134.99    5.40
  -2   7 -12  136.29    5.40
   3  -7  12   13.40    3.40
   3  -7  12   16.30    3.00
  -3  -7 -12   13.70    2.90
  -3  -7 -12   19.90    2.90
   3   7  12   20.10    3.10
  -3   7 -12   10.20    2.80
   3   7  12   14.80    3.00
  -3   7 -12   14.00    3.20
   3   7  12   19.70    3.10
  -3  -8  12    7.30    1.90
   3  -8 -12   14.30    2.80
  -3  -8  12   10.40    2.90
   3  -8 -12    9.40    1.90
   3   8 -12    9.60    2.10
  -3   8  12    8.70    2.10
   3   8 -12    8.60    1.90
  -3   8  12    8.60    1.90
   2  -8 -12   52.19    3.40
  -2  -8  12   48.60    3.50
  -2  -8  12   47.70    3.70
   2  -8 -12   53.59    3.50
   2   8 -12   51.79    3.50
   2   8 -12   52.19    3.50
  -2   8  12   53.79    3.70
  -2   8  12   49.90    3.70
   1  -8 -12   26.90    2.70
  -1  -8  12   29.90    3.10
   1  -8 -12   28.40    3.10
  -1  -8  12   28.50    3.10
   1   8 -12   29.10    3.20
  -1   8  12   26.80    3.30
   1   8 -12   26.50    3.00
  -1   8  12   26.90    2.80
   1   8 -12   32.40    2.90
   0  -8 -12   -0.50    1.60
   0  -8  12    1.70    1.40
   0  -8  12    1.50    1.60
   0  -8 -12   -0.80    1.30
   0   8 -12    0.60    1.60
   0   8 -12    1.40    1.50
   0   8 -12    2.30    1.70
   0   8  12   -1.00    1.40
   0   8  12    0.50    1.40
   1  -8  12   22.50    2.90
   1  -8  12   24.50    3.10
  -1  -8 -12   28.10    2.90
  -1  -8 -12   22.00    3.00
  -1   8 -12   30.60    3.00
   1   8  12   21.00    3.20
  -1   8 -12   25.70    3.30
   1   8  12   23.90    2.90
   2  -8  12   85.59    4.70
   2  -8  12   84.99    4.40
  -2  -8 -12   87.19    4.50
  -2  -8 -12   82.49    4.40
   2   8  12   81.29    4.40
  -2   8 -12   79.69    4.40
  -2   8 -12   94.39    4.70
   2   8  12   81.09    4.60
  -6   0  13    1.30    1.70
  -6   0  13   -1.60    1.50
   6   0 -13    0.40    1.80
   6   0 -13    1.20    1.60
   6   0 -13    2.00    1.40
   5   0 -13    7.90    1.70
   5   0 -13    7.80    1.70
  -5   0  13   14.70    2.40
  -5   0  13    5.40    2.00
   5   0 -13   13.80    2.10
  -5   0  13   10.60    2.30
  -4   0  13   -0.10    1.00
   4   0 -13    0.30    1.10
   4   0 -13    0.80    1.30
   4   0 -13   -1.40    1.00
  -4   0  13    0.20    1.00
  -4   0  13    0.60    1.30
  -3   0  13  136.89    4.40
  -3   0  13  132.99    5.00
  -3   0  13  136.69    4.80
   3   0 -13  139.69    5.00
   3   0 -13  134.29    4.60
   3   0 -13  138.49    4.40
   2   0 -13   -0.40    1.00
   2   0 -13   -0.90    0.80
  -2   0  13    0.80    1.00
  -2   0  13    0.70    0.70
  -2   0  13   -1.50    0.90
   2   0 -13   -1.10    0.80
  -1   0  13  325.57    9.00
   1   0 -13  324.87    9.20
  -1   0  13  323.17    9.40
   1   0 -13  328.37    9.40
   1   0 -13  311.47    8.70
  -1   0  13  329.17    9.60
   0   0  13   -0.80    0.90
   0   0  13    0.60    0.90
   0   0  13    0.30    0.80
   0   0 -13   -0.30    0.80
   0   0 -13   -0.50    0.90
   1   0  13  249.88    7.30
  -1   0 -13  250.87    7.70
   1   0  13  263.57    7.60
  -1   0 -13  259.47    7.50
   1   0  13  230.78    7.70
  -2   0 -13    0.70    0.90
   2   0  13   -1.00    1.00
  -2   0 -13    0.00    1.00
   2   0  13    0.80    1.20
   2   0  13    0.10    0.80
   3   0  13   11.70    2.30
  -3   0 -13   11.60    2.30
  -3   0 -13    8.40    1.90
   3   0  13   10.00    2.10
   4   0  13   -0.80    1.10
   4   0  13    1.00    1.40
  -4   0 -13    2.00    1.30
  -4   0 -13    2.90    1.30
   5   0  13  108.29    4.90
  -5   0 -13  114.19    4.70
   5   0  13  118.49    4.90
  -5   0 -13  112.89    5.00
   5   0  13  101.99    5.10
   6  -1 -13   13.70    2.40
  -6  -1  13   11.90    2.60
  -6  -1  13   15.20    3.00
   6  -1 -13   10.20    2.10
   6   1 -13   14.50    2.60
  -6   1  13   12.90    3.00
   6   1 -13   17.70    2.90
   6   1 -13   14.70    3.20
  -6   1  13   15.80    2.80
  -5  -1  13   69.59    3.70
   5  -1 -13   66.89    3.90
  -5  -1  13   73.29    3.50
   5  -1 -13   70.29    3.40
  -5  -1  13   74.39    3.40
  -5   1  13   71.89    3.60
   5   1 -13   72.89    3.40
  -5   1  13   69.89    3.90
   5   1 -13   69.99    3.70
   5   1 -13   69.69    3.70
   4  -1 -13   96.49    3.90
  -4  -1  13   93.49    3.80
  -4  -1  13   99.39    4.30
  -4  -1  13   99.59    3.90
   4  -1 -13   96.89    4.20
   4   1 -13   95.19    3.80
  -4   1  13  101.89    3.80
   4   1 -13   98.99    3.90
  -4   1  13   93.79    4.20
   4   1 -13   90.59    4.20
  -4   1  13   92.79    3.70
  -3  -1  13   95.09    4.00
   3  -1 -13   95.09    3.50
   3  -1 -13   81.79    3.50
   3  -1 -13   95.59    3.90
   3  -1 -13   90.79    3.10
  -3  -1  13   92.39    3.80
   3   1 -13   92.09    4.00
  -3   1  13   97.09    4.00
   3   1 -13   92.49    3.60
   3   1 -13   97.59    3.50
  -3   1  13   90.99    3.10
  -3   1  13   95.99    3.70
  -3   1  13   96.39    3.40
  -2  -1  13  138.59    4.90
   2  -1 -13  139.39    4.70
   2  -1 -13  139.49    4.30
   2  -1 -13  135.59    4.20
   2  -1 -13  139.59    4.80
  -2  -1  13  140.19    4.90
  -2  -1  13  125.49    4.10
  -2   1  13  139.49    4.80
   2   1 -13  140.99    4.60
  -2   1  13  134.29    4.30
   2   1 -13  141.89    5.00
  -2   1  13  137.39    4.90
   2   1 -13  142.49    4.40
   1  -1 -13   -0.40    0.90
  -1  -1  13    0.70    0.90
   1  -1 -13    1.20    0.60
   1  -1 -13    1.10    0.80
  -1  -1  13   -0.90    0.90
  -1  -1  13    0.10    0.90
   1   1 -13   -0.20    1.00
   1   1 -13   -0.30    0.80
  -1   1  13   -0.90    0.80
   1   1 -13    1.40    0.80
  -1   1  13   -1.10    0.90
  -1   1  13    0.20    0.90
   0  -1  13  155.98    5.40
   0  -1  13  157.78    5.00
   0  -1  13  159.38    5.00
   0  -1 -13  154.18    5.20
   0  -1 -13  159.88    5.10
   0   1 -13  144.39    4.50
   0   1  13  159.18    5.10
   0   1  13  154.98    5.40
   0   1  13  156.88    5.00
   0   1 -13  162.88    5.00
   0   1 -13  157.58    5.40
  -1  -1 -13  275.67    8.00
   1  -1  13  275.97    7.70
  -1  -1 -13  274.97    8.10
   1  -1  13  280.07    8.00
   1  -1  13  268.47    8.30
   1   1  13  276.97    8.00
  -1   1 -13  229.88    7.30
   1   1  13  268.87    8.20
   1   1  13  272.47    7.80
  -1   1 -13  278.97    7.90
  -1   1 -13  267.27    8.20
   2  -1  13   28.90    1.80
   2  -1  13   28.60    2.50
  -2  -1 -13   27.70    2.20
  -2  -1 -13   31.30    2.50
   2  -1  13   32.90    2.40
   2   1  13   31.70    2.40
  -2   1 -13   31.40    2.60
   2   1  13   29.40    2.40
  -2   1 -13   33.10    2.10
   2   1  13   32.60    2.00
   3  -1  13  366.26   10.70
   3  -1  13  357.46   10.70
  -3  -1 -13  353.56   10.40
  -3  -1 -13  356.56   10.70
  -3   1 -13  362.46   10.40
  -3   1 -13  360.06   10.80
   3   1  13  359.46   10.70
   3   1  13  362.96   10.70
  -4  -1 -13    0.60    1.10
   4  -1  13    1.80    1.50
  -4  -1 -13    0.60    1.50
   4  -1  13    1.40    1.20
  -4   1 -13    1.90    1.40
   4   1  13    0.50    1.50
   4   1  13   -0.10    1.20
  -4   1 -13    2.50    1.30
  -5  -1 -13   49.30    3.70
   5  -1  13   38.50    3.50
  -5  -1 -13   41.80    3.10
   5  -1  13   45.90    3.70
   5  -1  13   41.50    3.40
   5   1  13   41.90    3.60
  -5   1 -13   44.00    3.00
   5   1  13   40.60    3.30
  -5   1 -13   47.80    3.60
  -6  -2  13  109.99    5.30
  -6  -2  13  113.79    4.80
   6  -2 -13  109.89    5.20
   6  -2 -13  112.89    4.70
  -6   2  13  113.79    4.90
   6   2 -13  113.19    5.30
   6   2 -13  104.89    4.70
  -6   2  13  112.29    5.30
   6   2 -13  106.89    5.00
   5  -2 -13   -1.30    1.10
  -5  -2  13    0.30    1.40
  -5  -2  13    0.90    1.20
  -5  -2  13    0.70    1.20
   5  -2 -13    1.10    1.50
  -5   2  13   -0.10    1.50
   5   2 -13   -0.90    1.30
   5   2 -13   -1.90    1.50
  -5   2  13   -0.50    1.40
   5   2 -13   -0.90    1.30
  -4  -2  13  325.97   10.00
   4  -2 -13  318.67    9.60
  -4  -2  13  323.37    9.60
   4  -2 -13  329.47    9.60
   4   2 -13  313.87    9.80
  -4   2  13  324.17    9.30
   4   2 -13  311.07    9.50
  -4   2  13  330.57   10.00
   4   2 -13  328.87    9.30
  -4   2  13  336.77    9.30
   3  -2 -13    7.80    1.90
   3  -2 -13    5.80    1.00
   3  -2 -13    7.00    1.80
  -3  -2  13    5.70    1.30
  -3  -2  13    7.10    1.90
  -3   2  13    5.90    1.40
   3   2 -13    7.30    1.70
   3   2 -13    7.10    1.60
  -3   2  13    8.60    1.80
   3   2 -13    5.60    1.40
  -3   2  13    7.60    1.50
  -2  -2  13  115.49    4.30
   2  -2 -13  120.99    4.20
   2  -2 -13  106.89    4.10
   2  -2 -13  111.69    3.60
  -2  -2  13  118.39    4.50
   2  -2 -13  118.49    3.90
  -2   2  13  112.89    3.90
  -2   2  13  121.99    4.50
   2   2 -13  118.99    3.90
  -2   2  13  120.99    4.40
  -2   2  13  119.69    3.60
   2   2 -13  114.29    4.50
   2   2 -13  114.29    3.90
   1  -2 -13    7.70    1.60
   1  -2 -13    9.80    1.60
  -1  -2  13   13.80    2.00
   1  -2 -13    9.00    1.50
  -1  -2  13    6.60    1.50
  -1  -2  13   10.60    1.70
  -1   2  13   10.20    1.80
  -1   2  13    9.80    1.50
   1   2 -13    9.70    1.40
   1   2 -13    7.00    1.80
  -1   2  13    9.10    1.90
   1   2 -13    9.20    1.40
   0  -2 -13  427.76   11.60
   0  -2  13  424.36   11.40
   0  -2 -13  423.26   11.60
   0  -2  13  424.76   11.50
   0  -2  13  360.26   11.80
   0  -2 -13  413.46   11.60
   0   2 -13  412.66   11.90
   0   2  13  417.56   11.70
   0   2 -13  409.76   11.20
   0   2  13  420.66   11.60
   0   2  13  426.96   11.90
   0   2 -13  424.16   11.40
   1  -2  13    0.20    1.00
  -1  -2 -13    1.50    1.00
   1  -2  13    0.50    0.90
  -1  -2 -13    1.50    0.90
   1  -2  13    1.00    1.00
  -1   2 -13    2.20    0.80
   1   2  13    0.20    1.00
  -1   2 -13    1.20    1.10
  -1   2 -13    0.00    0.90
   1   2  13    2.00    1.00
   1   2  13    2.10    1.00
  -2  -2 -13  396.76   11.10
   2  -2  13  384.46   11.20
  -2  -2 -13  388.66   11.20
   2  -2  13  386.26   11.40
   2   2  13  389.26   11.30
  -2   2 -13  393.36   11.00
   2   2  13  390.66   11.40
   2   2  13  398.56   10.90
  -2   2 -13  382.36   11.40
   3  -2  13    0.10    1.40
   3  -2  13    0.00    1.10
  -3  -2 -13   -0.10    1.00
  -3  -2 -13    2.80    1.40
   3   2  13   -0.30    1.10
  -3   2 -13   -0.10    1.10
  -3   2 -13   -0.90    1.10
   3   2  13    1.00    1.30
  -4  -2 -13  273.87    8.60
   4  -2  13  283.77    8.90
  -4  -2 -13  270.67    8.80
   4  -2  13  278.77    8.80
   4   2  13  277.17    8.80
   4   2  13  273.07    8.90
  -4   2 -13  285.57    8.50
  -4   2 -13  278.87    9.00
   5  -2  13    5.10    1.70
   5  -2  13    2.70    1.70
   5  -2  13    4.60    1.90
  -5  -2 -13    3.00    1.70
  -5  -2 -13    1.60    1.80
   5   2  13    0.10    1.80
   5   2  13    3.10    1.50
  -5   2 -13    5.30    1.60
  -5   2 -13    3.70    1.90
   6  -3 -13    4.10    1.60
   6  -3 -13    6.10    2.00
  -6  -3  13    6.20    2.00
  -6  -3  13    8.30    1.90
  -6   3  13    2.20    2.10
   6   3 -13    6.40    1.90
   6   3 -13    4.70    1.80
   6   3 -13    4.90    1.90
  -6   3  13    2.80    1.90
  -5  -3  13  109.39    4.80
  -5  -3  13  105.19    4.30
   5  -3 -13  108.79    4.40
   5  -3 -13  111.19    4.70
  -5   3  13  107.69    4.90
   5   3 -13  111.19    4.70
   5   3 -13  105.19    4.80
  -5   3  13  110.79    4.50
   5   3 -13   99.99    4.10
   4  -3 -13   29.20    2.40
  -4  -3  13   30.30    2.70
   4  -3 -13   33.00    2.60
  -4  -3  13   27.50    2.60
   4   3 -13   31.80    2.80
  -4   3  13   29.80    2.30
  -4   3  13   30.10    2.60
   4   3 -13   31.00    2.30
   4   3 -13   32.70    2.60
  -4   3  13   30.20    2.30
   3  -3 -13   40.00    2.60
  -3  -3  13   38.60    2.80
   3  -3 -13   37.90    2.40
   3  -3 -13   40.30    2.20
  -3  -3  13   30.70    2.70
   3   3 -13   37.90    2.70
  -3   3  13   40.60    2.50
  -3   3  13   40.50    2.10
   3   3 -13   39.80    2.50
  -3   3  13   35.50    2.80
   3   3 -13   38.20    2.20
  -2  -3  13  195.48    6.50
   2  -3 -13  194.18    6.40
   2  -3 -13  204.88    6.10
   2  -3 -13  203.28    6.20
  -2  -3  13  196.98    6.60
   2   3 -13  202.38    6.70
   2   3 -13  208.48    6.20
   2   3 -13  201.78    6.00
  -2   3  13  207.78    6.00
  -2   3  13  205.98    6.70
  -2   3  13  203.88    6.50
  -1  -3  13    2.90    1.10
   1  -3 -13    2.70    0.90
   1  -3 -13    1.50    1.00
   1  -3 -13    2.50    1.00
  -1  -3  13    0.40    1.10
  -1  -3  13    3.60    0.90
  -1   3  13    2.50    1.00
   1   3 -13    2.30    0.90
  -1   3  13    2.60    1.10
   1   3 -13    3.00    1.10
   1   3 -13    4.70    0.90
  -1   3  13    2.40    1.10
   0  -3  13  146.99    4.80
   0  -3 -13  144.59    5.00
   0  -3 -13  149.59    5.00
   0  -3  13  147.19    5.30
   0  -3 -13  149.39    4.80
   0  -3  13  155.78    4.90
   0   3 -13  150.98    4.70
   0   3 -13  150.08    4.70
   0   3  13  143.99    5.30
   0   3  13  145.39    5.10
   0   3 -13  143.99    5.20
   0   3  13  148.69    5.00
  -1  -3 -13  128.49    4.60
   1  -3  13  124.79    4.90
   1  -3  13  134.79    4.60
  -1  -3 -13  130.29    4.70
  -1  -3 -13  137.19    4.50
   1  -3  13  132.79    4.30
   1   3  13  122.89    4.70
  -1   3 -13  130.19    4.30
   1   3  13  139.59    5.00
   1   3  13  131.09    4.60
  -1   3 -13  129.99    4.90
  -1   3 -13  134.89    4.40
  -2  -3 -13    0.90    1.00
   2  -3  13    1.00    1.30
  -2  -3 -13    1.70    1.10
   2  -3  13    1.40    1.10
   2   3  13    3.90    1.10
  -2   3 -13    1.70    1.10
   2   3  13    3.60    1.30
  -2   3 -13    2.00    1.10
  -2   3 -13    2.20    1.20
   2   3  13    4.60    1.10
   3  -3  13  266.37    8.50
  -3  -3 -13  271.77    8.30
  -3  -3 -13  252.37    8.20
   3  -3  13  281.97    8.60
  -3   3 -13  263.87    8.50
   3   3  13  263.27    8.50
   3   3  13  274.07    8.50
  -3   3 -13  276.67    8.20
   4  -3  13   15.80    2.80
  -4  -3 -13   21.10    2.60
  -4  -3 -13   17.30    2.90
   4  -3  13   20.30    2.90
   4  -3  13   17.90    2.80
   4   3  13   18.00    2.80
  -4   3 -13   18.30    2.50
   4   3  13   21.50    2.60
  -4   3 -13   17.70    2.80
   5  -3  13   72.69    4.30
  -5  -3 -13   67.19    4.00
   5  -3  13   69.49    4.30
   5  -3  13   72.59    4.50
  -5  -3 -13   69.09    4.40
   5   3  13   68.89    4.20
  -5   3 -13   68.29    4.30
   5   3  13   67.49    4.20
  -5   3 -13   68.09    3.90
   6  -4 -13    0.90    1.80
  -6  -4  13    1.80    2.00
   6  -4 -13    2.30    1.80
  -6   4  13    3.00    1.90
   6   4 -13    0.80    1.70
  -6   4  13    3.00    2.10
   6   4 -13    4.60    2.00
   5  -4 -13   17.40    2.80
  -5  -4  13   15.90    2.80
   5  -4 -13   15.10    2.50
  -5  -4  13   15.70    2.70
   5   4 -13   17.20    3.00
  -5   4  13   18.80    3.10
  -5   4  13   19.00    2.90
   5   4 -13   19.00    2.80
   4  -4 -13    3.10    1.30
  -4  -4  13    3.90    1.50
   4  -4 -13    5.40    1.20
  -4  -4  13    2.40    1.50
   4  -4 -13    3.70    1.30
   4   4 -13    0.70    1.40
   4   4 -13    2.20    1.30
  -4   4  13    1.30    1.20
  -4   4  13    2.00    1.50
   4   4 -13    2.30    1.30
  -4   4  13    3.20    1.30
   3  -4 -13   60.19    3.00
   3  -4 -13   60.99    2.90
  -3  -4  13   56.09    3.20
  -3  -4  13   57.29    3.40
   3  -4 -13   54.69    2.80
   3   4 -13   58.49    3.20
   3   4 -13   56.69    2.50
  -3   4  13   60.49    3.10
  -3   4  13   60.39    3.30
  -3   4  13   58.09    2.80
   3   4 -13   51.89    3.10
  -2  -4  13    1.50    1.10
   2  -4 -13    1.20    1.00
   2  -4 -13    1.80    1.00
  -2  -4  13    1.00    1.30
   2  -4 -13    3.90    1.20
   2   4 -13    3.70    1.00
   2   4 -13    1.80    1.10
   2   4 -13    2.20    1.10
  -2   4  13    2.00    1.20
  -2   4  13    2.20    1.20
  -1  -4  13  896.21   23.60
   1  -4 -13  888.51   23.70
  -1  -4  13  880.31   23.10
   1  -4 -13  862.11   23.20
   1  -4 -13  893.41   23.50
  -1  -4  13  882.01   24.00
  -1   4  13  886.51   23.90
  -1   4  13  899.41   23.80
   1   4 -13  878.21   23.90
   1   4 -13  910.61   23.10
   1   4 -13  896.91   23.40
   0  -4 -13    6.40    1.70
   0  -4  13    8.00    1.70
   0  -4 -13    7.50    1.80
   0  -4 -13    5.40    1.20
   0  -4  13    8.30    1.70
   0  -4  13    6.20    1.30
   0   4  13    8.50    1.90
   0   4  13    4.90    1.30
   0   4 -13    6.90    1.50
   0   4  13    7.00    1.40
   0   4 -13    7.20    1.20
   0   4 -13    5.40    1.20
   1  -4  13  105.19    4.00
  -1  -4 -13  101.79    4.00
   1  -4  13  101.09    3.60
  -1  -4 -13  101.19    4.10
   1  -4  13   97.99    4.30
  -1  -4 -13   97.99    3.70
  -1   4 -13  108.89    4.30
   1   4  13  103.69    4.30
  -1   4 -13  101.29    3.70
   1   4  13  107.49    4.30
   1   4  13  102.29    4.10
  -1   4 -13  104.79    3.70
  -2  -4 -13   17.70    2.20
   2  -4  13   18.80    2.40
   2  -4  13   19.50    2.60
  -2  -4 -13   17.70    2.10
  -2  -4 -13   19.50    2.30
   2   4  13   15.80    2.10
  -2   4 -13   16.30    1.90
  -2   4 -13   13.20    2.10
   2   4  13   16.10    2.20
   2   4  13   19.90    2.50
  -2   4 -13   21.90    2.10
   3  -4  13   -1.40    1.20
   3  -4  13    0.10    1.60
  -3  -4 -13    0.70    1.20
   3  -4  13   -1.60    1.30
  -3  -4 -13    0.80    1.20
  -3   4 -13    1.50    1.40
  -3   4 -13    0.10    1.20
   3   4  13    1.40    1.40
   3   4  13    0.90    1.20
  -4  -4 -13    5.90    1.80
   4  -4  13    6.10    1.80
   4  -4  13    5.20    1.70
  -4  -4 -13    8.80    1.70
   4  -4  13    7.30    1.90
   4   4  13    8.30    1.80
  -4   4 -13    6.30    1.70
  -4   4 -13    7.30    1.80
   5  -5 -13   73.99    4.10
  -5  -5  13   77.49    4.40
  -5  -5  13   74.09    4.30
   5   5 -13   78.89    4.30
  -5   5  13   76.49    4.60
  -5   5  13   79.79    4.10
   5   5 -13   81.09    4.20
   4  -5 -13   23.30    2.70
  -4  -5  13   24.40    3.10
   4  -5 -13   26.90    2.70
  -4  -5  13   30.60    2.80
  -4   5  13   29.20    3.10
   4   5 -13   26.60    3.00
   4   5 -13   23.30    2.60
  -3  -5  13   10.10    2.20
  -3  -5  13    9.20    2.50
   3  -5 -13   11.70    2.30
   3  -5 -13   11.10    2.20
   3   5 -13   11.40    2.50
  -3   5  13    7.30    1.40
  -3   5  13    8.40    2.10
   3   5 -13    6.70    1.50
  -2  -5  13  203.58    6.90
   2  -5 -13  193.08    6.40
  -2  -5  13  204.98    6.70
   2  -5 -13  199.98    6.50
   2   5 -13  201.98    6.60
  -2   5  13  200.48    6.80
  -2   5  13  200.98    6.70
   2   5 -13  196.48    6.70
  -1  -5  13    2.00    1.20
  -1  -5  13    3.10    1.40
   1  -5 -13    0.90    1.10
   1  -5 -13    1.80    1.20
   1   5 -13    2.40    1.20
  -1   5  13   -0.10    1.20
   1   5 -13    0.20    1.20
  -1   5  13    1.30    1.20
   0  -5  13  218.58    6.70
   0  -5  13  210.48    7.10
   0  -5 -13  210.98    6.90
   0  -5 -13  214.48    6.90
   0  -5  13  207.18    6.50
   0   5 -13  222.58    7.20
   0   5  13  211.28    7.00
   0   5 -13  222.08    6.70
   0   5  13  213.58    7.20
  -1  -5 -13   73.49    3.50
   1  -5  13   72.39    3.20
  -1  -5 -13   67.89    3.30
   1  -5  13   74.89    3.50
   1  -5  13   73.59    3.60
  -1   5 -13   70.59    3.60
   1   5  13   75.39    3.70
  -1   5 -13   71.19    3.30
   1   5  13   65.29    3.60
   1   5  13   76.59    3.70
  -1   5 -13   74.09    2.90
  -2  -5 -13   14.70    2.30
   2  -5  13   12.40    2.40
  -2  -5 -13   11.70    2.30
   2  -5  13   12.40    2.80
   2  -5  13   14.50    2.10
   2   5  13   16.00    2.30
  -2   5 -13   17.60    2.30
  -2   5 -13   17.40    2.10
   2   5  13   19.40    2.40
  -2   5 -13   13.30    2.30
   2   5  13   14.80    2.40
  -3  -5 -13  144.39    5.60
   3  -5  13  145.99    5.90
   3  -5  13  144.09    5.20
  -3  -5 -13  140.49    5.50
   3  -5  13  146.49    5.70
   3   5  13  146.09    5.70
  -3   5 -13  149.39    5.30
  -3   5 -13  152.38    5.70
  -3   5 -13  150.58    5.30
   3   5  13  148.99    5.70
   3   5  13  145.29    5.50
   4  -5  13   23.30    3.20
   4  -5  13   18.10    3.50
  -4  -5 -13   26.20    3.20
   4   5  13   25.20    3.00
  -4   5 -13   29.50    3.10
  -4   5 -13   26.00    3.20
   4   5  13   28.20    3.30
   4  -6 -13  221.58    7.20
  -4  -6  13  221.58    7.70
   4  -6 -13  217.58    7.50
  -4  -6  13  221.48    7.60
  -4   6  13  215.18    7.80
   4   6 -13  213.78    7.40
   4   6 -13  216.18    7.50
   3  -6 -13   22.60    2.70
  -3  -6  13   21.00    2.70
  -3  -6  13   25.00    3.00
   3  -6 -13   17.30    2.70
   3   6 -13   21.30    2.80
  -3   6  13   16.30    2.70
  -3   6  13   15.70    2.50
   3   6 -13   18.10    2.60
   2  -6 -13   16.70    2.40
   2  -6 -13   21.00    2.60
  -2  -6  13   14.60    2.70
  -2  -6  13   17.10    2.40
   2   6 -13   22.70    2.80
   2   6 -13   21.50    2.50
  -2   6  13   22.80    2.80
  -2   6  13   18.80    2.60
  -1  -6  13   59.69    3.30
   1  -6 -13   54.59    3.10
  -1  -6  13   49.99    3.30
   1  -6 -13   52.29    3.10
  -1   6  13   48.50    3.40
   1   6 -13   50.79    3.20
  -1   6  13   53.09    3.20
   1   6 -13   50.99    3.30
   0  -6  13  301.57    9.60
   0  -6 -13  308.87    9.30
   0  -6  13  302.97    8.90
   0  -6 -13  313.77    9.30
   0  -6  13  310.07    9.10
   0   6 -13  307.07    9.30
   0   6  13  309.87    9.50
   0   6 -13  304.67    9.50
   0   6  13  305.07    9.60
   1  -6  13    1.50    1.30
   1  -6  13    1.70    1.40
  -1  -6 -13    4.40    1.40
  -1  -6 -13    4.20    1.40
   1   6  13    1.80    1.40
  -1   6 -13    2.40    1.30
   1   6  13    4.00    1.50
   1   6  13    4.30    1.50
  -1   6 -13    2.50    1.50
  -2  -6 -13  214.68    7.20
   2  -6  13  211.68    7.40
  -2  -6 -13  222.48    7.30
   2  -6  13  225.78    7.50
   2   6  13  223.98    7.60
  -2   6 -13  213.98    7.10
   2   6  13  210.08    7.40
  -2   6 -13  220.98    7.40
   2   6  13  211.38    7.30
  -3  -6 -13    1.10    1.70
   3  -6  13    1.70    2.10
   3  -6  13    1.80    1.60
  -3  -6 -13    3.50    1.70
   3   6  13    3.20    1.80
  -3   6 -13    2.40    1.80
   3   6  13    1.40    1.80
   3   6  13    2.40    1.50
  -3   6 -13    4.60    1.60
  -4  -7  13    5.70    2.00
  -4  -7  13    0.90    1.70
   4  -7 -13    3.50    1.90
   4  -7 -13    2.00    1.80
   4   7 -13    2.60    1.70
  -4   7  13    3.30    2.00
   4   7 -13    6.00    2.00
  -3  -7  13   62.39    3.90
   3  -7 -13   68.89    3.90
   3  -7 -13   69.89    3.90
  -3  -7  13   63.29    3.90
   3   7 -13   63.19    3.80
  -3   7  13   61.69    4.00
   3   7 -13   62.69    3.80
  -3   7  13   59.39    3.80
   2  -7 -13   16.00    2.60
   2  -7 -13   16.40    2.60
  -2  -7  13   18.30    2.80
  -2  -7  13   13.90    2.90
   2   7 -13   13.00    2.60
  -2   7  13   15.20    3.00
  -2   7  13   13.10    2.60
   2   7 -13   14.70    2.80
   1  -7 -13   15.10    2.60
   1  -7 -13   13.70    2.50
  -1  -7  13   10.00    2.80
  -1  -7  13   11.30    2.70
   1   7 -13   13.00    2.80
  -1   7  13   15.60    2.60
   1   7 -13   15.30    2.50
  -1   7  13   13.70    2.90
   0  -7  13   59.59    3.70
   0  -7  13   57.59    3.50
   0  -7 -13   61.19    3.50
   0  -7 -13   58.79    3.40
   0   7  13   64.19    3.80
   0   7 -13   65.19    3.60
   0   7 -13   60.99    3.50
   0   7  13   60.79    3.60
   0   7 -13   62.79    3.80
  -1  -7 -13  109.09    4.60
   1  -7  13  111.69    4.80
  -1  -7 -13  110.99    4.60
   1  -7  13  107.69    4.60
   1   7  13  102.69    4.70
  -1   7 -13  109.39    4.80
  -1   7 -13  106.29    4.70
   1   7  13  107.39    5.00
  -2  -7 -13    2.10    1.70
   2  -7  13   -0.40    1.50
   2  -7  13    1.50    1.90
  -2  -7 -13   -0.20    1.40
  -2   7 -13    2.00    1.80
   2   7  13   -0.30    1.80
   2   7  13    0.30    1.80
  -2   7 -13   -1.40    1.50
   2   7  13   -0.50    1.60
  -2  -8  13    3.80    1.80
   2  -8 -13    0.60    1.60
   2  -8 -13    5.30    1.90
  -2  -8  13    2.30    1.80
  -2   8  13    3.10    1.90
   2   8 -13    2.10    1.70
   2   8 -13    2.20    1.90
  -2   8  13    3.80    1.90
   1  -8 -13  197.78    6.90
  -1  -8  13  205.78    7.10
   1  -8 -13  201.38    7.00
  -1  -8  13  177.58    7.10
  -1   8  13  188.18    7.10
  -1   8  13  199.38    7.20
   1   8 -13  201.48    7.10
   1   8 -13  202.18    7.10
   1   8 -13  195.68    7.10
   0  -8  13    8.50    1.90
   0  -8 -13   10.40    2.00
   0  -8 -13   12.40    2.60
   0   8  13    7.70    1.90
   0   8  13   11.30    2.80
   0   8 -13   14.00    2.90
   0   8 -13    6.70    2.10
  -1  -8 -13  113.49    5.00
   1  -8  13  118.99    5.30
  -1  -8 -13  116.49    5.10
  -1   8 -13  117.19    5.20
   1   8  13  107.99    5.50
  -1   8 -13  118.29    5.30
   1   8  13  118.09    5.30
  -6   0  14   69.69    4.00
  -6   0  14   64.29    4.40
   6   0 -14   70.89    4.30
   6   0 -14   68.09    4.40
   6   0 -14   74.99    3.80
  -5   0  14   -0.10    1.50
   5   0 -14    0.60    1.30
   5   0 -14   -1.30    1.50
   5   0 -14   -0.80    1.50
  -5   0  14   -1.90    1.50
  -4   0  14  203.38    6.60
   4   0 -14  205.28    6.50
   4   0 -14  206.28    6.60
   4   0 -14  209.58    7.00
  -4   0  14  206.28    7.10
  -4   0  14  204.18    6.50
   3   0 -14    0.20    1.30
  -3   0  14   -0.30    1.20
   3   0 -14   -1.00    0.90
  -3   0  14    1.70    1.20
   3   0 -14    0.00    1.00
   2   0 -14    1.10    1.00
   2   0 -14    2.00    1.20
  -2   0  14   -0.80    1.00
   2   0 -14    0.40    0.90
  -2   0  14   -0.20    1.10
  -2   0  14    0.50    0.90
  -1   0  14   -0.10    1.10
   1   0 -14   -0.40    0.80
   1   0 -14    0.00    1.10
  -1   0  14   -0.20    1.00
  -1   0  14    2.70    0.90
   1   0 -14    0.50    0.90
   0   0 -14  612.64   17.00
   0   0 -14  633.34   16.80
   0   0  14  632.94   16.70
   0   0  14  602.14   17.10
   0   0  14  617.94   16.70
  -1   0 -14   -0.10    1.10
   1   0  14    1.10    1.00
  -1   0 -14   -0.10    0.90
   1   0  14   -0.80    0.90
   1   0  14   -0.50    1.10
   2   0  14  697.83   18.80
  -2   0 -14  670.63   18.90
  -2   0 -14  696.73   18.70
   2   0  14  690.13   19.00
   3   0  14    0.10    1.40
   3   0  14   -0.70    1.10
  -3   0 -14   -1.20    1.10
  -3   0 -14    0.40    1.30
  -4   0 -14   72.69    4.10
   4   0  14   74.19    4.00
  -4   0 -14   71.09    3.60
   4   0  14   70.19    3.80
   6  -1 -14    3.60    2.00
   6  -1 -14    5.40    1.60
  -6  -1  14    3.40    1.70
  -6  -1  14    5.00    2.10
   6   1 -14    1.40    1.70
  -6   1  14    1.90    1.80
   6   1 -14    4.70    1.70
   6   1 -14    5.10    2.10
  -6   1  14    3.90    2.10
   5  -1 -14   65.19    3.70
  -5  -1  14   67.49    3.70
  -5  -1  14   61.59    3.80
   5  -1 -14   62.19    4.00
   5  -1 -14   67.59    3.50
  -5   1  14   62.19    3.80
   5   1 -14   63.69    3.40
   5   1 -14   62.29    3.80
   5   1 -14   68.19    3.80
  -5   1  14   68.29    3.70
  -4  -1  14   99.79    4.40
  -4  -1  14   96.99    4.10
  -4  -1  14  100.19    4.10
   4  -1 -14  100.19    4.00
   4  -1 -14   95.59    3.90
   4  -1 -14  106.39    4.50
  -4   1  14   99.09    4.00
   4   1 -14   97.39    4.40
  -4   1  14   99.29    4.40
  -4   1  14  102.59    3.90
   4   1 -14  102.29    4.00
   4   1 -14  104.69    4.10
   3  -1 -14   41.10    2.60
  -3  -1  14   46.90    2.90
   3  -1 -14   46.40    2.90
  -3  -1  14   46.90    3.00
   3  -1 -14   43.80    2.40
   3   1 -14   49.99    3.10
  -3   1  14   45.50    2.90
  -3   1  14   43.20    2.30
   3   1 -14   47.80    2.60
   3   1 -14   46.00    2.40
  -3   1  14   37.50    2.80
   2  -1 -14   70.99    3.20
   2  -1 -14   70.09    3.40
   2  -1 -14   71.09    2.70
  -2  -1  14   66.59    3.50
  -2  -1  14   69.39    3.30
   2   1 -14   74.09    2.90
   2   1 -14   75.49    3.10
   2   1 -14   69.59    3.50
  -2   1  14   71.09    3.50
  -2   1  14   68.49    2.80
  -2   1  14   77.29    3.40
  -1  -1  14  199.18    6.30
   1  -1 -14  196.38    6.10
  -1  -1  14  193.58    6.50
  -1  -1  14  189.98    5.80
   1  -1 -14  194.38    6.30
  -1   1  14  198.28    6.40
   1   1 -14  188.78    5.60
   1   1 -14  192.68    6.40
  -1   1  14  190.58    5.90
   1   1 -14  193.58    6.00
  -1   1  14  192.88    6.40
   0  -1 -14  187.08    5.90
   0  -1 -14  183.48    6.00
   0  -1  14  185.18    5.70
   0  -1  14  174.88    6.20
   0  -1  14  181.48    5.80
   0   1  14  182.58    5.90
   0   1 -14  180.68    5.70
   0   1 -14  175.78    6.10
   0   1  14  177.78    5.70
   0   1  14  175.68    6.10
   1  -1  14  158.38    5.20
  -1  -1 -14  145.69    5.30
   1  -1  14  159.48    5.00
  -1  -1 -14  157.78    5.20
   1  -1  14  152.38    5.50
   1   1  14  157.88    5.30
   1   1  14  150.58    5.40
  -1   1 -14  147.09    5.50
   1   1  14  149.29    5.00
  -1   1 -14  147.79    5.10
  -2  -1 -14    2.60    1.40
   2  -1  14    3.30    1.30
   2  -1  14    3.10    1.50
  -2  -1 -14    3.60    1.20
   2   1  14    3.30    1.20
  -2   1 -14    3.40    1.20
  -2   1 -14    3.50    1.30
   2   1  14    2.40    1.50
   2   1  14    2.50    1.10
  -3  -1 -14  186.28    6.20
   3  -1  14  181.58    6.40
   3  -1  14  181.78    6.40
  -3  -1 -14  172.28    6.40
   3   1  14  188.28    6.40
  -3   1 -14  186.38    6.10
   3   1  14  180.18    6.40
  -3   1 -14  178.98    6.40
   4  -1  14   48.80    3.50
  -4  -1 -14   45.70    3.00
   4  -1  14   46.30    3.30
  -4  -1 -14   49.50    3.70
  -4   1 -14   49.00    3.50
   4   1  14   50.79    3.50
  -4   1 -14   54.89    3.20
   4   1  14   53.99    3.40
  -6  -2  14    1.60    2.00
   6  -2 -14    4.80    1.60
  -6  -2  14   -1.40    1.60
   6  -2 -14    4.90    2.10
   6   2 -14    2.70    1.70
   6   2 -14    1.80    1.90
   6   2 -14    3.10    2.00
  -6   2  14    4.30    1.80
  -6   2  14    2.60    2.00
  -5  -2  14   24.60    2.80
   5  -2 -14   32.40    2.70
  -5  -2  14   29.50    2.90
  -5  -2  14   31.60    3.10
   5  -2 -14   29.30    3.30
   5   2 -14   24.90    3.10
   5   2 -14   32.00    2.90
  -5   2  14   28.00    3.00
   5   2 -14   28.10    3.10
  -5   2  14   33.30    3.20
   4  -2 -14    0.50    1.20
  -4  -2  14    0.40    1.30
  -4  -2  14    2.40    1.40
   4  -2 -14    0.90    1.40
  -4   2  14    1.50    1.20
  -4   2  14   -0.20    1.10
   4   2 -14    2.00    1.40
   4   2 -14   -0.40    1.20
  -4   2  14    2.00    1.40
   4   2 -14   -0.30    1.20
   3  -2 -14  688.33   18.60
  -3  -2  14  666.63   18.90
   3  -2 -14  735.73   18.80
  -3  -2  14  683.83   18.80
   3  -2 -14  681.23   18.10
   3  -2 -14  680.23   18.60
  -3   2  14  698.03   18.10
   3   2 -14  673.23   18.30
  -3   2  14  678.03   18.60
   3   2 -14  688.13   18.30
   3   2 -14  661.93   18.80
  -3   2  14  681.03   19.00
  -2  -2  14   -2.30    1.00
   2  -2 -14    0.00    1.00
   2  -2 -14   -0.40    0.90
  -2  -2  14    0.80    1.20
   2  -2 -14   -1.30    1.00
   2   2 -14   -0.90    0.90
   2   2 -14    0.40    1.10
  -2   2  14   -1.10    0.90
   2   2 -14    0.30    0.90
  -2   2  14    0.90    1.10
  -2   2  14   -0.90    1.10
  -1  -2  14  269.47    8.20
   1  -2 -14  282.87    8.00
   1  -2 -14  274.77    8.20
  -1  -2  14  271.57    7.80
  -1  -2  14  269.07    8.50
   1  -2 -14  275.97    8.20
  -1   2  14  274.07    8.50
   1   2 -14  269.07    7.80
   1   2 -14  277.77    8.60
   1   2 -14  286.27    8.00
  -1   2  14  275.97    8.00
  -1   2  14  273.47    8.40
   0  -2  14    9.30    1.70
   0  -2  14    8.00    1.20
   0  -2  14   11.40    2.10
   0  -2 -14    7.20    1.80
   0  -2 -14    6.60    1.80
   0  -2 -14    7.90    1.80
   0   2  14    7.50    1.90
   0   2 -14    5.90    1.40
   0   2  14   10.20    2.20
   0   2 -14   10.00    1.60
   0   2 -14    7.00    1.20
   0   2  14    8.80    1.80
   1  -2  14   36.00    2.70
  -1  -2 -14   41.60    2.50
  -1  -2 -14   38.80    2.60
   1  -2  14   40.60    2.30
   1  -2  14   38.30    2.50
   1   2  14   33.90    2.70
  -1   2 -14   35.10    2.70
  -1   2 -14   36.50    2.40
   1   2  14   34.80    2.60
   1   2  14   39.80    2.50
  -2  -2 -14    2.70    1.20
   2  -2  14    2.40    1.40
   2  -2  14    2.80    1.20
  -2  -2 -14    2.00    1.10
   2   2  14    2.90    1.50
   2   2  14    2.00    1.10
  -2   2 -14    2.40    1.30
   2   2  14    1.90    1.20
  -2   2 -14    1.30    1.10
  -3  -2 -14  192.58    6.40
   3  -2  14  194.58    6.80
   3  -2  14  192.98    6.70
  -3  -2 -14  185.58    6.60
  -3   2 -14  187.98    6.80
   3   2  14  197.98    6.70
   3   2  14  189.58    6.70
  -3   2 -14  192.08    6.30
  -4  -2 -14    3.00    1.50
   4  -2  14   -1.80    1.40
  -4  -2 -14   -1.40    1.50
   4  -2  14   -0.60    1.60
   4   2  14    0.90    1.40
   4   2  14   -1.00    1.60
  -4   2 -14    1.10    1.40
  -4   2 -14    2.50    1.60
   5  -3 -14   55.79    3.30
  -5  -3  14   52.29    3.50
   5  -3 -14   59.59    3.90
  -5  -3  14   53.89    3.70
   5   3 -14   62.09    3.40
   5   3 -14   50.19    3.80
  -5   3  14   55.99    3.90
   5   3 -14   54.19    3.90
  -5   3  14   59.09    3.60
  -4  -3  14  103.59    4.70
  -4  -3  14  115.09    4.90
   4  -3 -14  111.49    4.50
   4  -3 -14  111.59    4.60
   4   3 -14  106.89    4.70
   4   3 -14  112.29    4.60
   4   3 -14  114.39    4.30
  -4   3  14  114.69    4.50
  -4   3  14  117.39    4.90
  -4   3  14  116.49    4.30
  -3  -3  14    3.70    1.40
  -3  -3  14    0.90    1.40
   3  -3 -14    0.20    1.10
   3  -3 -14    1.80    1.00
   3  -3 -14    2.30    1.20
  -3   3  14    3.10    1.20
   3   3 -14    1.50    1.20
  -3   3  14    2.60    1.30
   3   3 -14    2.50    1.10
   3   3 -14    1.90    1.30
  -2  -3  14  314.87    9.90
   2  -3 -14  319.37    9.40
   2  -3 -14  322.07    9.60
  -2  -3  14  327.37    9.70
   2  -3 -14  330.97    9.30
   2   3 -14  318.67    9.80
  -2   3  14  336.17    9.90
   2   3 -14  326.77    9.10
  -2   3  14  328.57    9.70
  -2   3  14  323.07    9.20
   2   3 -14  317.47    9.30
   1  -3 -14    8.20    1.30
  -1  -3  14    6.30    1.50
   1  -3 -14    8.40    1.90
   1  -3 -14    8.00    1.80
  -1  -3  14   10.30    1.70
  -1  -3  14   10.00    2.10
  -1   3  14    9.70    2.30
  -1   3  14   10.50    2.00
   1   3 -14   10.00    1.60
   1   3 -14   10.00    1.60
   1   3 -14   10.60    2.00
  -1   3  14    9.60    1.80
   0  -3  14  102.39    3.70
   0  -3  14  100.89    4.30
   0  -3  14  102.79    3.80
   0  -3 -14   98.99    4.00
   0  -3 -14  104.09    4.00
   0  -3 -14   95.99    3.80
   0   3  14  102.29    4.30
   0   3  14  103.09    4.10
   0   3  14   99.39    4.00
   0   3 -14   97.29    3.60
   0   3 -14   97.79    4.20
   0   3 -14   99.39    3.70
   1  -3  14   54.99    3.20
  -1  -3 -14   54.69    2.90
   1  -3  14   62.99    2.80
  -1  -3 -14   60.19    3.00
  -1  -3 -14   59.09    2.90
   1  -3  14   61.59    3.10
   1   3  14   60.19    3.10
  -1   3 -14   62.69    3.30
   1   3  14   58.79    3.30
   1   3  14   55.09    3.20
  -1   3 -14   60.99    2.90
  -1   3 -14   55.69    2.70
   2  -3  14    7.40    1.50
  -2  -3 -14    5.20    1.30
   2  -3  14    6.70    1.70
  -2  -3 -14    9.60    2.10
  -2   3 -14    4.50    1.50
  -2   3 -14    5.80    1.40
   2   3  14    6.00    1.40
   2   3  14    6.10    1.60
   2   3  14    6.50    1.30
   3  -3  14   51.69    3.30
  -3  -3 -14   53.89    3.20
  -3  -3 -14   51.49    3.40
   3  -3  14   53.19    3.60
   3   3  14   52.29    3.30
  -3   3 -14   52.99    3.40
  -3   3 -14   54.09    3.30
   3   3  14   46.10    3.30
  -4  -3 -14  202.38    7.20
  -4  -3 -14  198.28    7.20
   4  -3  14  216.88    7.20
   4  -3  14  215.28    7.50
   4  -3  14  213.38    7.30
  -4   3 -14  209.38    7.50
   4   3  14  202.08    7.30
  -4   3 -14  201.38    6.90
   4   3  14  207.08    7.40
  -5  -4  14    1.30    1.60
  -5  -4  14    2.40    1.70
   5  -4 -14    0.00    1.50
   5   4 -14   -0.20    1.60
  -5   4  14    2.90    1.90
   5   4 -14    0.90    1.80
  -4  -4  14   26.60    3.20
   4  -4 -14   30.30    2.80
  -4  -4  14   32.00    3.00
   4  -4 -14   30.00    2.70
  -4   4  14   33.00    3.00
  -4   4  14   28.00    2.90
   4   4 -14   27.10    3.00
   4   4 -14   30.20    2.90
  -3  -4  14    2.80    1.50
   3  -4 -14    8.50    2.10
   3  -4 -14    4.80    1.30
   3  -4 -14    8.10    2.00
  -3  -4  14    4.60    1.40
   3   4 -14    8.70    2.20
  -3   4  14    3.00    1.50
   3   4 -14    7.20    1.70
  -3   4  14    5.50    1.40
   2  -4 -14   14.20    2.00
  -2  -4  14   11.20    2.50
  -2  -4  14   15.00    2.30
   2  -4 -14   17.40    2.20
   2  -4 -14   13.40    1.90
   2   4 -14   15.30    2.10
  -2   4  14   15.00    2.60
  -2   4  14   13.80    2.30
   2   4 -14   14.60    1.70
   2   4 -14   13.30    2.20
   1  -4 -14   16.50    2.00
   1  -4 -14   19.70    2.30
  -1  -4  14   17.00    2.50
   1  -4 -14   18.50    2.10
  -1  -4  14   15.50    2.30
  -1   4  14   19.30    2.30
  -1   4  14   19.80    2.20
   1   4 -14   17.90    2.00
  -1   4  14   16.50    2.60
   1   4 -14   15.20    2.10
   1   4 -14   19.50    1.80
   0  -4  14  179.98    5.90
   0  -4  14  185.28    6.40
   0  -4 -14  178.38    6.00
   0  -4 -14  179.58    5.70
   0  -4 -14  186.38    6.10
   0  -4  14  178.68    5.70
   0   4  14  179.98    6.20
   0   4  14  172.08    6.30
   0   4 -14  185.48    5.70
   0   4 -14  186.38    5.60
   0   4 -14  177.68    6.20
   0   4  14  179.98    6.20
   1  -4  14    0.60    1.30
  -1  -4 -14    1.10    1.10
  -1  -4 -14   -1.00    1.10
   1  -4  14   -0.40    1.10
  -1  -4 -14    0.90    1.10
   1   4  14    3.30    1.40
  -1   4 -14    0.30    1.10
  -1   4 -14   -1.00    1.10
  -1   4 -14   -1.70    1.10
   1   4  14   -1.60    1.20
   1   4  14    0.40    1.20
  -2  -4 -14  307.87    9.40
   2  -4  14  311.17    9.60
  -2  -4 -14  307.97    9.40
   2  -4  14  301.87    9.40
  -2  -4 -14  297.37    9.00
  -2   4 -14  310.07    9.00
   2   4  14  303.87    9.50
  -2   4 -14  298.97    9.60
   2   4  14  305.47    9.60
   2   4  14  315.97    9.30
   3  -4  14    5.00    1.60
   3  -4  14    8.00    1.70
  -3  -4 -14   11.00    2.40
  -3  -4 -14    6.00    1.50
   3  -4  14    7.70    2.10
  -3   4 -14    6.90    1.70
   3   4  14    5.50    1.70
   3   4  14    9.10    2.40
  -3   4 -14   14.30    2.70
   4  -4  14  146.39    5.90
   4  -4  14  150.08    5.80
   4  -4  14  147.99    6.10
  -4  -4 -14  139.79    5.80
  -4   4 -14  149.09    5.70
   4   4  14  139.79    6.00
  -4   4 -14  141.09    6.00
   4   4  14  135.19    5.80
  -4  -5  14   17.30    2.70
  -4  -5  14   19.50    3.30
   4  -5 -14   16.50    2.70
   4   5 -14   17.40    2.90
   4   5 -14   15.20    3.10
  -4   5  14   17.00    3.00
   3  -5 -14    0.60    1.50
   3  -5 -14    1.20    1.50
  -3  -5  14    1.10    1.50
  -3  -5  14    2.80    1.50
   3   5 -14    1.20    1.60
  -3   5  14   -0.10    1.40
   3   5 -14    1.80    1.40
  -3   5  14    1.80    1.40
  -2  -5  14   82.59    3.90
   2  -5 -14   84.29    3.80
  -2  -5  14   80.79    4.10
   2  -5 -14   80.69    3.90
   2   5 -14   76.49    3.90
   2   5 -14   79.39    3.90
  -2   5  14   86.49    4.20
  -2   5  14   86.69    4.00
  -1  -5  14   88.99    4.30
   1  -5 -14   90.59    4.00
   1  -5 -14   97.59    4.10
  -1  -5  14   98.49    4.30
  -1   5  14   97.99    4.40
  -1   5  14   94.89    4.20
   1   5 -14   90.79    3.90
   1   5 -14   97.69    4.30
   0  -5  14  107.99    4.20
   0  -5 -14  104.29    4.30
   0  -5  14  101.29    4.50
   0  -5 -14  114.29    4.40
   0  -5  14   99.09    4.00
   0   5  14  104.49    4.50
   0   5  14  105.99    4.50
   0   5  14  103.39    4.50
   0   5 -14  105.69    4.20
   0   5 -14  102.49    4.50
   1  -5  14  105.59    4.40
  -1  -5 -14  115.99    4.50
  -1  -5 -14  115.29    4.60
   1  -5  14  113.29    4.80
   1   5  14  112.39    4.80
  -1   5 -14  108.79    4.30
   1   5  14  110.09    4.70
   1   5  14  112.69    4.70
  -1   5 -14  112.79    4.70
  -2  -5 -14   13.20    2.40
   2  -5  14    8.20    2.00
  -2  -5 -14   10.20    2.50
   2  -5  14    6.60    1.60
  -2   5 -14   15.40    2.60
   2   5  14    8.20    1.70
   2   5  14   10.40    2.60
  -2   5 -14   10.10    1.70
   2   5  14   10.00    2.70
  -3  -5 -14  222.78    7.60
   3  -5  14  227.78    7.80
  -3  -5 -14  227.48    7.70
   3  -5  14  232.58    8.00
   3   5  14  222.78    7.80
  -3   5 -14  214.58    7.70
   3   5  14  218.18    7.90
  -4  -6  14   13.20    2.90
  -4  -6  14    7.70    2.00
   4  -6 -14    6.70    1.90
  -4   6  14    7.10    2.10
   4   6 -14    5.90    1.80
   4   6 -14    7.50    2.10
   3  -6 -14  277.37    8.60
  -3  -6  14  268.57    8.90
   3  -6 -14  271.97    8.70
  -3  -6  14  274.97    8.90
  -3   6  14  271.07    9.00
   3   6 -14  270.07    8.80
   3   6 -14  268.97    8.80
  -3   6  14  266.37    8.60
   2  -6 -14   -0.70    1.50
  -2  -6  14    0.10    1.40
  -2  -6  14   -0.30    1.50
   2  -6 -14    0.80    1.50
  -2   6  14   -0.30    1.50
   2   6 -14   -0.60    1.30
   2   6 -14    2.40    1.60
  -2   6  14    0.30    1.30
   1  -6 -14  212.08    7.00
   1  -6 -14  213.48    7.00
  -1  -6  14  205.08    7.40
  -1  -6  14  211.88    7.10
  -1   6  14  201.58    7.20
   1   6 -14  210.48    7.00
   1   6 -14  205.08    7.10
  -1   6  14  206.88    7.20
   0  -6 -14   42.70    3.10
   0  -6 -14   42.30    3.00
   0  -6  14   42.10    3.00
   0  -6  14   40.60    3.20
   0   6  14   41.60    3.20
   0   6 -14   42.90    3.20
   0   6  14   40.80    3.20
   0   6 -14   37.90    3.00
  -1  -6 -14   14.50    2.50
  -1  -6 -14   15.20    2.40
   1  -6  14   10.60    2.50
   1  -6  14    9.40    1.90
  -1   6 -14   13.40    2.70
   1   6  14   13.50    2.60
   1   6  14   14.20    2.80
   1   6  14   11.40    2.80
  -1   6 -14   14.80    2.50
  -2  -6 -14   18.80    2.90
   2  -6  14   12.30    3.30
  -2  -6 -14   18.00    2.60
   2  -6  14   16.90    2.80
   2   6  14   21.20    3.10
  -2   6 -14   22.50    2.80
   2   6  14   15.70    3.00
  -2   6 -14   13.90    2.90
   2   6  14   16.50    3.00
   3  -7 -14    1.20    1.80
   3  -7 -14    6.00    1.90
  -3  -7  14    1.50    1.90
  -3  -7  14    1.40    1.80
   3   7 -14    4.90    2.00
   3   7 -14    2.80    1.60
  -3   7  14    2.80    2.00
  -3   7  14    2.50    1.80
  -2  -7  14  126.09    5.70
   2  -7 -14  123.09    5.30
   2  -7 -14  132.79    5.30
  -2  -7  14  130.69    5.40
   2   7 -14  133.19    5.40
  -2   7  14  132.89    5.60
  -2   7  14  123.89    5.50
   2   7 -14  125.59    5.50
   1  -7 -14   26.10    2.90
   1  -7 -14   25.60    3.00
  -1  -7  14   24.10    3.10
  -1  -7  14   19.70    3.30
  -1   7  14   21.50    3.30
  -1   7  14   20.80    2.80
   1   7 -14   24.30    2.80
   1   7 -14   22.70    3.20
   0  -7 -14   98.99    4.60
   0  -7 -14   91.99    4.40
   0  -7  14   94.89    4.80
   0   7 -14  102.89    4.60
   0   7  14   89.49    4.70
   0   7 -14   99.19    4.70
   0   7  14  101.79    4.80
   1  -7  14    7.60    1.80
  -1  -7 -14    9.20    1.80
  -1  -7 -14   13.10    2.80
   1   7  14    7.70    1.90
   1   7  14    7.80    1.90
  -1   7 -14    9.60    2.10
   1   7  14    9.60    2.10
  -1   7 -14    9.80    2.70
   5   0 -15   46.80    3.60
   5   0 -15   51.99    3.60
  -5   0  15   46.20    3.70
  -5   0  15   48.40    3.40
   5   0 -15   43.50    3.20
   4   0 -15    2.40    1.30
   4   0 -15    0.00    1.50
  -4   0  15    0.20    1.30
  -4   0  15   -0.20    1.30
   4   0 -15   -1.20    1.30
  -4   0  15    0.30    1.50
  -3   0  15  169.28    6.00
   3   0 -15  161.78    6.00
  -3   0  15  159.38    5.90
   3   0 -15  157.08    5.50
   3   0 -15  165.98    5.30
  -2   0  15    1.00    1.30
   2   0 -15    1.00    1.10
  -2   0  15    0.50    1.20
   2   0 -15   -0.70    1.30
  -1   0  15  205.18    6.30
  -1   0  15  205.68    7.00
   1   0 -15  204.78    6.50
  -1   0  15  207.28    6.70
   1   0 -15  212.58    6.90
   0   0  15    3.50    1.20
   0   0  15    2.50    1.20
   0   0 -15    3.50    1.40
   0   0 -15    2.50    1.10
   0   0  15    2.60    1.20
   1   0  15   32.00    2.70
  -1   0 -15   34.90    2.40
   1   0  15   33.10    2.60
  -1   0 -15   32.40    2.80
   1   0  15   38.50    2.40
  -2   0 -15    0.10    1.40
  -2   0 -15    0.90    1.10
   2   0  15   -1.40    1.50
   2   0  15    0.50    1.10
  -3   0 -15  193.18    6.90
   3   0  15  189.08    6.90
  -3   0 -15  196.48    6.60
   3   0  15  197.08    6.80
  -4   0 -15   -1.40    1.70
  -4   0 -15    0.10    1.40
   4   0  15    1.70    1.50
   4   0  15   -0.60    1.70
  -5  -1  15   24.80    3.20
   5  -1 -15   19.90    3.50
  -5  -1  15   27.30    3.10
   5  -1 -15   23.20    3.00
   5  -1 -15   23.30    2.70
   5   1 -15   23.00    3.10
  -5   1  15   28.20    3.00
  -5   1  15   24.00    3.20
   5   1 -15   20.30    2.90
   5   1 -15   25.90    3.10
  -4  -1  15  116.29    4.70
   4  -1 -15  111.89    4.30
  -4  -1  15  117.69    5.00
   4  -1 -15  118.99    5.00
   4  -1 -15  118.69    4.50
  -4   1  15  119.09    4.40
   4   1 -15  110.79    4.90
  -4   1  15  112.19    4.90
  -4   1  15  101.99    4.50
   4   1 -15  108.99    4.40
   4   1 -15  109.69    4.50
  -3  -1  15    1.40    1.40
  -3  -1  15    0.20    1.40
   3  -1 -15    2.20    1.20
   3  -1 -15    1.60    1.40
   3   1 -15    0.00    1.20
  -3   1  15    0.20    1.30
   3   1 -15    1.90    1.40
  -3   1  15   -0.60    1.30
   3   1 -15    0.40    1.20
   2  -1 -15   61.89    3.10
   2  -1 -15   68.89    3.60
  -2  -1  15   68.79    3.70
  -2  -1  15   71.09    3.50
  -2   1  15   66.69    3.70
   2   1 -15   65.79    3.60
   2   1 -15   70.39    2.90
  -2   1  15   70.59    3.50
   2   1 -15   62.19    3.10
   1  -1 -15  245.28    7.40
  -1  -1  15  235.28    7.80
   1  -1 -15  241.58    7.60
  -1  -1  15  244.98    7.10
  -1  -1  15  250.77    7.60
  -1   1  15  238.18    7.10
   1   1 -15  228.88    7.20
   1   1 -15  240.48    7.70
  -1   1  15  243.88    7.80
  -1   1  15  225.88    7.50
   0  -1  15   15.50    2.00
   0  -1 -15   16.10    2.00
   0  -1  15   15.10    2.40
   0  -1  15   11.30    2.00
   0  -1 -15   17.70    2.50
   0   1 -15   14.10    1.90
   0   1 -15   17.30    2.50
   0   1  15   12.10    2.00
   0   1  15   18.60    2.20
   0   1  15   20.10    2.50
  -1  -1 -15  236.88    7.40
  -1  -1 -15  232.58    7.60
   1  -1  15  231.58    7.70
   1  -1  15  246.78    7.50
   1  -1  15  243.58    7.10
   1   1  15  238.28    7.30
   1   1  15  235.18    7.70
   1   1  15  230.68    7.50
  -1   1 -15  232.58    7.70
  -1   1 -15  242.58    7.40
   2  -1  15    5.10    1.70
   2  -1  15    4.00    1.30
  -2  -1 -15    5.20    1.60
  -2  -1 -15    5.90    1.40
   2   1  15    4.40    1.30
  -2   1 -15    5.20    1.50
  -2   1 -15    3.20    1.30
   2   1  15    5.60    1.70
   3  -1  15   41.80    3.50
  -3  -1 -15   45.60    3.60
   3  -1  15   41.30    3.20
  -3  -1 -15   50.39    3.00
   3   1  15   46.00    3.20
   3   1  15   52.09    3.50
  -3   1 -15   46.90    3.40
  -3   1 -15   48.30    3.10
   4  -1  15  126.49    5.40
  -4  -1 -15  136.49    5.80
   4  -1  15  121.99    5.50
  -4  -1 -15  133.29    5.20
  -4   1 -15  127.59    5.10
   4   1  15  132.59    5.40
   4   1  15  120.49    5.60
  -4   1 -15  119.69    5.50
   5  -2 -15    1.70    1.90
  -5  -2  15    3.10    1.80
   5  -2 -15    3.80    1.50
   5   2 -15    4.10    1.70
  -5   2  15    4.70    1.90
   5   2 -15    1.20    1.80
   5   2 -15    2.80    1.80
  -5   2  15    5.50    2.00
  -4  -2  15   31.60    3.00
   4  -2 -15   36.30    3.40
   4  -2 -15   36.40    2.80
  -4  -2  15   31.30    3.10
  -4   2  15   32.00    2.90
   4   2 -15   35.00    2.90
  -4   2  15   35.20    2.90
   4   2 -15   31.30    2.90
   4   2 -15   34.50    3.10
   3  -2 -15    4.10    1.30
  -3  -2  15    3.50    1.60
  -3  -2  15    1.40    1.30
   3  -2 -15    1.30    1.40
   3   2 -15    2.90    1.30
  -3   2  15    3.30    1.50
  -3   2  15    3.80    1.40
   3   2 -15    2.00    1.30
   3   2 -15    3.30    1.40
   2  -2 -15  153.58    5.50
   2  -2 -15  158.38    5.50
  -2  -2  15  157.28    5.90
  -2  -2  15  160.58    5.70
   2  -2 -15  165.88    5.10
   2   2 -15  158.08    5.80
   2   2 -15  159.38    5.30
  -2   2  15  158.38    5.80
  -2   2  15  157.88    5.10
  -2   2  15  160.98    5.70
   2   2 -15  155.08    5.10
   1  -2 -15    0.10    1.10
   1  -2 -15    1.60    1.30
  -1  -2  15    0.40    1.20
   1  -2 -15    0.90    1.10
  -1  -2  15    0.20    1.20
  -1   2  15   -1.10    1.10
   1   2 -15   -2.30    1.00
   1   2 -15    2.40    1.40
  -1   2  15   -0.80    1.20
  -1   2  15    0.50    1.30
   1   2 -15   -0.50    1.30
   0  -2  15  383.86   10.80
   0  -2 -15  379.56   10.90
   0  -2  15  371.36   11.30
   0  -2  15  366.06   10.60
   0  -2 -15  375.36   10.90
   0   2 -15  378.76   11.20
   0   2  15  366.86   11.20
   0   2  15  375.76   11.00
   0   2  15  381.66   10.80
   0   2 -15  383.66   10.70
   1  -2  15    1.90    1.30
  -1  -2 -15   -1.50    1.20
  -1  -2 -15    0.90    1.10
   1  -2  15   -0.10    1.10
   1   2  15   -0.30    1.40
   1   2  15   -1.10    1.20
   1   2  15   -0.90    1.10
  -1   2 -15    1.40    1.30
  -1   2 -15   -1.80    1.10
   2  -2  15  313.07    9.50
  -2  -2 -15  321.37    9.40
   2  -2  15  308.37    9.60
  -2  -2 -15  299.07    9.40
  -2   2 -15  300.77    9.10
  -2   2 -15  298.47    9.60
   2   2  15  310.17    9.50
   2   2  15  302.17    9.60
   3  -2  15    4.00    1.90
  -3  -2 -15    4.10    1.70
  -3  -2 -15    5.10    1.50
   3  -2  15    5.40    1.50
   3   2  15    5.30    1.40
   3   2  15    3.50    1.60
  -3   2 -15    2.70    1.60
  -3   2 -15    4.20    1.60
   4  -2  15    1.30    1.80
   4  -2  15   -0.30    1.60
  -4  -2 -15    2.90    1.90
  -4  -2 -15    2.10    1.70
   4   2  15    0.70    1.50
  -4   2 -15   -0.60    1.60
  -4   2 -15    0.40    1.80
   4   2  15   -2.00    1.80
   5  -3 -15    8.80    2.00
   5  -3 -15    7.10    1.70
  -5  -3  15    6.60    2.00
  -5  -3  15    7.20    1.80
   5   3 -15    8.40    2.10
  -5   3  15    8.30    2.10
   5   3 -15    6.20    2.00
   4  -3 -15  117.59    4.70
  -4  -3  15  112.09    5.00
   4  -3 -15  112.49    4.80
  -4  -3  15  116.29    5.00
   4   3 -15  106.09    5.00
   4   3 -15  119.59    4.50
  -4   3  15  114.79    5.00
  -4   3  15  112.49    4.60
   4   3 -15  116.89    4.80
  -3  -3  15   -0.80    1.40
   3  -3 -15    0.50    1.20
  -3  -3  15   -2.00    1.40
   3  -3 -15    0.60    1.20
   3   3 -15    1.60    1.40
  -3   3  15    0.80    1.50
  -3   3  15   -0.60    1.40
   3   3 -15    0.30    1.30
   3   3 -15   -2.20    1.30
  -2  -3  15   71.09    3.90
  -2  -3  15   71.59    3.60
   2  -3 -15   71.99    3.50
   2  -3 -15   69.49    3.40
   2  -3 -15   78.09    3.40
  -2   3  15   74.19    3.90
   2   3 -15   72.49    3.30
   2   3 -15   70.29    3.70
  -2   3  15   69.79    3.30
  -2   3  15   75.79    3.80
   2   3 -15   74.19    3.20
  -1  -3  15  146.39    5.60
  -1  -3  15  155.88    5.90
   1  -3 -15  158.38    5.40
   1  -3 -15  157.28    5.50
   1  -3 -15  162.98    5.50
   1   3 -15  164.18    5.30
  -1   3  15  165.98    5.50
   1   3 -15  158.58    5.10
  -1   3  15  159.58    5.80
  -1   3  15  159.08    5.90
   1   3 -15  161.98    5.80
   0  -3  15    3.60    1.30
   0  -3 -15    3.10    1.20
   0  -3 -15    5.40    1.40
   0  -3 -15    2.50    1.20
   0  -3  15    4.20    1.30
   0  -3  15    2.00    1.30
   0   3  15    4.30    1.60
   0   3 -15    4.00    1.40
   0   3 -15    3.20    1.30
   0   3  15    3.50    1.40
   0   3  15    3.20    1.40
   1  -3  15  153.68    5.50
   1  -3  15  160.58    5.90
  -1  -3 -15  153.98    5.50
  -1  -3 -15  160.38    5.60
   1   3  15  161.28    5.80
  -1   3 -15  155.38    5.90
  -1   3 -15  157.18    5.30
   1   3  15  158.48    5.90
   1   3  15  161.38    5.70
  -2  -3 -15   27.90    2.60
   2  -3  15   21.40    2.60
   2  -3  15   27.30    3.10
  -2  -3 -15   23.30    2.70
   2   3  15   26.80    2.90
  -2   3 -15   28.40    2.70
  -2   3 -15   24.30    2.80
   2   3  15   26.70    2.80
   3  -3  15   82.09    4.10
  -3  -3 -15   76.29    4.20
  -3  -3 -15   76.89    3.90
   3  -3  15   77.09    4.50
  -3   3 -15   72.29    4.30
   3   3  15   77.89    4.20
  -3   3 -15   82.89    4.00
   3   3  15   72.29    4.10
   4  -4 -15    2.60    1.50
  -4  -4  15    0.30    1.60
  -4  -4  15   -0.50    1.70
  -4   4  15    1.80    1.70
   4   4 -15    3.80    1.60
   4   4 -15    0.80    1.70
  -3  -4  15  445.16   13.40
  -3  -4  15  462.75   13.40
   3  -4 -15  452.75   13.10
   3   4 -15  452.25   13.40
   3   4 -15  450.05   12.90
  -3   4  15  451.05   13.10
  -3   4  15  467.95   13.50
  -2  -4  15    8.90    2.50
   2  -4 -15   -0.90    1.30
  -2  -4  15   -0.90    1.30
   2  -4 -15    1.80    1.20
   2   4 -15    0.30    1.30
  -2   4  15   -0.70    1.50
   2   4 -15    0.40    1.40
  -2   4  15    3.60    1.60
  -1  -4  15   82.69    4.30
   1  -4 -15   84.09    3.90
  -1  -4  15   93.69    4.00
   1  -4 -15   69.89    3.80
   1  -4 -15   83.59    3.80
   1   4 -15   89.29    3.50
   1   4 -15   84.69    3.60
  -1   4  15   97.09    4.30
  -1   4  15   86.89    4.10
  -1   4  15   87.39    3.90
   1   4 -15   84.29    4.10
   0  -4  15    9.60    2.50
   0  -4 -15   16.60    2.30
   0  -4 -15   14.20    2.70
   0  -4 -15   17.10    2.40
   0  -4  15   14.70    2.40
   0   4  15   19.60    2.60
   0   4 -15   19.20    2.10
   0   4  15   19.60    2.80
   0   4 -15   17.00    2.50
   0   4  15   15.50    2.60
   0   4 -15   13.30    2.10
   1  -4  15   10.10    2.50
  -1  -4 -15    5.10    1.50
   1  -4  15    4.40    1.40
  -1  -4 -15    6.80    1.50
  -1   4 -15   13.00    2.30
   1   4  15    5.40    1.70
   1   4  15    4.00    1.50
   1   4  15    7.30    1.80
  -1   4 -15    2.50    1.40
   2  -4  15   12.70    2.50
  -2  -4 -15   11.20    2.60
   2  -4  15   13.10    2.90
   2   4  15   13.40    2.70
   2   4  15    9.60    2.00
  -2   4 -15   15.90    2.60
   2   4  15    9.90    2.70
  -2   4 -15   11.20    2.70
   3  -4  15  431.86   12.80
  -3  -4 -15  422.66   12.60
   3  -4  15  420.06   12.30
   3  -4  15  426.06   12.80
  -3   4 -15  441.36   12.30
  -3   4 -15  411.86   12.90
   3   4  15  424.56   12.90
   3   4  15  427.96   12.80
   4  -5 -15  141.29    5.80
  -4  -5  15  145.89    5.80
  -4  -5  15  148.69    6.10
   4   5 -15  149.79    5.90
   4   5 -15  131.99    6.00
  -4   5  15  135.39    6.10
  -3  -5  15   -1.20    1.60
  -3  -5  15    1.70    1.60
   3  -5 -15    1.20    1.50
   3  -5 -15    1.40    1.70
  -3   5  15    3.90    1.70
   3   5 -15   -0.40    1.50
   3   5 -15    1.70    1.80
  -3   5  15   -0.80    1.60
   2  -5 -15  115.19    4.80
  -2  -5  15  109.89    5.00
   2  -5 -15  115.29    4.80
  -2  -5  15  114.89    4.90
   2   5 -15  118.79    5.00
  -2   5  15  113.79    5.00
  -2   5  15  111.49    4.90
   2   5 -15  107.89    4.70
  -1  -5  15   68.39    3.90
   1  -5 -15   63.69    3.60
  -1  -5  15   65.59    3.90
   1  -5 -15   69.39    3.70
  -1   5  15   68.59    3.70
   1   5 -15   69.79    3.70
   1   5 -15   66.69    3.50
  -1   5  15   61.09    3.90
   0  -5  15    9.90    2.70
   0  -5 -15    6.40    1.60
   0  -5 -15    7.00    1.60
   0  -5  15    6.90    1.70
   0   5 -15    0.60    1.50
   0   5  15    4.20    1.50
   0   5  15    3.10    1.70
   0   5 -15    3.90    1.40
   0   5  15    5.90    1.60
   1  -5  15   99.89    4.50
  -1  -5 -15   96.79    4.40
   1  -5  15   96.99    4.60
  -1  -5 -15   94.69    4.40
   1   5  15   94.19    4.80
   1   5  15  104.19    4.70
  -1   5 -15   98.19    4.60
   1   5  15  106.69    4.70
   2  -5  15   35.40    3.20
  -2  -5 -15   39.40    3.40
   2  -5  15   30.60    3.60
  -2  -5 -15   34.70    3.10
  -2   5 -15   38.70    3.50
   2   5  15   38.20    3.40
   2   5  15   35.50    3.50
   2   5  15   44.70    3.50
  -3  -6  15   24.30    3.60
   3  -6 -15   22.20    3.10
   3  -6 -15   22.50    3.20
  -3  -6  15   26.90    3.30
  -3   6  15   15.90    3.30
  -3   6  15   18.50    3.30
   3   6 -15   23.40    3.40
   3   6 -15   23.90    3.20
  -2  -6  15  127.09    5.40
  -2  -6  15  128.09    5.60
   2  -6 -15  125.29    5.30
   2  -6 -15  126.09    5.30
  -2   6  15  124.59    5.30
  -2   6  15  131.49    5.50
   2   6 -15  125.79    5.30
   2   6 -15  118.59    5.30
   1  -6 -15    1.20    1.60
   1  -6 -15    1.60    1.60
  -1  -6  15    4.00    1.80
  -1  -6  15    7.10    1.90
  -1   6  15    3.70    1.70
   1   6 -15    2.50    1.60
   1   6 -15    4.10    1.70
  -1   6  15    2.90    1.60
   0  -6 -15  206.68    6.90
   0  -6  15  190.38    7.20
   0  -6 -15  197.68    7.00
   0   6 -15  199.88    7.20
   0   6 -15  193.88    6.80
   0   6  15  202.38    7.10
   0   6  15  193.48    7.10
   0   6  15  196.08    7.10
  -1  -6 -15    1.50    1.60
  -1  -6 -15    2.50    1.50
   1  -6  15    0.20    1.60
   1   6  15    2.50    1.80
  -1   6 -15   -1.60    1.90
   1   6  15   -0.30    1.70
  -1   6 -15    0.80    1.60
   1   6  15    2.70    1.80
  -5   0  16   -0.20    1.90
   5   0 -16   -0.50    1.80
   5   0 -16    0.50    1.60
  -5   0  16   -1.20    2.20
  -4   0  16    0.00    1.60
   4   0 -16   -2.80    1.70
  -4   0  16   -1.20    1.50
   4   0 -16    0.90    1.40
   3   0 -16    1.50    1.50
  -3   0  16    0.30    1.60
   3   0 -16    0.60    1.30
  -3   0  16    0.50    1.40
   2   0 -16  231.88    7.80
   2   0 -16  231.78    7.30
  -2   0  16  234.48    7.80
  -2   0  16  231.68    7.60
   1   0 -16   -0.10    1.10
   1   0 -16    0.20    1.40
  -1   0  16    2.60    1.40
  -1   0  16   -0.80    1.30
  -1   0  16    1.00    1.10
   0   0  16  661.83   18.00
   0   0  16  662.63   18.40
   0   0 -16  651.83   18.30
   0   0 -16  664.13   18.00
   0   0  16  650.13   17.80
  -1   0 -16    1.40    1.50
   1   0  16    0.90    1.30
   1   0  16    0.30    1.60
  -1   0 -16    1.50    1.20
   2   0  16   97.39    4.60
  -2   0 -16   97.59    4.20
  -2   0 -16   94.09    4.60
   2   0  16   95.39    4.40
   3   0  16   -3.40    1.80
  -3   0 -16    2.00    1.50
   3   0  16   -1.00    1.30
  -3   0 -16    0.40    1.70
   5  -1 -16   24.00    3.70
  -5  -1  16   22.80    3.30
   5  -1 -16   24.00    3.00
   5   1 -16   20.60    3.20
   5   1 -16   24.10    3.50
  -5   1  16   18.80    3.40
   5   1 -16   24.30    3.30
   4  -1 -16   42.60    3.80
  -4  -1  16   43.30    3.50
  -4  -1  16   39.20    3.30
   4  -1 -16   41.70    3.10
   4   1 -16   42.50    3.30
   4   1 -16   42.00    3.20
  -4   1  16   43.30    3.40
  -4   1  16   39.40    3.30
   4   1 -16   43.40    3.30
  -3  -1  16  111.69    4.80
  -3  -1  16  113.89    5.00
   3  -1 -16  111.89    4.50
   3  -1 -16  112.49    4.90
   3   1 -16  111.19    4.90
  -3   1  16  107.09    4.80
  -3   1  16  113.89    5.00
   3   1 -16  111.39    4.50
  -2  -1  16   88.59    4.10
   2  -1 -16   90.99    4.30
   2  -1 -16   86.09    3.70
  -2  -1  16   86.09    4.30
   2   1 -16   84.19    4.20
  -2   1  16   84.69    4.10
   2   1 -16   82.79    3.80
  -2   1  16   84.19    4.30
  -1  -1  16  134.39    5.20
   1  -1 -16  143.19    5.10
  -1  -1  16  136.59    5.40
   1  -1 -16  141.29    5.40
  -1   1  16  139.29    4.90
  -1   1  16  138.69    5.40
  -1   1  16  137.79    5.30
   1   1 -16  142.99    5.00
   1   1 -16  140.89    5.50
   0  -1  16    8.50    1.60
   0  -1  16    9.90    2.20
   0  -1 -16    8.00    1.50
   0  -1 -16    9.90    2.60
   0  -1  16    5.90    1.50
   0   1  16    9.80    2.20
   0   1  16   13.70    2.60
   0   1 -16   11.40    2.10
   0   1  16    8.90    2.30
   0   1 -16   13.00    2.50
  -1  -1 -16  151.08    5.40
  -1  -1 -16  147.79    5.70
   1  -1  16  150.38    5.50
   1  -1  16  150.08    5.80
   1   1  16  153.28    5.60
   1   1  16  150.98    5.90
   1   1  16  155.18    5.30
  -1   1 -16  142.49    5.70
  -1   1 -16  148.49    5.30
  -2  -1 -16   53.19    3.20
   2  -1  16   52.59    3.50
  -2  -1 -16   57.39    3.80
   2  -1  16   54.49    3.60
  -2   1 -16   55.09    3.60
   2   1  16   53.49    3.80
   2   1  16   52.49    3.50
  -2   1 -16   60.29    3.20
   3  -1  16    2.90    1.50
  -3  -1 -16    4.00    1.50
  -3  -1 -16   -0.20    1.80
   3  -1  16   -1.60    1.90
  -3   1 -16    1.00    1.50
   3   1  16    2.30    1.80
  -3   1 -16    2.30    1.70
   3   1  16    1.30    1.50
   4  -2 -16   -0.70    1.70
  -4  -2  16    2.50    1.60
  -4  -2  16    0.10    1.60
   4  -2 -16   -1.80    1.30
  -4   2  16    1.60    1.70
  -4   2  16    1.70    1.60
   4   2 -16   -1.20    1.60
   4   2 -16   -1.70    1.60
   4   2 -16    0.10    1.50
  -3  -2  16  134.09    5.70
  -3  -2  16  135.49    5.50
   3  -2 -16  145.99    5.60
   3  -2 -16  141.39    5.30
   3   2 -16  144.79    5.60
  -3   2  16  134.79    5.60
   3   2 -16  141.49    5.20
   3   2 -16  143.19    5.10
  -3   2  16  140.89    5.60
  -2  -2  16    4.40    1.60
  -2  -2  16    3.40    1.50
   2  -2 -16    4.00    1.30
   2  -2 -16    2.00    1.50
   2   2 -16    4.00    1.50
   2   2 -16    3.60    1.40
  -2   2  16   -0.40    1.50
  -2   2  16    3.30    1.40
   1  -2 -16   14.20    2.60
  -1  -2  16   16.70    2.60
   1  -2 -16   12.00    2.20
  -1  -2  16   14.80    2.60
  -1   2  16   15.90    2.40
   1   2 -16   16.20    2.40
   1   2 -16   20.50    2.60
  -1   2  16   15.10    2.70
  -1   2  16   16.40    2.50
   0  -2 -16    1.40    1.40
   0  -2  16    3.60    1.50
   0  -2  16    3.70    1.40
   0  -2  16    3.00    1.40
   0  -2 -16    3.20    1.30
   0   2 -16    1.40    1.40
   0   2  16    2.50    1.50
   0   2  16    3.20    1.50
   0   2 -16    4.50    1.50
   0   2  16    4.70    1.60
  -1  -2 -16  103.89    4.30
  -1  -2 -16  101.49    4.50
   1  -2  16  105.39    4.70
   1  -2  16   98.79    4.40
   1   2  16  100.59    4.70
  -1   2 -16  104.69    4.70
   1   2  16  100.29    4.40
   1   2  16  108.49    4.70
  -1   2 -16  101.99    4.30
   2  -2  16   -2.20    1.30
  -2  -2 -16    2.20    1.60
   2  -2  16    1.00    1.70
  -2  -2 -16    1.30    1.30
   2   2  16   -0.80    1.40
  -2   2 -16    0.10    1.50
   2   2  16   -1.70    1.70
  -2   2 -16   -0.80    1.40
   3  -2  16  410.66   12.60
   3  -2  16  420.96   12.60
  -3  -2 -16  401.96   12.30
  -3  -2 -16  411.16   12.40
  -3   2 -16  427.46   12.20
   3   2  16  421.46   12.60
  -3   2 -16  411.56   12.70
   3   2  16  407.36   12.60
   4  -3 -16  164.38    6.10
   4  -3 -16  163.48    6.00
  -4  -3  16  157.28    6.20
  -4  -3  16  154.18    6.20
   4   3 -16  152.08    6.30
  -4   3  16  153.98    6.30
   4   3 -16  154.78    5.90
  -3  -3  16    9.60    2.60
   3  -3 -16   13.20    2.30
  -3  -3  16   13.60    3.20
   3  -3 -16    7.80    1.70
  -3   3  16   12.60    2.60
   3   3 -16   12.90    2.60
   3   3 -16    7.30    1.90
  -3   3  16    9.50    1.90
   3   3 -16    9.10    1.80
   2  -3 -16   46.80    3.20
   2  -3 -16   47.60    3.10
  -2  -3  16   45.00    3.40
  -2  -3  16   45.60    3.30
   2  -3 -16   49.40    2.90
   2   3 -16   42.60    3.40
   2   3 -16   42.20    2.80
  -2   3  16   48.10    3.40
  -2   3  16   37.10    3.20
  -2   3  16   42.80    3.50
  -1  -3  16   59.89    3.80
   1  -3 -16   53.89    3.10
   1  -3 -16   60.89    3.40
   1  -3 -16   54.29    3.20
  -1  -3  16   59.99    3.60
  -1   3  16   53.79    3.40
  -1   3  16   55.39    3.70
   1   3 -16   55.59    3.60
   1   3 -16   59.49    3.10
  -1   3  16   56.39    3.20
   0  -3 -16   16.90    2.30
   0  -3 -16   13.60    2.40
   0  -3  16   12.00    2.80
   0  -3 -16   15.00    2.60
   0  -3  16   17.30    2.60
   0   3 -16    9.60    2.40
   0   3 -16   11.80    2.60
   0   3  16   16.20    2.70
   0   3  16   17.90    2.90
   0   3  16   17.30    2.80
  -1  -3 -16   37.20    3.10
   1  -3  16   35.40    3.10
   1  -3  16   34.40    3.10
  -1  -3 -16   38.80    2.90
  -1   3 -16   42.50    3.30
   1   3  16   39.60    3.30
   1   3  16   39.20    3.30
  -1   3 -16   43.30    3.00
   1   3  16   36.10    3.40
  -2  -3 -16  217.28    7.40
   2  -3  16  219.08    7.60
   2  -3  16  220.78    7.70
  -2  -3 -16  226.58    7.60
   2   3  16  226.98    7.70
  -2   3 -16  223.48    7.90
  -2   3 -16  234.98    7.30
   2   3  16  217.88    7.80
  -4  -4  16   -0.90    1.80
  -4  -4  16    0.30    1.90
  -4   4  16    2.40    1.90
  -3  -4  16    4.90    1.90
  -3  -4  16   10.20    2.80
   3  -4 -16   11.80    2.60
  -3   4  16    6.70    1.80
   3   4 -16   12.40    2.80
   3   4 -16    6.00    1.80
  -3   4  16    7.10    1.90
  -2  -4  16   59.69    3.90
   2  -4 -16   60.49    3.60
   2  -4 -16   64.99    3.60
  -2  -4  16   66.49    3.90
  -2   4  16   64.19    3.60
  -2   4  16   63.89    4.10
  -2   4  16   65.69    3.80
   2   4 -16   63.29    4.00
   2   4 -16   62.29    3.50
   1  -4 -16    1.20    1.40
  -1  -4  16    1.60    1.50
  -1  -4  16    1.10    1.60
   1  -4 -16    3.70    1.70
   1   4 -16    1.50    1.60
  -1   4  16   -0.30    1.50
  -1   4  16    0.50    1.60
  -1   4  16   -0.30    1.60
   0  -4 -16  299.57    9.50
   0  -4 -16  306.87    9.40
   0  -4  16  305.07    9.90
   0   4  16  309.57    9.80
   0   4  16  312.47    9.50
   0   4  16  311.27    9.70
   0   4 -16  297.37    9.80
  -1  -4 -16   -1.70    1.40
   1  -4  16    1.60    1.60
   1  -4  16    0.70    1.60
  -1  -4 -16    1.80    1.60
   1   4  16    2.50    1.80
   1   4  16    3.40    1.70
   1   4  16    1.60    1.90
  -1   4 -16    0.50    1.60
  -2  -4 -16  156.18    6.10
   2  -4  16  161.28    6.30
   2  -4  16  159.08    6.30
  -2   4 -16  148.09    6.40
  -2   4 -16  164.78    6.70
   2   4  16  162.38    6.30
   2   4  16  154.68    6.40
  -3  -5  16   58.09    4.30
   3  -5 -16   58.09    3.90
  -3  -5  16   65.09    4.10
  -3   5  16   59.79    4.10
   3   5 -16   52.69    3.90
   3   5 -16   60.79    4.00
  -3   5  16   59.09    4.00
   2  -5 -16   45.30    3.50
  -2  -5  16   52.09    3.90
   2  -5 -16   48.30    3.50
  -2  -5  16   49.99    3.70
   2   5 -16   46.00    3.40
  -2   5  16   47.30    3.50
   2   5 -16   43.90    3.60
  -2   5  16   47.70    3.90
   1  -5 -16  110.19    4.70
  -1  -5  16  100.89    5.10
   1  -5 -16  100.69    4.60
  -1  -5  16  103.09    4.80
   1   5 -16   90.99    4.40
  -1   5  16  101.29    4.90
   1   5 -16   99.69    4.80
  -1   5  16  108.89    4.90
  -1   5  16  109.79    4.80
   0  -5 -16   12.60    2.70
   0  -5 -16   13.10    2.80
   0  -5  16   15.00    3.10
   0   5  16   18.70    3.20
   0   5  16    8.50    2.00
   0   5 -16    9.70    1.90
   0   5  16   16.60    3.00
   1  -5  16  155.68    6.40
  -1  -5 -16  163.58    6.10
  -1  -5 -16  156.28    6.10
  -1   5 -16  159.88    6.40
   1   5  16  162.28    6.30
   1   5  16  157.88    6.50
   1   5  16  155.28    6.30
  -4   0  17    0.80    1.70
   4   0 -17    0.60    1.70
   4   0 -17    1.30    1.90
  -4   0  17    0.20    1.70
  -3   0  17  110.89    5.20
   3   0 -17  112.79    4.70
  -3   0  17  116.89    5.10
   3   0 -17  115.39    5.30
  -2   0  17   -0.40    1.50
   2   0 -17   -0.50    1.60
   2   0 -17    2.60    1.50
  -2   0  17   -0.10    1.60
   1   0 -17   17.30    2.50
  -1   0  17   15.70    2.80
  -1   0  17   18.40    2.90
   1   0 -17   21.50    3.00
   0   0  17    1.10    1.50
   0   0  17    4.20    1.70
   0   0 -17    0.60    1.30
   0   0 -17    3.60    1.70
   0   0  17    3.10    1.60
  -1   0 -17  109.19    4.60
   1   0  17  113.79    4.90
  -1   0 -17  112.49    5.10
   1   0  17  115.69    5.10
   2   0  17    0.30    1.60
   2   0  17   -0.70    1.90
  -2   0 -17   -0.30    1.40
  -2   0 -17    2.90    1.90
  -4  -1  17   35.50    3.40
  -4  -1  17   35.00    3.70
   4  -1 -17   39.30    3.90
   4  -1 -17   44.30    3.40
  -4   1  17   38.10    3.50
  -4   1  17   36.40    3.70
   4   1 -17   40.20    3.80
   4   1 -17   33.20    3.30
   3  -1 -17  151.28    5.60
  -3  -1  17  144.69    5.90
   3  -1 -17  144.89    6.00
  -3  -1  17  148.79    6.10
  -3   1  17  147.69    6.00
   3   1 -17  141.19    5.90
  -3   1  17  149.79    5.90
   3   1 -17  148.59    5.50
  -2  -1  17    9.10    1.90
   2  -1 -17    8.20    1.90
   2  -1 -17    8.00    1.60
  -2  -1  17   10.80    2.70
  -2   1  17    7.20    1.90
   2   1 -17   13.60    2.60
  -2   1  17    9.40    1.90
   2   1 -17   12.90    2.80
  -1  -1  17  137.09    5.60
   1  -1 -17  135.69    5.50
   1  -1 -17  141.39    5.20
  -1  -1  17  135.39    5.40
   1   1 -17  133.79    5.50
  -1   1  17  134.59    5.60
  -1   1  17  136.89    5.50
   1   1 -17  145.19    5.20
   0  -1 -17   15.20    2.30
   0  -1 -17   10.60    2.90
   0  -1  17   17.40    2.80
   0  -1  17   20.70    3.00
   0   1 -17   22.70    3.00
   0   1  17   13.60    2.70
   0   1  17   18.60    2.90
   0   1  17   18.90    2.90
   0   1 -17   14.90    2.50
   1  -1  17   31.70    3.30
  -1  -1 -17   35.20    3.50
  -1  -1 -17   34.20    2.80
   1  -1  17   33.10    3.30
   1   1  17   34.60    3.40
   1   1  17   33.90    3.20
  -1   1 -17   37.90    3.00
  -1   1 -17   33.10    3.30
  -2  -1 -17  118.29    4.90
  -2  -1 -17  116.79    5.30
   2  -1  17  119.69    5.40
   2  -1  17  113.49    5.30
   2   1  17  118.79    5.40
  -2   1 -17  126.59    4.90
  -2   1 -17  118.59    5.40
   2   1  17  116.49    5.30
   3  -2 -17   -0.90    1.40
  -3  -2  17    1.40    1.90
   3  -2 -17   -1.40    1.70
  -3  -2  17   -0.50    1.70
   3   2 -17    3.20    1.70
   3   2 -17    2.00    1.60
  -3   2  17   -1.10    1.70
  -3   2  17    2.70    1.70
   2  -2 -17  139.09    5.60
  -2  -2  17  141.59    5.70
   2  -2 -17  140.59    5.30
  -2  -2  17  141.99    5.80
   2   2 -17  144.49    5.30
  -2   2  17  147.19    5.90
   2   2 -17  142.99    5.80
  -2   2  17  142.79    5.70
   1  -2 -17   -0.70    1.30
  -1  -2  17    1.70    1.60
   1  -2 -17    1.50    1.70
  -1  -2  17    3.50    1.70
  -1   2  17   -1.20    1.40
   1   2 -17   -1.00    1.40
  -1   2  17   -0.70    1.70
   1   2 -17   -0.30    1.50
  -1   2  17    1.00    1.50
   0  -2 -17  256.07    8.20
   0  -2 -17  253.67    8.00
   0  -2  17  247.98    8.50
   0   2 -17  264.37    8.00
   0   2 -17  243.48    8.40
   0   2  17  246.08    8.50
   0   2  17  250.17    8.10
   0   2  17  251.67    8.30
  -1  -2 -17    3.70    1.50
   1  -2  17    3.00    1.80
   1  -2  17    2.50    1.50
  -1  -2 -17    1.00    1.70
   1   2  17    0.40    1.70
  -1   2 -17    1.60    1.60
   1   2  17    2.20    1.70
  -1   2 -17    0.50    1.70
   2  -2  17   -1.70    1.60
  -2  -2 -17    0.10    1.80
   2  -2  17   -0.40    2.00
  -2  -2 -17    1.80    1.60
  -2   2 -17    2.30    1.80
   2   2  17    0.20    1.60
   2   2  17   -1.30    2.00
  -2   2 -17    2.10    1.60
  -3  -3  17  116.19    5.60
   3  -3 -17  113.19    5.00
  -3  -3  17  122.09    5.40
   3  -3 -17  111.99    5.60
   3   3 -17  119.89    5.60
  -3   3  17  125.49    5.40
  -3   3  17  123.29    5.50
   2  -3 -17    0.60    1.40
  -2  -3  17    5.10    1.80
   2  -3 -17    3.50    1.70
  -2  -3  17    1.80    1.80
   2   3 -17    2.40    1.80
  -2   3  17    2.50    1.90
   2   3 -17    4.70    2.00
  -2   3  17    4.30    1.80
  -1  -3  17   98.59    5.00
   1  -3 -17  107.59    4.60
   1  -3 -17  106.09    4.60
  -1  -3  17  104.49    4.80
  -1   3  17  106.89    4.90
  -1   3  17  105.39    4.80
   1   3 -17  104.79    5.00
  -1   3  17  101.79    4.60
   1   3 -17  110.59    4.50
   0  -3 -17   32.50    2.80
   0  -3  17   26.80    3.40
   0  -3 -17   31.80    3.00
   0   3 -17   22.60    3.00
   0   3  17   34.00    3.40
   0   3  17   35.30    3.30
   0   3 -17   31.10    3.40
   0   3  17   23.10    3.20
  -1  -3 -17   57.89    3.80
  -1  -3 -17   57.39    3.60
   1  -3  17   63.49    4.10
   1   3  17   59.29    4.10
  -1   3 -17   59.19    3.60
  -1   3 -17   55.69    4.10
   1   3  17   62.39    4.10
   2  -4 -17    4.20    1.70
  -2  -4  17    5.60    1.90
  -2  -4  17    4.90    1.90
   2   4 -17    5.00    1.90
  -2   4  17    2.30    2.00
  -2   4  17    2.40    1.80
   1  -4 -17    2.20    1.80
  -1  -4  17    4.70    1.90
   1  -4 -17    2.10    1.60
  -1  -4  17    6.80    1.80
  -1   4  17    2.50    1.80
  -1   4  17    4.00    1.80
   1   4 -17    3.00    1.80
  -1   4  17    6.10    1.90
   0  -4 -17   12.00    3.00
   0  -4 -17   12.10    2.80
   0  -4  17   13.60    3.30
   0   4  17   11.70    2.40
   0   4  17   13.00    3.20
   0   4  17   13.00    3.20
   0   4 -17    5.20    2.00
   2   0 -18  311.37   10.10
  -2   0  18  315.47   10.00
   2   0 -18  303.37    9.50
  -2   0  18  316.47   10.10
  -1   0  18   -1.00    1.70
  -1   0  18    1.50    1.80
   1   0 -18    3.10    1.60
   1   0 -18   -2.50    1.70
   0   0 -18   80.79    4.00
   0   0  18   75.39    4.70
   0   0 -18   74.79    4.50
  -1   0 -18    0.30    1.90
  -1   0 -18    0.70    1.60
   1   0  18    3.60    2.00
   1   0  18   -0.40    1.70
  -2  -1  18    3.70    1.80
  -2  -1  18    2.60    1.90
   2  -1 -18    0.60    1.90
   2  -1 -18    1.80    1.60
  -2   1  18    4.40    1.90
  -2   1  18    2.80    1.80
   2   1 -18    0.50    1.70
   2   1 -18   -1.00    1.80
  -1  -1  18   98.99    5.10
  -1  -1  18  105.39    4.90
   1  -1 -18  105.79    4.60
   1  -1 -18  110.69    5.20
  -1   1  18  100.39    4.90
   1   1 -18  106.09    4.60
   1   1 -18  105.89    5.10
  -1   1  18  106.29    5.10
   0  -1 -18   63.09    4.20
   0  -1  18   64.89    4.40
   0  -1 -18   67.89    3.60
   0   1  18   66.99    4.20
   0   1  18   68.69    4.40
   0   1 -18   61.19    4.20
   0   1 -18   67.39    3.80
   1  -1  18    1.10    1.80
   1   1  18   -0.90    1.80
  -2  -2  18    0.00    1.80
   2  -2 -18    0.10    1.40
   2  -2 -18   -0.30    1.80
  -2  -2  18    0.90    1.90
   2   2 -18   -3.10    1.70
   2   2 -18   -0.60    1.70
  -2   2  18    1.80    1.90
  -2   2  18    1.40    2.00
  -1  -2  18   45.40    3.90
   1  -2 -18   46.60    3.20
   1  -2 -18   48.60    3.90
  -1  -2  18   45.50    3.60
   1   2 -18   43.80    3.80
   1   2 -18   50.89    3.40
  -1   2  18   46.30    3.80
  -1   2  18   40.30    3.80
   0  -2 -18    0.50    1.50
   0  -2 -18   -1.50    1.80
   0  -2  18    3.70    1.90
   0   2 -18   -0.60    1.70
   0   2 -18    1.00    1.80
   0   2  18    0.00    1.80
   0   2  18    1.80    1.90
   0   2  18   -0.80    1.90
   0   0   0    0.00    0.00
_computing_structure_solution     'SHELXT 2014/5 (Sheldrick, 2014)'
;
_shelx_hkl_checksum              50285
_shelx_res_file
;
TITL RGR560_a.res in P2(1)/n
    rgr560_a.res
    created by SHELXL-2018/3 at 15:15:08 on 29-Mar-2019
REM Old TITL RGR560 in P2(1)/n
REM SHELXT solution in P2(1)/n
REM R1 0.068, Rweak 0.001, Alpha 0.057, Orientation as input
REM Formula found by SHELXT: C5 O8 Cd
CELL 0.71073 6.5123 8.8174 13.8763 90 96.053 90
ZERR 4 0.0003 0.0004 0.0006 0 0.001 0
LATT 1
SYMM 0.5-X,0.5+Y,0.5-Z
SFAC C H O Cd
UNIT 20 24 32 4
L.S. 70
PLAN  5
SIZE 0.09 0.14 0.18
TEMP 24.81
BOND $H
LIST 6
fmap 2
acta
OMIT -2 0 2
OMIT -1 0 1
REM <olex2.extras>
REM <HklSrc "%./RGR560_a.hkl">
REM </olex2.extras>
WGHT    0.021600    0.241700
FVAR       0.34183
CD1   4    0.437243    0.882713    0.686143    11.00000    0.02547    0.01806 =
         0.01602   -0.00174   -0.00309   -0.00052
O1    3    0.255776    0.893614    0.518537    11.00000    0.04153    0.01786 =
         0.01921   -0.00191   -0.00535   -0.00149
O2    3    0.372433    0.634931    0.629755    11.00000    0.03177    0.02126 =
         0.01322   -0.00008   -0.00542   -0.00282
O3    3    0.266374    0.357683    0.511647    11.00000    0.03336    0.01820 =
         0.02174    0.00238   -0.00270    0.00324
O4    3    0.084269    0.465922    0.320392    11.00000    0.04193    0.02248 =
         0.01784   -0.00427   -0.01024    0.00032
O5    3    0.065054    0.785572    0.319968    11.00000    0.04245    0.02184 =
         0.01942    0.00335   -0.01189    0.00094
O6    3    0.748685    0.877890    0.618346    11.00000    0.02977    0.01564 =
         0.02565    0.00059    0.00056    0.00081
O7    3    0.424499    1.134138    0.643881    11.00000    0.05141    0.02073 =
         0.02067    0.00095   -0.00725    0.00735
O8    3    0.116491    0.894640    0.742907    11.00000    0.02791    0.02391 =
         0.02261   -0.00322   -0.00187    0.00212
C1    1    0.231029    0.761450    0.486256    11.00000    0.02163    0.01746 =
         0.01493   -0.00040   -0.00140   -0.00128
C2    1    0.290838    0.627901    0.543585    11.00000    0.01673    0.01864 =
         0.01403    0.00062   -0.00054   -0.00036
C3    1    0.240924    0.492202    0.485978    11.00000    0.01726    0.01747 =
         0.01463   -0.00017   -0.00001    0.00006
C4    1    0.150182    0.544802    0.390677    11.00000    0.01953    0.01828 =
         0.01520   -0.00077   -0.00149   -0.00063
C5    1    0.141068    0.710676    0.390545    11.00000    0.02189    0.01886 =
         0.01540    0.00032   -0.00218   -0.00089
H6A   2    0.751284    0.798256    0.586143    11.00000    0.03897
H8A   2    0.113780    0.970045    0.782443    11.00000    0.04724
H6B   2    0.744784    0.944314    0.584098    11.00000    0.03475
H8B   2    0.025282    0.896204    0.705704    11.00000    0.04017
H7A   2    0.425886    1.198236    0.690653    11.00000    0.06970
H7B   2    0.352661    1.181508    0.601022    11.00000    0.07622
HKLF 4
REM  RGR560_a.res in P2(1)/n
REM wR2 = 0.0381, GooF = S = 1.127, Restrained GooF = 1.127 for all data
REM R1 = 0.0146 for 1843 Fo > 4sig(Fo) and 0.0166 for all 1970 data
REM 151 parameters refined using 0 restraints
END
WGHT      0.0216      0.2417
REM Highest difference peak  0.482,  deepest hole -0.520,  1-sigma level  0.078
Q1    1   0.0624  0.8701  0.8162  11.00000  0.05    0.48
Q2    1   0.1858  0.5120  0.4383  11.00000  0.05    0.39
Q3    1   0.1715  0.7420  0.4411  11.00000  0.05    0.36
Q4    1   0.2615  0.6967  0.5173  11.00000  0.05    0.36
Q5    1   0.2502  0.5547  0.5216  11.00000  0.05    0.35
;
_shelx_res_checksum              86417
loop_
_space_group_symop_operation_xyz
'x, y, z'
'-x+1/2, y+1/2, -z+1/2'
'-x, -y, -z'
'x-1/2, -y-1/2, z-1/2'
loop_
_atom_site_type_symbol
_atom_site_label
_atom_site_fract_x
_atom_site_fract_y
_atom_site_fract_z
_atom_site_U_iso_or_equiv
_atom_site_adp_type
_atom_site_calc_flag
_atom_site_occupancy
Cd Cd1 0.43724(2) 0.88271(2) 0.68614(2) 0.02022(5) Uani d 1
O O1 0.2558(2) 0.89361(12) 0.51854(9) 0.0268(3) Uani d 1
O O2 0.37243(18) 0.63493(12) 0.62976(8) 0.0226(2) Uani d 1
O O3 0.26637(19) 0.35768(12) 0.51165(9) 0.0248(2) Uani d 1
O O4 0.08427(18) 0.46592(14) 0.32039(7) 0.0284(3) Uani d 1
O O5 0.06505(17) 0.78557(14) 0.31997(7) 0.0290(3) Uani d 1
O O6 0.7487(2) 0.87789(12) 0.61835(10) 0.0239(2) Uani d 1
O O7 0.4245(2) 1.13414(13) 0.64388(10) 0.0317(3) Uani d 1
O O8 0.1165(2) 0.89464(13) 0.74291(10) 0.0251(2) Uani d 1
C C1 0.2310(2) 0.76145(16) 0.48626(10) 0.0182(3) Uani d 1
C C2 0.2908(2) 0.62790(14) 0.54359(10) 0.0166(3) Uani d 1
C C3 0.2409(2) 0.49220(15) 0.48598(10) 0.0166(3) Uani d 1
C C4 0.1502(2) 0.54480(16) 0.39068(10) 0.0179(3) Uani d 1
C C5 0.1411(2) 0.71068(16) 0.39055(10) 0.0190(3) Uani d 1
H H6A 0.751(3) 0.798(3) 0.5861(16) 0.039(6) Uiso d 1
H H8A 0.114(3) 0.970(3) 0.7824(18) 0.047(6) Uiso d 1
H H6B 0.745(3) 0.944(3) 0.5841(16) 0.035(6) Uiso d 1
H H8B 0.025(4) 0.896(2) 0.7057(19) 0.040(7) Uiso d 1
H H7A 0.426(4) 1.198(4) 0.6907(19) 0.070(9) Uiso d 1
H H7B 0.353(4) 1.182(4) 0.601(2) 0.076(9) Uiso d 1
loop_
_atom_site_aniso_label
_atom_site_aniso_U_11
_atom_site_aniso_U_22
_atom_site_aniso_U_33
_atom_site_aniso_U_12
_atom_site_aniso_U_13
_atom_site_aniso_U_23
Cd1 0.02547(7) 0.01806(7) 0.01602(7) -0.00052(4) -0.00309(4) -0.00174(3)
O1 0.0415(7) 0.0179(5) 0.0192(6) -0.0015(4) -0.0054(5) -0.0019(4)
O2 0.0318(6) 0.0213(5) 0.0132(5) -0.0028(4) -0.0054(4) -0.0001(4)
O3 0.0334(6) 0.0182(5) 0.0217(6) 0.0032(4) -0.0027(5) 0.0024(4)
O4 0.0419(7) 0.0225(6) 0.0178(5) 0.0003(5) -0.0102(5) -0.0043(4)
O5 0.0425(7) 0.0218(6) 0.0194(5) 0.0009(5) -0.0119(5) 0.0034(4)
O6 0.0298(6) 0.0156(5) 0.0256(6) 0.0008(4) 0.0006(5) 0.0006(4)
O7 0.0514(8) 0.0207(6) 0.0207(6) 0.0074(5) -0.0073(5) 0.0010(4)
O8 0.0279(6) 0.0239(6) 0.0226(6) 0.0021(4) -0.0019(5) -0.0032(4)
C1 0.0216(7) 0.0175(6) 0.0149(6) -0.0013(5) -0.0014(5) -0.0004(5)
C2 0.0167(6) 0.0186(6) 0.0140(6) -0.0004(5) -0.0005(5) 0.0006(5)
C3 0.0173(6) 0.0175(6) 0.0146(6) 0.0001(5) 0.0000(5) -0.0002(5)
C4 0.0195(6) 0.0183(7) 0.0152(6) -0.0006(5) -0.0015(5) -0.0008(5)
C5 0.0219(7) 0.0189(7) 0.0154(6) -0.0009(5) -0.0022(5) 0.0003(5)
loop_
_atom_type_symbol
_atom_type_description
_atom_type_scat_dispersion_real
_atom_type_scat_dispersion_imag
_atom_type_scat_source
C C 0.0033 0.0016 'International Tables Vol C Tables 4.2.6.8 and 6.1.1.4'
H H 0.0000 0.0000 'International Tables Vol C Tables 4.2.6.8 and 6.1.1.4'
O O 0.0106 0.0060 'International Tables Vol C Tables 4.2.6.8 and 6.1.1.4'
Cd Cd -0.8075 1.2024 'International Tables Vol C Tables 4.2.6.8 and 6.1.1.4'
loop_
_geom_angle_atom_site_label_1
_geom_angle_atom_site_label_2
_geom_angle_atom_site_label_3
_geom_angle_site_symmetry_1
_geom_angle_site_symmetry_3
_geom_angle
_geom_angle_publ_flag
O2 Cd1 O1 . . 70.98(4) y
O2 Cd1 O4 . 4_676 144.91(4) y
O2 Cd1 O5 . 4_676 73.96(4) y
O4 Cd1 O1 4_676 . 144.11(4) y
O4 Cd1 O5 4_676 4_676 70.97(4) y
O5 Cd1 O1 4_676 . 144.87(3) y
O6 Cd1 O1 . . 88.35(5) y
O6 Cd1 O2 . . 88.96(4) ?
O6 Cd1 O4 . 4_676 91.75(4) ?
O6 Cd1 O5 . 4_676 93.12(4) ?
O7 Cd1 O1 . . 73.96(4) y
O7 Cd1 O2 . . 144.65(4) y
O7 Cd1 O4 . 4_676 70.27(4) ?
O7 Cd1 O5 . 4_676 141.16(4) ?
O7 Cd1 O6 . . 85.63(5) ?
O7 Cd1 O8 . . 91.92(5) ?
O8 Cd1 O1 . . 87.69(5) ?
O8 Cd1 O2 . . 91.08(4) ?
O8 Cd1 O4 . 4_676 90.63(4) ?
O8 Cd1 O5 . 4_676 90.93(4) ?
O8 Cd1 O6 . . 175.80(4) ?
C1 O1 Cd1 . . 109.12(9) ?
C2 O2 Cd1 . . 113.98(9) ?
C4 O4 Cd1 . 4_575 112.03(10) ?
C5 O5 Cd1 . 4_575 110.55(10) ?
Cd1 O6 H6A . . 107.5(15) ?
Cd1 O6 H6B . . 105.6(17) ?
H6A O6 H6B . . 109(2) ?
Cd1 O7 H7A . . 116(2) ?
Cd1 O7 H7B . . 132(2) ?
H7A O7 H7B . . 100(3) ?
Cd1 O8 H8A . . 109.4(15) ?
Cd1 O8 H8B . . 116.6(19) ?
H8A O8 H8B . . 111(2) ?
O1 C1 C2 . . 122.81(13) ?
O1 C1 C5 . . 129.26(14) ?
C2 C1 C5 . . 107.92(12) ?
O2 C2 C1 . . 122.90(12) ?
O2 C2 C3 . . 127.57(12) ?
C1 C2 C3 . . 109.53(12) ?
O3 C3 C2 . . 127.63(13) ?
O3 C3 C4 . . 126.06(13) ?
C2 C3 C4 . . 106.30(11) ?
O4 C4 C3 . . 127.35(13) ?
O4 C4 C5 . . 123.37(13) ?
C5 C4 C3 . . 109.25(11) ?
O5 C5 C1 . . 129.92(14) ?
O5 C5 C4 . . 123.08(13) ?
C4 C5 C1 . . 106.98(12) ?
loop_
_geom_bond_atom_site_label_1
_geom_bond_atom_site_label_2
_geom_bond_site_symmetry_2
_geom_bond_distance
_geom_bond_publ_flag
Cd1 O1 . 2.4971(12) y
Cd1 O2 . 2.3439(11) y
Cd1 O4 4_676 2.4067(11) y
Cd1 O5 4_676 2.4529(11) y
Cd1 O6 . 2.3244(13) y
Cd1 O7 . 2.2924(12) y
Cd1 O8 . 2.3112(13) y
O1 C1 . 1.2528(18) ?
O2 C2 . 1.2578(18) ?
O3 C3 . 1.2445(17) ?
O4 C4 . 1.2373(17) ?
O5 C5 . 1.2402(17) ?
O6 H6A . 0.83(2) ?
O6 H6B . 0.75(2) ?
O7 H7A . 0.86(3) ?
O7 H7B . 0.83(3) ?
O8 H8A . 0.86(3) ?
O8 H8B . 0.74(3) ?
C1 C2 . 1.4512(19) ?
C1 C5 . 1.464(2) ?
C2 C3 . 1.4565(18) ?
C3 C4 . 1.4657(18) ?
C4 C5 . 1.464(2) ?
loop_
_geom_hbond_atom_site_label_D
_geom_hbond_atom_site_label_H
_geom_hbond_atom_site_label_A
_geom_hbond_site_symmetry_A
_geom_hbond_distance_DH
_geom_hbond_distance_HA
_geom_hbond_distance_DA
_geom_hbond_angle_DHA
_geom_hbond_publ_flag
O6 H6A O3 3_666 0.83(2) 1.93(2) 2.746(2) 167(2) yes
O8 H8A O2 2_556 0.86(3) 1.89(3) 2.755(2) 176(2) yes
O6 H6B O1 3_676 0.75(2) 2.02(2) 2.767(2) 174(2) yes
O8 H8B O6 1_455 0.74(3) 2.07(3) 2.806(2) 170(2) yes
O7 H7A O8 2_556 0.86(3) 1.99(3) 2.811(2) 158(3) yes
O7 H7B O3 1_565 0.83(3) 2.03(3) 2.813(2) 157(3) yes

_cod_database_fobs_code 2021667
