#------------------------------------------------------------------------------
#$Date: 2018-02-22 09:11:00 +0200 (Thu, 22 Feb 2018) $
#$Revision: 206576 $
#$URL: file:///home/coder/svn-repositories/cod/cif/2/02/10/2021029.cif $
#------------------------------------------------------------------------------
#
# This file is available in the Crystallography Open Database (COD),
# http://www.crystallography.net/. The original data for this entry
# were provided by IUCr Journals, http://journals.iucr.org/.
#
# The file may be used within the scientific community so long as
# proper attribution is given to the journal article from which the
# data were obtained.
#
data_2021029
loop_
_publ_author_name
'Borjas Nevarez, Rosendo'
'Balasekaran, Samundeeswari Mariappan'
'Kim, Eunja'
'Weck, Philippe'
'Poineau, Frederic'
_publ_section_title
;
 Zirconium tetrachloride revisited
;
_journal_coeditor_code           YO3045
_journal_issue                   3
_journal_name_full               'Acta Crystallographica Section C'
_journal_page_first
;
;
_journal_paper_doi               10.1107/S205322961800219X
_journal_volume                  74
_journal_year                    2018
_chemical_formula_iupac          'Zr Cl4'
_chemical_formula_sum            'Cl4 Zr'
_chemical_formula_weight         233.02
_chemical_name_common            ZrCl4
_chemical_name_systematic
;
Zirconium tetrachloride
;
_space_group_crystal_system      orthorhombic
_space_group_IT_number           29
_space_group_name_Hall           'P 2c -2ac'
_space_group_name_H-M_alt        'P c a 21'
_symmetry_space_group_name_Hall  'P 2c -2ac'
_symmetry_space_group_name_H-M   'P c a 21'
_atom_sites_solution_hydrogens   notdet
_atom_sites_solution_primary     heavy
_atom_sites_solution_secondary   difmap
_cell_angle_alpha                90
_cell_angle_beta                 90
_cell_angle_gamma                90
_cell_formula_units_Z            4
_cell_length_a                   6.2389(8)
_cell_length_b                   7.3667(10)
_cell_length_c                   11.9735(16)
_cell_measurement_reflns_used    2383
_cell_measurement_temperature    200.(2)
_cell_measurement_theta_max      28.3731
_cell_measurement_theta_min      2.7650
_cell_volume                     550.30(13)
_computing_cell_refinement
;
APEX3 (Bruker, 2016)
;
_computing_data_collection
;
BIS (Bruker, 2016)
;
_computing_data_reduction
;
SAINT (Bruker, 2015)
;
_computing_molecular_graphics
;
shelXle (H\"ubschle <i>et al.</i>,  2011)
;
_computing_publication_material
;
APEX3 (Bruker, 2016)
;
_computing_structure_refinement  'SHELXL2014 (Sheldrick, 2015b)'
_computing_structure_solution    'SHELXT2014 (Sheldrick, 2015a)'
_diffrn_ambient_temperature      200.(2)
_diffrn_detector_area_resol_mean 8.3333
_diffrn_measured_fraction_theta_full 0.998
_diffrn_measured_fraction_theta_max 0.998
_diffrn_measurement_device_type  'Bruker D8 QUEST'
_diffrn_measurement_method       '\f and \w scans'
_diffrn_radiation_monochromator  'curved graphite'
_diffrn_radiation_type           'Mo K\a'
_diffrn_radiation_wavelength     0.71073
_diffrn_reflns_av_R_equivalents  0.0493
_diffrn_reflns_av_unetI/netI     0.0366
_diffrn_reflns_limit_h_max       7
_diffrn_reflns_limit_h_min       -7
_diffrn_reflns_limit_k_max       8
_diffrn_reflns_limit_k_min       -8
_diffrn_reflns_limit_l_max       14
_diffrn_reflns_limit_l_min       -14
_diffrn_reflns_number            5292
_diffrn_reflns_theta_full        24.71
_diffrn_reflns_theta_max         24.71
_diffrn_reflns_theta_min         3.40
_diffrn_source                   'sealed tube'
_diffrn_source_type              'Siemens KFFMo2K-90'
_exptl_absorpt_coefficient_mu    3.767
_exptl_absorpt_correction_T_max  0.82
_exptl_absorpt_correction_T_min  0.64
_exptl_absorpt_correction_type   numerical
_exptl_absorpt_process_details
;
(SADABS; Krause <i>et al.</i>,  2015)
;
_exptl_crystal_colour            'translucent colourless'
_exptl_crystal_density_diffrn    2.813
_exptl_crystal_density_method    'not measured'
_exptl_crystal_description       'rectangular box'
_exptl_crystal_F_000             432
_exptl_crystal_size_max          0.09
_exptl_crystal_size_mid          0.08
_exptl_crystal_size_min          0.06
_refine_diff_density_max         2.113
_refine_diff_density_min         -0.543
_refine_ls_abs_structure_details
;
Flack <i>x</i> determined using 386 quotients [(I+)-(I-)]/[(I+)+(I-)]
(Parsons <i>et al.</i>,  2013)
;
_refine_ls_abs_structure_Flack   0.18(17)
_refine_ls_extinction_method     none
_refine_ls_goodness_of_fit_ref   1.110
_refine_ls_hydrogen_treatment    undef
_refine_ls_matrix_type           full
_refine_ls_number_parameters     46
_refine_ls_number_reflns         934
_refine_ls_number_restraints     1
_refine_ls_restrained_S_all      1.109
_refine_ls_R_factor_all          0.0421
_refine_ls_R_factor_gt           0.0376
_refine_ls_shift/su_max          0.000
_refine_ls_shift/su_mean         0.000
_refine_ls_structure_factor_coef Fsqd
_refine_ls_weighting_details
'w=1/[\s^2^(Fo^2^)+(0.0551P)^2^+0.3988P] where P=(Fo^2^+2Fc^2^)/3'
_refine_ls_weighting_scheme      calc
_refine_ls_wR_factor_gt          0.0909
_refine_ls_wR_factor_ref         0.0946
_reflns_number_gt                864
_reflns_number_total             934
_reflns_threshold_expression     'I > 2\s(I)'
_cod_data_source_file            yo3045sup1.cif
_cod_data_source_block           SMB_ZrCl4_b_200K
_cod_database_code               2021029
_publcif_datablock.id            {d0b15cb4-f480-4a21-830d-047a4a7858b1}
_shelx_res_file
;


    SMB_ZrCl4_b_0m_a.res created by SHELXL-2014/7


TITL SMB_ZrCl4_b_0m_a.res in Pca2(1)
REM Old TITL SMB_ZrCl4_b_0m in Pca2(1)
REM SHELXT solution in Pca2(1)
REM R1 0.064,  Rweak 0.003,  Alpha 0.003,  Orientation as input
REM Flack x =  0.166 ( 0.166 ) from Parsons' quotients
REM Formula found by SHELXT:  Cl4 Zr
CELL  0.71073   6.2389   7.3667  11.9735   90.000   90.000   90.000
ZERR    4.000   0.0008   0.0010   0.0016    0.000    0.000    0.000
LATT -1
SYMM -X, -Y, 1/2+Z
SYMM 1/2+X, -Y, Z
SYMM 1/2-X, Y, 1/2+Z
SFAC CL ZR
UNIT 16 4
TEMP -73.160
SIZE 0.054 0.08 0.08
L.S. 10
BOND $H
LIST 4
SHEl 6.5 0.85
OMIT -4 50
ACTA
FMAP 2
PLAN 20
WGHT    0.055100    0.398800
FVAR       0.45657
ZR1   2    0.423266    0.334609    0.500061    11.00000    0.01885    0.02651 =
         0.02783    0.00012    0.00012    0.00009
CL1   1    0.571697    0.137210    0.628307    11.00000    0.03290    0.03678 =
         0.03402    0.00741   -0.00447    0.00416
CL2   1    0.093125    0.389739    0.613201    11.00000    0.02169    0.03300 =
         0.02869    0.00504    0.00191    0.00172
CL3   1    0.280514    0.131643    0.372474    11.00000    0.03443    0.03586 =
         0.03648   -0.00479   -0.00118   -0.00419
CL4   1    0.750795    0.393091    0.384828    11.00000    0.02295    0.03426 =
         0.02904   -0.00355    0.00253   -0.00167
HKLF 4

REM  SMB_ZrCl4_b_0m_a.res in Pca2(1)
REM R1 =  0.0376 for     864 Fo > 4sig(Fo)  and  0.0421 for all     934 data
REM     46 parameters refined using      1 restraints

END

WGHT      0.0551      0.3988

REM Highest difference peak  2.113,  deepest hole -0.543,  1-sigma level  0.162
Q1    1   0.7289  0.3335  0.5011  11.00000  0.05    2.11
Q2    1   0.1084  0.3429  0.5000  11.00000  0.05    0.97
Q3    1   0.4101  0.3577  0.5995  11.00000  0.05    0.95
Q4    1   0.4253  0.3520  0.4103  11.00000  0.05    0.87
Q5    1   0.5672  0.1269  0.3707  11.00000  0.05    0.80
Q6    1   0.5882  0.6010  0.3894  11.00000  0.05    0.76
Q7    1   0.2502  0.5999  0.6089  11.00000  0.05    0.69
Q8    1   0.8663  0.1419  0.6330  11.00000  0.05    0.62
Q9    1   0.2654  0.1380  0.6411  11.00000  0.05    0.61
Q10   1   0.4011 -0.0858  0.5021  11.00000  0.05    0.38
Q11   1   0.3591 -0.1260  0.3722  11.00000  0.05    0.35
Q12   1   0.1051  0.3929  0.6834  11.00000  0.05    0.34
Q13   1   0.4571  0.1511  0.5565  11.00000  0.05    0.32
Q14   1   0.5671  0.1304  0.5061  11.00000  0.05    0.32
Q15   1   0.4228  0.1613  0.5045  11.00000  0.05    0.32
Q16   1   0.7460  0.1787  0.5058  11.00000  0.05    0.29
Q17   1   0.2634  0.4134  0.4344  11.00000  0.05    0.29
Q18   1   0.7600  0.3880  0.3013  11.00000  0.05    0.27
Q19   1   0.0285  0.1382  0.3853  11.00000  0.05    0.27
Q20   1   0.6357 -0.0097  0.6216  11.00000  0.05    0.26
;
_shelx_res_checksum              8413
_shelx_hkl_file
;
   1   0   0    2.10    2.40
   1   0   0    1.70    2.00
  -1   0   0    2.30    2.30
  -1   0   0   -1.30    1.40
  -2   0   0   71.19    6.70
   2   0   0   80.69    8.50
   2   0   0   88.69    8.70
  -2   0   0   66.69    8.60
   3   0   0   -4.50    4.00
  -3   0   0    1.00    3.40
   3   0   0    0.50    4.60
  -3   0   0   -4.60    4.20
  -4   0   0    1.20    3.80
   4   0   0    5.50    5.50
  -4   0   0    5.90    6.30
   4   0   0   -3.00    4.90
  -5   0   0   -3.70    6.80
   5   0   0   -8.60    6.10
   5   0   0    4.90    6.30
   6   0   0 2900.61  139.69
   6   0   0 2816.22  136.59
  -6   0   0 2793.12  143.29
   7   0   0   -1.80    9.30
  -7   0   0  -15.80   10.50
  -8   0   0  103.99   26.70
   8   0   0   83.09   20.60
   0  -1   0 1742.43   79.99
   0   1   0 1861.51   79.49
   0  -1   0 1782.12   79.59
   0   1   0 1904.71   79.89
   1  -1   0  687.53   32.70
   1   1   0  704.23   33.20
  -1  -1   0  639.14   33.30
  -1   1   0  702.53   33.50
   1  -1   0  640.34   34.00
   1   1   0  734.73   33.90
   2   1   0   76.29    6.80
   2   1   0   77.19    8.80
  -2   1   0   69.79    9.30
   2  -1   0   56.09    8.80
  -2  -1   0   78.89    8.80
  -2  -1   0   66.89    8.10
   2  -1   0   72.79    8.30
   3  -1   0 1535.95   73.09
  -3  -1   0 1424.96   72.39
  -3  -1   0 1448.46   69.49
  -3   1   0 1454.95   73.59
   3   1   0 1478.75   68.19
   3  -1   0 1468.25   71.29
   3   1   0 1453.55   71.79
  -4  -1   0   58.39    9.80
   4  -1   0   72.19   12.60
   4  -1   0   60.59   11.80
   4   1   0   56.69    9.70
  -4   1   0   38.50   11.20
   4   1   0   40.80   10.00
  -4  -1   0   73.29   13.40
   5   1   0   99.29   14.80
   5  -1   0  129.59   16.90
   5   1   0  111.09   13.80
  -5  -1   0  100.49   17.80
  -5   1   0   99.39   17.50
   5  -1   0   88.89   15.10
  -5  -1   0   87.49   12.80
   6  -1   0  392.26   32.60
  -6  -1   0  414.06   35.60
   6  -1   0  364.46   31.80
  -6   1   0  432.96   36.50
   6   1   0  387.66   32.90
   7  -1   0   41.10   13.40
   7  -1   0   17.50   11.10
  -7   1   0   37.20   14.40
  -7  -1   0    3.30   12.10
   7   1   0    5.50    9.50
  -8   1   0  -20.50   14.40
   8  -1   0   -4.00   10.80
  -8  -1   0   20.40   17.00
   8   1   0   11.10   11.90
   0   2   0  552.84   29.30
   0  -2   0  542.95   28.70
   0  -2   0  543.65   29.50
   0   2   0  620.34   28.90
   1   2   0    8.50    4.10
  -1  -2   0    0.00    4.20
   1  -2   0   -1.70    4.10
  -1   2   0    4.20    4.00
   1  -2   0    9.20    3.50
  -1  -2   0    8.10    2.60
  -1   2   0    6.60    3.90
   1   2   0    1.80    3.60
   2  -2   0  251.37   19.80
  -2  -2   0  234.18   18.40
   2  -2   0  250.97   17.00
   2   2   0  234.98   18.30
  -2   2   0  252.17   18.20
   2   2   0  236.28   17.30
   3   2   0 9930.21  420.66
  -3  -2   0 9999.00  428.16
  -3  -2   0 9855.21  427.06
   3  -2   0 9881.71  430.66
   3  -2   0 9655.23  426.96
  -3   2   0 9696.03  429.16
   4  -2   0   28.00    9.10
  -4   2   0   32.20   10.20
  -4  -2   0   23.10    8.80
  -4  -2   0   48.60   10.20
   4  -2   0   32.40   10.70
   4   2   0   49.80   12.00
   4   2   0   49.80    7.40
  -5   2   0  135.69   18.60
  -5  -2   0  108.19   16.60
   5  -2   0   89.19   15.90
   5   2   0  118.39   17.00
   5  -2   0  111.29   17.10
  -5  -2   0   84.59   16.00
   6  -2   0   81.19   16.80
  -6   2   0   55.09   17.50
  -6  -2   0   92.39   19.70
   6  -2   0   64.29   14.90
   6   2   0   54.39   14.60
   7  -2   0   -9.70    8.80
   7  -2   0   14.10   12.00
  -7  -2   0   -7.20   11.00
  -7   2   0   -0.20   10.90
   7   2   0    9.70   11.60
  -8   2   0   46.90   19.80
   8  -2   0   -2.10   15.40
   8  -2   0   58.59   16.80
  -8  -2   0   73.79   23.80
   8   2   0   48.00   17.80
   0  -3   0 1174.98   56.69
   0   3   0 1198.28   57.79
   0  -3   0 1147.49   58.09
   0   3   0 1165.18   56.49
   1   3   0   -3.40    3.70
  -1   3   0    2.30    4.20
  -1   3   0    3.90    4.90
   1  -3   0   -1.60    3.60
   1  -3   0   -4.80    4.40
  -1  -3   0    6.80    5.80
   1   3   0   12.90    4.90
  -1  -3   0    2.20    3.60
  -2   3   0  548.65   31.10
  -2   3   0  491.25   30.80
   2  -3   0  473.35   32.90
  -2  -3   0  492.75   32.70
   2   3   0  528.05   30.50
   2   3   0  520.95   31.40
   2  -3   0  481.85   26.20
   3   3   0  141.29   15.60
   3   3   0  172.28   16.90
   3  -3   0  138.59   14.80
   3  -3   0  183.18   19.50
  -3  -3   0  178.38   17.80
  -3   3   0  160.38   17.20
  -4   3   0  155.48   18.90
   4  -3   0  178.38   21.40
   4   3   0  190.48   19.50
  -4  -3   0  195.78   19.70
  -4  -3   0  144.19   18.70
   4  -3   0  177.28   18.30
   5  -3   0   66.19   15.00
   5  -3   0   47.80   15.00
  -5  -3   0   54.69   14.10
  -5   3   0   49.30   14.00
  -5  -3   0   45.10   12.50
   5   3   0   43.90   12.90
  -6  -3   0  484.45   35.80
   6  -3   0  434.76   35.10
  -6  -3   0  427.56   36.50
  -6   3   0  357.16   35.10
   6  -3   0  364.86   35.50
   6   3   0  405.66   34.60
  -7  -3   0    9.30   14.20
   7  -3   0   -9.60    8.40
   7   3   0   -0.30   11.10
  -7   3   0    1.10   11.10
   7  -3   0   -4.90   10.00
   0   4   0 7075.19  308.87
   0   4   0 6975.80  310.37
   0  -4   0 7080.59  308.67
   0  -4   0 7109.39  311.27
  -1  -4   0  358.46   21.20
  -1  -4   0  348.97   26.70
   1   4   0  325.47   24.10
   1   4   0  323.57   23.00
   1  -4   0  324.37   23.40
  -1   4   0  318.37   23.40
  -1   4   0  329.87   23.50
   1  -4   0  323.87   25.00
  -2   4   0    4.90    6.60
   2   4   0    1.60    5.80
  -2   4   0    3.50    6.00
   2   4   0   -2.20    5.80
   2  -4   0    6.90    7.50
  -2  -4   0   -4.00    6.70
   2  -4   0   -9.90    4.30
  -3   4   0  480.55   33.40
   3   4   0  527.95   35.00
   3   4   0  552.64   34.40
  -3   4   0  504.75   35.00
   3  -4   0  487.45   26.70
  -3  -4   0  553.54   36.70
   3  -4   0  458.75   35.90
   4  -4   0   -7.60    6.10
   4   4   0    5.80    7.40
   4  -4   0    4.50    9.20
  -4   4   0    9.70   10.90
  -4  -4   0    7.80    8.80
   4   4   0   -6.60    6.60
   5  -4   0  298.17   27.10
  -5   4   0  264.67   28.30
   5   4   0  264.87   26.60
  -5  -4   0  284.67   29.50
  -5  -4   0  294.07   27.80
   5  -4   0  306.67   32.10
  -6   4   0  998.00   66.19
   6  -4   0  967.80   66.49
  -6  -4   0  992.90   63.89
   6  -4   0 1003.80   61.99
  -6  -4   0  981.40   62.99
  -7  -4   0   44.20   18.40
   7  -4   0    4.70   17.60
   7   4   0   13.30   12.10
   7  -4   0   -1.80   10.50
  -7   4   0   36.00   17.50
   0  -5   0   14.60    7.00
   0   5   0    7.20    6.90
   0  -5   0   12.20    8.20
   0   5   0   15.90    7.40
   1   5   0  281.77   22.70
  -1   5   0  306.87   23.90
   1  -5   0  252.47   23.80
  -1  -5   0  319.47   21.60
  -1   5   0  290.27   23.80
   1   5   0  302.37   24.80
   1  -5   0  274.37   23.90
  -1  -5   0  279.07   27.10
   2   5   0  166.98   18.10
  -2  -5   0  150.78   20.00
  -2   5   0  152.98   17.00
   2  -5   0  152.08   14.60
   2   5   0  159.48   17.10
  -2  -5   0  119.59   11.50
   2  -5   0  144.69   19.30
  -2   5   0  123.79   16.60
  -3  -5   0  218.28   24.00
   3  -5   0  227.58   25.30
   3   5   0  231.28   22.80
   3   5   0  228.68   21.90
  -3   5   0  167.58   21.00
  -3   5   0  218.18   23.00
  -4  -5   0    4.10    9.80
  -4   5   0    7.80   10.10
   4   5   0   32.80   11.00
  -4   5   0   24.00   12.50
   4   5   0   12.50    9.10
   4  -5   0   11.20   10.40
   5  -5   0   61.79   19.00
  -5   5   0   99.69   19.10
  -5   5   0  121.29   22.80
  -5  -5   0  114.39   19.60
   5   5   0  105.69   19.80
  -5  -5   0  102.69   20.90
  -6  -5   0    2.00   12.70
  -6   5   0   -4.70    9.80
  -6  -5   0    0.60   12.20
   6  -5   0   -3.50   14.60
   6   5   0    6.90   11.70
  -6   5   0   -3.70   11.20
   7  -5   0   -6.40   11.40
   7   5   0   29.60   16.30
  -7   5   0    4.30   14.20
  -7  -5   0  -15.80   13.40
   7  -5   0   10.80   17.20
  -7  -5   0   32.90   16.80
   0  -6   0  515.85   37.20
   0  -6   0  507.75   34.70
   0   6   0  480.75   35.80
   0   6   0  495.25   33.90
   1   6   0   47.50   11.80
   1   6   0   91.29   16.30
   1  -6   0   35.20   12.70
  -1   6   0   44.90   12.00
   1  -6   0   61.49   13.20
  -1  -6   0   60.09   14.30
  -1   6   0   56.59   13.60
  -1  -6   0   51.59   11.70
   2   6   0  270.07   26.70
  -2   6   0  297.17   27.30
  -2  -6   0  271.17   29.60
   2  -6   0  322.87   25.30
   2   6   0  291.47   25.50
   2  -6   0  316.47   29.00
  -2   6   0  305.77   27.50
  -3  -6   0  833.62   56.79
   3  -6   0  910.01   57.79
  -3   6   0  760.22   50.69
   3   6   0  830.62   51.09
  -3   6   0  814.72   53.39
   3   6   0  782.92   52.59
   4  -6   0   84.99   21.60
   4   6   0   24.20   12.30
  -4  -6   0   75.49   19.60
  -4   6   0   63.49   16.60
  -4   6   0   54.79   16.40
   4   6   0   53.19   15.60
  -5   6   0   -8.80   10.60
   5  -6   0   -0.70   11.90
  -5  -6   0    4.50   11.10
   5   6   0    8.20   11.40
  -5   6   0    2.90   11.70
  -5  -6   0   -9.10   11.20
   6  -6   0   62.89   22.40
   6   6   0   54.59   19.00
  -6   6   0   50.49   17.00
  -6   6   0  112.49   25.60
  -6  -6   0  124.99   24.60
  -6  -6   0   72.89   21.80
   0   7   0   -4.60    9.30
   0   7   0  -25.00    7.30
   0  -7   0    9.00   10.90
   0  -7   0    5.60    9.80
   1   7   0   70.59   16.80
   1  -7   0   77.69   17.40
  -1  -7   0   52.99   16.80
   1  -7   0   60.19   15.20
   1   7   0   83.99   15.50
  -1   7   0   77.99   16.50
  -1   7   0   88.09   17.40
   2   7   0   60.39   17.20
   2  -7   0  100.49   20.20
  -2   7   0   99.09   19.80
  -2   7   0   57.79   15.50
   2  -7   0   79.99   15.50
   2   7   0   84.89   16.50
  -2  -7   0   47.50   16.70
  -3   7   0   43.50   14.20
   3   7   0    7.50   11.70
   3  -7   0   31.00   13.90
  -3   7   0   27.00   12.50
  -3  -7   0   52.59   18.00
   3   7   0   53.39   14.60
   4   7   0   26.30   15.80
  -4  -7   0   10.70   14.20
  -4   7   0   39.30   15.10
   4   7   0   54.89   17.10
   4  -7   0   19.90   15.70
  -4   7   0   28.90   14.50
  -5   7   0  203.68   32.80
   5  -7   0  122.79   27.00
   5   7   0  133.49   24.00
  -5  -7   0  168.38   30.20
  -5   7   0  150.58   25.70
   0  -8   0   94.09   20.40
   0   8   0  114.89   22.30
   1   8   0  119.89   22.00
   1  -8   0   58.69   17.10
   1  -8   0   85.69   20.40
  -1  -8   0   69.09   18.70
  -1   8   0   58.59   17.10
   2  -8   0   45.10   19.20
  -2   8   0   51.69   16.60
   2   8   0   47.30   17.50
  -2  -8   0   57.19   20.10
  -3  -8   0   73.09   21.70
   3  -8   0   64.79   19.90
   3   8   0  107.99   23.20
  -3   8   0   70.39   22.40
  -3   8   0   70.99   19.80
  -4  -8   0   13.10   17.30
   4   8   0   -5.00   14.70
  -4   8   0   17.60   15.90
  -4   8   0   35.30   16.60
   4  -8   0   21.60   17.90
   0   9   0   37.30   16.60
   0  -9   0   46.80   19.20
  -1   9   0   14.90   16.60
   1  -9   0   -8.90   14.00
  -1  -9   0    9.90   15.30
   1   9   0   12.40   14.40
   2   9   0   29.70   18.10
  -2  -9   0   55.29   23.90
  -2   9   0   77.39   22.90
   2  -9   0   75.99   21.30
   3  -9   0   35.60   18.60
  -3  -9   0   40.20   22.60
   3   9   0    6.60   16.40
  -3   9   0   32.60   18.40
   0   0  -1    4.50    1.50
   0   0  -1    3.90    1.40
   1   0  -1    3.70    2.40
  -1   0   1    3.00    2.00
   1   0  -1    2.10    2.70
  -1   0  -1    1.20    2.30
   1   0   1    7.10    2.90
  -1   0  -1    1.50    2.60
   1   0   1    2.90    2.10
   1   0  -1    2.10    2.60
   2   0  -1 1524.55   67.49
   2   0   1 1440.26   67.19
  -2   0   1 1401.46   65.19
   2   0  -1 1445.06   68.39
  -2   0   1 1420.06   68.69
  -2   0  -1 1526.05   65.99
   2   0   1 1456.05   67.79
  -2   0  -1 1453.15   68.89
  -3   0   1   -1.20    2.60
  -3   0  -1    5.50    5.00
   3   0  -1   -3.40    4.40
  -3   0   1    6.70    4.90
  -3   0  -1    0.20    3.70
   3   0   1   -6.60    4.50
   3   0   1    1.60    4.40
   3   0  -1   -0.80    3.70
  -4   0   1  217.08   20.10
   4   0  -1  188.08   17.80
   4   0  -1  219.58   17.80
   4   0   1  187.08   17.40
  -4   0  -1  195.88   14.50
   4   0   1  212.68   17.80
  -4   0   1  169.08   13.70
  -4   0  -1  211.48   19.60
  -5   0  -1   -4.50    5.80
   5   0   1    5.30    5.20
   5   0   1   -1.50    5.70
   5   0  -1    9.40    6.90
   5   0  -1   -0.50    6.00
  -5   0  -1   -6.00    6.40
  -5   0   1    0.10    6.40
   6   0  -1  214.58   21.70
   6   0  -1  182.78   21.70
  -6   0  -1  137.39   21.30
   6   0   1  182.08   20.90
  -6   0   1  120.89   22.20
   6   0   1  152.68   19.80
   7   0   1   -2.20    8.90
   7   0  -1   -4.80    8.40
  -7   0  -1   13.30   11.90
  -7   0   1   -4.00   11.40
   8   0  -1   81.09   21.00
  -8   0  -1   75.09   23.50
   8   0   1   84.99   20.00
  -8   0   1  104.99   28.30
   0   1  -1    2.50    2.70
   0   1   1    0.80    2.00
   0  -1   1   -0.10    2.10
   0   1  -1    3.10    1.80
   0  -1  -1    3.10    2.80
   0  -1  -1    5.30    2.80
   0  -1   1    0.70    1.90
  -1   1   1 2415.66  105.59
  -1  -1  -1 2352.86  104.89
   1  -1   1 2480.85  104.49
  -1  -1  -1 2411.16  106.59
   1  -1   1 2326.27  106.89
   1   1  -1 2514.75  107.09
   1   1  -1 2422.86  105.79
   1  -1  -1 2314.37  106.79
  -1  -1   1 2437.86  106.39
   1  -1  -1 2411.66  106.09
  -1   1  -1 2393.36  106.59
   1  -1  -1 2229.58  102.99
   1   1   1 2478.25  106.29
  -1   1  -1 2356.46  104.09
   1   1   1 2460.05  104.49
  -2  -1  -1  171.28   13.20
   2  -1   1  177.78   12.40
  -2   1   1  159.88   13.40
   2   1  -1  153.08   13.10
  -2  -1  -1  165.68   12.90
   2   1  -1  149.69    9.90
   2   1  -1  144.29   13.40
   2  -1   1  161.48   13.80
  -2   1  -1  166.38   14.20
   2  -1  -1  171.58   14.40
   2   1   1  174.98   11.40
   2  -1  -1  154.78   12.90
  -2  -1   1  178.68   12.90
  -2   1  -1  161.28    9.40
   2   1   1  154.98   12.80
   3  -1   1   78.79   10.30
  -3   1   1  104.99   12.30
  -3  -1  -1   95.19   10.40
   3  -1   1   72.09   11.00
   3   1  -1   89.69   11.40
   3   1  -1   77.09    8.70
  -3  -1  -1   91.79   11.60
  -3  -1   1   84.39   12.10
   3  -1  -1   85.69   11.20
   3   1   1   88.89   11.10
   3  -1  -1   79.19   11.80
  -3  -1   1   92.19   10.40
  -3   1  -1   84.89    6.80
  -3   1  -1  100.99   12.30
   3   1   1   80.69    9.50
  -4   1   1  468.25   32.70
  -4  -1  -1  442.66   31.50
   4  -1   1  510.65   31.00
   4   1  -1  499.35   28.10
  -4  -1  -1  490.85   28.90
   4  -1   1  452.35   31.40
   4   1  -1  442.76   31.20
   4  -1  -1  449.16   31.20
  -4   1  -1  452.95   32.60
  -4  -1   1  502.75   28.90
   4   1   1  466.75   28.40
  -4  -1   1  459.95   32.60
   4  -1  -1  456.15   31.40
   4   1   1  455.65   30.90
   5   1  -1  157.08   19.00
   5  -1   1  202.78   20.60
   5  -1   1  174.48   18.30
   5   1  -1  178.68   16.90
  -5  -1  -1  183.58   20.30
  -5   1   1  172.78   20.80
  -5  -1  -1  165.88   16.50
   5  -1  -1  205.48   20.60
  -5  -1   1  146.09   16.20
   5   1   1  193.38   17.80
  -5   1  -1  173.38   20.90
   5  -1  -1  170.68   19.00
  -5  -1   1  155.78   20.00
   5   1   1  156.68   18.60
  -6   1   1   48.50   14.90
  -6  -1  -1   83.09   17.50
   6  -1   1   46.80   13.30
   6   1  -1   71.59   15.50
   6  -1   1   33.50   12.00
   6   1   1   37.60   12.50
   6  -1  -1  111.39   18.60
  -6   1  -1   29.20   13.30
   6  -1  -1   63.39   15.40
  -6  -1   1   45.00   15.40
  -7   1   1  333.57   36.30
   7  -1   1  411.06   35.30
  -7  -1  -1  355.76   37.40
   7   1  -1  381.76   36.20
   7  -1   1  436.16   35.40
  -7  -1   1  374.16   38.80
   7  -1  -1  455.85   37.40
   7  -1  -1  414.06   35.50
  -7   1  -1  356.46   38.20
   7   1   1  413.96   35.70
  -8   1   1    8.90   13.30
   8  -1   1  -14.50    9.30
   8   1  -1  -16.90    9.80
  -8  -1  -1    8.30   15.80
   8   1   1   -2.00   11.20
  -8   1  -1    1.70   15.10
   8  -1  -1   -3.90   10.50
  -8  -1   1   18.20   19.60
   0  -2  -1   -0.60    3.60
   0   2  -1   -0.40    2.90
   0  -2   1    0.90    3.40
   0  -2  -1    2.90    3.50
   0   2  -1   -0.70    3.20
   0  -2   1    3.00    3.70
   0   2   1    1.90    3.70
   0   2   1    1.60    2.70
   1   2  -1  625.44   32.40
  -1   2   1  609.34   31.20
   1  -2   1  633.44   33.80
  -1   2   1  607.44   32.70
  -1  -2  -1  583.44   33.10
   1   2  -1  630.84   33.10
   1  -2   1  568.34   30.40
  -1  -2  -1  652.33   30.30
  -1  -2   1  635.34   33.90
   1  -2  -1  629.34   34.10
  -1   2  -1  630.94   33.20
   1   2   1  648.04   33.40
   1  -2  -1  602.54   30.50
  -1   2  -1  653.63   31.20
   1   2   1  608.64   30.60
   2  -2   1  399.56   22.80
  -2   2   1  429.36   25.00
   2   2  -1  395.26   24.50
   2   2  -1  389.36   25.10
   2  -2   1  338.47   25.20
   2  -2   1  377.16   20.10
  -2  -2  -1  360.36   24.50
   2   2   1  356.66   24.50
  -2  -2   1  452.85   26.30
   2   2   1  426.26   23.90
  -2   2  -1  404.36   25.70
   2  -2  -1  405.66   27.00
   2   2   1  400.96   20.80
   2  -2  -1  398.66   24.50
   3  -2   1  123.79   15.20
  -3  -2  -1  153.88   15.50
   3   2  -1  153.38   15.40
   3   2  -1  146.19   14.90
   3  -2   1  140.49   13.60
  -3  -2  -1  144.49   14.50
  -3   2   1  158.28   15.60
   3   2   1  141.19   14.50
   3  -2  -1  155.68   15.10
  -3   2  -1  122.99   15.30
   3  -2  -1  149.79   16.30
  -3  -2   1  148.49   15.00
   3   2   1  131.89   10.90
  -4  -2  -1  255.37   21.50
   4   2  -1  255.87   16.00
   4  -2   1  219.38   20.00
   4   2  -1  241.68   21.50
  -4  -2  -1  237.08   20.90
   4  -2   1  275.67   23.90
  -4   2   1  245.08   22.40
  -4  -2   1  237.68   20.10
   4   2   1  244.08   21.50
  -4   2  -1  251.27   23.20
  -4  -2   1  235.48   22.30
   4   2   1  227.88   17.10
   4  -2  -1  244.28   21.80
   4  -2  -1  249.78   23.40
   5   2  -1  345.47   30.50
   5  -2   1  390.46   29.30
  -5  -2  -1  390.16   28.70
  -5   2   1  402.46   32.30
   5  -2   1  391.76   32.10
  -5  -2  -1  352.26   30.20
   5  -2  -1  340.47   29.30
  -5   2  -1  399.06   32.70
   5   2   1  366.36   29.90
   5  -2  -1  390.06   32.00
  -5  -2   1  437.06   30.20
   5   2   1  372.96   32.70
  -5  -2   1  362.06   30.90
  -6   2   1    3.40    9.90
  -6  -2  -1    3.80    9.20
   6  -2   1    5.10    9.70
   6   2  -1    6.10    8.10
   6  -2   1  -12.40    6.70
  -6  -2  -1    1.70    8.50
  -6  -2   1   13.20   10.40
   6   2   1    9.80    9.30
   6  -2  -1    2.30    8.30
  -6   2  -1   -0.40    8.70
   6  -2  -1    8.90    9.90
   7   2  -1   19.60   11.90
  -7   2   1   14.30   13.90
   7  -2   1   17.80   10.80
   7  -2   1   28.20   14.80
  -7  -2  -1   23.30   15.20
   7   2   1   33.30   14.30
  -7  -2   1   29.50   15.60
   7  -2  -1   10.00   12.90
   7  -2  -1   18.90   12.30
  -7   2  -1    8.70   12.80
   8  -2   1   21.70   14.00
   8  -2   1   38.40   16.00
   8   2  -1   19.90   15.40
  -8  -2  -1   30.30   19.10
  -8   2   1   23.10   15.80
  -8   2  -1   12.90   13.80
   8  -2  -1   16.40   13.20
  -8  -2   1   18.20   17.50
   8   2   1   26.90   16.60
   0  -3  -1    4.30    4.90
   0   3  -1   -2.60    3.70
   0   3  -1   -4.40    3.50
   0   3   1    3.20    3.50
   0  -3  -1   -1.40    4.10
   0  -3   1    7.60    5.90
   0  -3   1   -3.70    3.70
   0   3   1    8.00    5.40
   1   3  -1   33.30    7.80
  -1   3   1   22.10    6.20
  -1  -3  -1   17.80    6.90
   1   3  -1   29.50    6.80
  -1   3   1   34.60    7.00
   1  -3   1   10.60    5.90
   1  -3   1   23.70    6.00
  -1  -3  -1   21.90    5.80
   1  -3  -1   28.60    8.00
  -1   3  -1   25.30    6.20
  -1   3  -1   31.90    7.70
   1   3   1    8.60    5.20
  -1  -3   1   25.80    5.00
   1  -3  -1    7.10    4.80
   1   3   1   21.10    5.90
  -1  -3   1   21.70    7.20
  -2  -3  -1 1115.29   57.29
  -2   3   1 1020.10   54.99
   2  -3   1 1047.80   57.19
   2  -3   1 1070.29   50.69
  -2   3   1 1059.19   54.19
   2   3  -1 1065.19   55.49
   2   3  -1 1081.29   55.19
  -2   3  -1 1049.59   55.79
  -2  -3   1 1068.99   56.99
  -2   3  -1 1120.89   53.89
   2   3   1 1007.70   55.89
   2  -3  -1 1013.50   49.90
   2   3   1 1093.99   53.19
   2  -3  -1 1072.39   58.09
   2   3   1 1022.30   49.20
   3  -3   1   30.50    9.90
  -3   3   1   50.59   10.80
  -3  -3  -1   26.20    9.60
   3   3  -1   45.80   10.60
   3   3  -1   44.00    9.30
   3  -3   1   31.60    8.40
  -3  -3  -1   37.70    9.00
   3  -3  -1   48.20   10.20
  -3   3  -1   45.10   11.40
   3   3   1   49.90   10.80
   3   3   1   42.50    6.20
  -3  -3   1   15.70    8.60
   3  -3  -1   43.50   11.80
  -4  -3  -1 1288.37   68.49
  -4   3   1 1210.78   67.79
  -4  -3  -1 1346.57   67.49
   4   3  -1 1258.97   67.39
   4  -3   1 1255.47   65.49
   4   3  -1 1165.38   67.69
   4  -3   1 1193.38   70.19
  -4  -3   1 1210.08   67.09
  -4   3  -1 1227.08   69.69
   4   3   1 1182.48   66.59
   4  -3  -1 1291.67   71.59
   4  -3  -1 1264.77   67.49
   5   3  -1   46.60   12.90
  -5  -3  -1   43.40   12.60
  -5   3   1   71.19   15.40
   5  -3   1   23.30    9.60
   5  -3   1   38.30   13.30
  -5  -3  -1   54.19   12.90
   5  -3  -1   77.29   17.00
   5   3   1   36.60   11.60
   5  -3  -1   31.20   11.30
  -5  -3   1   37.50   11.80
  -5   3  -1   31.40   12.90
  -5  -3   1   37.80   11.40
   6  -3   1   35.20   14.40
  -6  -3  -1   30.80   13.60
  -6   3   1   43.10   14.90
   6   3  -1   41.30   14.80
   6  -3   1   73.49   15.50
  -6  -3  -1   50.59   13.70
   6  -3  -1   53.39   17.00
  -6   3  -1   40.30   15.60
  -6  -3   1   74.19   16.50
   6  -3  -1   68.89   16.70
  -6  -3   1   35.40   14.00
   6   3   1   61.39   15.90
   7   3  -1   30.00   13.90
  -7  -3  -1   12.50   12.30
   7  -3   1    5.90   11.30
   7  -3   1   28.70   14.80
  -7   3   1   15.20   13.70
   7  -3  -1   12.00   11.90
  -7  -3   1   12.90   13.70
   7   3   1    6.90   10.30
  -7   3  -1    3.20   13.00
   7  -3  -1   -4.50   11.00
   0   4   1    8.10    6.40
   0   4  -1    6.60    6.20
   0   4   1   -1.80    4.00
   0   4  -1    3.50    6.30
   0  -4   1    5.30    5.10
   0  -4  -1    0.90    5.40
   0  -4  -1   -2.40    5.80
   0  -4   1   -2.60    4.80
  -1  -4  -1  920.91   45.30
   1  -4   1  854.91   48.60
   1   4  -1  890.11   47.80
  -1   4   1  902.91   46.50
  -1  -4  -1  796.42   49.10
   1   4  -1  894.01   48.50
   1  -4   1  835.12   46.90
  -1   4   1  914.01   48.80
  -1   4  -1  897.81   48.60
   1   4   1  894.21   49.50
  -1  -4   1  893.11   50.29
   1  -4  -1  757.12   45.40
  -1   4  -1  862.01   46.60
   1  -4  -1  884.11   49.40
  -1  -4   1  859.11   43.40
   1   4   1  935.21   45.80
   2   4  -1  308.17   23.90
   2  -4   1  313.97   21.60
  -2   4   1  335.07   24.00
  -2   4   1  287.07   24.30
  -2  -4  -1  346.77   27.50
   2  -4   1  326.27   27.00
   2   4  -1  326.37   24.90
  -2  -4  -1  303.87   18.90
   2   4   1  319.07   22.50
  -2   4  -1  336.57   23.70
   2  -4  -1  303.77   21.10
   2   4   1  338.57   25.30
   2  -4  -1  347.07   27.40
  -2  -4   1  362.46   28.10
  -2   4  -1  342.77   26.00
   3   4  -1   -1.00    5.70
   3  -4   1   11.80    5.40
   3   4  -1   17.10    8.30
  -3   4   1   10.00    8.00
  -3  -4  -1    8.30    8.50
   3  -4   1   20.90   10.10
  -3   4   1    6.70    6.90
  -3   4  -1    9.80    8.40
   3   4   1   25.20    9.10
  -3  -4   1    0.00    7.00
  -3   4  -1   17.50    7.90
   3  -4  -1   10.60    9.20
   3   4   1   11.20    7.20
   4  -4   1   41.60   13.60
   4   4  -1   39.60   11.60
  -4  -4  -1   55.89   12.50
   4  -4   1   36.20   10.70
  -4   4   1   39.40   11.90
  -4  -4  -1   35.10   12.30
   4   4  -1   48.30   13.60
   4  -4  -1   40.50   11.80
   4  -4  -1   36.20   13.80
  -4  -4   1   38.30   12.90
  -4   4  -1   24.50   10.50
   4   4   1   33.80   11.30
   5   4  -1  239.38   25.80
  -5  -4  -1  261.77   26.00
   5  -4   1  247.38   24.10
  -5  -4  -1  257.87   27.70
   5  -4   1  207.88   27.00
  -5   4   1  240.38   26.60
  -5   4  -1  254.97   28.60
  -5  -4   1  286.67   28.10
  -5  -4   1  259.67   26.90
   5  -4  -1  235.38   29.60
   5  -4  -1  247.38   25.10
   5   4   1  247.08   25.70
  -6  -4  -1   47.40   15.10
   6   4  -1   52.89   16.70
  -6   4   1   43.50   17.10
  -6  -4  -1   27.30   14.50
   6  -4   1   22.70   11.20
   6  -4   1   36.90   15.60
   6   4   1   46.90   14.70
  -6   4  -1   33.70   16.50
  -6  -4   1   65.09   17.00
  -6  -4   1   34.80   15.20
   6  -4  -1   53.69   18.80
   6  -4  -1   73.39   17.20
  -7  -4  -1  160.28   27.70
  -7   4   1  184.78   30.70
   7  -4   1  124.89   25.30
   7  -4   1  139.59   23.00
   7   4  -1  153.48   25.80
   7  -4  -1  133.39   23.70
   7  -4  -1  139.99   27.30
   7   4   1  137.89   24.00
  -7   4  -1  154.48   30.00
  -7  -4   1  135.79   26.30
   0  -5  -1    1.70    6.90
   0   5   1    5.60    5.80
   0  -5   1   -0.50    7.20
   0  -5  -1  -11.20    5.90
   0   5   1    3.30    6.10
   0   5  -1   -3.60    5.50
   0  -5   1   -5.80    5.50
   0   5  -1    3.20    6.00
  -1   5   1  902.51   54.59
  -1  -5  -1 1007.90   51.39
   1  -5   1  994.60   55.59
  -1  -5  -1  925.21   56.39
   1  -5   1  952.90   53.59
   1   5  -1 1019.60   54.99
  -1   5   1 1024.20   52.89
   1   5  -1  962.70   54.19
  -1  -5   1  927.31   49.60
  -1  -5   1  999.70   57.89
  -1   5  -1  955.40   54.59
   1  -5  -1  952.90   55.49
   1  -5  -1 1015.80   53.69
   1   5   1  988.90   51.19
  -1   5  -1  933.41   53.09
   1   5   1  912.21   55.49
  -2   5   1  356.56   27.40
   2   5  -1  322.47   26.70
   2  -5   1  314.47   28.30
  -2  -5  -1  381.16   31.10
   2  -5   1  347.27   24.90
  -2   5   1  316.87   26.00
   2   5  -1  320.57   26.50
  -2  -5  -1  344.07   21.50
   2   5   1  326.97   24.70
   2  -5  -1  338.17   24.20
  -2  -5   1  339.67   29.80
  -2   5  -1  374.56   29.00
  -2   5  -1  341.77   25.90
   2   5   1  343.07   27.90
   2  -5  -1  334.87   29.30
   3  -5   1    6.90    9.30
   3   5  -1   30.70   10.00
  -3   5   1   23.80   11.50
  -3  -5  -1   37.10   13.00
  -3   5   1   33.70   11.20
   3   5  -1   15.20   10.10
   3   5   1   12.00    8.20
  -3   5  -1   14.90   10.20
   3   5   1   19.70   10.40
  -3   5  -1   13.70    9.10
  -3  -5   1    1.60    9.00
   3  -5  -1   11.10   10.20
  -4  -5  -1  119.99   17.50
   4   5  -1  110.19   19.20
   4  -5   1  105.99   19.60
  -4   5   1  106.39   18.30
  -4   5   1  155.78   20.00
  -4  -5  -1  126.69   21.90
   4   5  -1   61.19   14.40
  -4  -5   1  145.59   20.40
  -4   5  -1  119.79   17.40
   4  -5  -1   91.39   20.20
   4   5   1  108.49   18.60
  -4   5  -1  112.79   20.60
   5   5  -1  149.79   21.40
  -5   5   1  141.99   20.80
  -5  -5  -1  151.88   25.80
  -5  -5  -1  148.39   20.50
  -5   5   1  153.38   22.10
   5  -5   1  129.29   23.50
  -5  -5   1  140.99   24.20
  -5  -5   1  131.19   22.50
  -5   5  -1  113.49   22.10
   5   5   1  124.09   21.10
  -5   5  -1  136.99   20.30
   5  -5  -1  156.78   26.20
  -6  -5  -1   15.80   11.70
   6   5  -1   20.90   13.10
   6  -5   1    1.20   12.90
  -6   5   1   16.90   14.00
  -6  -5  -1   -8.40   11.00
  -6   5   1    8.20   12.80
   6  -5  -1   27.00   17.20
   6   5   1    4.90   10.30
  -6  -5   1   25.60   13.40
  -6  -5   1   12.40   12.80
  -6   5  -1   42.20   14.80
  -6   5  -1    3.70   12.40
   7   5  -1  182.38   29.70
  -7  -5  -1  221.38   29.20
  -7   5   1  214.78   31.90
  -7  -5  -1  242.98   31.40
   7  -5   1  224.28   34.60
   7   5   1  191.98   27.80
   7  -5  -1  208.98   35.50
  -7  -5   1  207.88   29.70
  -7  -5   1  248.88   32.30
  -7   5  -1  178.48   32.50
   7  -5  -1  231.98   29.80
   0   6  -1   -4.30    7.40
   0   6   1    2.30    8.30
   0   6  -1    5.10    7.90
   0  -6  -1   -2.60    8.00
   0   6   1   -6.30    6.30
   0  -6   1    5.90    7.90
   0  -6   1   -8.40    6.90
   0  -6  -1    0.00    7.40
   1   6  -1  208.78   21.90
  -1  -6  -1  173.08   22.20
   1  -6   1  180.98   20.50
   1  -6   1  150.58   19.80
  -1  -6  -1  211.28   19.30
  -1   6   1  188.38   21.30
  -1   6   1  177.08   18.90
   1   6  -1  205.48   21.60
  -1  -6   1  169.78   17.70
   1  -6  -1  184.38   21.60
   1   6   1  179.18   21.40
  -1   6  -1  184.68   20.20
  -1  -6   1  245.68   25.40
   1   6   1  180.88   18.40
  -1   6  -1  188.48   21.00
   1  -6  -1  221.38   21.50
   2   6  -1  423.56   34.80
  -2   6   1  484.75   36.30
   2  -6   1  425.66   32.20
  -2  -6  -1  557.64   41.30
  -2   6   1  502.75   35.10
   2  -6   1  395.66   35.90
   2   6  -1  524.05   36.40
   2  -6  -1  494.35   38.00
  -2   6  -1  466.75   36.60
   2   6   1  425.46   35.40
   2   6   1  464.75   32.40
   2  -6  -1  426.16   32.10
  -2   6  -1  489.85   34.90
  -2  -6   1  500.95   40.10
  -3   6   1    5.50   10.00
   3   6  -1   21.10   10.70
  -3  -6  -1    5.40   11.50
   3   6  -1   26.60   10.70
   3  -6   1   26.00   12.10
  -3   6   1   32.50   12.50
  -3  -6   1   13.60   10.50
  -3   6  -1   19.40   11.50
   3  -6  -1   33.60   14.10
   3   6   1   25.80   11.00
   3   6   1   27.00   11.90
  -3   6  -1   29.50   12.20
   4   6  -1  305.97   30.00
   4   6  -1  336.97   30.70
   4  -6   1  330.17   34.20
  -4   6   1  324.17   32.20
  -4   6   1  288.97   31.30
  -4  -6  -1  355.76   35.80
   4   6   1  361.76   33.50
  -4   6  -1  280.97   31.70
  -4  -6   1  354.76   34.40
  -4   6  -1  336.77   30.30
   4   6   1  359.96   30.80
   4  -6  -1  346.17   34.90
   5   6  -1   61.99   17.70
  -5   6   1   41.40   16.00
  -5  -6  -1   85.59   17.50
  -5   6   1   58.69   17.60
   5   6  -1   76.89   18.90
   5  -6   1   94.29   22.90
  -5  -6  -1   34.30   16.40
   5  -6  -1   57.09   20.10
   5   6   1   48.10   15.30
  -5  -6   1   37.80   15.40
  -5   6  -1   72.09   19.90
  -5   6  -1   74.89   19.00
  -6   6   1   28.40   14.60
  -6  -6  -1   17.80   13.60
   6   6  -1   22.10   14.10
  -6   6   1   13.70   15.00
   6  -6   1   23.50   18.20
  -6  -6  -1    6.40   14.30
  -6  -6   1    8.70   13.20
   6   6   1   12.80   13.90
  -6   6  -1   11.00   13.80
  -6   6  -1   11.80   14.20
  -6  -6   1   -6.50   11.60
   6  -6  -1    0.10   15.50
   0   7   1    3.40   10.70
   0  -7   1    5.30   12.00
   0   7  -1   -0.70    8.40
   0  -7   1    5.10    9.40
   0   7   1   -1.30    8.80
   0   7  -1   -1.40    9.80
   0  -7  -1   12.50   11.00
   0  -7  -1   -1.80    9.30
   1  -7   1  417.86   33.70
  -1   7   1  369.56   32.70
   1  -7   1  424.46   34.10
   1   7  -1  353.46   32.20
   1   7  -1  401.06   32.60
  -1   7   1  345.47   30.30
  -1  -7  -1  343.87   34.00
  -1  -7   1  378.86   35.90
   1  -7  -1  391.96   33.10
  -1   7  -1  271.37   29.50
  -1   7  -1  333.77   30.30
   1   7   1  386.46   34.10
   1  -7  -1  341.27   31.30
   2  -7   1  122.39   17.90
   2   7  -1  133.79   21.80
   2  -7   1  131.89   23.20
  -2   7   1  127.59   22.20
   2   7  -1  150.08   21.50
  -2   7   1  121.49   20.00
  -2  -7  -1  139.99   24.70
  -2  -7   1  115.69   22.20
  -2   7  -1  165.18   22.80
   2  -7  -1  130.99   20.40
   2   7   1  128.79   22.00
  -2   7  -1  117.09   20.30
   2  -7  -1  156.38   22.90
  -3   7   1    6.90   12.50
   3  -7   1   -6.60   10.40
  -3  -7  -1  -13.50   12.60
   3   7  -1    1.30   10.80
   3   7  -1    2.80   10.60
  -3   7   1   13.80   11.40
  -3  -7   1    6.40   10.80
   3  -7  -1   11.50   13.40
  -3   7  -1   14.00   10.80
  -3   7  -1   -7.10    9.00
   3   7   1   -0.20   10.70
  -4   7   1  136.89   23.80
  -4   7   1  174.18   26.30
   4   7  -1  163.28   23.70
  -4  -7  -1  202.98   29.50
   4  -7   1  170.08   29.70
   4   7  -1  170.78   23.90
   4  -7  -1  156.88   28.60
   4   7   1  164.88   27.30
  -4   7  -1  118.39   22.60
  -4   7  -1  153.78   26.60
  -4  -7   1  212.78   29.10
  -5   7   1  192.18   27.10
   5  -7   1  169.18   31.20
  -5  -7  -1  159.48   29.90
   5   7  -1  219.18   28.70
  -5   7   1  124.49   26.50
   5   7  -1  172.48   28.20
  -5   7  -1  174.28   30.00
   5   7   1  168.08   28.60
  -5  -7   1  202.18   30.10
   5  -7  -1  150.58   30.60
  -5   7  -1  161.48   28.60
   0  -8  -1  -11.40   11.10
   0   8   1   -9.00   11.10
   0  -8  -1    9.90   11.90
   0   8  -1   10.10   11.20
   0  -8   1    8.10   11.70
   0   8  -1  -15.40    9.70
   1   8  -1  184.78   25.20
   1   8  -1  161.68   22.90
   1  -8   1  166.08   23.60
  -1   8   1  194.28   26.20
  -1  -8  -1  125.49   25.70
   1  -8   1  193.68   25.00
  -1   8  -1  171.88   24.30
   1   8   1  185.08   26.40
  -1   8  -1  207.68   26.30
   1  -8  -1  159.98   23.60
  -1  -8   1  204.98   26.60
   1  -8  -1  174.48   24.90
   2   8  -1  128.59   26.10
   2   8  -1  186.98   27.60
  -2   8   1  107.19   23.00
   2  -8   1  130.09   24.50
  -2  -8  -1  172.68   31.30
  -2   8  -1  174.78   28.00
   2  -8  -1  112.09   24.30
  -2  -8   1  148.29   26.60
   2   8   1  130.09   24.50
  -2   8  -1  142.29   24.50
  -3   8   1    5.10   13.20
   3  -8   1   -0.80   11.80
  -3  -8  -1  -12.00   15.00
   3   8  -1   11.40   12.80
  -3  -8   1   -0.70   15.60
   3   8   1   21.30   14.70
  -3   8  -1   -3.90   12.10
   3  -8  -1    7.90   14.10
  -3   8  -1   17.60   14.10
  -4   8   1  138.59   27.30
   4   8  -1  129.79   25.20
   4  -8   1  140.09   28.70
  -4  -8  -1  159.28   30.80
  -4   8  -1  146.49   28.70
   4  -8  -1  155.18   30.20
  -4  -8   1  194.28   31.70
   4   8   1  110.29   26.00
   0   9   1   -8.90   12.70
   0   9  -1   -5.40   12.60
   0  -9   1   -7.80   13.50
   0  -9  -1  -22.90   11.30
  -1  -9  -1   36.20   18.00
  -1   9   1   22.50   15.50
   1  -9   1   18.80   15.80
   1   9  -1   17.20   15.00
   1  -9  -1   17.50   14.70
  -1   9  -1   35.30   17.10
  -1  -9   1   -3.40   18.50
   1   9   1    4.50   14.00
   1  -9  -1   -1.50   16.10
   2   9  -1  162.08   28.20
  -2  -9  -1   97.09   29.50
   2  -9   1  170.18   29.80
  -2   9   1  177.68   29.00
  -2   9  -1  123.39   25.00
   2   9   1  181.08   30.40
  -2  -9   1  174.58   31.00
   2  -9  -1  174.08   29.50
   3  -9   1  -25.70   11.90
  -3   9   1    3.70   14.50
   3   9  -1   41.50   18.20
  -3  -9  -1    1.90   20.40
  -3  -9   1   20.70   19.60
   3   9   1  -15.50   14.50
   3  -9  -1   -3.20   14.00
   0   0  -2 5567.24  237.68
   0   0  -2 5439.56  237.58
   0   0  -2 5583.54  236.78
   0   0   2 5517.35  235.78
   1   0   2    0.20    2.10
  -1   0  -2    1.10    2.80
   1   0  -2   -0.90    2.90
  -1   0  -2    3.00    3.20
   1   0  -2    0.70    2.70
   1   0  -2    2.70    3.20
   1   0  -2    2.90    3.10
   1   0   2   -3.80    2.60
   2   0   2 4728.23  206.08
  -2   0  -2 4829.02  204.48
  -2   0   2 4787.12  203.28
   2   0  -2 4607.14  207.18
   2   0  -2 4677.03  204.78
   2   0  -2 4617.34  206.28
  -2   0  -2 4653.53  206.68
   2   0   2 4690.83  204.28
   3   0  -2   -1.90    4.40
  -3   0  -2    7.10    5.50
  -3   0  -2    1.00    3.70
  -3   0   2    2.80    4.50
   3   0   2    0.80    4.70
   3   0  -2   -3.60    3.90
  -3   0   2   -2.10    3.30
   3   0   2   -0.50    4.20
   4   0  -2 1421.26   69.79
   4   0  -2 1324.67   71.59
  -4   0   2 1393.46   73.09
  -4   0  -2 1413.86   66.79
  -4   0  -2 1381.46   72.99
  -4   0   2 1350.66   65.29
   4   0   2 1471.05   70.39
   4   0   2 1401.56   70.89
   5   0  -2    4.10    6.60
  -5   0  -2   -8.90    6.10
   5   0   2    7.00    6.60
  -5   0  -2    3.90    4.80
  -5   0   2    0.50    6.90
   5   0   2    4.50    6.60
   5   0  -2   -0.30    6.00
   6   0   2  675.13   44.20
   6   0   2  650.43   43.60
   6   0  -2  739.93   47.60
  -6   0  -2  614.54   46.50
   6   0  -2  748.43   44.60
  -6   0   2  616.54   47.60
   7   0  -2  -11.30    9.30
   7   0   2   -3.30   11.60
  -7   0   2    0.00   10.70
  -7   0  -2    5.40   12.50
   7   0   2    6.00    9.80
   8   0  -2  235.78   30.20
  -8   0  -2  122.69   28.80
   8   0   2  168.08   24.70
  -8   0   2  231.08   32.30
   0   1   2 1539.35   65.79
   0  -1   2 1369.26   65.09
   0  -1  -2 1492.45   66.49
   0   1  -2 1375.86   62.99
   0   1  -2 1455.75   65.99
   0  -1  -2 1432.96   65.79
   0   1  -2 1519.25   66.69
   1  -1   2  379.86   23.00
  -1  -1  -2  439.56   21.20
  -1  -1  -2  431.66   23.60
   1   1  -2  415.56   20.00
   1   1  -2  402.16   21.80
   1   1  -2  442.26   24.40
   1  -1   2  413.26   19.80
  -1   1   2  404.36   21.50
   1   1   2  419.86   22.50
   1  -1  -2  439.06   20.90
   1   1   2  445.86   22.40
   1  -1  -2  409.46   22.80
   1  -1  -2  383.46   23.30
  -1   1  -2  386.66   23.10
  -1   1  -2  412.56   21.50
  -1  -1   2  444.26   23.20
  -2  -1  -2  177.48   13.40
   2  -1   2  180.08   11.80
   2   1  -2  131.49   12.30
  -2  -1  -2  167.98   12.80
   2   1  -2  142.59   10.10
   2  -1   2  168.98   14.30
  -2   1   2  156.18   12.90
   2   1  -2  133.39   13.50
   2   1   2  155.08   13.10
   2  -1  -2  162.48   13.80
  -2   1  -2  174.78   14.90
  -2  -1   2  157.48   12.80
   2   1   2  185.68   12.90
   2  -1  -2  157.18   14.10
  -2   1  -2  175.08   11.10
   2  -1  -2  154.28    9.40
   3   1  -2 1697.83   78.29
   3   1  -2 1729.73   85.19
  -3  -1  -2 1661.33   82.59
  -3   1   2 1663.73   83.69
   3  -1   2 1690.93   80.59
   3  -1   2 1687.73   84.09
  -3  -1  -2 1695.53   81.09
   3   1  -2 1644.64   82.79
   3   1   2 1761.92   80.89
  -3   1  -2 1670.93   77.49
   3  -1  -2 1766.42   83.89
  -3  -1   2 1830.52   81.39
  -3   1  -2 1776.12   85.09
   3  -1  -2 1743.93   83.69
   3   1   2 1794.42   82.99
   4   1  -2  119.79   12.20
  -4  -1  -2  131.59   13.40
   4  -1   2  147.09   16.20
   4  -1   2  128.19   13.90
  -4  -1  -2  146.99   16.10
  -4   1   2  127.59   16.20
   4   1  -2  105.39   14.20
  -4   1  -2  115.19   16.00
   4  -1  -2  156.38   17.10
  -4  -1   2  139.59   17.00
   4   1   2  140.99   15.40
   4   1   2  132.49   13.80
   4  -1  -2  112.59   14.80
  -4   1  -2  128.89   10.40
  -4  -1   2  145.89   13.90
   5  -1   2  263.37   23.90
   5   1  -2  271.57   24.70
  -5   1   2  242.78   24.60
   5  -1   2  235.18   21.20
  -5  -1  -2  253.17   20.50
  -5  -1  -2  277.07   25.40
   5   1  -2  248.68   20.00
   5   1   2  227.98   20.60
   5   1   2  226.48   22.20
  -5   1  -2  220.38   24.90
   5  -1  -2  254.37   23.80
  -5  -1   2  268.97   25.70
  -5  -1   2  231.18   19.80
   5  -1  -2  286.27   25.10
   6   1  -2  191.78   22.80
  -6  -1  -2  183.98   23.60
   6  -1   2  181.08   22.00
   6  -1   2  154.58   19.00
  -6   1   2  167.08   24.00
   6   1   2  211.58   21.10
   6  -1  -2  177.18   22.00
   6   1   2  240.38   24.00
  -6   1  -2  170.88   24.20
   6  -1  -2  143.89   19.90
  -6  -1   2  157.28   23.20
   7  -1   2   27.30   10.90
   7  -1   2   76.69   18.30
  -7   1   2   68.49   21.40
   7   1  -2   50.89   15.70
  -7  -1  -2   72.09   19.40
   7  -1  -2   70.09   19.60
   7  -1  -2   58.79   16.40
  -7  -1   2   46.40   16.80
  -7   1  -2   67.89   19.10
   7   1   2   70.19   17.20
  -8   1   2   -3.10   10.80
   8  -1   2   20.00   12.50
  -8  -1  -2   33.30   18.80
   8   1  -2   23.50   14.50
   8   1   2   45.80   16.60
   8  -1  -2   32.10   16.10
  -8   1  -2   30.00   19.80
  -8  -1   2   41.00   22.70
   0  -2   2  579.24   31.00
   0  -2  -2  646.24   32.80
   0  -2  -2  612.84   32.50
   0   2  -2  611.14   33.20
   0   2   2  653.93   33.10
   0  -2   2  632.04   32.60
   0   2  -2  593.64   29.90
   1   2  -2 4230.48  189.98
  -1   2   2 4389.36  191.98
  -1  -2  -2 4371.46  189.78
   1  -2   2 4301.57  192.08
  -1   2   2 4285.37  188.38
  -1  -2  -2 4245.98  192.28
   1   2  -2 4354.16  192.88
  -1  -2   2 4316.87  192.08
   1  -2  -2 4375.26  192.78
  -1  -2   2 4371.06  186.38
  -1   2  -2 4522.05  193.08
   1  -2  -2 4368.56  188.88
   1   2   2 4325.77  187.48
   1   2   2 4374.46  191.88
  -1   2  -2 4369.26  188.08
   2   2  -2  155.58   13.70
  -2  -2  -2  144.49   12.10
  -2  -2  -2  147.09   14.50
   2  -2   2  151.68   15.10
   2  -2   2  158.18   11.90
   2   2  -2  146.79   14.90
  -2   2   2  178.98   14.30
  -2   2  -2  170.48   15.60
   2   2   2  159.58   11.80
   2  -2  -2  164.38   14.30
   2  -2  -2  125.89   14.50
   2   2   2  174.38   15.00
  -2   2  -2  147.89   11.30
  -2  -2   2  178.58   15.00
   3   2  -2 1494.45   75.89
   3   2  -2 1503.95   77.69
  -3  -2  -2 1592.94   76.09
   3  -2   2 1568.34   73.49
  -3   2   2 1488.65   76.29
   3  -2   2 1501.75   77.29
  -3  -2  -2 1539.25   74.19
   3   2   2 1603.54   72.09
  -3   2  -2 1532.95   69.49
  -3  -2   2 1554.74   75.89
   3   2   2 1530.35   75.89
   3  -2  -2 1424.06   76.39
   3  -2  -2 1504.95   77.89
  -3   2  -2 1523.25   78.29
   4  -2   2   24.20   10.00
  -4  -2  -2   51.79   10.30
  -4   2   2   37.40   10.90
   4  -2   2   60.39   10.60
   4   2  -2   43.60   10.70
  -4  -2  -2   48.30   10.70
   4   2  -2   43.50   11.10
   4   2   2    9.70    7.90
  -4  -2   2   39.60   10.00
   4  -2  -2   51.19   13.20
  -4  -2   2   51.69   12.10
  -4   2  -2   25.00    9.30
   4   2   2   47.40    9.00
   4  -2  -2   46.10   11.40
   5  -2   2  785.42   45.80
  -5   2   2  783.62   50.39
  -5  -2  -2  721.53   47.40
   5  -2   2  697.03   48.60
  -5  -2  -2  829.32   46.30
   5   2  -2  793.22   49.50
   5  -2  -2  817.62   49.99
  -5   2  -2  603.54   48.40
   5   2   2  747.03   47.70
  -5  -2   2  757.02   49.99
   5   2   2  787.62   43.30
   5  -2  -2  737.23   49.10
  -5  -2   2  851.51   46.20
  -6  -2  -2   98.49   16.50
   6  -2   2   80.79   15.80
  -6   2   2  101.79   19.80
  -6  -2  -2  100.29   19.20
   6  -2   2  122.29   21.70
   6   2  -2   80.89   17.60
   6  -2  -2   97.89   18.70
   6  -2  -2   75.59   17.00
   6   2   2  121.99   17.90
  -6   2  -2   67.79   17.60
  -6  -2   2  112.79   20.60
   7   2  -2  186.48   26.30
  -7   2   2  181.98   26.80
   7  -2   2  192.58   23.80
  -7  -2  -2  160.38   27.10
   7  -2   2  172.08   25.10
   7   2   2  176.08   24.20
   7  -2  -2  125.39   23.10
  -7   2  -2  209.48   30.00
  -7  -2   2  236.08   31.20
   7  -2  -2  176.58   24.70
   8   2  -2    8.40   14.70
  -8  -2  -2   24.80   16.70
   8  -2   2   -0.40   13.40
   8  -2   2   10.40   11.70
  -8   2   2   -2.40   14.90
  -8   2  -2   21.60   20.50
   8   2   2   25.80   14.10
  -8  -2   2   46.00   22.00
   8  -2  -2    8.10   12.50
   0  -3  -2 2741.33  123.49
   0   3  -2 2785.32  124.49
   0  -3  -2 2674.83  123.49
   0  -3   2 2542.95  122.99
   0   3  -2 2688.43  120.79
   0   3   2 2604.94  123.89
   0   3   2 2780.72  118.49
   0  -3   2 2741.03  121.39
  -1  -3  -2  118.89   13.50
   1  -3   2  106.99   11.10
   1   3  -2  117.39   13.40
   1   3  -2  106.19   11.30
   1  -3   2  102.89   12.80
  -1   3   2  108.19   12.40
  -1  -3  -2  133.99   11.70
  -1   3   2  114.79   10.20
  -1   3  -2  121.79   13.50
  -1   3  -2  124.39   10.90
  -1  -3   2   97.29    8.80
   1  -3  -2  104.99   11.30
  -1  -3   2  116.19   13.30
   1   3   2  113.09    9.20
   1   3   2  103.49   12.70
   1  -3  -2  119.69   13.50
  -2  -3  -2  541.75   35.30
   2  -3   2  554.14   29.90
  -2   3   2  549.15   34.30
   2   3  -2  587.54   33.20
   2  -3   2  558.84   35.40
  -2   3   2  578.84   32.40
   2   3  -2  575.84   35.20
   2   3   2  544.35   29.50
   2   3   2  597.24   34.40
  -2   3  -2  519.85   34.60
  -2  -3   2  610.24   35.60
   2   3   2  555.94   30.60
   2  -3  -2  507.95   28.40
   2  -3  -2  541.45   35.80
  -2   3  -2  546.95   30.80
  -3  -3  -2   13.00    7.90
   3   3  -2   17.70    8.30
   3  -3   2   17.90    8.70
  -3   3   2   21.40    7.70
  -3  -3  -2   27.70    7.10
   3   3  -2   24.90    9.20
   3  -3   2   17.30    6.60
   3  -3   2   15.20    5.10
   3  -3  -2   31.10    8.90
  -3  -3   2   35.50    9.80
   3   3   2   12.80    5.30
   3   3   2   25.50    8.60
  -3   3  -2   19.30    8.80
   3  -3  -2    3.10    7.80
   4   3  -2  116.49   16.60
  -4  -3  -2   95.49   13.20
   4   3  -2  149.59   17.10
   4  -3   2   80.49   15.50
  -4  -3  -2  127.19   16.50
  -4   3   2   83.49   15.90
   4  -3   2  111.39   14.20
  -4   3  -2   63.79   14.80
   4   3   2   94.69   11.00
   4   3   2   99.79   14.70
   4  -3  -2  100.59   18.00
   4  -3  -2   81.29   14.90
  -4  -3   2   87.29   14.90
  -5  -3  -2   26.40   10.40
   5  -3   2   22.30   10.30
  -5  -3  -2   29.90   10.20
  -5   3   2    1.10    9.60
   5  -3   2    6.70    9.00
   5   3  -2   15.10    9.40
   5  -3  -2    5.70   10.20
   5  -3  -2    9.70    9.50
  -5   3  -2    3.90    9.00
  -5  -3   2   14.90   10.00
  -5  -3   2   10.10    8.30
   5   3   2   17.20    8.80
  -6   3   2  478.25   40.60
   6  -3   2  406.26   38.60
   6   3  -2  455.85   39.10
  -6  -3  -2  552.54   41.10
   6  -3   2  494.25   37.30
  -6  -3  -2  560.94   38.20
  -6  -3   2  515.25   37.80
   6  -3  -2  558.84   42.40
  -6  -3   2  457.25   41.00
  -6   3  -2  394.66   39.40
   6   3   2  527.75   39.50
   6  -3  -2  452.75   38.90
  -7  -3  -2   94.09   21.00
   7  -3   2  128.99   22.10
  -7   3   2   91.99   21.60
   7  -3   2  104.39   23.00
   7   3  -2  108.29   23.10
   7  -3  -2   70.49   19.10
  -7   3  -2   84.19   21.90
  -7  -3   2   97.19   23.00
   7  -3  -2  104.89   22.30
   7   3   2  169.08   23.80
   0   4  -2  575.74   33.50
   0   4   2  537.55   35.80
   0  -4  -2  537.35   34.70
   0   4  -2  573.14   36.40
   0  -4   2  632.84   36.60
   0  -4   2  646.34   34.60
   0  -4  -2  621.24   36.50
   0   4   2  593.84   31.30
  -1   4   2  224.98   20.60
  -1  -4  -2  230.28   18.20
  -1   4   2  245.28   17.80
   1   4  -2  247.98   19.20
   1  -4   2  252.47   21.10
   1  -4   2  247.18   19.60
   1   4  -2  264.57   22.10
  -1  -4  -2  212.88   20.90
  -1   4  -2  269.67   22.10
   1  -4  -2  241.28   19.50
   1  -4  -2  254.17   22.10
  -1  -4   2  243.98   16.70
  -1   4  -2  267.27   18.80
   1   4   2  271.47   22.10
  -1  -4   2  247.18   21.70
   1   4   2  245.98   16.60
  -2   4   2 1288.17   70.09
  -2  -4  -2 1325.47   63.79
  -2  -4  -2 1431.86   72.79
   2  -4   2 1358.86   65.79
   2  -4   2 1422.66   71.89
   2   4  -2 1299.47   67.99
  -2   4   2 1357.16   66.99
   2   4  -2 1343.67   70.89
  -2   4  -2 1348.86   66.19
   2   4   2 1148.49   68.69
   2  -4  -2 1324.57   72.49
   2   4   2 1364.56   65.19
  -2   4  -2 1366.26   71.59
  -2  -4   2 1357.86   72.19
   2  -4  -2 1271.37   63.99
   3  -4   2  629.34   33.90
  -3  -4  -2  659.93   37.40
   3   4  -2  620.14   38.90
   3  -4   2  597.14   42.00
  -3   4   2  642.54   39.30
  -3  -4  -2  561.14   41.10
   3   4  -2  618.94   41.10
  -3   4   2  548.75   39.50
   3  -4  -2  653.03   43.80
   3   4   2  617.44   33.20
  -3  -4   2  674.93   42.60
  -3   4  -2  683.63   38.10
  -3   4  -2  622.04   41.90
   3   4   2  569.64   40.10
   4  -4   2  523.05   42.00
  -4   4   2  550.94   39.90
   4   4  -2  585.94   39.50
   4  -4   2  609.04   37.40
  -4  -4  -2  611.34   38.20
  -4  -4  -2  664.53   43.10
   4   4  -2  582.04   41.30
   4  -4  -2  514.95   41.90
   4   4   2  574.54   39.60
  -4   4  -2  546.95   41.40
  -4  -4   2  579.54   41.20
   4  -4  -2  513.95   39.00
   5   4  -2  162.98   22.20
   5   4  -2  135.39   22.10
  -5  -4  -2  175.38   20.30
   5  -4   2  170.58   19.20
  -5  -4  -2  158.98   22.50
  -5   4   2  152.08   21.80
   5  -4   2  125.59   22.90
  -5  -4   2  183.78   23.20
   5  -4  -2  182.38   22.30
   5  -4  -2  142.39   25.00
  -5  -4   2  146.39   20.50
   5   4   2   97.29   18.30
  -5   4  -2  158.68   23.60
   6   4  -2  143.29   23.90
   6  -4   2  143.09   22.20
  -6   4   2  132.69   23.70
   6  -4   2   73.39   20.40
  -6  -4  -2  148.79   22.90
  -6  -4  -2  134.79   23.20
   6  -4  -2  165.08   23.60
   6  -4  -2  135.09   24.70
   6   4   2  117.29   21.50
  -6  -4   2  175.98   24.40
  -6   4  -2  148.99   25.50
  -6  -4   2  152.88   22.00
   7   4  -2   15.40   15.40
   7  -4   2    6.90   16.60
  -7   4   2    3.80   13.10
   7  -4   2   18.70   13.10
  -7  -4  -2   14.40   13.80
   7   4   2   12.60   12.60
  -7  -4   2    3.80   14.90
   7  -4  -2   -0.50   11.10
   7  -4  -2    2.30   15.20
  -7   4  -2   19.50   13.80
   0   5   2  112.79   16.40
   0  -5   2  170.98   16.00
   0   5  -2  146.89   17.60
   0  -5  -2  149.79   16.90
   0  -5  -2  177.78   18.70
   0  -5   2  178.18   18.70
   0   5   2  122.19   13.10
   0   5  -2  153.08   16.00
   1  -5   2  233.28   20.90
   1  -5   2  231.18   21.60
  -1   5   2  223.88   22.00
   1   5  -2  223.58   22.00
  -1   5   2  241.48   18.90
  -1  -5  -2  237.28   19.50
   1   5  -2  245.88   20.70
  -1  -5  -2  184.98   21.50
  -1   5  -2  260.17   20.40
   1   5   2  201.18   21.70
  -1  -5   2  220.78   17.20
  -1  -5   2  216.48   22.40
  -1   5  -2  215.78   21.90
   1  -5  -2  225.18   21.20
   1   5   2  229.98   17.80
   1  -5  -2  210.68   21.70
   2  -5   2  121.89   14.30
   2  -5   2   84.09   16.20
  -2  -5  -2  136.89   19.20
  -2   5   2  129.29   15.60
  -2   5   2  117.19   16.40
   2   5  -2  107.39   15.00
  -2  -5  -2   97.19   12.00
   2   5  -2  129.49   17.30
  -2   5  -2  123.09   14.50
   2  -5  -2  105.19   18.80
  -2   5  -2  110.39   18.80
   2   5   2   93.49   12.60
   2   5   2   95.29   16.80
  -2  -5   2  125.29   17.40
   2  -5  -2  130.09   14.30
  -3   5   2  709.03   42.80
   3  -5   2  636.24   42.80
  -3   5   2  669.43   45.20
   3   5  -2  594.24   42.90
   3  -5   2  581.64   44.20
   3   5  -2  679.93   42.10
  -3  -5  -2  713.93   47.80
  -3   5  -2  602.64   44.60
   3  -5  -2  605.34   45.90
   3   5   2  679.43   39.60
   3   5   2  596.14   43.50
  -3  -5   2  669.93   46.10
  -3   5  -2  656.23   40.40
  -4  -5  -2  145.29   23.40
   4   5  -2  120.49   18.00
  -4  -5  -2  173.48   19.40
  -4   5   2  133.79   19.00
  -4   5   2  122.49   20.90
   4  -5   2  122.69   21.70
   4   5  -2  135.49   20.60
  -4   5  -2  183.98   23.80
  -4   5  -2  168.88   19.90
   4  -5  -2  151.78   24.90
  -4  -5   2  136.09   22.40
   4   5   2  133.99   20.10
   5   5  -2   95.09   18.50
  -5  -5  -2  173.88   24.90
  -5   5   2  195.08   24.20
   5   5  -2  156.38   22.90
  -5   5   2   90.09   20.20
  -5  -5  -2  154.98   20.30
   5  -5   2  102.29   22.30
  -5   5  -2   80.39   20.00
   5   5   2  182.58   22.10
   5  -5  -2  180.28   26.40
  -5   5  -2  120.79   19.70
  -5  -5   2  129.09   22.80
   6  -5   2   38.20   19.30
  -6   5   2   24.90   15.90
   6   5  -2   26.30   14.40
  -6  -5  -2   34.50   15.80
  -6  -5  -2   65.19   16.40
  -6   5   2   50.29   16.30
  -6   5  -2   47.40   16.00
   6  -5  -2  -17.40   13.40
  -6   5  -2   43.00   17.70
  -6  -5   2   38.40   16.30
  -6  -5   2   27.90   15.50
   6   5   2   54.19   15.40
  -7  -5  -2   16.00   15.00
   7   5  -2    7.50   15.40
  -7   5   2   -1.50   13.30
   7  -5   2   17.80   17.40
  -7  -5  -2    4.20   13.80
  -7   5   2   10.80   16.00
   7  -5  -2    0.50   17.00
  -7  -5   2  -15.60   12.00
  -7   5  -2    6.90   16.00
   7   5   2    6.20   11.00
   0  -6   2  604.64   39.00
   0   6  -2  633.94   42.50
   0  -6  -2  665.03   41.90
   0  -6  -2  600.04   42.40
   0  -6   2  616.44   42.50
   0   6  -2  719.33   41.90
   0   6   2  602.24   36.80
   0   6   2  528.45   41.60
   1   6  -2  608.24   38.60
  -1  -6  -2  638.34   44.00
  -1  -6  -2  608.54   37.60
   1  -6   2  572.74   39.20
  -1   6   2  486.25   38.60
   1   6  -2  600.64   40.70
   1  -6   2  499.75   37.50
  -1   6   2  532.95   35.20
  -1   6  -2  551.04   37.10
   1   6   2  545.25   34.30
  -1   6  -2  555.94   40.00
  -1  -6   2  583.44   41.60
  -1  -6   2  548.75   39.40
   1   6   2  552.14   41.20
   1  -6  -2  585.34   39.20
   1  -6  -2  545.35   40.30
   2  -6   2  196.78   23.30
  -2   6   2  242.48   22.90
  -2  -6  -2  220.68   25.90
  -2   6   2  166.38   21.90
   2   6  -2  202.88   21.90
   2  -6   2  245.68   21.80
   2   6  -2  209.68   23.40
   2   6   2  182.98   23.10
  -2   6  -2  197.68   23.60
  -2  -6   2  239.18   26.60
   2  -6  -2  155.28   19.10
   2   6   2  185.88   20.30
   2  -6  -2  151.78   22.60
  -2   6  -2  217.98   20.90
  -3  -6  -2    2.60   10.20
   3  -6   2  -11.00    8.70
   3   6  -2    7.20   10.10
  -3   6   2   -3.70    8.10
  -3   6   2   -0.80    8.70
   3   6  -2   -3.80    8.30
   3  -6  -2    8.40   10.90
   3   6   2   31.50   16.10
   3   6   2   24.60   12.20
  -3   6  -2    6.30    9.20
  -3  -6   2   17.20   10.80
  -3   6  -2    2.20   10.80
   4  -6   2   46.20   15.90
   4   6  -2   56.59   15.60
  -4  -6  -2   58.69   17.50
  -4   6   2   65.79   17.20
   4   6  -2   63.39   17.00
  -4   6   2   52.29   17.40
   4   6   2   84.19   18.40
  -4  -6   2   56.69   18.10
  -4   6  -2   75.99   16.60
  -4   6  -2   49.40   16.50
   4  -6  -2   59.89   18.40
   5   6  -2  126.29   22.20
   5  -6   2  123.99   24.60
  -5  -6  -2  140.09   25.80
   5   6  -2  132.79   24.00
  -5   6   2  113.19   22.10
  -5   6   2  127.09   23.00
  -5  -6   2  144.69   25.10
   5   6   2   85.19   19.10
  -5   6  -2  110.89   23.60
   5  -6  -2  161.98   28.80
  -5   6  -2  163.78   32.10
   6  -6   2  148.29   29.60
  -6   6   2  176.38   29.10
  -6  -6  -2  166.98   28.00
   6   6  -2  144.79   27.40
  -6   6   2  125.89   25.00
   6   6   2  111.89   23.10
  -6  -6   2  144.59   26.30
  -6   6  -2  147.69   28.90
   6  -6  -2  145.89   31.30
  -6  -6   2  230.78   30.50
   0   7  -2  208.58   22.90
   0  -7  -2  189.28   22.10
   0  -7   2  171.58   21.20
   0   7   2  172.18   23.80
   0   7  -2  101.69   19.70
   0  -7   2  143.59   21.70
   0  -7  -2  196.08   24.30
  -1   7   2  109.19   20.50
  -1  -7  -2  128.49   22.60
   1   7  -2   79.09   17.60
   1  -7   2  150.68   20.60
   1  -7   2  140.69   20.20
   1   7  -2  131.89   19.20
  -1  -7  -2  102.39   16.00
   1  -7  -2  115.09   20.00
  -1  -7   2  112.79   21.10
   1  -7  -2   94.79   18.80
  -1   7  -2  168.68   20.60
  -1   7  -2   59.99   17.40
   1   7   2  156.48   22.20
   2   7  -2  122.29   20.90
   2  -7   2  136.69   20.70
  -2   7   2   55.79   16.10
  -2  -7  -2   98.39   21.60
   2  -7   2  123.19   18.00
   2   7  -2  111.49   18.70
  -2   7  -2  155.78   20.30
   2   7   2  112.39   21.40
  -2   7  -2   77.29   19.30
   2  -7  -2  112.79   21.90
  -2  -7   2   76.69   18.60
  -3  -7  -2  129.79   27.10
   3   7  -2  202.48   25.10
   3  -7   2  178.08   25.20
   3   7  -2  204.28   25.80
  -3   7   2  194.88   25.90
  -3  -7   2  191.78   27.60
  -3   7  -2  194.68   23.60
   3   7   2  214.38   28.10
   3  -7  -2  149.69   26.70
  -3   7  -2  193.58   27.10
  -4  -7  -2   23.70   16.70
   4   7  -2   26.70   12.80
   4  -7   2   37.80   16.50
  -4   7   2   30.50   15.50
   4   7  -2   14.00   12.00
   4   7   2   41.20   17.90
  -4   7  -2   19.30   14.20
   4  -7  -2   12.30   15.30
  -4  -7   2   26.40   14.30
  -5   7   2  103.49   22.90
   5   7  -2   69.79   20.40
  -5  -7  -2   38.10   18.60
   5   7  -2   85.59   21.60
   5  -7   2   72.19   21.80
  -5  -7   2   82.19   22.70
  -5   7  -2   55.59   20.60
   5   7   2   31.20   17.90
   5  -7  -2   45.70   19.60
   0  -8  -2   41.00   17.00
   0  -8   2   15.60   15.10
   0   8  -2   38.40   15.10
   0  -8  -2   38.00   14.30
   0   8   2    9.30   13.60
   0   8  -2   39.30   13.60
   1   8  -2   61.39   16.40
  -1  -8  -2   44.80   19.70
   1  -8   2   45.60   18.10
   1   8  -2   73.79   18.20
  -1   8   2   22.60   14.20
   1  -8   2   56.29   18.30
   1  -8  -2   34.30   14.90
   1   8   2   72.39   19.30
   1  -8  -2   46.30   16.00
  -1   8  -2   43.60   16.70
  -1   8  -2   66.19   17.20
  -1  -8   2   18.10   17.30
  -2  -8  -2  153.18   29.50
   2   8  -2  273.67   28.60
   2  -8   2  153.18   26.20
  -2   8   2  113.99   23.60
   2   8  -2  140.29   23.80
  -2   8  -2  156.28   23.20
   2   8   2  174.18   28.40
   2  -8  -2  174.78   25.90
  -2  -8   2   90.19   23.40
  -2   8  -2  199.98   29.90
  -3   8   2  190.28   27.10
  -3  -8  -2  116.89   27.80
   3   8  -2  134.49   24.60
   3   8  -2  173.88   27.60
   3  -8   2  164.58   28.40
  -3   8  -2  113.19   25.30
  -3  -8   2  128.09   26.00
   3   8   2  156.98   29.00
   3  -8  -2  109.89   23.80
   4   8  -2   84.79   21.30
   4  -8   2   26.30   18.00
  -4   8   2   73.79   21.20
   4   8  -2   41.80   16.80
  -4  -8  -2   52.69   19.70
  -4  -8   2   50.19   20.60
   4   8   2   60.69   22.00
  -4   8  -2   75.99   24.20
   4  -8  -2   42.60   20.60
   0   9  -2  240.08   29.90
   0  -9  -2  198.68   28.90
   0  -9   2  144.29   27.80
   0   9   2  212.88   30.90
  -1  -9  -2   28.00   17.70
  -1   9   2   50.99   21.00
   1  -9   2   39.60   17.00
   1   9  -2   37.10   17.60
   1  -9  -2   44.10   18.20
   1   9   2   29.60   17.40
   1  -9  -2   23.20   18.50
  -1  -9   2   42.60   18.20
   2   9  -2   76.99   20.30
  -2  -9  -2   31.40   23.00
  -2   9   2   68.29   21.30
   2  -9   2   26.20   17.40
   2   9   2   69.19   21.70
  -2   9  -2   21.70   18.30
   2  -9  -2   93.39   23.00
  -2  -9   2    9.90   18.30
  -3  -9  -2    0.70   18.30
   3   9  -2    7.70   15.40
  -3   9   2    6.50   15.90
   3  -9   2    5.70   15.40
  -3   9  -2   -6.70   15.70
  -3  -9   2    7.30   19.40
   3   9   2  -21.60   14.40
   3  -9  -2   13.00   15.20
   0   0  -3    2.00    3.00
   0   0  -3    3.10    3.10
   0   0  -3   -1.90    2.90
   0   0   3    2.00    2.00
   1   0  -3   -2.30    3.10
   1   0  -3   -0.30    3.40
   1   0   3    1.00    2.40
   1   0  -3    1.60    3.40
  -1   0  -3    2.20    3.40
   1   0  -3   -1.20    3.10
  -1   0  -3   -0.50    3.30
   1   0   3    1.20    3.00
  -2   0  -3 4069.19  174.68
   2   0   3 3907.81  171.58
   2   0  -3 3921.81  175.38
  -2   0  -3 3839.52  172.88
   2   0  -3 3974.00  171.78
   2   0   3 3949.41  175.08
   2   0  -3 3874.01  174.18
   2   0  -3 3896.81  173.18
   3   0   3   -3.80    3.10
  -3   0   3    1.00    5.40
   3   0  -3   -0.20    4.90
   3   0   3   -4.90    4.40
   3   0  -3    1.20    4.50
  -3   0   3    5.90    4.10
  -3   0  -3    3.40    4.50
  -3   0  -3   -8.10    5.00
  -4   0   3 2929.31  130.39
  -4   0  -3 2925.41  137.89
  -4   0   3 2823.32  138.39
   4   0  -3 3066.89  134.49
   4   0  -3 2623.34  136.29
  -4   0  -3 2958.00  132.09
   4   0   3 2941.41  133.79
   4   0   3 2932.01  136.29
   5   0  -3   -3.80    6.50
   5   0   3  -10.80    5.60
  -5   0  -3   -8.90    5.20
  -5   0  -3   15.10    9.10
  -5   0   3    5.00    8.10
   5   0   3   -4.70    6.50
   5   0  -3   -4.10    5.10
   6   0  -3    3.30    8.20
   6   0  -3   24.00   16.80
   6   0   3    9.20    8.80
   6   0   3    5.90    7.90
  -6   0   3    7.30    9.50
  -6   0  -3   20.10   12.60
  -7   0  -3   -2.10   11.80
   7   0   3    6.40   10.40
  -7   0   3    6.90   11.80
   7   0  -3  -12.10    8.80
   7   0   3   -6.90    8.60
   8   0  -3  193.78   28.10
  -8   0  -3  144.09   29.90
  -8   0   3  178.38   32.90
   8   0   3  194.88   25.70
   0   1   3    0.50    2.60
   0  -1  -3   -0.30    3.60
   0  -1  -3    3.80    3.50
   0   1  -3   -1.60    3.20
   0   1  -3   -5.30    3.10
   0  -1   3   -1.20    2.60
  -1  -1  -3  982.10   45.30
  -1  -1  -3  931.91   48.40
   1   1  -3  929.11   46.10
   1   1  -3 1034.30   49.40
   1  -1   3  996.40   49.10
   1   1  -3  981.30   48.20
   1  -1  -3 1042.60   46.80
  -1   1  -3 1045.20   49.30
   1   1   3  977.50   48.10
  -1   1  -3 1026.40   47.60
   1  -1  -3  966.30   48.90
   1   1   3  950.60   47.00
   1  -1  -3  972.80   46.40
   1  -1  -3  972.30   47.90
   2  -1   3  537.45   32.00
   2   1  -3  550.04   27.80
   2   1  -3  505.35   29.80
  -2  -1  -3  568.64   31.10
  -2  -1  -3  543.05   29.80
   2   1  -3  567.94   33.00
   2  -1   3  541.15   27.30
  -2   1   3  502.35   29.80
   2  -1  -3  545.85   31.70
   2  -1  -3  541.65   27.40
  -2  -1   3  549.85   30.20
   2  -1  -3  558.84   31.70
   2   1   3  563.44   30.70
  -2   1  -3  556.04   32.20
  -2   1  -3  541.95   28.80
   2   1   3  521.25   29.80
  -3   1   3   78.39   12.50
   3  -1   3  105.29   10.30
   3   1  -3   72.69   12.50
  -3   1   3   79.29    7.60
  -3  -1  -3   81.19   10.80
   3  -1   3   93.09   12.50
   3   1  -3   95.89   11.60
  -3  -1  -3   86.59   11.70
   3   1  -3   74.59    8.80
   3   1   3   89.49   10.90
  -3  -1   3   89.59   10.40
   3  -1  -3   86.69   12.40
  -3   1  -3   83.49    9.10
   3  -1  -3   84.09   11.90
   3   1   3   88.69   11.00
  -3   1  -3   92.69   13.20
   4   1  -3  118.19   11.80
   4  -1   3  116.49   13.00
   4   1  -3  129.19   15.20
   4  -1   3  102.09   15.20
  -4  -1  -3  120.49   15.30
  -4   1   3  113.79   15.10
  -4  -1  -3  106.09   12.70
  -4  -1   3   85.69   11.40
  -4   1  -3  122.49   16.50
  -4  -1   3   98.59   14.90
   4  -1  -3  101.99   14.20
   4   1   3  118.79   13.70
   4  -1  -3  129.49   15.40
  -4   1  -3  102.79   10.70
   4   1   3  125.99   14.40
   5  -1   3  498.05   35.00
  -5   1   3  446.56   35.20
   5   1  -3  544.05   34.50
   5  -1   3  454.75   30.80
  -5  -1  -3  430.76   34.10
   5   1  -3  406.36   33.60
  -5  -1  -3  505.95   31.80
   5   1   3  444.36   32.40
   5  -1  -3  430.26   33.80
  -5  -1   3  454.85   37.00
   5  -1  -3  450.85   34.10
  -5  -1   3  493.55   30.90
  -5   1  -3  438.76   35.50
   5   1   3  459.05   32.10
  -6   1   3    3.20    9.20
   6   1  -3   28.40   12.40
   6  -1   3   33.00   10.00
   6  -1   3   32.00   12.20
  -6  -1  -3   27.80   12.30
  -6  -1   3   57.89   16.00
   6  -1  -3   33.60   12.70
   6  -1  -3   43.00   13.60
   6   1   3   30.00   10.70
  -6   1  -3   25.30   13.90
   6   1   3   36.20   11.50
   7   1  -3  156.48   26.20
   7  -1   3   71.99   18.00
  -7  -1  -3  140.79   25.10
   7  -1   3  131.39   20.80
  -7   1   3   97.69   22.80
   7  -1  -3  135.69   23.90
  -7  -1   3  115.39   23.50
   7   1   3  139.09   22.40
  -7   1  -3   98.59   23.20
  -8  -1  -3   20.30   19.70
   8   1  -3   44.40   17.10
   8  -1   3   71.69   18.10
  -8   1   3   47.10   21.20
  -8  -1   3   51.89   21.40
   8   1   3   40.40   15.40
   8  -1  -3   56.49   19.40
  -8   1  -3   59.49   21.70
   0  -2   3    1.10    3.60
   0  -2   3   -1.00    3.40
   0   2   3    1.90    4.10
   0   2  -3    3.90    4.10
   0  -2  -3   -3.30    3.80
   0   2  -3    1.90    2.70
   0   2  -3   -3.70    4.20
   0  -2  -3   -5.10    4.10
  -1  -2  -3 4214.48  189.38
  -1   2   3 4397.96  184.98
  -1  -2  -3 4300.07  187.98
   1   2  -3 4275.07  190.98
  -1   2   3 4246.48  189.38
  -1  -2  -3 4296.97  183.38
   1  -2   3 4265.67  189.18
   1   2  -3 4291.57  186.28
  -1   2  -3 4362.46  190.68
  -1  -2   3 4061.39  189.08
  -1   2  -3 4092.59  187.48
  -1   2  -3 4261.97  183.48
   1  -2  -3 4152.68  190.08
  -1  -2   3 4261.47  184.38
   1   2   3 4413.16  189.18
   1  -2  -3 4329.47  186.68
   2  -2   3  239.48   15.30
   2   2  -3  247.98   18.30
  -2  -2  -3  268.97   17.00
  -2  -2  -3  238.48   19.20
   2  -2   3  252.77   20.70
  -2   2   3  261.07   18.00
   2   2  -3  245.78   20.50
   2   2   3  289.77   19.70
  -2  -2   3  244.08   19.10
   2  -2  -3  269.87   19.80
   2  -2  -3  259.77   15.30
   2   2   3  255.17   17.60
  -2   2  -3  248.08   17.10
  -2   2  -3  269.37   21.00
   2  -2  -3  262.87   21.10
   3  -2   3   41.40    7.50
  -3  -2  -3   20.10    7.70
   3   2  -3   26.00    9.20
  -3   2   3   28.50    8.30
  -3  -2  -3   27.50    7.30
   3  -2   3   48.00   11.50
   3   2  -3   38.60    8.70
   3   2   3   40.30    8.90
  -3   2  -3   24.30    6.10
  -3   2  -3   29.50    8.90
   3   2   3   43.60    8.50
  -3  -2   3   21.20    6.80
   3  -2  -3   26.00    8.70
   3  -2  -3   36.90    9.70
  -4  -2  -3  231.18   20.80
  -4  -2  -3  242.58   20.70
   4  -2   3  246.68   19.40
   4   2  -3  195.08   21.30
   4  -2   3  240.78   22.90
   4   2  -3  252.57   22.20
  -4   2   3  235.18   21.90
   4   2   3  237.88   19.00
   4  -2  -3  262.07   23.50
  -4   2  -3  230.08   23.40
   4  -2  -3  226.08   22.50
  -4  -2   3  270.47   21.60
   4   2   3  237.28   21.20
  -4   2  -3  221.38   15.80
  -5  -2  -3  704.23   46.10
  -5  -2  -3  749.03   44.70
   5   2  -3  727.93   47.50
   5  -2   3  683.73   47.40
   5  -2   3  716.23   43.20
  -5   2   3  660.73   47.20
   5   2   3  728.63   42.50
   5   2   3  777.82   46.70
  -5  -2   3  760.32   45.10
  -5  -2   3  700.63   49.40
   5  -2  -3  770.22   48.80
  -5   2  -3  674.03   48.90
   5  -2  -3  687.53   47.10
   6  -2   3    3.30    7.60
   6  -2   3   -9.20    8.80
  -6  -2  -3    7.70    9.20
  -6  -2  -3    4.20   10.30
   6   2  -3    8.30   10.30
  -6   2   3   -1.20   10.10
  -6  -2   3    3.10   11.10
   6  -2  -3    8.80    9.60
  -6   2  -3    3.00   12.20
   6  -2  -3    8.20   12.00
   6   2   3   16.70    9.10
  -7  -2  -3  549.65   45.60
  -7   2   3  531.85   46.40
   7   2  -3  672.03   50.19
   7  -2   3  643.64   42.90
   7  -2   3  517.85   44.90
  -7   2  -3  530.45   48.70
  -7  -2   3  493.25   47.00
   7  -2  -3  615.44   46.80
   7  -2  -3  577.34   45.90
   7   2   3  626.94   46.00
   8   2  -3   11.10   14.70
  -8  -2  -3    8.10   15.30
  -8   2   3   15.50   14.40
   8  -2   3   15.30   13.20
   8  -2   3   13.80   15.10
  -8  -2   3    7.40   18.50
  -8   2  -3   16.70   17.00
   8   2   3   22.40   13.80
   8  -2  -3   23.80   15.50
   0  -3   3   -3.40    4.10
   0   3  -3   -0.90    3.70
   0  -3  -3    4.30    5.40
   0   3   3    1.60    4.20
   0   3  -3   -1.60    5.20
   0  -3   3    7.10    5.10
   0  -3  -3   -2.40    4.80
  -1   3   3   40.70    9.00
  -1  -3  -3   48.10    9.60
   1   3  -3   48.60    8.10
  -1  -3  -3   43.80    8.50
   1   3  -3   40.20    9.70
  -1   3   3   44.10    6.70
   1  -3   3   31.50    7.40
   1  -3   3   36.80    9.00
  -1   3  -3   37.00    6.10
   1  -3  -3   27.50    8.30
   1   3   3   45.50    9.30
  -1  -3   3   32.10    8.60
   1  -3  -3   38.80    8.30
  -1  -3   3   46.30    6.60
  -1   3  -3   35.90    8.90
   2   3  -3  865.21   50.59
   2   3  -3  855.71   46.40
  -2   3   3  871.51   49.40
  -2   3   3  951.90   46.10
  -2  -3  -3  876.51   43.60
   2  -3   3  939.91   50.59
  -2  -3  -3  885.11   49.60
   2  -3   3  892.01   45.00
   2  -3  -3  802.62   50.49
   2   3   3  954.90   49.80
  -2   3  -3  852.01   50.49
  -2   3  -3  852.41   43.70
   2   3   3  947.11   45.90
   2  -3  -3  844.42   43.10
  -2  -3   3  863.41   49.30
   3  -3   3   44.50   11.40
   3   3  -3   51.19   12.10
  -3   3   3   43.30    9.80
   3   3  -3   40.40    9.60
  -3  -3  -3   28.00    7.20
   3  -3   3   39.70    6.90
  -3  -3  -3   25.40    8.70
   3  -3   3   31.80    6.80
  -3  -3   3   37.10   10.20
   3   3   3   42.80    8.40
   3   3   3   26.40    8.50
   3  -3  -3   12.50    8.70
   3  -3  -3   17.80    8.30
  -3   3  -3   14.50    8.80
  -4  -3  -3  363.56   26.50
   4  -3   3  353.06   25.00
   4   3  -3  400.66   31.60
   4   3  -3  340.27   27.50
  -4   3   3  348.57   27.80
  -4  -3  -3  364.76   28.50
   4  -3   3  349.07   30.50
   4   3   3  352.76   27.90
  -4  -3   3  373.86   28.70
   4  -3  -3  364.66   31.30
  -4   3  -3  314.07   29.70
   4  -3  -3  334.67   28.60
   4   3   3  347.87   23.80
  -5   3   3   51.09   14.20
   5   3  -3   28.50   12.00
  -5  -3  -3   65.69   14.30
   5  -3   3   39.60   11.30
   5  -3   3   16.20   11.10
  -5  -3  -3   41.90   12.20
  -5  -3   3   38.30   13.80
   5  -3  -3   49.50   15.20
  -5  -3   3   49.50   13.40
   5  -3  -3   32.80   12.70
   5   3   3   25.00   10.70
  -5   3  -3   13.90   11.50
   6  -3   3   36.50   13.00
   6   3  -3   64.59   17.50
   6  -3   3   16.20   13.30
  -6   3   3   45.10   15.40
  -6  -3  -3   13.20   10.60
  -6  -3  -3   67.49   17.10
  -6  -3   3   68.29   18.00
   6  -3  -3   54.59   16.70
  -6   3  -3   24.70   14.20
   6  -3  -3   33.30   13.00
  -6  -3   3   37.80   12.90
   6   3   3   36.30   13.10
   7  -3   3   -0.90   11.10
  -7   3   3   13.80   14.00
   7   3  -3   27.00   15.00
  -7  -3  -3    0.40   11.20
   7  -3   3   16.90   14.90
   7  -3  -3   13.80   15.00
   7   3   3    2.70    9.60
   7  -3  -3   10.60   11.30
  -7  -3   3   24.10   15.90
  -7   3  -3  -16.20   10.90
   0  -4  -3    2.10    6.30
   0  -4   3   -4.70    4.10
   0   4  -3   -0.70    4.20
   0  -4  -3    5.30    6.00
   0   4  -3   -2.20    6.30
   0  -4   3   -2.00    4.80
   0   4   3   -1.40    3.40
   0   4   3    2.10    5.20
   1  -4   3  806.32   44.30
   1   4  -3  784.12   41.50
   1   4  -3  744.33   45.50
  -1   4   3  730.13   44.30
   1  -4   3  724.93   42.20
  -1  -4  -3  706.63   44.70
  -1  -4  -3  753.12   42.00
  -1   4   3  807.02   39.00
  -1  -4   3  725.43   38.30
  -1   4  -3  694.33   44.70
   1   4   3  778.62   45.30
  -1  -4   3  729.73   44.80
   1   4   3  738.83   36.70
   1  -4  -3  759.62   41.80
   1  -4  -3  719.23   45.00
  -1   4  -3  780.42   39.80
   2   4  -3  845.92   46.30
   2  -4   3  822.22   49.60
   2   4  -3  869.41   50.79
  -2  -4  -3  846.42   42.30
   2  -4   3  838.52   44.80
  -2  -4  -3  847.92   44.20
  -2   4   3  882.21   44.90
  -2  -4  -3  769.82   49.30
  -2   4   3  827.02   49.80
   2  -4  -3  792.32   43.10
   2  -4  -3  868.91   51.69
  -2   4  -3  879.41   44.10
  -2   4  -3  837.52   50.19
   2   4   3  810.82   49.70
  -2  -4   3  717.23   48.10
   3   4  -3   14.50    8.00
   3  -4   3   10.30    6.00
  -3  -4  -3    0.50    7.90
  -3  -4  -3   10.60    6.50
   3  -4   3   22.40   10.30
  -3   4   3   12.80    7.50
   3   4  -3    9.70    7.90
  -3   4   3   11.40    7.30
   3   4   3   12.10    5.90
  -3   4  -3   31.10   11.60
  -3  -4   3   10.80    7.50
   3  -4  -3   19.60    9.90
   3   4   3    6.70    7.10
  -3   4  -3   20.40    7.70
  -4  -4  -3  882.91   47.10
   4   4  -3  799.62   48.70
  -4  -4  -3  808.32   50.69
   4   4  -3  789.62   52.09
   4  -4   3  729.13   51.19
  -4   4   3  722.33   47.30
  -4   4  -3  772.82   52.49
   4  -4  -3  801.52   53.79
   4  -4  -3  682.43   48.70
   4   4   3  722.53   48.80
  -4  -4   3  727.53   49.60
  -4   4  -3  872.61   46.70
   5  -4   3  117.79   22.20
   5   4  -3  118.19   20.80
   5  -4   3  111.69   16.50
  -5  -4  -3  117.79   20.20
   5   4  -3  154.38   20.60
  -5  -4  -3  174.58   21.10
  -5   4   3  134.89   19.70
  -5   4  -3  128.19   22.40
   5  -4  -3  181.88   22.60
   5   4   3  182.98   21.50
  -5  -4   3  151.68   21.80
   5  -4  -3  165.78   23.30
   6   4  -3   21.80   13.30
  -6   4   3    3.00   11.10
  -6  -4  -3    1.70   10.30
   6  -4   3   28.40   15.40
   6  -4   3   20.30   12.20
  -6  -4  -3   17.60   12.80
   6  -4  -3    6.20   13.00
  -6   4  -3    0.40   12.70
   6  -4  -3   -2.50    9.10
  -6  -4   3   12.80   10.50
  -6  -4   3   22.20   14.70
   6   4   3   18.70   11.40
  -7   4   3  206.58   27.70
   7   4  -3  192.28   30.80
  -7  -4  -3  197.38   30.10
   7  -4   3  172.68   30.30
  -7   4  -3  146.69   29.90
   7   4   3  154.68   25.60
  -7  -4   3  154.08   30.10
   7  -4  -3  160.78   28.70
   7  -4  -3  129.49   26.90
   0   5  -3   -3.00    6.60
   0   5   3   15.60    8.10
   0   5   3   -0.10    4.80
   0   5  -3    2.80    5.60
   0  -5   3   -1.10    6.60
   0  -5   3    3.90    6.00
   0  -5  -3  -13.70    5.80
   0  -5  -3   -5.10    5.90
   1   5  -3  347.27   24.40
   1  -5   3  334.77   25.80
  -1  -5  -3  342.17   27.60
  -1   5   3  319.27   27.30
  -1   5   3  328.27   21.30
   1  -5   3  285.97   23.80
  -1  -5  -3  247.18   22.10
   1   5  -3  279.47   26.10
   1   5   3  267.07   18.80
   1   5   3  247.98   25.10
  -1  -5   3  265.37   25.00
   1  -5  -3  307.17   26.10
  -1   5  -3  311.07   22.50
  -1  -5   3  276.77   20.20
  -1   5  -3  283.57   26.50
   1  -5  -3  307.27   24.00
   2   5  -3   39.10   11.60
   2  -5   3   57.59   11.30
  -2  -5  -3   58.29   10.50
  -2  -5  -3   34.50   12.10
  -2   5   3   38.70   11.50
   2   5  -3   71.49   13.20
   2  -5   3   34.20   12.00
  -2   5   3   40.50    9.80
   2  -5  -3   51.29   13.30
   2  -5  -3   60.59   11.20
  -2  -5   3   24.70    9.60
   2   5   3   37.80    8.80
   2   5   3   48.20   12.50
  -2   5  -3   48.60   10.10
  -2   5  -3   27.40   10.50
  -3   5   3   40.60   11.70
  -3  -5  -3   29.70   12.50
  -3  -5  -3   47.90   10.60
   3  -5   3   19.40   11.70
   3  -5   3   29.20    9.00
  -3   5   3   14.10   11.00
   3   5  -3   32.20   11.90
   3   5  -3   19.10    9.30
  -3  -5   3   18.50    9.90
   3  -5  -3   26.00   13.20
  -3   5  -3   41.70   12.40
   3   5   3   15.30    9.80
  -3   5  -3   28.20    9.40
   4   5  -3  134.79   23.00
  -4  -5  -3  121.09   21.60
  -4   5   3  143.39   20.30
  -4  -5  -3  206.08   19.60
   4   5  -3  163.38   20.20
  -4   5   3  146.69   19.70
   4  -5   3  170.98   23.80
  -4   5  -3  150.58   18.40
   4   5   3  198.08   22.50
  -4  -5   3  112.19   21.20
  -4   5  -3  128.49   23.20
   4  -5  -3   66.69   18.80
  -5   5   3  190.18   25.00
   5  -5   3  132.29   25.10
  -5  -5  -3  201.78   25.20
   5   5  -3  202.38   24.50
  -5   5   3  245.58   27.30
   5   5  -3  112.89   23.00
  -5  -5  -3  229.58   23.50
  -5   5  -3  227.28   29.90
   5  -5  -3  146.49   26.80
  -5  -5   3  171.48   25.50
   5   5   3  174.38   22.80
  -6   5   3   20.90   13.50
  -6   5   3   11.10   13.20
  -6  -5  -3   16.30   12.90
   6  -5   3   12.10   15.60
   6   5  -3   35.40   16.30
  -6   5  -3    5.00   13.30
   6  -5  -3   24.00   17.60
  -6  -5   3   22.20   15.10
  -6  -5   3   36.00   15.80
   6   5   3   18.70   13.10
   7  -5   3   -2.00   17.30
  -7   5   3   49.90   20.10
  -7   5   3   77.19   22.00
  -7  -5  -3   47.60   18.00
   7   5  -3   41.60   18.90
   7   5   3   47.20   17.00
   7  -5  -3   65.69   24.50
  -7  -5   3   21.90   19.30
  -7   5  -3   21.10   17.30
   0   6   3    5.30    7.90
   0  -6   3  -13.30    5.80
   0   6  -3  -10.90    6.30
   0  -6   3   -5.70    8.00
   0   6  -3    2.50    8.10
   0  -6  -3    2.00    8.10
   0  -6  -3   -3.60    7.90
  -1  -6  -3  193.18   20.70
   1   6  -3  182.68   19.70
   1   6  -3  204.18   23.80
  -1  -6  -3  199.98   23.70
   1  -6   3  202.88   22.20
  -1   6   3  196.98   23.30
   1  -6   3  194.48   21.20
  -1  -6   3  196.88   23.10
   1  -6  -3  176.48   20.90
   1   6   3  177.48   22.60
   1  -6  -3  154.38   20.80
  -1   6  -3  201.88   23.40
  -1   6  -3  232.98   20.80
  -2  -6  -3  318.67   31.10
   2  -6   3  313.57   26.40
   2   6  -3  290.57   29.40
   2   6  -3  328.27   26.90
  -2  -6  -3  306.17   24.30
   2  -6   3  295.87   28.70
  -2   6   3  288.77   28.70
   2  -6  -3  337.67   32.10
  -2   6  -3  350.86   26.10
   2  -6  -3  307.07   24.70
   2   6   3  285.97   30.30
  -2   6  -3  296.27   29.50
  -2  -6   3  292.07   29.70
  -3  -6  -3   38.50   14.10
  -3   6   3   17.70   10.50
   3  -6   3    5.30   10.20
  -3   6   3   17.10   11.90
   3   6  -3    4.00    8.90
   3   6  -3   11.20   11.00
   3  -6  -3    7.60   11.00
   3   6   3    4.60   10.20
  -3   6  -3  -11.80    9.70
  -3   6  -3    0.60    7.90
  -3  -6   3    7.20   11.20
  -4   6   3  325.87   34.40
  -4  -6  -3  441.56   39.60
  -4   6   3  394.46   33.10
   4   6  -3  358.36   32.00
   4  -6   3  408.06   37.30
   4   6  -3  406.96   36.40
   4  -6  -3  271.57   35.00
  -4  -6   3  319.47   34.10
   4   6   3  328.67   33.60
  -4   6  -3  377.86   37.40
  -5   6   3   55.59   18.30
  -5  -6  -3   88.89   20.30
  -5   6   3   71.09   18.90
   5  -6   3   55.49   18.40
   5   6  -3  106.89   20.00
   5   6  -3  113.39   23.60
  -5   6  -3   78.49   21.10
  -5  -6   3   74.59   19.20
   5  -6  -3   79.89   24.10
   5   6   3   48.30   15.40
  -6  -6  -3    5.90   13.10
  -6   6   3   31.00   17.50
  -6   6   3   -4.10   12.80
   6  -6   3    2.60   16.70
   6   6  -3   -2.80   14.80
   6   6   3    1.70   12.40
   6  -6  -3    2.50   19.40
  -6   6  -3   26.00   16.60
  -6  -6   3   13.50   14.80
  -6  -6   3  -12.60   11.00
   0  -7  -3   -3.40    9.00
   0   7  -3   -9.10    7.30
   0  -7   3   -8.00    8.10
   0   7   3   -0.40    9.70
   0  -7   3   -4.70    7.60
   0  -7  -3    0.80    9.60
   0   7  -3   -8.20    9.50
   1   7  -3  155.98   23.00
   1  -7   3  189.98   23.10
   1   7  -3  149.69   20.80
  -1  -7  -3  196.78   25.60
  -1   7   3  133.99   23.10
   1  -7   3  203.98   24.00
  -1  -7  -3  164.78   21.10
  -1   7  -3  211.08   21.90
   1  -7  -3  161.28   21.10
  -1  -7   3  200.78   25.30
  -1   7  -3  204.68   25.70
   1   7   3  192.48   26.20
   1  -7  -3  199.08   25.00
   2  -7   3   37.10   14.30
   2   7  -3   59.89   17.10
   2   7  -3   56.29   15.00
  -2  -7  -3   48.00   17.40
  -2   7   3   39.80   14.10
   2  -7   3   56.89   13.70
   2   7   3   64.29   17.60
  -2   7  -3   45.30   14.30
   2  -7  -3   35.10   14.10
  -2   7  -3   42.80   17.10
  -2  -7   3   22.60   14.90
   3   7  -3    7.20   11.30
  -3  -7  -3   25.40   15.60
  -3   7   3   -4.30   10.90
   3   7  -3   13.80   11.70
   3  -7   3   15.40   13.10
   3   7   3  -14.70   10.60
   3  -7  -3   -0.20   11.80
  -3  -7   3   14.40   14.50
  -3   7  -3    6.40   12.40
   4  -7   3   26.70   14.60
  -4   7   3   13.70   14.60
   4   7  -3    6.00   10.70
   4   7  -3   12.10   11.60
  -4  -7  -3    0.90   12.80
  -4  -7   3   -6.20   13.10
   4   7   3   -5.50   11.90
   4  -7  -3   -7.00   12.60
  -4   7  -3   -6.80   11.40
   5   7  -3   11.30   14.20
   5  -7   3   26.10   17.00
  -5   7   3   11.20   15.40
  -5  -7  -3   30.90   16.80
   5   7  -3   45.50   18.20
   5  -7  -3   11.60   15.60
   5   7   3   11.20   12.10
  -5   7  -3    0.70   15.10
  -5  -7   3   20.70   15.50
   0  -8   3  -14.70   10.20
   0   8  -3   -4.30    9.90
   0   8   3   -0.60   12.50
   0   8  -3    3.60   11.80
   0  -8  -3    0.50   11.00
   0  -8  -3   -4.50   11.90
   1   8  -3  163.78   24.10
  -1  -8  -3  134.29   25.90
   1   8  -3  113.29   22.70
   1  -8   3  179.58   23.80
  -1   8   3  155.48   25.90
   1  -8   3  160.58   24.10
   1   8   3  131.89   25.60
   1  -8  -3  192.38   25.80
  -1  -8   3  194.68   27.60
   1  -8  -3  141.29   22.90
  -1   8  -3  177.18   27.60
   2   8  -3   41.10   16.80
   2   8  -3   51.09   15.80
  -2   8   3   58.99   19.00
  -2  -8  -3   59.39   22.00
   2  -8   3   34.80   16.70
  -2  -8   3   72.89   21.90
   2  -8  -3   48.80   17.50
  -2   8  -3   49.00   16.90
   2   8   3   66.19   20.40
   3   8  -3   12.90   12.50
  -3  -8  -3    1.00   18.20
  -3   8   3   -9.80   13.20
   3  -8   3    3.00   12.60
   3   8  -3    3.00   11.20
  -3  -8   3  -11.80   14.80
  -3   8  -3   14.60   17.50
   3   8   3   -7.40   13.40
   3  -8  -3   -0.10   13.30
   4  -8   3    3.30   12.70
   4   8  -3    5.30   13.80
  -4  -8  -3    4.70   15.00
   4   8  -3   14.70   13.10
  -4   8   3   14.30   16.30
  -4  -8   3    5.10   14.10
   4  -8  -3    3.10   15.50
  -4   8  -3    5.60   15.70
   4   8   3    8.00   16.70
   0   9   3  -16.40   12.70
   0  -9  -3  -21.40   11.80
   0  -9   3  -17.20   16.10
   0   9  -3    4.10   16.00
  -1  -9  -3   23.20   18.60
   1  -9   3   -9.30   15.50
   1   9  -3    9.00   14.20
  -1   9   3   11.60   16.70
   1   9  -3    5.40   13.40
  -1  -9   3    7.00   18.30
   1  -9  -3   17.40   15.70
  -1   9  -3    7.80   17.10
   1   9   3    2.00   17.10
   2   9  -3   50.99   19.60
  -2  -9  -3   77.19   27.50
  -2   9   3   75.59   23.30
   2  -9   3   76.79   21.50
   2   9  -3   47.30   17.30
   2  -9  -3   58.39   19.70
   2   9   3   63.99   22.50
  -2   9  -3   62.89   22.20
  -2  -9   3   46.70   21.20
   3   9  -3    3.20   14.00
  -3  -9  -3  -11.30   18.90
   3  -9   3   -4.50   13.90
  -3  -9   3    5.20   17.60
   3  -9  -3    1.10   14.60
  -3   9  -3   -0.80   16.50
   3   9   3   15.90   20.30
   0   0  -4 1535.75   73.79
   0   0   4 1569.74   74.09
   0   0  -4 1614.04   72.59
   0   0   4 1599.44   70.49
   1   0   4    2.50    2.50
  -1   0  -4   -2.30    3.50
   1   0  -4    7.70    4.00
   1   0   4   -1.20    3.70
   1   0  -4    6.50    4.60
   1   0  -4   -1.10    3.60
  -1   0  -4    3.50    4.00
   1   0  -4   -3.30    3.60
   2   0  -4 1694.43   78.39
   2   0   4 1673.23   74.99
  -2   0  -4 1614.34   78.39
   2   0   4 1640.54   80.19
  -2   0  -4 1618.74   77.89
   2   0  -4 1662.73   79.79
   2   0  -4 1618.74   78.39
   2   0  -4 1676.83   77.29
   3   0  -4   -3.70    4.50
   3   0   4   -3.00    5.00
   3   0  -4    2.70    4.30
  -3   0   4   -2.00    3.40
   3   0   4    1.20    3.80
  -3   0  -4    8.90    5.30
  -3   0  -4   -1.30    5.50
   3   0  -4    7.40    6.70
  -4   0  -4  418.86   31.10
   4   0   4  490.15   32.00
   4   0  -4  388.56   27.90
   4   0   4  437.36   27.70
  -4   0  -4  437.06   27.40
   4   0  -4  452.15   31.30
  -4   0   4  409.16   25.80
  -4   0   4  458.35   32.40
  -5   0   4   -5.10    6.70
  -5   0  -4    1.60    6.30
   5   0   4   -5.80    6.90
  -5   0  -4  -11.00    7.60
   5   0  -4   -2.80    7.10
   5   0  -4   -2.10    6.60
   5   0   4   -1.50    6.20
  -6   0   4   11.60   10.70
  -6   0  -4   10.10   10.40
   6   0  -4    4.50    9.60
   6   0   4    4.20    9.30
   6   0   4   16.20    9.10
   7   0   4   10.90   11.00
   7   0   4   -0.20    9.30
  -7   0  -4   -3.90   12.50
   7   0  -4   -5.80    8.80
  -7   0   4   -4.20    9.30
   8   0  -4  115.09   24.70
  -8   0   4   95.59   26.80
  -8   0  -4  158.28   29.10
   8   0   4  170.78   24.00
   0  -1   4  487.45   26.80
   0   1   4  480.35   25.90
   0  -1  -4  484.15   28.30
   0   1  -4  479.15   28.00
   0   1  -4  498.95   28.30
   0  -1  -4  499.25   23.90
   0  -1  -4  437.56   26.80
  -1  -1  -4  287.27   20.20
   1   1  -4  314.57   20.90
   1   1  -4  294.07   20.00
  -1  -1  -4  294.77   16.80
   1  -1   4  307.87   20.80
   1   1  -4  312.77   17.70
   1  -1  -4  293.67   17.80
   1   1   4  320.27   18.60
  -1   1  -4  305.27   20.50
   1   1   4  305.97   20.30
  -1  -1   4  268.47   17.60
   1  -1  -4  299.97   20.90
   1  -1  -4  293.67   19.30
  -1   1  -4  322.37   20.00
   1  -1  -4  292.77   18.80
   2   1  -4  316.67   23.10
   2  -1   4  316.67   17.10
  -2   1   4  283.77   20.10
   2   1  -4  265.97   19.80
   2   1  -4  305.47   18.80
   2  -1   4  276.17   22.20
  -2  -1  -4  327.37   22.10
  -2  -1  -4  337.07   20.30
   2  -1  -4  304.17   22.00
   2  -1  -4  314.87   22.30
   2   1   4  321.27   21.80
  -2   1  -4  300.87   22.30
  -2  -1   4  343.47   21.40
   2  -1  -4  320.07   19.20
   2   1   4  333.07   20.60
  -2   1  -4  317.77   20.50
  -3  -1  -4 1217.78   61.19
   3  -1   4 1148.89   56.79
   3   1  -4 1251.57   57.89
  -3   1   4 1209.58   61.89
   3  -1   4 1174.88   63.19
   3   1  -4 1168.98   61.19
  -3  -1  -4 1250.37   61.49
   3   1  -4 1165.88   64.29
   3  -1  -4 1142.79   55.99
  -3   1  -4 1138.59   58.19
   3  -1  -4 1207.48   62.09
   3  -1  -4 1121.39   62.19
   3   1   4 1251.17   61.89
   3   1   4 1184.38   59.59
  -3  -1   4 1215.98   60.19
  -3   1  -4 1227.58   63.99
   4   1  -4   55.29    9.20
   4   1  -4   56.29   11.50
  -4  -1  -4   49.50   11.30
   4  -1   4   29.40    8.00
  -4  -1  -4   28.80    8.20
   4   1  -4   44.00   12.30
  -4   1   4   34.00    6.50
   4  -1   4   40.40   11.20
  -4   1   4   39.00    9.80
  -4  -1   4   47.90    9.60
   4  -1  -4   27.20    9.70
  -4   1  -4   39.90   11.70
   4   1   4   26.30    8.10
  -4   1  -4   38.20    7.80
   4   1   4   29.50    9.40
   4  -1  -4   50.39   11.10
  -5   1   4  439.66   34.70
   5   1  -4  449.66   34.40
   5  -1   4  455.25   29.70
   5  -1   4  434.96   34.40
  -5  -1  -4  458.05   33.80
  -5  -1  -4  417.96   30.10
   5   1   4  451.25   31.60
   5  -1  -4  418.96   32.80
  -5  -1   4  401.36   28.60
   5  -1  -4  409.06   33.40
  -5   1  -4  411.76   35.10
  -5  -1   4  445.76   35.20
   5   1   4  415.16   31.30
   6  -1   4   16.00    8.80
   6   1  -4    9.80   10.60
  -6   1   4    9.00    9.70
   6  -1   4   23.70   11.70
  -6  -1  -4   -2.80    9.50
  -6   1  -4   47.10   14.70
  -6  -1   4    9.80   10.10
   6  -1  -4   32.50   12.90
   6   1   4   13.30    9.70
   6  -1  -4    5.50    9.00
   6   1   4   12.00    9.30
  -7  -1  -4    6.80   13.40
  -7   1   4    9.20   11.90
   7  -1   4    0.50    9.50
   7   1  -4   -5.20   12.10
   7  -1   4   12.10   11.70
   7  -1  -4   16.10   12.70
  -7   1  -4    2.70   14.00
   7   1   4   11.80   10.70
  -7  -1   4    6.70   11.60
   8   1  -4  155.38   26.90
  -8   1   4   84.19   23.50
   8  -1   4  101.29   24.70
  -8  -1  -4   74.19   22.90
   8   1   4  147.79   24.30
  -8   1  -4  103.79   27.60
   8  -1  -4   73.69   20.20
  -8  -1   4  111.29   26.40
   0   2   4  719.43   37.50
   0   2  -4  701.53   37.70
   0  -2   4  704.93   36.20
   0   2  -4  696.43   39.40
   0  -2  -4  672.93   38.30
   0   2  -4  616.64   31.70
   0  -2  -4  726.63   37.70
   1   2  -4 1171.18   61.09
   1  -2   4 1212.48   59.89
  -1   2   4 1165.08   59.39
  -1  -2  -4 1175.78   58.79
  -1  -2  -4 1205.18   60.19
  -1   2   4 1178.38   54.49
   1   2  -4 1172.98   55.69
  -1  -2   4 1113.89   59.19
  -1   2  -4 1210.28   58.89
   1  -2  -4 1126.19   60.29
   1  -2  -4 1228.98   57.59
   1   2   4 1247.68   59.29
  -1   2  -4 1136.39   60.89
  -1  -2   4 1197.68   55.59
  -2  -2  -4   76.19   11.30
   2   2  -4   45.20   10.50
   2   2  -4   75.09    9.60
   2  -2   4   63.19   11.80
   2  -2   4   71.09    6.90
  -2  -2  -4   81.19    9.00
  -2   2   4   58.09    9.00
   2   2   4   75.89    9.90
  -2  -2   4   57.49   10.30
   2   2   4   65.69    9.80
  -2   2  -4   83.59   12.20
  -2   2  -4   67.89    9.50
   2  -2  -4   48.20   10.00
   2  -2  -4   67.29    8.50
   2  -2  -4   71.39   12.30
  -2  -2   4   57.49    6.20
  -3   2   4  377.96   25.30
  -3  -2  -4  337.97   23.70
   3   2  -4  333.77   27.70
   3   2  -4  346.77   25.00
   3  -2   4  357.46   21.50
   3  -2   4  381.46   28.90
  -3  -2  -4  314.77   24.80
   3   2   4  357.66   25.40
  -3  -2   4  348.67   25.50
   3  -2  -4  343.67   27.60
   3  -2  -4  364.66   27.20
   3  -2  -4  332.97   20.20
  -3   2  -4  331.37   21.90
   3   2   4  405.06   25.60
  -3   2  -4  360.66   28.40
   4  -2   4   26.70    9.60
  -4   2   4   15.30    8.00
   4  -2   4   12.60    6.60
  -4  -2  -4   26.50    9.30
   4   2  -4   31.60   11.30
  -4  -2  -4   10.80    7.00
   4   2  -4   23.20    8.90
   4  -2  -4    9.60    8.10
  -4   2  -4    5.70    8.20
  -4   2  -4   14.60    5.60
   4   2   4   16.10    7.50
   4  -2  -4   21.40    9.80
   4   2   4   13.70    7.70
  -4  -2   4   37.60   10.00
   5   2  -4  374.66   31.70
   5  -2   4  383.76   27.90
  -5   2   4  321.67   30.00
  -5  -2  -4  377.26   30.50
  -5  -2  -4  383.06   29.90
   5  -2   4  357.36   32.20
   5  -2  -4  456.05   34.70
  -5   2  -4  391.46   34.30
   5  -2  -4  410.06   33.40
  -5  -2   4  391.46   33.70
  -5  -2   4  411.76   30.00
   5   2   4  390.76   30.30
   5   2   4  369.66   28.20
   6  -2   4  149.29   18.30
  -6  -2  -4  158.38   19.30
   6  -2   4  112.49   21.80
  -6   2   4  119.39   21.90
  -6  -2  -4  130.19   21.20
   6   2  -4  133.49   22.00
   6  -2  -4  107.09   20.30
  -6   2  -4   70.39   18.80
   6   2   4  140.89   19.50
  -6  -2   4  125.39   23.70
   6  -2  -4  110.69   20.20
   7  -2   4   52.89   20.00
   7   2  -4   48.60   18.70
  -7   2   4   56.19   19.00
  -7  -2  -4   40.90   16.50
   7  -2   4   49.70   17.40
  -7  -2   4   33.40   16.90
  -7   2  -4   12.20   14.70
   7  -2  -4   55.09   16.50
   7  -2  -4   22.90   14.00
   7   2   4   65.79   17.60
   0   3  -4 2846.62  126.79
   0   3  -4 2891.31  135.19
   0  -3   4 2898.71  130.29
   0  -3   4 2723.83  132.49
   0  -3  -4 2931.31  133.69
   0  -3  -4 2909.71  132.59
   0   3   4 2919.91  133.59
   1  -3   4   26.50    8.10
  -1  -3  -4   11.00    6.40
   1   3  -4   20.10    7.50
  -1   3   4   27.00    5.10
  -1  -3  -4   51.69    9.90
   1  -3   4   31.40    7.70
  -1   3   4   22.90    7.40
   1   3  -4   28.60    6.10
  -1   3  -4   42.00    5.60
  -1  -3   4   31.00    7.90
  -1  -3   4   29.40    6.30
   1  -3  -4   14.20    7.70
  -1   3  -4   15.00    8.20
   1   3   4   37.40    8.90
   1  -3  -4   29.50    7.80
  -2  -3  -4  389.46   28.00
  -2   3   4  366.36   28.50
   2   3  -4  392.06   29.70
   2  -3   4  444.56   30.10
   2   3  -4  393.36   25.30
  -2  -3  -4  387.66   22.40
  -2   3   4  393.36   24.40
   2   3   4  428.96   26.50
   2  -3  -4  419.76   30.10
  -2   3  -4  386.36   29.90
   2   3   4  391.86   27.70
   2  -3  -4  378.76   23.40
  -2   3  -4  403.86   25.80
  -2  -3   4  386.46   28.20
  -2   3  -4  394.76   22.20
  -3   3   4   60.59   11.60
  -3  -3  -4   82.69   10.50
   3  -3   4   66.19   14.20
   3   3  -4   56.89   13.20
   3   3  -4   81.59   13.00
   3  -3   4   73.59   10.10
  -3  -3  -4   70.19   13.00
   3   3   4   69.09   12.60
   3  -3  -4   70.79   13.60
  -3   3  -4   54.89   13.70
   3  -3  -4   70.79   14.50
   3  -3  -4   81.19    8.70
   3   3   4   89.09   11.20
  -3   3  -4   85.39   10.70
  -3  -3   4  115.49   14.30
  -4  -3  -4   48.20   10.90
  -4  -3  -4   47.90   11.50
  -4   3   4   57.19   13.50
   4  -3   4   28.10    8.70
   4   3  -4   43.80   12.30
   4   3  -4   68.29   13.80
   4  -3   4   31.30   11.40
   4  -3  -4   43.30   11.80
   4  -3  -4  106.59   18.20
  -4  -3   4   52.09   12.20
  -4   3  -4   76.49   16.00
   4   3   4   81.69   14.00
   4   3   4   38.00   10.00
   5   3  -4  105.39   19.10
   5  -3   4   56.59   12.40
  -5  -3  -4   80.59   15.60
   5   3  -4   73.69   17.10
  -5  -3  -4   42.90   12.70
   5  -3   4   62.49   16.80
  -5   3   4   68.69   15.00
  -5  -3   4   61.29   14.50
   5   3   4   43.10   12.20
   5  -3  -4   53.19   15.60
  -5   3  -4   31.00   13.90
   5  -3  -4   58.39   15.30
   6  -3   4  321.87   34.50
   6   3  -4  355.06   33.90
  -6  -3  -4  386.06   32.60
  -6  -3  -4  394.86   33.80
  -6   3   4  362.96   33.70
   6   3   4  388.86   33.60
   6  -3  -4  342.87   34.30
  -6   3  -4  352.96   36.90
  -6  -3   4  375.46   33.70
  -6  -3   4  371.86   36.30
   6  -3  -4  370.16   36.20
   7  -3   4   10.10   15.10
   7   3  -4    3.00   12.70
  -7  -3  -4   11.10   12.80
  -7   3   4   22.80   14.80
   7  -3  -4   -9.80   11.00
  -7  -3   4    5.30   14.30
  -7   3  -4   14.60   14.50
   7  -3  -4   28.10   17.10
   7   3   4   10.70   11.00
   0  -4  -4  973.40   52.69
   0   4   4 1014.00   54.59
   0  -4   4  970.20   53.09
   0  -4  -4  922.61   53.29
   0   4  -4  954.50   55.39
   0   4  -4  893.71   47.30
   0  -4   4  987.00   50.39
  -1   4   4  107.39   14.90
   1  -4   4  100.89   12.90
   1  -4   4  110.59   14.40
  -1  -4  -4  121.99   15.70
   1   4  -4   82.59   15.50
  -1  -4  -4  109.29   13.50
   1   4  -4  112.19   12.40
  -1   4   4  115.49   10.30
   1  -4  -4  108.29   15.30
  -1  -4   4  102.59   14.30
   1  -4  -4  108.79   13.60
   1   4   4  112.69   15.60
  -1   4  -4   81.49   10.10
  -1   4  -4  115.09   16.10
  -1  -4   4   99.39   10.60
   2  -4   4  368.26   25.20
  -2   4   4  339.37   28.90
   2   4  -4  331.07   29.10
  -2   4   4  344.77   23.50
  -2  -4  -4  376.06   28.40
  -2  -4  -4  369.06   25.40
   2   4  -4  376.16   25.00
   2  -4   4  371.66   28.50
  -2  -4  -4  331.57   20.40
  -2   4  -4  336.67   29.20
  -2   4  -4  344.17   22.00
   2  -4  -4  313.37   28.10
  -2  -4   4  363.06   28.40
   2  -4  -4  356.96   23.30
   2   4   4  369.16   28.90
   3  -4   4  825.82   51.19
  -3  -4  -4  716.53   48.40
   3   4  -4  790.12   46.30
   3   4  -4  800.92   50.89
  -3   4   4  735.03   49.50
  -3  -4  -4  786.22   42.90
   3  -4   4  824.82   44.00
  -3   4   4  801.12   45.50
  -3   4  -4  839.12   43.70
  -3   4  -4  700.63   50.49
  -3  -4   4  832.92   50.49
   3   4   4  803.62   43.90
   3  -4  -4  825.72   53.59
   3   4   4  792.72   49.30
  -4   4   4   79.89   16.70
   4  -4   4   98.19   20.10
   4   4  -4  135.69   17.90
  -4  -4  -4  131.29   15.70
   4   4  -4   89.69   18.60
  -4  -4  -4  119.79   17.90
  -4   4   4  113.89   17.00
   4   4   4  161.78   20.60
   4  -4  -4  115.49   21.40
  -4  -4   4  137.69   19.40
  -4   4  -4  130.29   22.40
   4   4   4   95.19   17.30
  -4   4  -4  122.49   15.70
  -5   4   4   56.79   15.00
   5   4  -4   53.79   16.20
   5  -4   4   84.19   19.90
   5   4  -4   70.29   14.90
  -5  -4  -4   89.69   15.90
  -5  -4  -4   45.90   13.60
   5  -4  -4   57.49   16.00
  -5   4  -4   61.79   17.80
  -5  -4   4   52.29   14.90
   5   4   4   51.89   13.30
   5  -4  -4   81.39   19.20
   6   4  -4   84.49   20.00
  -6  -4  -4  105.99   20.40
  -6   4   4  100.59   20.20
   6  -4   4   65.79   20.70
  -6  -4  -4   75.39   18.10
  -6  -4   4   71.69   19.10
   6   4   4   75.89   17.50
   6  -4  -4   86.89   20.70
  -6  -4   4   37.40   15.30
  -6   4  -4   76.39   20.80
   6  -4  -4  120.49   23.80
   7  -4   4   -2.10   15.80
  -7  -4  -4    3.50   14.80
   7   4  -4    4.30   16.00
  -7  -4  -4   -8.10   14.20
  -7   4   4   15.40   13.60
  -7  -4   4   -6.20   14.70
   7  -4  -4   -0.50   11.60
   7   4   4    1.40   10.50
  -7   4  -4   -9.40   12.00
   7  -4  -4    3.80   15.70
   0  -5   4  627.84   36.50
   0  -5  -4  576.94   38.20
   0   5  -4  516.95   39.50
   0   5  -4  609.34   34.50
   0  -5  -4  617.54   39.70
   0   5   4  537.85   40.00
   0  -5   4  572.34   38.50
   1  -5   4   55.19   12.20
  -1  -5  -4   41.30   11.40
   1   5  -4   94.99   12.70
   1   5  -4   59.99   14.70
  -1   5   4   69.69   13.90
  -1  -5  -4   62.69   12.40
   1  -5   4   51.29   12.30
  -1   5  -4   76.09   11.70
  -1  -5   4   66.29   10.10
   1  -5  -4   67.39   12.10
   1   5   4   67.29   14.40
   1  -5  -4   42.40   12.70
  -1  -5   4   58.29   13.20
  -1   5  -4   56.19   13.80
  -2   5   4    9.80    8.50
   2   5  -4   32.60    9.50
  -2  -5  -4    7.30    8.40
   2  -5   4   35.50    9.30
  -2   5   4    7.30    7.20
   2   5  -4   10.10    9.30
   2  -5   4   28.80   11.40
  -2  -5  -4   16.70    8.20
   2   5   4   19.80    9.40
  -2   5  -4   30.60    8.50
  -2  -5   4   13.30    9.50
  -2   5  -4   19.60   10.00
   2  -5  -4   14.70   10.00
   2  -5  -4    1.50    6.40
  -3   5   4  994.20   53.69
   3   5  -4  861.21   58.19
  -3   5   4  924.31   59.89
  -3  -5  -4  897.71   58.79
   3  -5   4 1050.99   61.29
   3  -5   4 1041.60   52.99
   3   5  -4  918.81   54.29
   3   5   4  984.80   59.89
   3   5   4  921.51   51.19
  -3   5  -4  970.80   57.19
   3  -5  -4  899.61   61.09
  -3  -5   4  926.81   58.69
  -3   5  -4  846.52   59.09
  -4   5   4   11.20   10.50
   4   5  -4   36.90   14.60
  -4   5   4   23.20   12.20
   4  -5   4    1.70   10.20
   4   5  -4   47.00   12.80
  -4  -5  -4   11.30   10.60
   4  -5  -4   43.80   16.50
  -4   5  -4   13.90   13.30
   4   5   4   22.90   11.10
  -4  -5   4   10.20    9.90
  -5   5   4   88.79   19.10
   5   5  -4  167.78   25.50
   5  -5   4  119.89   24.60
  -5  -5  -4  157.28   22.90
  -5   5   4  136.09   22.10
   5   5  -4  131.09   21.80
  -5  -5   4  193.98   25.90
   5  -5  -4  174.58   30.10
  -5   5  -4  109.59   23.50
   5   5   4  177.68   22.40
  -6   5   4  182.98   27.70
   6   5  -4  187.28   26.80
  -6  -5  -4  266.67   29.80
   6  -5   4  244.68   33.10
  -6   5   4  255.47   29.00
  -6   5  -4  152.58   29.30
   6  -5  -4  210.18   32.60
  -6  -5   4  199.48   29.50
  -6  -5   4  265.07   30.60
   6   5   4  216.78   28.00
   0  -6  -4  813.42   52.79
   0  -6   4  906.31   50.29
   0   6  -4  847.92   55.49
   0   6  -4  824.22   47.80
   0  -6  -4  873.51   53.19
   0  -6   4  833.52   53.39
   0   6   4  851.61   55.19
  -1  -6  -4   78.49   15.30
   1   6  -4   47.50   11.60
   1  -6   4   86.59   16.20
   1  -6   4   62.49   14.30
  -1  -6  -4   57.49   15.80
  -1   6   4   42.80   14.30
   1   6  -4   42.70   14.30
   1  -6  -4   36.70   11.60
  -1   6  -4   91.89   14.20
  -1  -6   4   48.60   14.50
   1   6   4   47.50   14.40
   1  -6  -4   53.99   14.50
  -1   6  -4   77.29   17.80
  -2  -6  -4   84.79   17.30
  -2  -6  -4   83.19   14.50
   2   6  -4   72.49   17.00
   2  -6   4  106.79   20.00
   2   6  -4  112.09   16.10
   2  -6   4  125.69   16.50
  -2   6   4   66.29   16.50
  -2  -6   4   63.19   16.80
  -2   6  -4   98.59   19.20
   2   6   4   76.89   17.90
   2  -6  -4   78.59   14.30
   2  -6  -4   96.89   19.50
   3   6  -4  582.14   37.50
  -3  -6  -4  507.45   43.00
   3  -6   4  544.65   42.30
  -3   6   4  436.36   39.10
   3   6  -4  437.66   39.70
   3  -6  -4  472.25   42.10
  -3   6  -4  526.45   42.60
  -3  -6   4  508.75   41.10
   3   6   4  493.05   40.80
   4  -6   4   20.80   15.20
   4   6  -4   20.70   14.50
   4   6  -4   13.60   10.30
  -4   6   4   15.70   13.80
  -4  -6  -4   28.10   13.40
  -4   6  -4   36.60   16.60
  -4  -6   4   14.60   11.60
   4  -6  -4   29.70   16.10
   4   6   4   18.20   12.80
   5   6  -4   16.30   14.50
   5   6  -4    9.00   11.70
   5  -6   4   14.20   13.90
  -5   6   4   26.80   16.70
  -5  -6  -4   15.90   12.40
  -5  -6   4   -0.40   13.00
  -5   6  -4   -6.30   12.10
   5   6   4   -2.90    8.70
   5  -6  -4   -0.50   15.30
   6  -6   4  147.49   31.70
  -6   6   4  227.48   32.30
   6   6  -4  249.88   33.40
  -6  -6  -4  239.98   31.10
   6   6  -4  213.38   29.10
   6  -6  -4  227.88   38.10
  -6   6  -4  274.47   37.80
   6   6   4  215.48   29.00
  -6  -6   4  207.98   29.90
   0  -7  -4  480.15   39.90
   0  -7   4  555.94   41.60
   0  -7  -4  509.15   40.30
   0   7   4  577.64   44.70
   0   7  -4  532.85   36.80
   0   7  -4  591.04   44.70
  -1  -7  -4   51.09   15.80
  -1   7   4   53.09   17.00
   1   7  -4   57.89   13.50
   1  -7   4   33.70   12.60
   1   7  -4   54.19   17.00
   1  -7   4   25.70   12.90
  -1  -7  -4   48.60   13.90
   1  -7  -4   49.00   14.60
   1   7   4   42.10   14.50
   1  -7  -4   49.90   14.50
  -1  -7   4   44.50   15.90
  -1   7  -4   54.39   15.90
   2  -7   4   15.90   11.70
  -2  -7  -4   22.90   14.60
   2   7  -4   15.90   10.90
   2   7  -4   11.20   11.40
   2  -7   4    7.30   11.10
  -2   7   4   21.30   14.30
   2  -7  -4  -15.80   10.00
  -2   7  -4   -0.80   11.20
   2   7   4    1.00   10.00
  -2  -7   4   28.20   13.10
   3  -7   4  527.35   43.90
   3   7  -4  527.45   44.20
  -3   7   4  519.75   44.50
  -3  -7  -4  510.75   45.80
   3   7  -4  497.55   38.20
  -3   7  -4  562.54   46.50
   3   7   4  533.05   46.10
   3  -7  -4  479.15   44.40
  -3  -7   4  475.05   43.50
   4   7  -4   13.30   12.30
  -4  -7  -4    3.00   12.40
   4  -7   4  -11.00    9.10
  -4   7   4   -2.50   13.00
   4   7  -4  -14.90   10.80
  -4  -7   4  -10.30   11.40
   4   7   4    0.80   11.20
  -4   7  -4   15.00   12.70
   4  -7  -4   11.80   13.60
   5   7  -4   -0.40   15.10
  -5   7   4   43.80   18.70
   5   7  -4   15.50   15.30
   5  -7   4   20.60   17.60
  -5  -7  -4    5.40   14.50
  -5  -7   4   -1.90   14.90
   5  -7  -4   15.00   15.80
   5   7   4    5.20   13.20
  -5   7  -4   14.00   17.30
   0  -8   4  684.53   50.29
   0  -8  -4  660.83   48.80
   0   8  -4  597.94   49.90
   0  -8  -4  690.83   49.60
   0   8   4  556.04   49.80
   1  -8   4   25.00   14.50
   1   8  -4   30.50   15.30
  -1  -8  -4   39.10   16.00
   1  -8   4   43.60   16.00
  -1   8   4   27.40   15.10
   1   8  -4   17.80   12.20
   1   8   4    6.70   13.80
   1  -8  -4    3.40   12.10
  -1  -8   4   20.80   15.00
  -1   8  -4    9.90   13.90
   1  -8  -4   17.40   13.60
  -2  -8  -4    2.40   14.40
   2   8  -4    2.50   13.90
  -2   8   4    8.50   13.80
   2  -8   4    1.00   11.70
   2   8  -4    2.30   11.50
  -2   8  -4   -1.20   14.20
  -2  -8   4    4.00   13.70
   2   8   4   11.00   15.30
   2  -8  -4    0.70   12.70
   3  -8   4  193.98   29.30
  -3  -8  -4  231.68   33.60
  -3   8   4  210.08   31.20
   3   8  -4  214.38   29.40
   3   8  -4  224.18   26.00
  -3  -8   4  254.77   34.30
   3   8   4  200.28   32.60
  -3   8  -4  149.79   30.70
   3  -8  -4  193.78   32.90
   4   8  -4  -19.60   12.30
   4  -8   4   13.20   15.70
   4   8  -4   -2.20   16.20
  -4   8   4   -3.90   14.90
  -4  -8  -4   -6.40   14.00
   4  -8  -4   16.30   16.10
   4   8   4  -23.20   13.50
  -4   8  -4  -12.60   13.00
  -4  -8   4  -19.80   12.80
   0   9   4  377.76   41.20
   0  -9  -4  362.56   37.30
   0   9  -4  387.86   41.40
   0  -9   4  301.27   36.70
   1   9  -4   -6.10   12.90
   1  -9   4   -1.20   15.10
  -1   9   4  -10.00   15.00
  -1  -9  -4   13.80   16.40
   1   9   4    2.70   16.90
  -1  -9   4    5.40   15.70
   1  -9  -4    3.00   15.00
  -1   9  -4  -11.40   14.70
  -2  -9  -4   47.30   22.00
  -2   9   4   27.20   20.80
   2  -9   4    4.10   15.60
   2   9  -4   -2.80   15.30
   2   9   4   17.20   19.00
   2  -9  -4   27.10   17.20
  -2  -9   4   -0.10   17.50
  -2   9  -4   17.30   16.30
   0   0  -5   -0.10    3.30
   0   0   5    5.00    4.40
   0   0  -5    7.20    5.20
   0   0   5   -2.00    2.60
   1   0  -5    1.10    4.50
  -1   0  -5    6.10    4.70
   1   0  -5    4.90    4.90
   1   0  -5    4.30    4.40
  -1   0  -5    1.20    4.30
   1   0   5   -7.70    2.80
   1   0  -5   -0.80    4.20
   1   0   5    3.90    2.70
   2   0  -5 3089.79  137.99
   2   0  -5 3022.00  139.39
   2   0  -5 2970.40  137.69
  -2   0  -5 3028.90  137.79
  -2   0  -5 3090.89  138.59
   2   0  -5 3030.00  138.29
   2   0   5 3036.10  140.09
   2   0   5 2981.30  133.59
   3   0  -5    3.50    5.10
   3   0  -5    4.80    6.00
   3   0   5    1.40    3.70
   3   0   5    4.20    6.40
  -3   0   5    4.80    4.10
  -3   0  -5   -6.30    5.00
  -3   0  -5   -4.30    4.80
   3   0  -5   10.70    6.20
   4   0  -5 2485.15  113.59
  -4   0  -5 2392.56  112.89
   4   0  -5 2354.86  116.69
   4   0   5 2294.67  116.29
  -4   0   5 2397.66  111.19
   4   0   5 2430.66  111.29
  -4   0  -5 2341.77  117.39
  -4   0   5 2402.46  118.09
   5   0  -5   -4.90    6.60
  -5   0  -5   -4.20    8.40
   5   0   5   -5.10    5.70
  -5   0  -5  -11.90    6.80
  -5   0   5   -4.40    6.70
   5   0  -5   -1.70    7.00
   5   0   5    6.70    8.60
   6   0   5   19.40   12.40
  -6   0  -5   39.10   14.80
   6   0  -5   32.50   13.10
   6   0   5   23.10   10.00
  -6   0   5   46.00   14.70
   7   0   5    5.80   10.70
   7   0   5    4.20   10.20
   7   0  -5   -5.10   11.60
  -7   0   5    2.20   11.80
  -7   0  -5   -4.00   12.30
   0  -1   5   -3.50    3.70
   0   1  -5    3.10    4.50
   0   1   5   -0.10    3.10
   0  -1  -5    4.30    4.80
   0   1  -5   -1.40    4.40
   0  -1  -5    0.50    3.00
   0  -1  -5    1.30    4.50
  -1  -1  -5 1084.89   55.29
   1   1  -5 1053.89   55.49
   1   1  -5 1090.59   55.59
   1  -1   5 1092.39   55.99
  -1  -1  -5 1097.29   51.09
   1   1  -5 1080.89   51.49
   1  -1  -5 1121.29   56.49
  -1  -1   5 1064.39   52.69
   1  -1  -5 1091.19   52.19
   1   1   5 1033.80   55.19
  -1   1  -5 1013.60   54.19
   1  -1  -5 1111.99   54.19
   1  -1  -5 1060.49   53.99
  -1   1  -5 1124.49   55.59
   1   1   5 1055.49   52.29
   2   1  -5  601.74   34.80
  -2  -1  -5  553.34   34.70
   2  -1   5  585.84   36.30
   2   1  -5  594.84   33.10
   2   1  -5  592.84   36.40
  -2  -1  -5  611.94   32.60
   2   1  -5  598.54   32.20
   2  -1   5  569.04   28.30
  -2   1  -5  596.74   34.20
   2  -1  -5  604.94   32.70
   2  -1  -5  600.44   35.10
   2   1   5  534.75   32.10
   2  -1  -5  591.64   35.70
   2  -1  -5  605.44   33.70
   2   1   5  583.04   34.90
  -2   1  -5  596.44   35.70
   3  -1   5   72.89    8.20
  -3  -1  -5   82.39   12.10
  -3   1   5   33.20    8.90
   3   1  -5   82.09   11.60
  -3  -1  -5   63.79   11.70
   3   1  -5   64.49   12.80
   3   1  -5   87.49   10.40
   3  -1   5   51.99   12.10
  -3  -1   5   58.09   10.40
   3   1   5   68.29   12.30
   3  -1  -5   59.49   11.60
   3  -1  -5   78.89   13.30
   3  -1  -5   67.99    9.30
  -3   1  -5   51.09    9.40
  -3   1  -5   84.19   14.40
   3   1   5   70.59   10.20
   4   1  -5  158.38   15.50
   4  -1   5  165.38   14.70
   4   1  -5  154.28   17.90
   4   1  -5  183.68   20.70
  -4  -1  -5  160.18   17.50
  -4   1   5  175.28   18.50
  -4   1   5  151.28   13.80
  -4  -1  -5  187.38   19.10
   4  -1   5  201.68   21.20
   4   1   5  168.68   18.50
   4   1   5  168.48   16.40
   4  -1  -5  180.48   18.70
  -4   1  -5  177.18   16.20
  -4   1  -5  157.48   20.80
   4  -1  -5  182.58   19.60
  -4  -1   5  168.68   16.80
   5  -1   5  395.16   29.00
   5   1  -5  512.65   36.70
  -5  -1  -5  492.05   33.30
   5  -1   5  420.36   35.70
  -5   1   5  445.46   35.40
  -5  -1  -5  488.75   35.70
   5   1   5  438.96   32.10
  -5   1  -5  458.45   37.30
  -5  -1   5  434.36   30.90
  -5   1  -5  483.05   35.40
   5   1   5  460.95   34.00
   5  -1  -5  542.85   36.10
   5  -1  -5  459.15   36.40
  -5  -1   5  421.66   36.00
   6  -1   5   18.70   12.30
   6   1  -5   36.30   13.80
   6  -1   5   24.40    9.90
  -6  -1  -5   32.40   13.60
  -6   1   5    8.00   10.70
   6  -1  -5   53.89   16.10
   6   1   5   13.60    9.50
   6   1   5   34.10   12.90
  -6   1  -5   43.70   15.20
   6  -1  -5   35.10   13.90
  -6  -1   5   60.29   17.30
   7  -1   5  120.49   23.90
   7   1  -5  161.38   27.70
  -7  -1  -5  135.89   24.90
  -7   1   5  151.68   27.50
  -7  -1   5  125.39   25.10
   7  -1  -5  152.38   25.80
   7   1   5  144.99   22.50
  -7   1  -5  139.49   26.00
   0  -2  -5    3.10    5.40
   0  -2  -5   -0.80    5.00
   0   2  -5   -4.60    5.00
   0   2  -5   -0.70    4.90
   0  -2   5    2.00    4.70
   0   2   5    7.30    4.60
  -1  -2  -5 2996.30  139.99
  -1  -2  -5 3033.90  141.49
   1   2  -5 3086.09  134.89
   1  -2   5 3109.89  140.29
   1   2  -5 2944.91  141.59
  -1   2   5 3112.59  133.69
   1   2  -5 2937.21  140.09
  -1   2   5 3111.39  139.89
   1  -2  -5 3052.49  141.69
   1   2   5 3031.10  138.79
  -1   2  -5 2970.40  141.79
  -1  -2   5 3110.19  135.99
  -1   2  -5 3104.19  139.89
   1  -2  -5 3012.80  137.69
  -2  -2  -5  151.78   16.40
   2   2  -5  161.08   14.60
  -2  -2  -5  179.58   13.40
   2   2  -5  181.68   18.10
  -2   2   5  177.48   13.80
   2  -2   5  169.78   17.40
   2   2   5  145.59   15.10
  -2  -2   5  175.78   17.00
  -2  -2   5  169.88   12.00
   2  -2  -5  124.49   15.60
   2   2   5  170.68   15.50
  -2   2  -5  142.89   16.90
   2  -2  -5  139.89   15.70
  -2   2  -5  215.18   16.70
   2  -2  -5  145.89   13.50
  -3   2   5   40.00    9.00
   3   2  -5   44.20   10.40
   3   2  -5   49.80   12.60
  -3  -2  -5   30.70    8.00
  -3  -2  -5   24.40    9.00
   3  -2   5   44.20    7.00
   3  -2   5   62.79   12.50
   3  -2  -5   41.00    7.80
   3   2   5   22.80    8.60
   3  -2  -5   36.60   11.10
   3   2   5   47.60   10.00
  -3   2  -5   18.00    6.90
  -3  -2   5   31.70    8.90
  -3   2  -5   34.10   11.00
   3  -2  -5   43.40   10.90
   4   2  -5  160.48   21.10
  -4  -2  -5  161.58   18.10
   4  -2   5  172.88   15.00
  -4   2   5  138.89   17.10
   4  -2   5  170.58   21.30
  -4  -2  -5  157.28   17.90
   4   2  -5  168.78   18.30
  -4  -2   5  141.59   17.40
   4  -2  -5  147.19   19.30
   4  -2  -5  122.09   20.10
   4   2   5  166.58   16.90
   4   2   5  153.58   16.70
  -4   2  -5  144.39   19.70
  -4   2  -5  150.68   14.60
  -5  -2  -5  573.34   41.10
   5   2  -5  607.14   46.50
   5   2  -5  680.83   44.30
  -5   2   5  593.94   42.80
  -5  -2  -5  670.63   42.10
   5  -2   5  634.34   37.80
   5  -2   5  538.35   43.70
   5  -2  -5  696.83   45.50
   5   2   5  648.74   41.60
   5   2   5  645.74   41.00
   5  -2  -5  627.44   45.60
  -5   2  -5  550.24   44.60
  -5  -2   5  617.24   40.90
  -6  -2  -5   -3.10    8.10
  -6  -2  -5    3.00   11.40
   6  -2   5   -7.40   10.50
  -6   2   5    8.50   11.10
   6   2  -5   13.80   12.30
   6  -2  -5    8.60   11.20
   6  -2  -5   20.20   12.40
  -6   2  -5    0.30   11.00
   6   2   5    4.20    8.30
  -6  -2   5    7.40    9.00
   7   2  -5  509.55   45.20
  -7  -2  -5  461.25   41.90
   7  -2   5  496.85   44.50
  -7   2   5  495.65   44.70
   7  -2  -5  565.34   44.90
   7   2   5  567.04   42.80
  -7  -2   5  494.15   45.90
   7  -2  -5  563.94   46.70
  -7   2  -5  507.45   47.80
   0   3  -5    0.20    3.10
   0  -3  -5    4.90    5.90
   0  -3   5    3.80    5.40
   0   3   5    9.20    6.10
   0   3  -5   -0.60    5.90
   0  -3  -5    1.70    6.70
   0  -3   5    1.30    4.80
   1   3  -5   24.10    6.10
  -1   3   5   34.00    8.60
  -1  -3  -5   24.60    7.70
  -1  -3  -5   13.40    7.10
   1   3  -5   25.20    9.10
   1  -3   5   26.60    8.20
   1   3   5   35.00    9.30
  -1  -3   5   20.70    7.70
   1  -3  -5   44.00    9.00
   1  -3  -5   20.10    8.10
  -1  -3   5   27.80    6.90
  -1   3  -5   22.90    7.70
  -1   3  -5   25.70    8.60
  -2   3   5  915.01   45.40
  -2  -3  -5  848.92   42.50
   2   3  -5  791.42   52.39
   2  -3   5  882.61   51.69
  -2  -3  -5  888.51   50.79
  -2   3   5  861.61   50.99
   2   3  -5  884.11   46.70
  -2  -3   5  949.80   51.49
  -2   3  -5  907.51   48.00
   2  -3  -5  887.11   52.09
  -2  -3   5  877.71   42.50
   2   3   5  871.11   49.80
   2  -3  -5  845.52   45.20
   2   3   5  946.71   49.40
  -2   3  -5  793.62   51.19
  -3   3   5   16.10    7.50
  -3  -3  -5   16.10    8.10
   3   3  -5   35.00    9.00
  -3  -3  -5   16.80    6.80
   3  -3   5   38.80   11.40
   3   3  -5   27.50   10.50
   3   3   5   30.50    8.80
  -3   3  -5   16.70    5.80
   3  -3  -5   30.60    7.30
   3  -3  -5   21.40    9.20
  -3   3  -5   23.80    9.90
   3   3   5   17.10    8.80
  -3   3  -5   12.60    7.40
  -3  -3   5   19.70    9.00
   3  -3  -5   40.90   11.80
   4   3  -5  453.45   33.20
  -4   3   5  381.46   31.10
  -4  -3  -5  454.65   33.40
   4  -3   5  425.96   35.60
  -4  -3  -5  482.05   31.00
   4   3  -5  409.56   35.40
  -4  -3   5  386.06   32.30
   4  -3  -5  413.56   34.10
  -4   3  -5  441.46   36.90
   4   3   5  443.76   31.00
   4  -3  -5  516.75   37.50
  -4   3  -5  440.06   28.50
   4   3   5  427.06   32.40
   5  -3   5   71.99   18.20
  -5  -3  -5   52.19   13.80
  -5  -3  -5   41.20   12.40
  -5   3   5   53.89   14.90
   5   3  -5   53.29   14.80
   5   3  -5   50.19   15.40
  -5   3  -5   43.90   15.50
   5   3   5   47.50   13.40
   5  -3  -5   41.40   13.60
   5  -3  -5   92.09   18.50
   5   3   5   78.19   14.20
  -5  -3   5   49.30   13.70
  -6   3   5   40.20   13.90
   6   3  -5   35.70   13.30
  -6  -3  -5   48.90   15.70
   6  -3   5   13.40   12.20
  -6  -3  -5   49.80   14.10
  -6  -3   5   57.59   16.40
  -6   3  -5   38.40   17.50
   6   3   5   52.79   14.40
  -6  -3   5   40.90   16.70
   6  -3  -5   17.10   12.30
   6  -3  -5   34.80   15.20
   7  -3   5   20.40   16.50
  -7  -3  -5    4.40   14.30
  -7   3   5  -17.70    9.10
   7   3  -5    7.10   13.40
   7  -3  -5   -7.60   11.50
   7  -3  -5    8.70   14.50
   7   3   5  -11.70    8.40
  -7   3  -5   -1.40   15.20
  -7  -3   5  -13.80   14.20
   0   4  -5    1.80    6.90
   0  -4   5    1.10    5.70
   0   4  -5   -0.20    4.10
   0   4   5   -1.20    5.30
   0  -4  -5    1.10    6.20
   0  -4   5    4.10    6.60
   0  -4  -5    4.40    6.80
   1  -4   5  446.16   31.80
  -1   4   5  384.06   31.50
  -1  -4  -5  452.85   31.10
   1  -4   5  493.45   32.10
  -1  -4  -5  428.36   32.10
   1   4  -5  475.25   27.30
   1   4  -5  491.25   35.20
   1   4   5  409.56   32.00
  -1  -4   5  420.16   31.90
   1  -4  -5  445.06   33.30
  -1   4  -5  421.16   33.90
  -1   4  -5  435.36   24.50
  -1  -4   5  476.05   27.70
   1  -4  -5  505.05   31.10
  -2  -4  -5  696.33   41.30
  -2   4   5  716.63   37.80
  -2   4   5  617.64   44.10
   2  -4   5  707.43   41.60
   2   4  -5  756.52   40.60
   2  -4   5  731.53   45.60
   2   4  -5  634.74   44.90
  -2  -4  -5  587.74   43.20
  -2   4  -5  738.73   36.20
   2   4   5  705.93   44.90
  -2   4  -5  620.44   45.00
   2  -4  -5  622.54   45.30
   2  -4  -5  693.53   39.20
  -2  -4   5  771.72   46.00
   3  -4   5    5.40    8.30
  -3  -4  -5    6.70    8.00
   3  -4   5   21.90    8.30
   3   4  -5   25.30    9.10
  -3   4   5   20.70    9.70
  -3   4   5    6.80    7.10
   3   4  -5   11.00    9.30
   3   4   5   12.10    7.10
   3   4   5   12.70    9.00
   3  -4  -5   16.40   10.20
  -3  -4   5   22.80   10.20
  -3   4  -5   -2.70    7.60
  -4   4   5  687.33   42.80
   4   4  -5  622.34   47.40
   4   4  -5  697.33   44.00
  -4   4   5  584.74   44.80
   4  -4   5  619.84   46.50
  -4  -4  -5  594.04   43.90
  -4  -4   5  680.53   46.10
  -4   4  -5  625.84   48.40
   4   4   5  659.23   44.60
   4  -4  -5  627.24   48.10
   4   4   5  722.23   41.50
  -5   4   5   82.59   17.90
   5   4  -5  102.39   20.50
   5  -4   5   81.79   20.70
   5   4  -5  122.29   20.70
  -5  -4  -5   98.39   18.60
   5   4   5   83.69   16.80
  -5   4  -5   67.89   19.80
   5  -4  -5  121.69   22.50
   5  -4  -5  103.19   21.50
  -5  -4   5  173.68   21.60
   6  -4   5   19.80   15.60
  -6  -4  -5   32.50   12.50
   6   4  -5   -8.30   11.30
  -6   4   5   18.00   11.60
   6   4   5   11.60   10.20
   6  -4  -5   22.00   13.60
  -6  -4   5   29.40   15.20
   6  -4  -5   32.00   16.00
  -6  -4   5    0.70   12.80
  -6   4  -5   -7.00   10.30
   7  -4   5   94.89   25.50
  -7   4   5  114.09   24.80
   7   4  -5  120.19   25.40
  -7  -4  -5   71.99   20.40
  -7   4  -5   50.49   24.30
   7  -4  -5  113.29   24.60
   7   4   5   98.69   21.10
  -7  -4   5  135.89   29.60
   7  -4  -5  136.59   27.40
   0   5  -5    6.20    7.70
   0   5   5    5.40    7.50
   0  -5   5   -0.60    6.90
   0  -5   5   -1.20    6.50
   0  -5  -5   -8.10    7.00
   0   5  -5   -0.80    5.10
   0  -5  -5   -1.10    7.80
  -1  -5  -5  332.47   27.20
  -1  -5  -5  327.67   28.50
   1  -5   5  344.77   27.50
  -1   5   5  287.67   28.20
   1   5  -5  325.27   30.60
   1  -5   5  359.06   28.00
   1   5  -5  377.46   25.30
  -1  -5   5  343.07   23.70
  -1   5  -5  324.67   30.30
  -1   5  -5  357.26   23.10
   1  -5  -5  349.27   29.90
   1   5   5  319.17   28.90
   1  -5  -5  366.06   27.50
  -1  -5   5  346.47   29.40
   2  -5   5    5.60    7.70
   2  -5   5    1.80    8.80
  -2   5   5    2.80    8.30
   2   5  -5    6.30    6.50
  -2  -5  -5    9.20    9.60
  -2  -5  -5    9.30    7.00
   2   5  -5    0.80    7.60
   2  -5  -5   18.60   11.00
   2  -5  -5   19.10    8.60
  -2  -5   5    6.50    7.70
  -2   5  -5    9.90    9.80
   2   5   5    6.30    8.60
  -3  -5  -5   -2.60    8.40
   3  -5   5   31.80   10.30
  -3   5   5   26.00   13.30
   3  -5   5   21.60   12.20
   3   5  -5   31.30   13.10
   3   5  -5   20.20    9.80
   3  -5  -5   24.00   12.30
   3   5   5   36.00   12.70
  -3   5  -5   44.00   16.00
  -3  -5   5   15.20   10.30
   3   5   5   32.10   11.20
   4  -5   5   58.89   17.40
   4   5  -5   63.59   15.30
  -4   5   5   87.19   16.50
  -4  -5  -5   81.59   17.80
   4   5  -5   56.29   17.50
  -4   5   5   68.29   17.60
   4   5   5   60.29   15.60
  -4   5  -5   58.19   17.30
  -4  -5   5   65.99   17.20
   4  -5  -5   62.19   19.50
  -5  -5  -5  186.28   25.30
   5   5  -5  166.98   28.70
  -5   5   5  199.28   27.40
  -5   5   5  188.48   23.90
   5   5  -5  164.08   23.00
   5  -5   5  155.38   27.20
  -5   5  -5  175.48   30.70
   5   5   5  133.69   23.10
  -5  -5   5  178.58   26.10
   5  -5  -5  242.18   31.30
   6   5  -5   28.80   16.20
  -6   5   5   27.40   16.00
   6  -5   5   24.90   18.40
   6   5  -5   11.20   14.40
  -6  -5  -5   37.00   14.80
  -6   5   5   47.70   18.60
  -6   5  -5   -9.70   14.10
   6  -5  -5   16.40   16.60
   6   5   5    4.00   11.20
  -6  -5   5   37.80   19.10
   0   6  -5   10.60    8.40
   0   6  -5    2.30   10.20
   0  -6  -5   -4.90    7.70
   0  -6  -5   -1.70    8.40
   0  -6   5   -7.40    7.40
   0   6   5    3.50    8.10
   0  -6   5    3.70    8.70
   1   6  -5  155.78   25.20
   1   6  -5  136.79   16.90
   1  -6   5  152.68   20.70
   1  -6   5  190.18   21.50
  -1   6   5  121.19   21.80
  -1  -6  -5  143.99   20.80
  -1  -6  -5  137.79   18.90
   1  -6  -5  211.68   24.10
   1  -6  -5  155.58   18.90
   1   6   5  122.29   21.90
  -1  -6   5  150.48   21.70
  -1   6  -5  155.18   22.40
   2   6  -5  253.87   27.30
  -2  -6  -5  223.08   25.40
   2  -6   5  216.78   22.60
  -2  -6  -5  207.08   21.40
  -2   6   5  201.78   25.40
   2  -6   5  186.88   23.90
   2   6  -5  212.88   21.00
   2  -6  -5  222.78   27.10
  -2  -6   5  174.38   24.50
  -2   6  -5  199.58   26.30
   2  -6  -5  190.58   20.70
   2   6   5  184.68   25.00
   3   6  -5   13.80   12.10
   3  -6   5    9.90   11.50
   3   6  -5    6.70   10.30
  -3  -6  -5   17.00   12.10
  -3   6   5   -4.00   10.80
   3   6   5   25.90   13.50
  -3  -6   5   28.20   13.00
  -3   6  -5    0.60   10.40
   3  -6  -5   15.50   13.70
   4  -6   5  198.38   29.00
  -4  -6  -5  249.08   29.60
   4   6  -5  235.28   25.50
   4   6  -5  174.98   26.90
  -4   6   5  226.48   29.70
  -4  -6   5  276.47   30.60
   4  -6  -5  244.58   31.30
  -4   6  -5  188.48   29.00
   4   6   5  197.78   26.40
   5   6  -5   20.70   14.50
  -5   6   5   63.29   19.70
   5   6  -5   57.79   20.10
   5  -6   5   45.50   19.10
  -5  -6  -5   40.70   16.30
   5  -6  -5   64.09   21.70
  -5   6  -5   26.80   17.10
  -5  -6   5   38.80   17.00
   5   6   5   27.70   13.40
   6   6  -5   -1.10   14.40
  -6  -6  -5   -7.50   12.90
   6  -6   5   22.30   18.20
   6   6  -5   12.30   15.30
  -6   6   5  -19.60   13.70
   6   6   5    0.60    9.90
  -6   6  -5    5.40   15.70
   6  -6  -5   12.80   19.00
  -6  -6   5    5.50   16.50
   0  -7   5   -9.80    9.00
   0   7   5    6.60   10.40
   0   7  -5   -2.60    9.90
   0  -7  -5    2.30   10.10
   0  -7  -5    0.90   11.20
  -1  -7  -5  112.19   21.10
   1   7  -5  141.59   22.70
   1  -7   5   96.49   19.20
   1   7  -5   94.89   21.70
   1  -7   5   88.09   18.20
  -1   7   5  128.79   25.00
  -1  -7  -5   96.29   18.50
  -1  -7   5  153.38   22.80
   1  -7  -5   96.39   20.00
  -1   7  -5   86.69   20.70
   1  -7  -5  118.69   19.80
   1   7   5  110.59   21.90
  -2  -7  -5   48.70   17.40
   2   7  -5   57.09   14.10
   2  -7   5   26.70   14.50
   2   7  -5   44.10   16.50
  -2   7   5   48.70   17.30
   2  -7   5   37.10   14.70
  -2   7  -5   74.49   20.50
   2   7   5   54.59   17.10
  -2  -7   5   57.99   17.60
   2  -7  -5   65.59   17.30
   3   7  -5   14.10   12.60
   3  -7   5   -0.60   12.10
  -3  -7  -5   18.60   15.00
  -3   7   5   18.70   14.60
   3   7  -5   11.50   14.40
   3  -7  -5   11.60   13.60
  -3   7  -5    0.00   12.80
   3   7   5   -2.00   10.10
  -3  -7   5   18.70   12.50
   4  -7   5    4.00   13.50
   4   7  -5   28.30   16.10
  -4   7   5   36.60   18.80
   4   7  -5    7.60   11.90
  -4  -7  -5   20.60   14.40
  -4  -7   5   14.50   15.30
  -4   7  -5    5.50   15.90
   4   7   5   17.50   14.40
   4  -7  -5    0.60   12.70
  -5  -7  -5    0.30   12.30
   5  -7   5    1.60   15.40
  -5   7   5    7.50   16.40
   5   7  -5   16.60   15.80
   5   7  -5   21.30   14.60
  -5   7  -5   -0.90   16.10
   5  -7  -5    1.80   17.30
  -5  -7   5    2.30   14.50
   5   7   5    0.20   13.40
   0  -8  -5    3.00   11.70
   0   8  -5    8.40   13.10
   0  -8   5    4.70   13.50
   0  -8  -5    1.20   11.70
   0   8   5   20.70   16.80
  -1   8   5   98.49   24.00
   1   8  -5   96.89   23.40
  -1  -8  -5   83.39   21.10
   1  -8   5   83.19   20.90
  -1   8  -5   89.69   20.90
   1  -8  -5   54.29   18.20
   1  -8  -5   75.19   20.00
  -1  -8   5   81.49   20.80
   1   8   5   87.79   24.50
  -2  -8  -5   29.10   17.80
   2   8  -5   -0.10   14.00
   2  -8   5   19.40   17.50
   2  -8   5   23.50   14.80
  -2   8   5  -11.20   12.50
  -2   8  -5   22.70   15.60
   2  -8  -5   35.70   16.30
  -2  -8   5   18.00   15.60
   2   8   5   29.20   17.70
   3   8  -5    9.20   12.20
   3  -8   5   -5.20   13.20
  -3  -8  -5   14.30   17.90
  -3   8   5    3.70   16.10
   3   8  -5   -8.60   11.00
  -3   8  -5   15.10   16.60
   3   8   5   15.30   15.30
  -3  -8   5   18.90   17.60
   3  -8  -5  -11.00   13.00
  -4  -8  -5  -15.90   11.90
   4   8  -5   18.80   13.80
   4   8  -5  -11.50   13.70
  -4   8   5   13.50   18.50
   4  -8   5   -5.70   12.10
   4   8   5    3.70   14.20
  -4   8  -5    2.30   15.10
  -4  -8   5   23.50   16.30
   4  -8  -5   -7.50   13.60
   0   9  -5   -0.50   15.40
   0   9   5    7.50   17.70
   0  -9   5   -1.20   14.70
   0  -9  -5   10.10   13.90
  -1  -9  -5    7.20   16.50
   1  -9   5   11.50   14.50
  -1   9   5   -7.80   15.20
   1   9  -5   21.30   17.40
  -1  -9   5   13.50   16.60
   1  -9  -5   31.70   18.00
  -1   9  -5    2.00   17.20
   1   9   5   34.40   21.70
  -2  -9  -5   37.30   22.30
  -2   9   5   25.30   20.70
   2   9  -5   12.90   17.30
  -2  -9   5   38.80   21.20
   2   9   5   25.20   20.10
  -2   9  -5   28.80   20.30
   2  -9  -5   48.50   20.40
   0   0  -6 1097.49   51.29
   0   0  -6  939.71   52.69
   0   0   6  974.40   53.09
   0   0   6 1028.30   48.30
   1   0  -6    0.60    5.00
   1   0  -6    2.20    4.60
   1   0   6    5.90    4.90
  -1   0  -6   -0.90    4.60
  -1   0  -6   -1.30    4.80
   1   0   6    3.80    3.10
   1   0  -6   -3.30    4.40
   1   0  -6   -2.80    3.50
  -2   0  -6 2201.58  100.29
   2   0  -6 2132.69   99.79
  -2   0  -6 2011.70  100.59
   2   0   6 1971.50  102.19
   2   0  -6 2104.39  100.39
   2   0   6 2117.19   95.09
   2   0  -6 2187.58  101.09
   2   0  -6 2145.69  101.29
   3   0  -6    5.70    6.40
  -3   0  -6    8.30    5.50
   3   0  -6   -7.30    4.80
   3   0   6    0.00    3.50
   3   0  -6    4.20    5.50
   3   0  -6    4.90    6.10
   3   0   6   -1.50    6.00
  -3   0  -6    4.40    6.00
  -4   0  -6  796.12   47.10
   4   0   6  807.52   43.80
   4   0  -6  823.12   49.40
  -4   0   6  817.02   45.70
  -4   0  -6  881.61   51.39
   4   0  -6  801.92   47.20
   4   0   6  827.02   50.49
  -4   0   6  780.52   49.70
   5   0   6    3.10    6.20
   5   0  -6   -9.20    6.90
   5   0   6    0.00    7.80
   5   0  -6   14.70    8.70
  -5   0   6   20.20   10.10
  -5   0  -6   19.20    8.50
  -5   0  -6   12.90   11.00
   6   0  -6  170.28   23.50
  -6   0   6  181.48   23.70
   6   0   6  190.88   20.00
  -6   0  -6  210.88   26.40
   6   0   6  186.08   24.50
   7   0  -6   14.40   15.30
  -7   0   6   -0.80   12.40
  -7   0  -6   20.20   14.70
   7   0   6   13.10   14.20
   0  -1   6   76.49    6.30
   0   1   6   86.39    9.40
   0  -1  -6   63.49   11.10
   0   1  -6   55.99   10.60
   0  -1  -6   72.19    8.50
   0  -1  -6   76.99   11.40
   0   1  -6   78.99   11.20
   0  -1   6   68.89    9.90
  -1  -1  -6  275.37   21.70
  -1   1   6  284.37   20.00
   1   1  -6  293.37   22.50
  -1  -1  -6  274.87   17.60
   1   1  -6  261.97   20.90
   1  -1   6  259.67   21.50
   1   1  -6  264.87   17.70
   1   1   6  279.77   21.90
   1  -1  -6  282.57   20.60
   1   1   6  289.67   18.80
  -1   1  -6  267.57   20.90
  -1  -1   6  249.48   19.00
   1  -1  -6  301.17   18.90
  -1   1  -6  266.37   21.10
   1  -1  -6  260.77   21.70
  -2  -1  -6  146.69   15.70
   2   1  -6  147.09   16.50
   2   1  -6  161.88   14.10
   2   1  -6  134.89   14.90
   2  -1   6  114.49   15.20
  -2  -1  -6  157.88   13.80
   2   1  -6  143.79   13.90
  -2   1  -6  159.68   15.30
   2   1   6  146.89   15.90
   2   1   6  137.89   12.80
   2  -1  -6  153.78   14.60
  -2   1  -6  149.09   15.90
   2  -1  -6  134.99   14.00
   2  -1  -6  156.98   16.60
   2  -1  -6  171.58   15.90
   3   1  -6  367.26   26.80
   3   1  -6  435.66   31.40
  -3   1   6  388.36   27.30
  -3  -1  -6  370.46   26.60
  -3  -1  -6  378.46   27.90
   3   1  -6  404.46   25.50
   3  -1   6  348.07   29.10
   3  -1   6  376.56   21.70
   3   1   6  413.76   29.20
   3  -1  -6  382.36   28.80
   3  -1  -6  361.46   25.20
  -3  -1   6  388.06   27.60
  -3   1  -6  405.96   27.10
  -3   1  -6  367.06   29.00
   3  -1  -6  393.66   28.60
   3   1   6  412.06   25.80
  -4   1   6   82.59   15.00
   4  -1   6   66.59   15.00
  -4   1   6   67.89   10.80
   4   1  -6   70.69   12.40
   4   1  -6   82.19   14.40
   4   1  -6  120.99   18.10
  -4  -1  -6  115.19   15.80
  -4  -1  -6  114.09   15.10
   4  -1   6   86.19   10.50
   4   1   6   88.09   15.60
  -4   1  -6   54.19   11.10
   4   1   6   62.79   11.40
   4  -1  -6   96.29   16.10
   4  -1  -6   86.39   15.90
  -4   1  -6   94.49   17.00
  -4  -1   6   93.79   13.30
   5   1  -6  140.69   20.40
   5  -1   6  176.68   17.10
  -5  -1  -6  175.38   19.70
   5  -1   6  161.18   23.20
  -5  -1  -6  205.68   23.10
  -5   1   6  189.68   21.80
   5   1   6  160.98   20.90
  -5  -1   6  167.48   18.40
  -5  -1   6  160.08   22.10
   5  -1  -6  197.68   21.40
  -5   1  -6  206.18   24.30
   5   1   6  222.08   20.20
  -5   1  -6  167.18   17.50
   5  -1  -6  159.98   21.60
   6   1  -6    2.90   11.40
  -6   1   6   24.60   13.20
   6  -1   6   28.30   14.40
  -6  -1  -6   25.60   13.50
  -6  -1  -6   33.90   14.90
   6  -1  -6   24.30   12.90
   6   1   6   35.00   10.70
  -6   1  -6    0.50   11.70
  -6  -1   6    8.20   11.00
   6   1   6    9.20   10.40
   6  -1  -6   22.40   12.20
  -7  -1  -6   18.40   15.00
   7   1  -6   28.70   17.50
   7  -1   6   28.30   14.40
  -7   1   6   30.10   14.90
   7  -1  -6    6.50   15.00
   7   1   6   28.90   13.50
  -7  -1   6   28.00   15.60
  -7   1  -6   33.70   18.00
   0   2   6  413.86   28.30
   0  -2  -6  478.85   30.30
   0   2  -6  517.45   32.20
   0  -2   6  458.25   28.90
   0  -2  -6  455.55   31.30
   0   2  -6  489.95   32.20
   1   2  -6 1658.03   87.99
  -1  -2  -6 1755.72   87.49
   1   2  -6 1786.62   80.89
  -1   2   6 1816.32   86.59
   1   2  -6 1762.22   87.59
   1  -2   6 1852.41   87.49
  -1  -2  -6 1748.82   87.79
  -1   2   6 1778.52   79.79
  -1   2  -6 1779.92   88.39
  -1  -2   6 1679.03   82.69
   1  -2  -6 1690.53   88.49
  -1   2  -6 1860.61   87.69
   1   2   6 1812.52   85.29
   1  -2  -6 1719.03   84.99
  -2   2   6   77.59    9.80
  -2  -2  -6   57.99   11.60
   2  -2   6   72.79   13.50
   2   2  -6   87.29   10.80
  -2   2   6   61.59   12.20
   2   2  -6   71.29   13.50
  -2  -2  -6   80.19    8.90
   2   2   6   70.89   12.40
  -2  -2   6   69.79    8.60
   2  -2  -6   72.19   10.60
  -2  -2   6   60.89   11.40
  -2   2  -6   64.89   12.60
   2  -2  -6   53.39   12.30
   2   2   6   74.19   11.70
  -2   2  -6   80.09   11.90
   3  -2   6  363.66   24.00
  -3  -2  -6  381.96   25.60
   3   2  -6  364.56   26.60
  -3   2   6  371.76   25.90
   3   2  -6  406.06   31.40
   3  -2   6  356.56   29.80
  -3  -2  -6  391.06   29.40
   3   2   6  409.56   27.70
  -3   2  -6  374.26   26.00
  -3  -2   6  404.96   23.10
  -3   2  -6  340.27   30.30
  -3  -2   6  377.46   28.70
   3  -2  -6  403.86   24.90
   3  -2  -6  397.46   30.10
   3   2   6  382.96   28.00
   3  -2  -6  331.87   28.60
   4   2  -6   10.30    8.50
  -4  -2  -6   29.50   10.40
   4  -2   6   27.20   11.60
   4   2  -6   12.30   10.10
  -4   2   6   25.60    8.90
  -4  -2  -6   20.20    9.00
   4  -2  -6    7.20    8.60
   4   2   6    6.90    6.30
  -4   2  -6   15.00   11.50
  -4  -2   6   15.90    8.70
  -4   2  -6   22.50    7.90
   4   2   6   13.80    8.20
   4  -2  -6    8.70    9.50
  -5  -2  -6  620.44   41.40
  -5  -2  -6  604.64   41.50
  -5   2   6  585.94   41.90
   5  -2   6  571.44   45.30
   5   2  -6  549.65   45.20
   5   2  -6  610.44   43.10
  -5  -2   6  604.64   41.40
   5   2   6  607.44   40.80
   5  -2  -6  585.64   44.30
   5  -2  -6  633.24   44.70
  -5   2  -6  550.04   45.00
   5   2   6  635.84   40.70
   6   2  -6   91.09   20.40
   6  -2   6   87.29   20.50
  -6  -2  -6  101.09   19.20
  -6   2   6  110.99   20.60
  -6  -2  -6  114.89   20.30
   6  -2  -6   99.89   21.30
  -6  -2   6  104.09   22.50
  -6   2  -6   72.29   20.40
   6   2   6  112.29   19.20
   6   2   6   82.49   17.00
   6  -2  -6  125.99   23.70
   7  -2   6   79.19   22.10
   7   2  -6  114.29   25.00
  -7  -2  -6  135.59   24.10
  -7   2   6  125.89   24.50
   7   2   6  111.09   21.50
  -7   2  -6  114.19   26.80
  -7  -2   6   61.19   19.20
   7  -2  -6  110.59   25.20
   0  -3   6  727.83   39.50
   0   3  -6  602.34   42.10
   0   3  -6  700.33   41.70
   0   3   6  657.43   40.40
   0  -3  -6  623.04   40.80
   0  -3  -6  693.63   40.90
   1   3  -6   47.30    7.60
  -1   3   6   29.30    8.30
   1  -3   6   49.30   10.70
  -1  -3  -6   38.80   10.40
   1   3  -6   43.30   11.40
  -1  -3  -6   44.30   10.50
   1   3   6   29.90    9.00
   1  -3  -6   35.80   10.70
  -1  -3   6   58.39   12.10
  -1   3  -6   49.50    9.90
   1  -3  -6   39.80    9.60
  -1   3  -6   43.30   11.90
  -1  -3   6   50.59    8.50
   2   3  -6  400.86   25.40
   2  -3   6  362.86   29.20
   2   3  -6  301.17   28.60
  -2   3   6  381.96   23.60
  -2   3   6  346.87   28.50
  -2  -3  -6  367.96   29.20
   2   3   6  315.37   26.40
   2  -3  -6  338.97   29.40
  -2   3  -6  394.66   27.40
  -2  -3   6  372.46   22.60
  -2  -3   6  385.26   29.40
  -2   3  -6  355.26   29.80
   2  -3  -6  358.46   24.70
   2   3   6  448.86   29.30
   3  -3   6   61.09   14.30
   3   3  -6   53.79   11.70
  -3   3   6   43.10   11.40
  -3   3   6   33.80    9.90
  -3  -3  -6   47.80   11.90
   3   3  -6   29.50   10.80
  -3  -3  -6   59.39    9.60
  -3   3  -6   53.99   13.70
   3   3   6   45.70   11.00
   3   3   6   55.69   11.90
  -3   3  -6   29.90    9.60
   3  -3  -6   52.29   13.40
  -3  -3   6   32.70   10.30
   3  -3  -6   52.99    9.50
  -4  -3  -6   60.49   14.40
   4  -3   6   53.79   15.90
  -4   3   6  105.69   15.40
   4   3  -6   87.69   16.70
  -4  -3  -6   85.69   14.00
   4   3  -6  103.59   20.40
   4  -3  -6   70.99   16.00
  -4  -3   6   59.79   14.50
  -4   3  -6   76.59   17.90
   4   3   6  120.39   15.90
   4   3   6   81.49   15.40
  -4   3  -6   61.19   12.20
   4  -3  -6   57.99   15.20
   5   3  -6   22.40   14.40
   5  -3   6    3.20   11.10
  -5  -3  -6   11.90    9.90
  -5   3   6   12.00   10.20
   5   3  -6   15.80   10.40
  -5  -3  -6    5.60    8.20
   5  -3  -6    7.30   12.60
  -5  -3   6   -3.20    6.60
   5   3   6   16.40    9.50
   5   3   6    5.20    8.30
   5  -3  -6    4.80   10.40
  -5   3  -6   16.00   12.70
  -6  -3  -6  156.48   22.10
   6   3  -6  174.58   25.10
  -6   3   6  129.29   23.60
  -6  -3  -6  152.68   22.90
   6  -3   6  167.58   28.20
   6  -3  -6  160.38   26.10
   6  -3  -6  192.08   27.70
  -6   3  -6  146.59   28.70
  -6  -3   6  171.78   25.90
   6   3   6  178.18   22.30
  -7   3   6   64.39   19.70
   7   3  -6  122.19   25.50
   7  -3   6   68.49   22.00
   7   3   6   42.40   15.70
  -7   3  -6   80.29   25.40
   7  -3  -6   51.19   18.40
  -7  -3   6   29.70   18.10
   7  -3  -6   72.29   22.20
   0  -4   6   97.59   13.20
   0   4   6   59.89   12.20
   0   4  -6  106.99   18.10
   0   4  -6  103.69    9.50
   0  -4  -6   72.59   15.20
   0  -4   6   75.99   14.60
   0  -4  -6  107.59   15.30
  -1  -4  -6  106.39   15.80
   1   4  -6  104.49   11.90
   1  -4   6  120.89   15.50
  -1  -4  -6  111.29   15.30
   1  -4   6  126.39   16.70
  -1   4   6  112.79   18.00
   1   4  -6  143.09   18.90
  -1   4  -6   84.59   16.70
   1  -4  -6   91.89   16.60
   1   4   6  124.39   16.70
  -1  -4   6  107.49   12.60
   1  -4  -6  128.99   15.40
  -1  -4   6  141.69   17.50
  -2   4   6  759.12   49.50
   2  -4   6  805.12   45.70
  -2  -4  -6  735.83   48.00
   2  -4   6  820.42   50.09
   2   4  -6  692.73   49.50
  -2  -4  -6  749.23   45.60
   2   4  -6  806.72   43.20
   2  -4  -6  787.82   43.00
   2   4   6  759.12   48.00
  -2   4  -6  754.42   50.39
  -2  -4   6  720.03   47.90
   2  -4  -6  656.13   47.90
   3  -4   6  621.84   44.50
  -3   4   6  596.64   36.40
  -3   4   6  595.54   42.70
  -3  -4  -6  552.14   41.10
   3   4  -6  554.94   43.10
   3   4  -6  692.33   39.90
   3  -4  -6  578.04   44.20
   3   4   6  547.15   40.40
  -3   4  -6  586.94   44.60
  -3  -4   6  594.44   42.90
   3   4   6  630.54   39.30
  -4   4   6  301.47   30.60
   4   4  -6  303.07   32.70
   4   4  -6  372.46   29.90
   4  -4   6  338.37   33.30
  -4  -4  -6  360.76   31.40
  -4   4   6  359.56   28.90
  -4   4  -6  318.27   34.10
  -4  -4   6  370.56   33.10
   4   4   6  377.76   29.20
   4   4   6  363.16   30.60
   4  -4  -6  349.07   34.60
   5   4  -6   88.09   18.50
   5  -4   6   75.79   20.80
  -5   4   6   87.99   18.90
  -5  -4  -6  110.99   20.30
  -5   4   6  101.69   21.00
   5   4  -6  151.48   26.80
   5  -4  -6  122.39   24.40
   5  -4  -6   97.19   21.50
  -5   4  -6   81.29   21.80
  -5  -4   6  119.69   21.60
   5   4   6   67.59   16.10
  -6  -4  -6    4.80   11.20
   6   4  -6    6.90   12.60
   6  -4   6   -3.90   13.60
   6   4  -6    8.10   13.20
  -6   4   6    1.40   12.20
  -6   4  -6   23.30   17.60
   6  -4  -6   14.30   13.20
  -6  -4   6   -4.70   11.80
   6  -4  -6   21.70   16.30
   6   4   6   27.00   13.70
   0  -5   6  337.57   26.80
   0  -5  -6  361.46   29.80
   0   5   6  366.76   31.10
   0   5  -6  338.87   32.30
   0  -5  -6  347.37   30.40
   0  -5   6  387.46   30.80
   1   5  -6  158.28   22.30
   1  -5   6  173.98   19.90
   1   5  -6  189.68   16.60
  -1  -5  -6  155.28   19.60
  -1   5   6  182.98   22.70
   1  -5   6  187.88   20.80
  -1  -5  -6  175.08   20.90
  -1  -5   6  179.18   22.30
  -1  -5   6  158.88   17.10
   1  -5  -6  173.48   21.90
  -1   5  -6  142.79   23.40
   1   5   6  174.38   21.70
   1  -5  -6  168.78   19.10
  -2  -5  -6   36.00   12.10
   2   5  -6   17.80   10.60
   2  -5   6   42.30   12.10
  -2   5   6   19.80   11.70
   2   5  -6   23.50    9.20
   2  -5   6   44.60   13.30
  -2  -5  -6   29.10   11.50
   2  -5  -6   35.60   13.50
   2  -5  -6   42.50   11.20
   2   5   6   27.10   12.10
  -2   5  -6   39.30   13.30
  -2  -5   6   16.50    9.80
   3  -5   6  207.98   21.20
   3   5  -6  175.88   24.30
  -3   5   6  200.08   25.40
   3   5  -6  212.68   21.40
  -3  -5  -6  204.18   24.50
   3  -5   6  221.68   25.80
  -3  -5   6  178.08   23.40
   3  -5  -6  164.58   25.20
   3   5   6  213.58   22.10
   3   5   6  184.98   23.60
  -3   5  -6  187.88   25.40
   4   5  -6   61.59   14.80
   4  -5   6   55.99   17.20
   4   5  -6   60.79   17.40
  -4  -5  -6   63.79   16.30
  -4   5   6   76.99   19.40
   4  -5  -6   86.29   22.20
  -4  -5   6   79.49   18.40
  -4   5  -6   65.69   18.80
   4   5   6   66.19   16.50
  -5   5   6   70.89   19.50
   5   5  -6  112.39   20.50
   5   5  -6   83.59   21.80
  -5  -5  -6   88.89   18.90
   5  -5   6   77.49   20.80
   5  -5  -6  104.79   25.20
   5   5   6   88.99   17.70
  -5  -5   6   53.69   15.90
  -5   5  -6  103.29   24.90
   6  -5   6   71.19   24.10
  -6  -5  -6   56.49   16.90
   6   5  -6   72.09   19.50
   6   5  -6   88.09   23.10
  -6   5   6   82.49   22.50
  -6   5  -6  106.49   27.10
   6   5   6   89.19   19.60
  -6  -5   6   96.69   23.80
   6  -5  -6  122.39   28.40
   0  -6  -6  660.63   48.10
   0   6   6  631.24   48.40
   0   6  -6  711.23   51.49
   0  -6   6  682.53   48.30
   0  -6  -6  748.53   47.80
   0  -6   6  732.33   44.90
  -1   6   6  339.97   32.30
   1  -6   6  306.57   29.60
   1  -6   6  310.57   29.10
  -1  -6  -6  337.47   29.70
   1   6  -6  298.07   33.40
  -1  -6  -6  389.56   32.90
  -1   6  -6  311.87   33.30
   1  -6  -6  322.27   31.60
   1  -6  -6  329.97   28.40
   1   6   6  279.87   29.70
  -1  -6   6  272.47   29.70
   2  -6   6   80.39   16.30
   2  -6   6  124.09   21.50
  -2  -6  -6  117.39   17.60
   2   6  -6  106.69   16.40
  -2   6   6   74.59   19.70
   2   6  -6   74.19   18.90
  -2  -6  -6  104.99   19.70
  -2   6  -6   71.29   18.90
  -2  -6   6   59.39   17.00
   2   6   6   57.19   16.80
   2  -6  -6   82.19   20.40
   2  -6  -6  107.19   16.90
  -3   6   6    3.50   11.90
   3   6  -6   12.10    9.10
  -3  -6  -6   22.70   13.40
   3  -6   6   15.00   12.30
   3   6  -6   17.20   13.30
  -3  -6   6   14.30   12.00
  -3   6  -6   15.60   13.60
   3   6   6   10.60   11.00
   3  -6  -6   -1.50   10.30
  -4   6   6   41.30   17.90
  -4  -6  -6   23.10   14.50
   4   6  -6   16.50   12.80
   4   6  -6    9.50   11.90
   4  -6   6   15.10   12.90
  -4  -6   6   22.80   15.50
  -4   6  -6   10.90   13.70
   4   6   6   19.40   13.20
   4  -6  -6   15.30   16.80
   5  -6   6   69.89   22.10
  -5   6   6   97.39   24.40
  -5  -6  -6   65.79   19.40
   5   6  -6  144.99   23.20
   5   6  -6   54.09   19.80
  -5   6  -6   87.59   25.00
  -5  -6   6   67.79   19.60
   5  -6  -6  114.29   27.50
   5   6   6   93.09   22.90
   0  -7  -6   63.09   18.00
   0   7  -6   21.00   15.40
   0  -7   6   42.10   15.00
   0  -7  -6   48.70   15.80
   0   7   6   22.90   13.20
  -1  -7  -6   47.70   15.90
   1   7  -6   40.20   16.60
   1  -7   6   81.99   18.00
  -1  -7  -6   43.70   14.60
   1  -7   6   60.99   16.10
  -1   7   6   63.89   19.20
  -1  -7   6   44.00   17.00
   1  -7  -6   52.69   15.20
   1   7   6   44.70   14.90
  -1   7  -6   49.50   17.80
   1  -7  -6   40.60   15.40
   2   7  -6   84.99   21.20
  -2   7   6   63.79   19.20
   2  -7   6   74.79   17.80
   2  -7   6   94.49   18.60
  -2  -7  -6   46.20   17.20
   2   7   6   76.59   20.90
  -2  -7   6   64.09   18.20
  -2   7  -6   65.39   18.50
   2  -7  -6   50.99   17.20
   3  -7   6  291.17   32.90
   3   7  -6  326.97   28.40
   3   7  -6  234.98   31.50
  -3  -7  -6  266.17   33.60
  -3   7   6  225.58   32.70
   3  -7  -6  233.28   31.50
  -3   7  -6  185.28   32.00
  -3  -7   6  251.67   31.80
   3   7   6  288.77   33.10
   4  -7   6   13.90   15.10
   4   7  -6   17.50   15.10
   4   7  -6   37.10   15.30
  -4   7   6   11.20   16.70
  -4  -7  -6   30.50   15.90
  -4  -7   6   -6.60   12.50
   4  -7  -6   57.29   20.90
   4   7   6   13.40   14.90
  -4   7  -6   14.00   15.00
   0  -8  -6  116.59   23.50
   0  -8  -6   85.19   20.80
   0  -8   6   82.99   20.80
   0   8  -6   96.09   23.70
   0   8   6   63.29   22.00
  -1   8   6   29.30   19.30
  -1  -8  -6   18.90   14.70
  -1  -8  -6   -5.80   13.50
   1  -8   6   31.20   15.60
   1   8  -6   31.10   17.90
   1  -8  -6   33.00   16.20
  -1   8  -6   44.20   17.80
   1  -8  -6   42.60   16.20
  -1  -8   6   18.70   14.90
   1   8   6   29.10   15.30
  -2   8   6   65.69   21.50
  -2  -8  -6  119.09   25.70
   2  -8   6   71.39   19.20
   2  -8   6  107.89   23.30
   2   8  -6  122.49   26.60
   2   8   6   54.09   18.30
  -2  -8   6  114.39   25.10
   2  -8  -6  110.89   25.90
  -2   8  -6   43.70   19.40
  -3  -8  -6  188.28   33.10
   3  -8   6  196.18   29.10
  -3   8   6  209.48   35.40
   3   8  -6  130.79   26.50
  -3   8  -6  135.39   30.10
  -3  -8   6  136.09   28.80
   3   8   6  190.08   31.40
   3  -8  -6  226.18   36.60
   0   9  -6  148.69   31.50
   0   9   6  198.78   35.70
   0  -9  -6  184.98   29.10
   0  -9  -6  168.08   31.10
   0  -9   6  133.69   27.10
   1   9  -6   19.20   17.40
  -1  -9  -6   22.10   18.40
  -1   9   6   50.39   22.70
   1  -9   6   78.29   21.50
   1  -9  -6    8.20   16.20
  -1  -9   6   44.50   20.40
   1   9   6   32.80   19.60
  -1   9  -6   16.40   17.80
   0   0  -7   -2.20    4.50
   0   0   7    6.90    5.40
   0   0   7    3.20    3.20
   0   0  -7   -1.80    4.50
  -1   0  -7    1.90    5.60
   1   0  -7   -4.70    5.00
   1   0  -7    8.40    4.90
   1   0  -7    1.70    5.20
   1   0  -7   -1.10    4.60
  -1   0  -7    1.60    4.90
   1   0   7   -0.30    2.90
   1   0   7   -2.20    4.40
  -2   0  -7  821.42   44.30
   2   0  -7  749.42   44.90
   2   0   7  816.92   47.50
   2   0  -7  812.52   46.10
  -2   0  -7  785.52   45.90
   2   0  -7  774.12   45.00
   2   0   7  765.42   38.90
   2   0  -7  750.12   43.60
  -3   0  -7    4.90    6.40
   3   0  -7   -0.80    5.80
   3   0  -7   -2.60    5.10
  -3   0  -7   -0.70    5.70
   3   0  -7   -4.10    5.90
   3   0   7    0.90    3.90
   3   0  -7  -11.20    6.30
   3   0   7   -8.50    5.30
   4   0  -7  189.38   20.10
   4   0  -7  217.48   23.80
  -4   0   7  179.78   18.80
   4   0   7  173.38   21.50
   4   0   7  176.68   16.20
  -4   0  -7  179.08   19.70
  -4   0  -7  213.58   22.60
   4   0  -7  217.38   22.20
  -5   0  -7  -12.10    8.50
  -5   0  -7   10.40    8.70
   5   0  -7    3.70    8.90
   5   0   7  -11.80    7.00
  -5   0   7   -1.00    8.30
   5   0  -7    4.60    9.10
   6   0   7    8.30   12.60
   6   0  -7   57.49   17.70
  -6   0  -7   38.30   14.50
  -6   0   7   39.60   15.20
  -7   0  -7    0.00   12.60
  -7   0   7   12.60   14.10
   7   0   7   -0.70   13.20
   7   0  -7    4.50   15.40
   0  -1  -7   -0.40    5.40
   0  -1   7    2.10    4.60
   0   1   7    4.70    4.10
   0   1  -7    2.20    5.60
   0  -1  -7   -2.60    3.40
   0  -1  -7   -3.40    5.60
   0   1  -7   -4.00    4.40
   1   1  -7 1096.79   59.59
   1   1  -7 1153.68   55.39
  -1   1   7 1171.08   58.09
   1   1  -7 1156.28   61.69
  -1  -1  -7 1066.39   54.69
   1  -1   7 1139.89   60.79
  -1  -1  -7 1130.49   60.89
   1  -1  -7 1125.69   61.29
   1   1   7 1138.19   55.89
   1  -1  -7 1107.69   59.29
   1   1   7 1115.59   60.99
   1  -1  -7 1200.58   56.59
  -1   1  -7 1122.29   59.99
  -1   1  -7 1094.29   59.99
  -1  -1   7 1103.09   58.19
   2  -1   7  135.99   17.50
  -2  -1  -7  211.58   19.50
   2   1  -7  207.08   19.40
   2   1  -7  166.48   15.40
   2   1  -7  174.78   18.50
  -2  -1  -7  184.88   15.80
   2   1  -7  161.68   16.20
   2  -1  -7  186.08   17.50
   2  -1  -7  178.58   16.50
   2  -1  -7  172.58   16.80
   2   1   7  170.38   18.10
   2  -1  -7  166.68   18.50
  -2   1  -7  180.48   18.30
  -2   1  -7  176.68   17.60
   2   1   7  170.78   14.60
   3  -1   7   13.90    9.30
  -3   1   7   19.50    7.60
   3   1  -7   20.70    8.00
   3   1  -7   29.70    8.40
  -3  -1  -7   11.80    8.00
   3   1  -7   23.40    9.50
  -3  -1  -7   37.10    9.10
   3   1   7   33.60    8.50
   3   1   7   17.10    8.50
   3  -1  -7   16.00    8.20
   3  -1  -7   21.80    8.60
  -3   1  -7   24.10   10.20
  -3   1  -7   21.70    8.30
   3  -1  -7   13.10    7.20
  -3  -1   7   32.00    9.10
   4   1  -7  368.76   32.80
   4   1  -7  365.16   29.40
  -4  -1  -7  369.66   29.60
  -4  -1  -7  403.96   30.50
   4  -1   7  403.66   33.30
  -4   1   7  378.16   29.70
   4   1  -7  443.96   28.10
   4   1   7  379.76   27.10
  -4   1  -7  334.97   27.60
   4  -1  -7  355.46   31.10
   4   1   7  334.47   29.40
  -4  -1   7  315.77   27.80
  -4   1  -7  389.16   32.60
   4  -1  -7  429.66   31.70
  -5  -1  -7  163.28   19.60
   5  -1   7  123.59   22.20
  -5  -1  -7  120.09   20.90
  -5   1   7  146.59   19.50
   5   1  -7  160.88   21.10
  -5  -1   7   89.79   20.00
   5  -1  -7  101.99   19.40
   5   1   7  125.09   15.90
  -5   1  -7  109.39   20.30
  -5  -1   7  122.09   20.30
  -5   1  -7  118.79   17.00
   5   1   7  108.99   19.60
   5  -1  -7  141.39   19.40
   6   1  -7   18.80   12.80
   6  -1   7   18.90   12.90
  -6   1   7   17.40   11.80
  -6  -1  -7   23.40   12.40
  -6  -1  -7   17.50   12.30
   6  -1  -7   45.90   16.60
   6   1   7   23.10   10.40
  -6  -1   7   19.90   12.10
   6  -1  -7    3.70   15.50
   6   1   7   26.50   12.20
  -6   1  -7   -9.70   11.60
   7   1  -7  326.97   36.60
  -7  -1  -7  301.77   33.80
  -7   1   7  345.57   35.70
   7  -1   7  246.48   33.00
   7   1   7  316.77   32.80
  -7   1  -7  246.68   34.50
   7  -1  -7  254.77   34.90
  -7  -1   7  281.67   33.80
   0   2  -7    0.60    5.60
   0  -2   7   -0.30    5.10
   0  -2  -7  -11.10    4.90
   0   2   7   -1.00    4.30
   0   2  -7   -7.20    5.50
   0  -2  -7    1.80    5.90
   1  -2   7  375.36   27.70
   1   2  -7  414.76   29.00
  -1  -2  -7  357.46   27.30
  -1  -2  -7  340.37   26.50
   1   2  -7  353.96   21.50
   1   2  -7  359.56   28.00
  -1  -2  -7  342.07   19.70
  -1   2   7  371.06   26.70
   1  -2  -7  346.37   20.90
  -1   2  -7  343.87   27.00
   1   2   7  343.47   27.80
   1   2   7  378.36   25.40
  -1   2  -7  330.47   27.50
   1  -2  -7  381.86   28.60
   1  -2  -7  379.56   26.40
  -1  -2   7  372.36   24.40
  -2  -2  -7  136.59   17.20
  -2  -2  -7  130.69   12.20
  -2   2   7  130.39   12.80
  -2   2   7  147.29   16.40
   2   2  -7  132.89   13.60
   2   2  -7  150.48   17.00
   2  -2   7  147.09   17.40
   2   2  -7  132.49   17.50
   2  -2  -7  116.89   14.50
  -2   2  -7  128.69   15.90
   2   2   7  156.18   17.00
  -2  -2   7  134.39   16.00
   2  -2  -7  148.09   17.40
  -2   2  -7  129.39   16.90
  -2  -2   7  139.49   13.20
   2   2   7  150.08   15.00
  -3   2   7   29.40    8.70
  -3  -2  -7   27.70   10.50
   3   2  -7   38.70   11.80
  -3  -2  -7   67.79   11.10
   3   2  -7   56.19   11.40
   3  -2   7   33.60   11.00
  -3   2  -7   55.09   13.90
   3  -2  -7   16.70    8.70
  -3  -2   7   34.50    7.70
   3  -2  -7   26.00   11.70
  -3   2  -7   34.70    9.30
  -3  -2   7   29.60   11.10
   3  -2  -7   42.00    9.50
   3   2   7   49.99   11.00
   3   2   7   61.89   13.10
   4   2  -7   97.49   16.70
   4   2  -7   85.49   18.10
  -4  -2  -7  104.29   17.30
  -4   2   7   94.99   15.70
   4  -2   7   80.59   17.40
  -4  -2  -7  104.69   15.70
  -4  -2   7   81.29   16.00
   4  -2  -7  120.99   20.00
   4   2   7   90.89   16.90
  -4   2  -7   93.39   19.20
  -4   2  -7  111.29   14.70
   4  -2  -7   75.39   16.20
   4   2   7   95.19   15.00
   5   2  -7  299.17   32.40
   5   2  -7  340.27   30.40
  -5   2   7  358.96   30.80
  -5  -2  -7  315.47   29.10
   5  -2   7  324.17   34.20
  -5  -2  -7  333.07   29.80
  -5   2  -7  369.56   35.20
   5  -2  -7  358.76   33.20
   5   2   7  324.77   27.80
   5   2   7  277.57   27.90
  -5  -2   7  309.87   28.80
   5  -2  -7  312.07   30.50
  -6  -2  -7    3.10    8.70
  -6  -2  -7   16.20   13.10
  -6   2   7    0.20    9.30
   6   2  -7   -9.90    8.90
   6  -2   7  -19.90   11.10
   6  -2  -7   -1.40   11.50
  -6   2  -7   18.30   14.40
   6  -2  -7    5.50   11.80
  -6  -2   7    7.20   11.30
   6   2   7    5.70    9.60
   6   2   7   -8.10    9.60
  -7  -2  -7   58.69   19.00
  -7   2   7   27.00   15.30
   7   2  -7   15.80   18.60
   7  -2   7   18.90   16.80
  -7  -2   7   33.00   17.90
  -7   2  -7   15.80   16.80
   7  -2  -7   25.90   19.40
   7   2   7   38.10   15.30
   0   3   7   -1.00    4.90
   0   3  -7    8.60    7.60
   0  -3  -7   -5.20    5.90
   0  -3  -7   -3.10    6.30
   0  -3   7   -1.80    4.90
   0   3  -7   -1.00    6.10
   1  -3   7   22.70    8.70
   1   3  -7   30.00   11.20
  -1  -3  -7   34.10   10.00
  -1   3   7   43.00   10.70
  -1  -3  -7   35.00   10.90
   1   3  -7   39.90    7.20
   1  -3  -7   38.70   10.40
   1  -3  -7   48.00   12.30
  -1  -3   7   32.10    9.90
  -1   3  -7   32.00   10.80
  -1  -3   7   35.10    9.10
   1   3   7   28.60    9.20
  -1   3  -7   43.70   11.30
   2  -3   7  606.34   40.90
  -2  -3  -7  548.25   39.60
   2   3  -7  569.24   41.40
   2   3  -7  619.04   35.20
  -2   3   7  588.34   39.80
  -2   3   7  620.44   33.30
   2  -3  -7  552.24   40.90
   2  -3  -7  608.14   36.40
  -2   3  -7  580.04   38.20
   2   3   7  611.74   38.90
   2   3   7  600.14   39.60
  -2  -3   7  582.64   33.30
  -2   3  -7  634.74   42.50
  -2  -3   7  567.04   40.30
  -3   3   7   23.50    8.30
   3  -3   7    6.30    9.20
  -3  -3  -7   16.10    9.50
   3   3  -7   33.10   10.00
  -3   3   7   14.20    9.50
   3   3  -7   13.40   10.10
   3   3   7    8.20    9.00
   3   3   7    4.50    7.80
  -3   3  -7   20.50    9.40
  -3  -3   7   12.60    8.20
  -3   3  -7   11.90    9.70
   3  -3  -7   23.40   10.90
   3  -3  -7   22.00    8.30
  -4   3   7  856.71   51.09
  -4  -3  -7  899.01   55.29
   4   3  -7  818.62   57.79
   4  -3   7  825.72   58.49
   4   3  -7 1019.60   54.99
   4   3   7  891.81   53.59
   4  -3  -7  864.31   57.09
   4  -3  -7  884.91   57.39
  -4  -3   7  834.72   55.29
  -4   3  -7  801.42   58.29
  -4   3  -7  847.32   50.19
   4   3   7  901.31   53.69
   5  -3   7   20.50   14.30
   5   3  -7    7.30   12.10
   5   3  -7   22.20   11.30
  -5  -3  -7   25.70   11.30
  -5   3   7    2.90   10.00
   5   3   7   18.90    9.80
   5  -3  -7    6.40   10.40
  -5  -3   7    8.10   10.90
   5  -3  -7   25.20   13.30
   5   3   7   34.20   11.80
  -5   3  -7   14.70   13.90
  -6   3   7   -0.30   11.20
   6   3  -7   20.90   14.40
  -6  -3  -7   16.10   12.10
   6  -3   7   18.00   16.30
   6   3   7   30.60   12.20
  -6  -3   7   16.50   13.90
   6  -3  -7   24.30   16.10
   6  -3  -7   20.70   16.10
  -6   3  -7   -0.20   15.70
   7   3  -7   32.20   19.20
  -7   3   7  -14.60    9.50
   7  -3   7    4.40   17.40
  -7  -3   7   20.10   15.10
   7  -3  -7   -2.30   16.50
   7  -3  -7   29.90   17.50
  -7   3  -7    6.60   17.40
   7   3   7   27.60   14.80
   0  -4   7   -5.20    6.30
   0  -4  -7   15.10    8.80
   0   4   7   -1.90    5.90
   0  -4  -7   -6.20    5.90
   0   4  -7   -6.00    6.80
   0  -4   7   -1.00    6.30
  -1   4   7  342.07   29.40
   1   4  -7  331.27   22.40
   1  -4   7  359.56   28.40
  -1  -4  -7  364.76   29.90
  -1  -4  -7  345.07   28.70
   1   4  -7  306.77   30.40
   1  -4   7  352.76   28.40
   1   4   7  327.67   28.30
   1  -4  -7  353.96   27.50
  -1   4  -7  341.57   30.90
  -1  -4   7  348.37   30.60
  -1  -4   7  394.26   25.90
   1  -4  -7  332.57   30.10
   2   4  -7  218.28   24.80
  -2  -4  -7  193.38   22.90
   2   4  -7  230.88   19.50
   2  -4   7  253.47   25.40
  -2   4   7  212.98   23.80
  -2   4  -7  174.48   23.20
   2   4   7  222.08   22.30
   2  -4  -7  187.88   24.20
   2  -4  -7  206.38   19.90
  -2   4  -7  246.08   22.60
   2   4   7  202.78   22.50
  -2  -4   7  235.88   24.30
  -3  -4  -7    2.30    8.50
   3  -4   7   -7.50    8.50
  -3   4   7   18.70   11.40
   3   4  -7   11.50   10.70
   3   4  -7   14.30    9.20
  -3   4  -7  -10.30    7.90
  -3  -4   7   -3.40    7.80
   3   4   7   -0.20    6.80
   3   4   7    4.60    7.10
   3  -4  -7    2.40    9.10
  -3   4  -7   -3.50    9.70
  -4  -4  -7    5.50    9.90
  -4   4   7   45.50   14.20
   4   4  -7    9.50   10.10
   4  -4   7   18.60   14.10
   4   4  -7    8.10   10.60
  -4   4  -7   17.20   13.70
   4   4   7   43.80   13.40
  -4  -4   7   63.59   16.10
   4   4   7   39.40   11.90
   4  -4  -7   21.80   13.30
  -5  -4  -7   67.69   16.90
   5   4  -7  130.39   21.70
   5   4  -7   96.69   22.40
   5  -4   7  110.49   24.10
  -5   4   7   84.59   19.40
   5   4   7  105.19   19.10
   5  -4  -7  137.09   26.20
  -5   4  -7  111.09   24.90
  -5  -4   7  114.19   21.90
   6   4  -7   33.00   16.20
  -6  -4  -7    9.90   12.90
   6  -4   7    3.60   15.30
   6   4  -7   23.80   15.80
   6  -4  -7    5.70   15.90
   6  -4  -7    9.30   14.40
  -6  -4   7   19.20   13.90
   6   4   7    2.40    9.80
  -6   4  -7   21.00   18.60
   0  -5  -7   -4.90    7.60
   0  -5  -7   -0.20    8.70
   0   5  -7    4.20    9.10
   0   5   7    2.50    7.80
   0  -5   7    4.30    8.40
   0  -5   7    8.60    8.40
   1  -5   7  669.73   43.30
  -1  -5  -7  627.64   41.80
   1  -5   7  602.54   41.10
  -1   5   7  427.96   39.40
   1   5  -7  561.64   44.70
  -1  -5  -7  550.24   41.60
  -1   5  -7  496.55   42.30
   1  -5  -7  597.24   39.00
   1   5   7  545.55   41.80
  -1  -5   7  607.04   43.00
   1  -5  -7  577.74   42.90
   2   5  -7  112.79   20.40
  -2  -5  -7   89.69   17.90
   2   5  -7  151.98   16.60
   2  -5   7  176.58   21.00
  -2   5   7  138.59   22.00
   2  -5   7   86.79   18.60
  -2  -5  -7  137.19   18.60
  -2  -5   7  124.89   21.30
   2   5   7  115.69   20.10
   2  -5  -7  115.29   15.60
  -2   5  -7   73.49   18.80
   2  -5  -7  114.29   22.20
   3   5  -7  -11.00    7.70
  -3  -5  -7   15.50    9.60
   3  -5   7   -1.90    9.30
   3  -5   7   13.10    9.80
  -3   5   7  -11.20    8.10
   3   5  -7    2.60    8.90
   3  -5  -7   -3.50   10.20
  -3   5  -7    8.00   11.10
   3   5   7   18.10   11.50
   3   5   7   -4.60    8.80
  -3  -5   7   19.60   12.10
  -4  -5  -7   19.90   11.70
   4   5  -7   33.50   15.30
   4   5  -7   53.09   14.60
   4  -5   7   39.10   15.60
  -4   5   7   27.50   13.50
  -4  -5   7   51.69   16.40
   4  -5  -7   42.30   17.50
  -4   5  -7   29.60   15.00
   4   5   7   18.60   12.50
   5   5  -7  103.49   24.10
   5  -5   7   24.60   16.40
   5   5  -7   96.09   20.20
  -5   5   7   59.79   18.60
  -5  -5  -7   81.09   19.40
   5   5   7   74.29   18.90
   5  -5  -7   94.09   24.30
  -5  -5   7   84.79   20.40
  -5   5  -7   51.99   22.50
  -6  -5  -7    5.40   12.10
  -6   5   7   12.70   16.40
   6   5  -7   25.10   16.90
   6  -5   7   35.80   21.40
   6   5  -7    0.10   13.80
  -6   5  -7    7.30   19.70
   6   5   7    2.30   10.40
  -6  -5   7    5.50   14.70
   6  -5  -7   -5.10   17.90
   0  -6  -7   -2.60    9.30
   0  -6  -7    2.40    9.10
   0   6  -7    1.30   10.60
   0  -6   7   -9.60    9.60
   0  -6   7    0.20    9.20
   0   6   7    4.40    9.30
  -1  -6  -7   74.09   17.00
   1   6  -7   89.09   19.90
   1  -6   7   91.59   18.60
  -1  -6  -7   96.29   19.60
   1  -6   7   94.49   19.70
  -1   6   7   86.99   19.80
  -1   6  -7  120.99   24.20
  -1  -6   7   78.49   19.00
   1  -6  -7   75.69   17.00
   1   6   7   49.30   15.60
   1  -6  -7   25.50   14.30
  -2   6   7  257.67   29.30
  -2  -6  -7  179.68   24.70
   2  -6   7  178.38   23.60
  -2  -6  -7  219.38   24.70
   2   6  -7  201.48   27.30
   2  -6   7  210.28   25.80
  -2  -6   7  208.88   26.10
   2  -6  -7  183.88   23.60
   2   6   7  164.78   24.00
  -2   6  -7  199.58   26.90
   2  -6  -7  146.99   26.00
   3   6  -7   -2.20    9.60
  -3  -6  -7   -0.60   11.60
   3  -6   7    5.30    9.90
   3   6  -7   12.00   11.60
  -3   6   7   -3.00    9.60
   3  -6   7   13.10   13.00
  -3   6  -7   -5.60   11.10
   3   6   7  -19.50   11.00
   3   6   7    1.20   10.90
   3  -6  -7    8.30   13.80
  -3  -6   7  -12.40    9.10
   4  -6   7  129.69   26.10
   4   6  -7  172.78   22.50
  -4  -6  -7   89.49   20.90
  -4   6   7  116.09   26.40
   4   6  -7  164.18   28.50
   4  -6  -7  145.49   29.10
   4   6   7  130.89   24.00
  -4  -6   7  127.49   25.90
  -4   6  -7  131.59   26.70
  -5   6   7   38.80   21.50
   5  -6   7   70.99   22.60
   5   6  -7   35.80   17.00
  -5  -6  -7   43.10   17.00
   5   6  -7   36.40   16.30
   5  -6  -7   41.20   21.80
   5   6   7   12.60   14.70
  -5  -6   7   41.20   17.40
  -5   6  -7   38.00   20.10
   0  -7  -7    6.30   11.70
   0  -7  -7  -18.20    9.20
   0  -7   7    7.10   11.90
   0   7   7    0.80   10.90
   0   7  -7  -12.00   11.00
   1  -7   7  140.29   24.00
   1   7  -7  126.69   26.10
   1  -7   7  160.58   23.80
  -1   7   7  150.18   27.60
  -1  -7  -7  150.08   22.60
  -1  -7  -7  140.39   23.70
   1  -7  -7  135.79   22.00
  -1  -7   7  168.68   25.20
   1  -7  -7  139.09   25.70
   1   7   7  177.18   28.50
  -1   7  -7  107.09   23.80
   2  -7   7   68.09   18.00
  -2  -7  -7   61.29   19.00
  -2   7   7   67.59   20.20
   2   7  -7   70.09   21.80
  -2  -7  -7   77.89   18.70
   2  -7   7  106.09   20.70
  -2   7  -7   74.39   21.20
   2  -7  -7   66.99   22.10
   2   7   7   28.70   15.20
  -2  -7   7   35.70   17.60
   3   7  -7    9.00   14.90
  -3   7   7   27.70   18.80
   3  -7   7   14.20   13.40
  -3  -7  -7    9.10   14.30
  -3  -7   7   12.20   14.00
   3   7   7    6.50   12.60
  -3   7  -7    2.60   15.40
   3  -7  -7   11.90   15.80
   4  -7   7  139.79   27.90
  -4  -7  -7  154.18   28.00
   4   7  -7   79.29   23.90
  -4   7   7  116.39   27.20
   4   7   7  134.09   26.70
   4  -7  -7  142.59   29.90
  -4  -7   7  139.09   27.00
  -4   7  -7  111.39   27.50
   0  -8   7   -6.00   13.50
   0   8  -7  -12.00   12.40
   0   8   7  -18.10   10.10
   0  -8  -7   -1.30   11.60
   0  -8  -7   15.90   13.70
  -1  -8  -7   69.09   19.60
   1   8  -7   78.49   24.50
   1  -8   7   60.39   20.90
  -1   8   7   91.39   26.00
  -1  -8  -7   81.19   20.30
   1  -8  -7   97.09   20.50
  -1   8  -7   53.99   20.40
   1  -8  -7   43.00   17.90
  -1  -8   7   64.99   21.20
   1   8   7   38.60   17.20
   2   8  -7   55.99   23.20
  -2  -8  -7   49.99   20.60
  -2   8   7   50.59   20.40
   2  -8   7   63.29   19.60
   2  -8   7   33.90   17.80
   2  -8  -7   62.59   20.70
  -2  -8   7   47.50   20.50
  -2   8  -7   30.30   19.20
   2   8   7   27.60   16.20
   3  -8   7   -4.90   15.10
  -3   8   7   23.80   19.70
  -3  -8  -7    1.10   17.10
   3   8  -7  -15.70   12.80
   3   8   7   -6.00   12.90
  -3   8  -7    8.90   16.10
   3  -8  -7    0.70   13.40
  -3  -8   7   13.50   15.70
   0   0  -8 6570.64  287.07
   0   0   8 6649.23  291.07
   0   0  -8 6569.84  290.67
   0   0   8 6306.97  282.57
   1   0   8    3.80    6.00
  -1   0   8    4.20    4.80
  -1   0  -8   -4.60    4.80
   1   0  -8    2.20    6.00
   1   0   8   -0.50    3.50
   1   0  -8   -1.70    5.10
   1   0  -8   -4.40    5.10
  -1   0  -8   -0.10    5.20
  -2   0  -8   90.89   15.20
   2   0   8   71.79   14.50
  -2   0  -8   96.99   12.90
   2   0   8   76.19    8.60
   2   0  -8   85.09   13.40
   2   0  -8   93.29   14.00
   2   0  -8   59.79   12.80
   2   0  -8   88.69   13.60
   3   0  -8   -7.10    5.30
   3   0  -8   -2.60    6.20
  -3   0  -8    0.70    7.00
   3   0  -8    3.00    6.40
   3   0  -8    4.30    7.70
   3   0   8   14.50    8.40
  -3   0  -8   11.00    7.20
  -4   0  -8   58.79   14.30
  -4   0   8   59.39   11.80
   4   0  -8   74.89   16.20
   4   0  -8   68.19   14.30
   4   0   8   53.59   15.30
   4   0  -8   73.79   14.30
  -4   0  -8   43.40   12.40
   5   0  -8  -10.80    8.80
   5   0   8   -2.00    9.20
  -5   0  -8   11.00    9.30
  -5   0   8    2.10   10.70
  -5   0  -8   -2.40   10.60
   6   0  -8 1128.89   72.79
  -6   0   8 1263.67   74.69
  -6   0  -8 1133.69   72.79
   6   0   8 1140.29   72.99
   7   0   8   17.20   14.50
  -7   0   8   -8.10   11.10
  -7   0  -8   -2.10   13.80
   7   0  -8   -5.40   13.60
   0   1  -8  305.17   24.30
   0   1   8  329.67   22.00
   0  -1  -8  332.67   26.50
   0   1  -8  295.07   25.10
   0  -1  -8  314.07   25.40
   0  -1  -8  307.37   20.90
   0  -1   8  319.07   24.40
   1   1  -8  240.48   17.60
   1   1  -8  233.68   20.80
  -1  -1  -8  230.68   17.60
  -1  -1  -8  248.78   22.20
   1   1  -8  223.68   22.10
   1  -1   8  191.68   20.30
  -1   1   8  236.88   18.90
   1  -1  -8  264.37   22.90
   1  -1  -8  223.58   17.80
  -1  -1   8  234.98   20.30
   1   1   8  234.28   22.20
  -1   1  -8  239.98   21.10
   1  -1  -8  262.37   21.90
   1   1   8  223.08   17.50
  -1   1  -8  209.18   20.60
   2   1  -8   63.49   11.00
  -2  -1  -8   75.09   14.70
   2   1  -8  104.89   15.00
  -2  -1  -8   92.49   11.90
   2  -1   8   73.59   14.10
   2   1  -8   54.59   12.70
   2   1   8   87.19   10.80
   2  -1  -8   63.49   13.30
   2  -1  -8   82.29   12.90
   2  -1  -8   92.79   12.80
  -2   1  -8   92.19   13.70
  -2   1  -8   82.69   14.40
   2   1   8   59.49   12.90
  -2  -1   8   86.99   14.20
   2  -1  -8   95.89   15.10
   3   1  -8  510.55   37.00
   3   1  -8  550.94   33.50
   3   1  -8  500.65   35.30
   3  -1   8  443.26   35.60
   3   1  -8  509.05   33.60
  -3  -1  -8  471.15   35.40
  -3  -1  -8  459.55   32.00
   3  -1  -8  496.25   34.80
   3  -1  -8  503.95   34.30
   3   1   8  425.86   34.70
   3  -1  -8  486.05   35.20
  -3   1  -8  436.46   34.90
  -3   1  -8  450.85   33.30
   3  -1  -8  479.85   33.40
   3   1   8  527.75   31.40
  -4  -1  -8   40.60   12.70
   4  -1   8   33.20   13.30
   4   1  -8   53.69   13.30
  -4   1   8   69.79   14.40
   4   1  -8   67.79   12.90
  -4  -1  -8   57.99   14.70
   4   1  -8   47.90   14.10
   4  -1  -8   51.89   12.10
   4  -1  -8   37.40   12.20
   4  -1  -8   79.09   15.80
   4   1   8   66.79   15.80
  -4   1  -8  103.59   19.10
   4   1   8   25.10    8.80
  -4   1  -8   44.30   11.80
  -4  -1   8   46.70   12.70
  -5  -1  -8   46.10   14.00
  -5   1   8   45.70   14.40
  -5  -1  -8   54.29   15.10
   5   1  -8   68.59   15.80
   5  -1   8   35.40   14.80
  -5   1  -8   83.69   15.40
   5   1   8   63.69   16.00
  -5   1  -8   80.29   19.10
   5  -1  -8   58.29   16.40
   5  -1  -8   62.49   15.70
  -5  -1   8   20.70   11.70
  -6   1   8  133.69   24.20
   6  -1   8  127.89   24.30
  -6  -1  -8  209.08   23.70
  -6  -1  -8  158.28   23.80
   6   1  -8  148.09   25.20
  -6  -1   8  170.88   24.40
   6  -1  -8  172.68   28.80
  -6   1  -8  123.79   25.50
   6   1   8  140.39   23.20
   7   1  -8   23.40   16.50
  -7  -1  -8   41.90   16.90
  -7   1   8   13.40   14.80
   7  -1   8   10.00   15.10
   7   1   8   10.40   15.10
   7  -1  -8   -7.00   15.20
  -7  -1   8   40.00   17.90
  -7   1  -8   25.80   16.10
   0  -2  -8  172.48   18.70
   0   2  -8  163.08   18.80
   0  -2   8  150.28   17.00
   0  -2  -8  172.78   12.20
   0   2   8  183.28   17.20
   0   2  -8  158.08   19.00
   0  -2  -8  172.98   18.90
  -1  -2  -8   41.60    7.20
  -1   2   8   43.80   10.30
  -1  -2  -8   44.80   11.80
   1   2  -8   45.00   11.90
   1   2  -8   51.99   12.40
   1   2  -8   50.39    8.00
   1  -2   8   45.60   11.50
   1  -2  -8   66.59   12.70
   1  -2  -8   58.99    8.50
  -1   2  -8   37.00   10.80
  -1   2  -8   58.09   12.90
   1  -2  -8   69.59   14.20
   1   2   8   42.10    9.60
   1   2   8   38.90   11.10
  -1  -2   8   60.49   11.10
  -2  -2  -8   70.69    9.60
   2   2  -8   57.09   13.90
  -2   2   8   83.19   10.80
   2   2  -8   81.69   11.40
   2   2  -8   79.69   15.40
   2  -2   8   76.19   15.00
  -2  -2  -8  118.99   15.60
  -2   2   8   90.69   14.70
  -2   2  -8  110.29   16.70
   2  -2  -8   91.29   16.10
   2   2   8   61.39   13.30
   2   2   8   80.39   11.90
   2  -2  -8   81.59   13.70
  -2  -2   8   51.79   10.00
  -2   2  -8   70.79   14.60
  -3   2   8 3083.79  141.89
  -3  -2  -8 3153.28  147.99
   3   2  -8 3056.89  149.79
   3   2  -8 3091.59  143.29
   3  -2   8 2964.80  149.19
  -3  -2  -8 3064.29  140.19
   3   2   8 2737.13  145.99
   3  -2  -8 3140.29  142.39
   3  -2  -8 2930.51  147.39
  -3   2  -8 3111.09  144.69
  -3   2  -8 3038.60  149.39
   3   2   8 3168.78  143.39
  -3  -2   8 3086.19  147.79
   3  -2  -8 3097.09  149.19
  -3  -2   8 3012.30  139.59
  -4  -2  -8   28.20   10.20
   4   2  -8   17.40   10.80
  -4   2   8   14.90    8.20
   4  -2   8   16.10   13.30
   4   2  -8   25.10   11.10
  -4  -2  -8   14.90   10.00
  -4  -2   8   12.20    9.20
   4  -2  -8   20.00   12.40
  -4   2  -8    9.70   10.90
   4   2   8    8.70    7.30
   4   2   8   45.30   14.10
   4  -2  -8   -0.50    8.90
  -4   2  -8    9.30    7.80
  -5   2   8   52.69   14.30
   5   2  -8   40.20   16.00
   5  -2   8   56.39   18.60
  -5  -2  -8   37.90   12.70
   5   2  -8   32.90   14.10
  -5   2  -8   30.60   14.90
   5   2   8   52.29   13.40
   5  -2  -8   48.60   15.60
   5  -2  -8   52.39   17.00
   5   2   8   65.79   16.50
  -5  -2   8   62.59   14.90
  -6   2   8   -0.30   10.50
  -6  -2  -8   41.90   14.90
   6   2  -8   43.50   16.30
   6  -2   8   12.20   15.40
   6  -2  -8   40.00   17.20
   6  -2  -8   72.19   21.00
   6   2   8   26.20   13.30
  -6   2  -8   28.00   17.90
  -6  -2   8   27.40   14.20
  -7   2   8   40.10   18.40
   7   2  -8   42.80   18.90
   7  -2   8   33.30   18.80
  -7  -2   8    9.70   14.80
  -7   2  -8   44.60   21.50
   7  -2  -8   25.40   19.40
   0   3  -8  380.16   32.10
   0   3  -8  404.96   31.00
   0  -3   8  359.56   27.30
   0  -3  -8  422.66   30.80
   0  -3  -8  325.97   29.50
   0   3   8  384.46   29.00
  -1  -3  -8   44.10   12.30
   1  -3   8   40.90   11.80
   1   3  -8   73.29   16.00
  -1  -3  -8   35.00   11.60
  -1   3   8   27.30   10.50
   1   3  -8   40.60   11.60
   1   3   8   48.30   11.30
   1  -3  -8   34.70   11.70
  -1   3  -8   49.90   11.90
  -1  -3   8   48.30   10.20
  -1   3  -8   53.19   13.20
   1  -3  -8   51.19   12.20
  -2   3   8  198.08   22.30
  -2  -3  -8  227.78   24.20
   2   3  -8  245.68   19.50
   2  -3   8  265.87   25.50
   2   3  -8  228.08   25.10
  -2   3  -8  238.28   23.00
  -2   3  -8  188.68   23.20
   2  -3  -8  268.07   22.40
   2   3   8  216.28   21.40
  -2  -3   8  227.48   24.20
   2  -3  -8  202.98   24.20
  -2  -3   8  231.18   18.70
   2   3   8  264.07   24.80
   3   3  -8   19.90   11.80
  -3   3   8   62.29   15.00
  -3  -3  -8   19.10   10.70
   3   3  -8   44.90   12.10
   3  -3   8   25.30   12.20
   3  -3  -8   43.60   10.50
   3   3   8   45.10   12.90
  -3   3  -8   43.00   14.60
   3  -3  -8   35.40   13.00
   3   3   8   53.29   12.90
  -3   3  -8   32.50   11.60
  -3  -3   8   20.00   10.10
  -4  -3  -8   71.59   16.00
   4   3  -8   98.29   17.70
  -4   3   8   98.69   15.00
  -4   3   8   77.69   17.60
   4   3  -8   53.39   15.90
   4  -3   8  105.09   20.60
  -4  -3   8   92.09   19.00
   4   3   8   85.19   16.80
  -4   3  -8  108.59   18.40
   4  -3  -8   66.39   18.20
  -4   3  -8   72.29   19.30
   4   3   8  110.29   18.20
   5  -3   8   21.50   15.10
   5   3  -8   23.80   12.80
   5   3  -8   29.40   16.00
  -5  -3  -8   40.90   13.80
  -5   3   8   26.80   12.70
   5   3   8   33.90   11.60
  -5  -3   8   33.20   13.70
   5   3   8   15.20   11.00
   5  -3  -8   47.10   17.30
   5  -3  -8   31.80   14.00
  -5   3  -8   21.30   16.50
  -6  -3  -8  162.88   24.00
   6  -3   8  196.28   33.40
   6   3  -8  140.89   29.00
   6   3  -8  177.58   26.20
  -6   3   8  216.78   27.20
   6  -3  -8  172.18   28.80
  -6   3  -8  113.09   28.20
   6   3   8  128.49   21.80
   6  -3  -8  184.38   27.00
   0  -4  -8 2104.19  106.19
   0   4  -8 1964.30  109.39
   0  -4  -8 2016.70  107.79
   0  -4   8 2210.38  108.09
   0  -4   8 2170.38  103.49
   0   4   8 2023.70  106.09
  -1  -4  -8  185.38   21.00
  -1  -4  -8  122.19   19.90
  -1   4   8  128.99   20.50
   1   4  -8  100.99   21.20
   1  -4   8   98.19   17.90
   1  -4  -8  147.49   17.80
  -1   4  -8  131.79   18.40
  -1   4  -8  145.19   21.00
   1   4   8  102.49   17.50
  -1  -4   8  132.69   16.00
  -1  -4   8  189.78   22.40
   1  -4  -8  127.59   19.50
  -2  -4  -8   12.50    9.80
   2   4  -8   -5.20    7.90
   2   4  -8   25.40   11.00
   2  -4   8   20.30   11.40
  -2   4   8   23.20   11.10
   2  -4  -8   39.90   10.90
   2   4   8   13.00   10.10
  -2   4  -8   16.80   12.60
   2  -4  -8   31.90   12.80
   2   4   8   17.00    9.70
  -2  -4   8   -0.20    7.90
  -2   4  -8   33.20   12.40
  -3  -4  -8  195.48   23.80
   3   4  -8  191.28   25.90
   3   4  -8  281.57   23.80
   3  -4   8  220.28   27.00
  -3   4   8  205.58   24.80
  -3  -4   8  261.27   27.40
   3   4   8  191.98   22.50
  -3   4  -8  214.38   22.70
   3  -4  -8  175.68   24.90
  -3   4  -8  201.68   26.90
   3   4   8  259.77   25.30
   4  -4   8   25.50   13.40
   4   4  -8   63.29   15.30
  -4  -4  -8   14.20   10.80
  -4   4   8   19.70   12.60
   4   4  -8   31.90   16.20
  -4  -4   8   57.89   16.70
  -4   4  -8   29.90   16.10
  -4   4  -8   38.60   14.60
   4  -4  -8   48.60   16.50
   4   4   8   23.20   11.30
   4   4   8   31.90   13.50
  -5   4   8  146.39   24.70
   5  -4   8  120.29   26.10
   5   4  -8   85.69   20.40
   5   4  -8   84.49   23.40
  -5  -4  -8  126.99   22.50
  -5   4  -8   91.59   25.20
  -5  -4   8  127.79   24.40
   5   4   8  127.39   21.60
   5  -4  -8  138.19   27.30
  -6  -4  -8  384.96   36.90
   6  -4   8  374.56   43.30
  -6   4   8  331.37   37.20
   6   4  -8  427.96   38.70
   6   4  -8  372.06   42.40
  -6  -4   8  376.06   38.60
  -6   4  -8  343.47   44.20
   6   4   8  343.47   34.90
   6  -4  -8  424.16   42.60
   0   5   8   -7.50    7.20
   0  -5   8   24.40   12.30
   0  -5   8    7.40   10.20
   0   5  -8    8.10   11.50
   0  -5  -8   10.70   10.90
   0  -5  -8    3.70    9.10
  -1  -5  -8  131.19   19.40
   1   5  -8  140.69   26.90
   1  -5   8   81.19   18.10
  -1   5   8  134.79   22.10
  -1  -5  -8  132.69   19.70
   1  -5   8  132.39   19.90
   1  -5  -8  154.88   20.00
   1   5   8  149.79   21.00
  -1   5  -8   80.69   21.40
   1  -5  -8  146.59   21.40
  -1  -5   8  150.88   21.30
  -2  -5  -8   59.09   15.60
  -2   5   8   82.59   18.10
   2   5  -8   85.69   20.60
   2  -5   8  106.29   19.00
   2  -5   8   87.19   18.20
   2  -5  -8   79.49   19.40
  -2  -5   8   93.99   19.70
  -2   5  -8   58.39   17.80
   2   5   8   79.49   16.90
   2  -5  -8   85.99   16.10
   2   5   8   79.99   17.30
   3  -5   8   97.19   20.50
  -3  -5  -8   47.60   14.70
  -3   5   8   49.40   15.90
   3  -5   8   44.90   14.30
   3   5  -8   53.19   17.00
   3   5   8   88.69   17.90
   3   5   8   70.29   17.30
  -3   5  -8   80.09   21.70
  -3  -5   8   71.09   18.40
   3  -5  -8   30.20   16.30
   4  -5   8    7.00   13.40
  -4  -5  -8   12.90   12.20
  -4   5   8   38.00   15.70
   4   5  -8   27.50   13.80
   4   5  -8   25.00   13.10
   4   5   8   36.10   14.70
  -4   5  -8   22.90   15.60
   4   5   8   31.00   14.00
   4  -5  -8   39.30   18.80
  -4  -5   8   23.10   12.70
  -5  -5  -8   45.70   16.20
   5   5  -8   77.59   18.30
   5  -5   8   52.19   19.80
   5   5  -8   53.99   19.50
  -5   5   8   31.70   16.00
   5  -5  -8   11.60   16.80
  -5   5  -8   46.20   22.10
  -5  -5   8   41.20   17.80
   5   5   8   23.20   14.40
   0   6  -8  206.48   28.60
   0  -6  -8  189.38   25.60
   0   6   8  206.68   27.00
   0  -6   8  224.58   27.80
   0  -6  -8  227.08   25.60
   1   6  -8   41.00   16.40
   1  -6   8   54.09   15.30
   1  -6   8   37.70   13.30
  -1  -6  -8   32.40   14.20
  -1  -6  -8   15.60   10.30
  -1   6   8   56.09   16.40
   1  -6  -8    6.70   11.10
   1  -6  -8   26.10   13.10
  -1   6  -8   16.70   13.50
  -1  -6   8   52.79   16.90
   1   6   8   28.70   13.70
   2   6  -8  126.89   25.20
   2  -6   8  183.18   24.00
  -2  -6  -8  120.69   23.30
  -2  -6  -8  138.49   21.90
  -2   6   8  135.29   25.80
   2  -6   8  171.08   21.60
   2  -6  -8   68.39   19.30
  -2  -6   8  108.39   21.90
  -2   6  -8  124.49   25.20
   2   6   8  147.79   25.70
  -3   6   8  270.37   31.80
   3  -6   8  262.27   31.50
  -3  -6  -8  254.37   32.40
   3  -6   8  288.57   28.20
   3   6  -8  220.98   30.90
   3  -6  -8  242.08   33.20
   3   6   8  276.47   30.70
  -3   6  -8  260.07   33.90
   3   6   8  312.37   30.50
  -3  -6   8  274.07   31.90
   4   6  -8   13.20   13.80
   4  -6   8   41.50   18.40
  -4   6   8   10.10   12.60
  -4  -6  -8   28.00   16.70
  -4  -6   8   10.70   14.90
  -4   6  -8   25.80   17.80
   4  -6  -8   19.80   18.20
   4   6   8   14.50   12.50
   5   6  -8    5.70   14.10
  -5  -6  -8    7.00   12.30
   5  -6   8   -1.30   12.90
   5   6  -8   -8.70   14.60
  -5   6   8   17.00   19.00
   5   6   8   -4.10   11.10
   5  -6  -8    5.20   18.90
  -5  -6   8   -5.00   14.20
  -5   6  -8   12.40   14.50
   0  -7  -8   -1.10   11.80
   0   7   8    8.10   11.30
   0   7  -8  -18.50   12.00
   0  -7  -8    1.80   10.50
   0  -7   8    3.90   13.00
   1  -7   8   58.99   18.20
  -1  -7  -8   24.80   14.00
   1  -7   8   69.69   20.00
   1   7  -8   48.80   19.20
  -1   7   8   41.50   18.30
  -1  -7  -8   38.80   17.40
   1   7   8   62.29   19.40
   1  -7  -8   30.30   14.40
   1  -7  -8   34.10   14.20
  -1  -7   8   51.39   18.40
  -1   7  -8   24.30   16.10
   2  -7   8   32.50   16.00
  -2  -7  -8   41.90   19.30
   2   7  -8   45.40   18.60
   2  -7   8   19.00   14.70
  -2   7   8   27.80   15.30
  -2  -7  -8   34.30   15.00
  -2  -7   8   44.90   19.00
   2  -7  -8   35.90   18.30
  -2   7  -8   39.20   17.40
   2   7   8   39.10   18.00
  -3  -7  -8   20.80   16.50
   3   7  -8   26.90   17.50
  -3   7   8   54.89   18.30
   3  -7   8   32.00   16.00
   3  -7  -8   20.90   17.80
  -3   7  -8   -0.10   14.10
  -3  -7   8   15.40   15.90
   3   7   8   11.80   14.40
   4  -7   8   28.90   17.20
  -4  -7  -8   31.20   16.70
   4   7  -8   24.10   17.90
  -4   7   8    1.10   19.00
  -4   7  -8   23.70   17.50
   4  -7  -8   19.90   16.30
  -4  -7   8   11.30   14.40
   4   7   8   25.30   15.80
   0  -8  -8   15.90   15.50
   0  -8   8   12.00   17.50
   0   8   8   40.40   18.90
   0  -8  -8   52.89   19.20
   0   8  -8   49.30   22.10
  -1  -8  -8   47.30   21.60
  -1  -8  -8   34.20   17.70
  -1   8   8   42.50   18.70
   1  -8   8   48.60   18.30
   1   8  -8   41.10   20.90
   1  -8  -8   37.90   17.10
   1   8   8   44.60   20.00
  -1  -8   8   46.90   23.30
  -1   8  -8   54.59   21.30
  -2   8   8   25.70   17.80
  -2  -8  -8   19.60   17.70
   2  -8   8   31.70   15.80
   2  -8   8   61.59   21.70
   2   8  -8    3.10   14.80
  -2   8  -8   49.00   21.00
  -2  -8   8   27.50   20.90
   2  -8  -8   22.80   20.40
   2   8   8   26.40   17.40
   0   0  -9   -3.00    5.30
   0   0  -9   -1.70    5.00
   0   0   9  -12.70    5.20
   0   0   9    2.10    3.60
   1   0   9   -0.60    4.50
  -1   0  -9   -0.70    5.90
   1   0  -9   -4.20    5.40
  -1   0   9    3.90    4.70
   1   0   9   10.10    7.40
  -1   0  -9   -0.70    5.70
  -1   0   9   -1.60    6.40
   1   0  -9   11.70    7.10
   2   0  -9  208.58   19.30
   2   0  -9  200.68   19.80
   2   0  -9  212.58   22.10
  -2   0  -9  186.48   20.30
   2   0   9  153.08   20.60
   2   0  -9  186.18   20.30
  -2   0  -9  168.98   18.10
  -3   0  -9    0.80    7.40
  -3   0  -9   13.00    8.60
   3   0  -9   11.70    9.20
   3   0  -9    0.10    6.80
   3   0   9   -1.20    6.80
   3   0  -9    5.10    8.30
   3   0  -9    9.40    8.70
   4   0   9   51.59   14.90
  -4   0   9   59.69   12.80
   4   0  -9   38.30   12.90
   4   0  -9   68.29   15.30
  -4   0  -9   28.10   11.40
   4   0  -9   75.29   15.90
  -4   0  -9   40.90   14.10
  -5   0   9   -4.60    9.40
   5   0  -9    2.60   10.20
  -5   0  -9   -0.60    9.70
   5   0   9    6.30   10.10
  -5   0  -9    7.00   11.30
  -6   0  -9   79.59   20.80
   6   0   9   52.09   17.20
   6   0  -9   37.20   15.40
  -6   0   9   54.09   16.60
   0   1  -9   -6.50    5.70
   0  -1   9   -2.40    5.80
   0  -1  -9    0.50    5.90
   0   1   9   -2.30    4.00
   0   1  -9    4.00    7.10
   0  -1  -9    5.30    5.00
   0   1   9   -8.90    5.10
   1   1  -9  383.96   29.00
  -1  -1  -9  344.07   29.90
   1   1  -9  396.96   25.40
  -1   1   9  385.96   27.30
   1   1  -9  371.26   31.20
   1  -1   9  379.96   30.10
  -1  -1  -9  412.16   25.80
   1  -1  -9  349.17   28.90
   1  -1  -9  387.16   30.80
  -1   1  -9  329.17   28.70
   1   1   9  408.46   25.70
   1  -1  -9  437.36   27.00
  -1   1  -9  400.06   29.50
   1   1   9  353.16   30.80
  -1  -1   9  417.96   29.50
   2   1  -9   50.49   12.20
   2   1  -9   46.30   12.50
  -2  -1  -9   66.59   11.60
  -2  -1  -9   57.39   13.60
   2   1  -9   35.90    9.70
   2  -1   9   45.50   12.30
  -2   1   9   74.29   13.40
   2  -1  -9   31.60   11.20
   2   1   9   47.60   12.80
   2  -1  -9   53.99   11.50
  -2   1  -9   58.89   13.30
   2  -1  -9   41.50   11.60
  -2   1  -9   60.79   12.80
  -2  -1   9   48.50   12.20
   2   1   9   47.20    9.40
   3   1  -9   31.10   12.20
   3   1  -9   20.10   11.00
   3   1  -9   32.70   10.40
  -3  -1  -9   11.70    9.10
  -3  -1  -9   30.40    9.70
   3   1  -9   26.30   10.20
   3  -1   9   10.80    8.20
  -3   1  -9   16.70    9.40
  -3   1  -9   27.60   11.50
   3   1   9   20.80   11.10
   3  -1  -9   42.80   12.90
   3  -1  -9   20.20    9.80
   3  -1  -9   35.80   11.20
   3  -1  -9   11.00   10.50
  -4  -1  -9   88.39   16.30
   4   1  -9   94.69   19.70
   4  -1   9  103.89   20.50
  -4   1   9   93.99   17.60
  -4  -1  -9  113.29   17.20
   4   1  -9  128.39   19.80
  -4  -1   9   82.59   16.90
   4  -1  -9  148.59   28.80
   4  -1  -9   97.79   18.40
  -4   1  -9   95.99   16.90
   4   1   9  105.89   19.90
  -4   1  -9   87.79   18.60
   4  -1  -9  103.29   18.80
   5  -1   9   71.89   19.90
  -5  -1  -9   99.99   19.70
  -5   1   9   54.69   15.20
   5   1  -9   82.09   20.00
   5   1  -9   82.59   19.00
  -5  -1  -9   91.19   18.80
  -5   1  -9   65.79   18.40
   5   1   9   50.09   16.30
  -5   1  -9   62.69   14.90
   5  -1  -9   49.60   16.70
   5  -1  -9   82.29   18.10
  -6   1   9   39.80   14.80
   6  -1   9   27.30   16.60
   6   1  -9   12.40   13.80
  -6  -1  -9   37.50   15.50
  -6  -1  -9   10.90   13.20
  -6   1  -9   13.30   15.30
   6  -1  -9   35.90   15.70
  -6  -1   9   30.10   15.70
   6   1   9    6.40   13.50
   0  -2  -9   10.50    8.70
   0  -2   9   12.90    7.80
   0   2   9    3.10    5.70
   0   2  -9   -4.40    6.50
   0   2  -9    1.80    6.60
   0  -2  -9   -3.40    6.60
  -1  -2  -9   59.39   13.80
   1   2  -9   96.29   17.20
  -1   2   9   81.99   13.50
   1  -2   9   68.39   13.90
   1   2  -9   59.09   14.70
  -1  -2   9   59.09   12.10
   1  -2  -9   70.39   13.80
   1  -2  -9   92.89   17.60
   1   2   9   65.09   13.70
   1   2   9   83.89   13.60
  -1   2  -9   82.69   15.40
  -1   2  -9   62.69   14.00
   2   2  -9  138.39   18.90
   2   2  -9   83.09   16.60
  -2  -2  -9  119.09   19.10
  -2   2   9  138.69   16.60
   2   2  -9  130.89   14.50
  -2   2   9  120.69   13.20
   2  -2   9  140.89   18.10
   2   2   9   99.89   13.90
  -2  -2   9  105.29   13.10
   2   2   9   95.29   17.50
   2  -2  -9   46.40   13.60
   2  -2  -9  144.89   16.70
  -2   2  -9   81.39   16.10
  -2   2  -9  120.59   17.70
   3  -2   9   43.80   14.20
  -3  -2  -9   56.19   14.90
  -3   2   9   67.39   12.00
  -3   2   9   59.39   13.90
   3   2  -9   60.79   12.20
   3   2  -9   63.79   16.00
  -3  -2   9   41.10   11.60
   3  -2  -9   52.89   12.90
  -3   2  -9   71.19   16.60
   3  -2  -9   28.60   12.10
  -3   2  -9   61.19   13.40
  -3  -2   9   35.20   10.60
   3   2   9   47.20   14.50
   3   2   9   47.90   11.70
   4   2  -9   93.59   17.20
   4  -2   9   51.59   16.40
  -4  -2  -9  109.59   19.20
   4   2  -9   69.79   17.30
  -4   2   9  107.39   16.00
  -4   2  -9   59.09   18.50
   4  -2  -9  106.89   19.90
   4   2   9   83.29   14.90
   4   2   9  103.49   20.20
  -4  -2   9  117.89   19.80
   4  -2  -9   78.49   18.20
  -4   2  -9  111.29   16.70
  -5  -2  -9   85.99   18.90
   5   2  -9   91.89   22.10
   5  -2   9   77.89   20.40
   5   2  -9   33.90   14.40
  -5   2   9   66.99   16.30
   5  -2  -9   78.49   20.00
   5  -2  -9   33.00   15.40
   5   2   9   58.29   16.80
  -5   2  -9   77.49   21.00
  -5  -2   9   39.40   13.60
  -6  -2  -9   -9.60   11.10
   6  -2   9   12.50   15.80
   6   2  -9   38.00   15.80
  -6   2   9    2.10   10.70
   6  -2  -9    3.50   14.40
   6  -2  -9   -3.80   13.60
  -6   2  -9   -2.40   13.60
   6   2   9   -3.30   12.20
  -6  -2   9   12.20   11.40
   0   3  -9    1.00    7.10
   0   3  -9   -2.00    7.70
   0   3   9    1.30    6.50
   0  -3   9    2.80    7.50
   0  -3  -9   -2.90    8.50
   0  -3  -9   -1.60    7.30
  -1  -3  -9   10.00    8.00
  -1   3   9    1.50    7.50
   1   3  -9    6.90    9.90
   1   3  -9    6.30    8.90
   1  -3   9    9.60    8.30
  -1  -3  -9   13.30   10.40
   1  -3  -9   13.80    9.40
  -1  -3   9   13.80    7.80
  -1   3  -9   14.00    9.80
   1  -3  -9    5.00    8.30
  -1   3  -9    8.80    7.70
   1   3   9   13.30    8.40
   2  -3   9  295.97   27.70
   2   3  -9  241.58   27.40
  -2  -3  -9  288.37   28.00
  -2   3   9  323.37   28.80
  -2  -3   9  296.47   23.00
   2  -3  -9  327.97   26.20
  -2   3  -9  297.27   29.30
   2   3   9  292.17   28.40
  -2  -3   9  230.98   25.80
   2   3   9  300.57   25.80
   2  -3  -9  251.07   27.20
  -2   3  -9  291.27   26.70
   3   3  -9    0.10    9.10
   3   3  -9   18.50    8.80
  -3  -3  -9   10.40   10.70
  -3   3   9   22.60   10.10
   3  -3   9   -7.40    8.20
  -3   3  -9   13.90   11.70
  -3  -3   9    1.00    8.70
   3   3   9    9.70    8.80
   3  -3  -9   12.70    8.30
  -3   3  -9   -0.40    8.90
   3  -3  -9   19.30   11.40
   3   3   9    7.80   10.30
   4   3  -9  436.36   32.90
  -4  -3  -9  365.96   33.20
   4   3  -9  328.37   34.80
   4  -3   9  293.17   33.60
  -4   3   9  363.36   33.70
  -4  -3   9  354.16   33.60
   4  -3  -9  347.77   34.70
   4   3   9  369.46   32.90
  -4   3  -9  299.27   34.70
  -4   3  -9  400.66   32.00
   4   3   9  403.36   31.90
   5   3  -9   51.39   16.00
  -5  -3  -9   32.10   13.00
   5   3  -9   53.59   20.20
   5  -3   9   23.40   17.90
   5   3   9   38.00   12.60
  -5  -3   9   15.80   12.20
   5   3   9   16.70   11.50
   5  -3  -9   43.90   16.60
   5  -3  -9   20.90   15.60
  -5   3  -9   15.40   17.10
  -6  -3  -9   34.30   14.60
   6   3  -9   27.00   15.60
   6   3  -9   22.50   18.80
   6  -3   9   20.40   19.00
   6  -3  -9   24.60   16.60
  -6   3  -9   10.70   17.70
   6  -3  -9   20.40   16.90
   0   4  -9   13.50   11.90
   0  -4  -9    5.40    9.40
   0  -4  -9    4.00    9.20
   0   4   9   -0.60    6.30
   0  -4   9  -11.30    7.20
   0  -4   9   -1.40    8.40
   1  -4   9  357.46   29.90
  -1   4   9  333.37   30.60
   1   4  -9  322.27   33.90
  -1  -4  -9  304.27   30.20
  -1  -4  -9  311.87   30.80
  -1   4  -9  334.07   33.40
  -1   4  -9  378.06   32.00
  -1  -4   9  337.77   31.90
   1   4   9  346.97   30.40
   1  -4  -9  320.77   29.30
  -1  -4   9  342.17   27.10
   1  -4  -9  371.46   33.10
   2   4  -9   49.40   16.60
   2  -4   9   44.60   14.50
  -2  -4  -9   41.50   14.70
  -2   4   9   20.80   11.10
  -2  -4   9   33.40   12.50
   2  -4  -9   81.29   14.80
   2  -4  -9   25.80   13.30
  -2   4  -9   18.30   12.80
   2   4   9   45.80   14.80
  -2   4  -9   33.10   11.80
   2   4   9   31.20   11.30
  -3  -4  -9   -1.40    8.70
  -3   4   9   -4.70    9.40
   3  -4   9   -5.80    8.50
   3   4  -9    1.90   11.00
  -3   4  -9   10.00    8.70
   3   4   9   20.20   11.20
   3   4   9   12.90   10.00
  -3   4  -9   16.70   12.80
   3  -4  -9  -15.50    9.30
  -3  -4   9    7.70   11.50
   4   4  -9  -11.50   11.30
   4  -4   9   -6.70   10.40
  -4   4   9    6.70    9.70
   4   4  -9    5.90   11.50
  -4  -4  -9    3.00   11.20
   4  -4  -9   12.80   13.40
  -4  -4   9    0.30   10.90
  -4   4  -9   10.70   12.90
   4   4   9   -7.90   10.20
   4   4   9   -4.10    7.60
  -4   4  -9   16.10    9.70
   5   4  -9  130.39   22.60
   5   4  -9  107.29   24.80
  -5   4   9  140.19   25.20
   5  -4   9   59.09   21.10
  -5  -4  -9   92.59   21.80
  -5  -4   9  106.89   21.30
   5  -4  -9   77.29   22.80
   5   4   9  118.69   26.00
  -5   4  -9   90.69   25.80
   5   4   9  101.39   20.20
   6  -4   9    7.30   17.30
  -6   4   9   23.20   15.10
  -6  -4  -9   13.60   14.40
   6   4  -9   18.80   16.40
   6   4   9   21.80   15.90
  -6  -4   9   24.60   25.90
   6  -4  -9   39.50   20.00
  -6   4  -9   34.10   22.70
   0   5   9   -5.70    7.70
   0  -5   9    7.60    9.90
   0  -5  -9    3.00   10.10
   0  -5   9   -3.50    9.00
   0   5  -9    9.00   13.10
   0  -5  -9    0.00   10.30
   1  -5   9  295.87   28.70
   1  -5   9  309.47   30.30
   1   5  -9  248.18   31.90
  -1  -5  -9  214.18   25.70
  -1   5   9  238.48   28.20
  -1  -5  -9  280.17   29.40
  -1   5  -9  261.97   30.80
   1  -5  -9  259.37   29.10
   1  -5  -9  275.47   26.50
  -1  -5   9  299.57   31.20
   1   5   9  279.17   29.20
   2   5  -9  124.19   25.50
  -2  -5  -9  131.39   22.60
   2  -5   9  123.09   23.10
  -2   5   9  163.18   24.00
   2  -5   9  150.78   23.80
  -2   5  -9  143.99   26.00
   2   5   9  129.49   22.50
  -2  -5   9  128.79   23.10
   2   5   9  147.89   23.70
   2  -5  -9  161.18   24.40
   2  -5  -9  122.19   19.60
   3  -5   9   -0.40   10.60
   3   5  -9    6.10   12.80
  -3   5   9    8.60   10.00
  -3  -5  -9   10.60   10.20
   3  -5   9   22.90   13.90
  -3   5  -9   -2.10   13.60
  -3  -5   9   -2.10    9.30
   3   5   9   -1.00   10.90
   3   5   9    9.60   10.20
   3  -5  -9   21.10   15.80
  -4   5   9   22.90   15.80
  -4  -5  -9   54.99   17.20
   4   5  -9   16.90   15.60
   4  -5   9   22.90   16.30
  -4   5  -9   30.90   19.40
   4  -5  -9   40.90   19.00
   4   5   9   45.50   16.60
  -4  -5   9   63.59   18.60
   4   5   9   70.09   17.90
   5  -5   9   44.10   18.50
  -5  -5  -9   41.40   16.00
  -5   5   9   47.50   17.20
   5   5  -9   38.10   19.70
  -5  -5   9   55.19   21.40
   5  -5  -9   75.29   25.30
  -5   5  -9   44.20   23.40
   5   5   9   44.80   17.90
   0   6   9    0.60    9.20
   0  -6  -9   -4.20   10.50
   0  -6  -9   -6.40   10.70
   0  -6   9    5.60   10.80
   0   6  -9   -6.30   11.30
   1   6  -9   40.50   16.70
  -1  -6  -9   21.80   13.50
  -1   6   9   48.40   17.10
  -1  -6  -9   55.49   17.10
   1  -6   9   48.20   15.90
   1  -6   9   26.10   13.90
   1  -6  -9   63.49   16.60
   1  -6  -9   56.09   18.50
   1   6   9   52.49   16.90
  -1  -6   9   78.09   21.10
  -1   6  -9   42.40   17.10
  -2   6   9  188.68   31.20
  -2  -6  -9  223.48   29.30
   2   6  -9  216.98   30.00
   2  -6   9  181.78   25.70
   2  -6   9  195.98   26.10
   2   6   9  178.98   24.90
   2  -6  -9  187.38   31.20
   2   6   9  127.29   24.70
  -2   6  -9  186.78   32.00
  -2  -6   9  190.98   27.70
  -3  -6  -9   15.80   14.80
   3  -6   9   12.80   13.10
  -3   6   9   17.30   14.90
   3   6  -9    2.60   12.70
   3  -6   9   13.90   14.00
   3   6   9   13.90   12.80
   3  -6  -9   -3.20   13.10
  -3   6  -9    0.90   18.70
   3   6   9   17.10   13.00
  -3  -6   9   30.60   16.60
  -4  -6  -9  169.58   28.20
   4   6  -9  153.58   29.40
  -4   6   9  135.69   27.80
   4  -6   9  140.89   28.60
   4  -6  -9  153.38   31.10
  -4   6  -9  105.79   29.30
   4   6   9  136.99   25.00
  -4  -6   9  163.58   30.80
   0   7   9    3.50   11.80
   0  -7  -9   17.20   13.30
   0  -7  -9    1.00   10.70
   0   7  -9   -0.50   13.60
   0  -7   9  -22.20   12.60
   1   7  -9  121.79   27.50
   1  -7   9  191.28   28.10
  -1  -7  -9  147.69   26.60
  -1   7   9  186.98   31.90
  -1  -7  -9  139.09   26.00
  -1   7  -9  165.78   30.40
   1   7   9  125.19   25.40
  -1  -7   9  164.28   30.30
   1  -7  -9  167.88   29.60
   1  -7  -9  141.79   24.50
   2   7  -9   36.80   18.10
  -2  -7  -9   23.30   16.30
   2  -7   9   56.89   19.70
  -2   7   9   26.90   16.60
   2  -7   9   62.89   18.60
   2  -7  -9   40.70   17.60
  -2   7  -9   36.80   19.80
   2   7   9   58.79   20.10
  -2  -7   9   56.89   19.90
  -3  -7  -9    0.00   14.60
   3   7  -9  -12.50   13.00
   3  -7   9    4.30   14.50
  -3   7   9   16.80   15.70
  -3  -7   9    3.70   15.30
   3   7   9   -4.80   11.70
  -3   7  -9    6.50   16.30
   3  -7  -9  -20.20   14.60
   0   8   9  -17.70   12.60
   0  -8  -9   -2.80   13.50
   0   8  -9  -14.30   15.80
   0  -8  -9   12.00   15.40
   0  -8   9    3.60   15.10
   1  -8   9   80.39   23.60
  -1   8   9  119.59   27.30
   1   8  -9  100.69   27.70
  -1  -8  -9   84.59   23.80
  -1  -8  -9   88.99   22.70
  -1  -8   9   77.59   24.60
   1   8   9  114.99   25.00
  -1   8  -9   77.79   25.00
   1  -8  -9  118.09   26.20
   0   0 -10 1321.97   68.19
   0   0  10 1274.07   71.79
   0   0 -10 1230.98   71.29
   1   0 -10   -5.30    7.50
  -1   0  10    0.80    5.20
  -1   0  10   -8.70    6.70
  -1   0 -10    9.80    6.70
   1   0 -10    0.00    6.60
   1   0  10    2.30    7.90
  -1   0 -10   -5.90    6.50
   2   0 -10  541.25   41.50
   2   0 -10  555.74   39.50
   2   0 -10  654.83   43.10
  -2   0 -10  641.74   40.20
   2   0 -10  635.34   39.80
  -2   0 -10  595.04   42.80
   2   0  10  615.74   44.00
   3   0 -10   -8.50    7.50
   3   0  10    1.90    9.30
   3   0 -10   -7.90    7.50
  -3   0 -10   -3.80    7.10
   3   0 -10   -1.00    8.60
  -3   0 -10    8.60    7.90
   3   0 -10    5.30    8.40
   4   0 -10  304.47   28.90
   4   0  10  278.17   30.60
   4   0 -10  316.07   29.30
   4   0 -10  255.07   26.80
   4   0 -10  311.87   29.90
  -4   0 -10  258.77   27.90
  -4   0 -10  334.27   30.30
  -5   0 -10   -8.60    9.10
   5   0  10    6.10   12.30
   5   0 -10   -5.60   11.00
  -5   0  10   -1.90    9.90
  -5   0 -10    5.10   12.10
  -6   0  10  369.16   37.80
  -6   0 -10  395.36   39.30
   6   0 -10  395.86   39.40
   6   0  10  327.67   37.30
   0   1  10  598.44   36.00
   0   1 -10  615.14   40.30
   0  -1  10  627.94   41.40
   0   1  10  558.24   41.60
   0  -1 -10  576.14   41.50
   0  -1 -10  605.94   35.60
   0   1 -10  604.44   43.60
  -1  -1 -10   30.30   12.10
   1  -1  10   56.09   13.90
  -1   1  10   64.89   11.90
  -1  -1 -10   54.09   10.50
   1   1 -10   55.99   15.30
   1   1 -10   58.39   13.30
  -1   1 -10   96.19   16.70
   1  -1 -10   78.09   15.30
   1  -1 -10   57.19   14.90
   1   1  10   65.99   11.60
  -1   1 -10   65.99   14.80
   1   1  10   55.99   13.90
   1  -1 -10   72.69   12.40
  -1  -1  10   55.49   12.70
   2   1 -10   10.30    7.20
  -2   1  10    9.60    7.30
  -2  -1 -10   18.20   10.00
   2   1 -10   18.10    9.90
  -2  -1 -10    9.90    9.00
   2   1 -10   35.80   12.90
   2  -1  10   10.80    9.30
  -2   1 -10    2.40    7.90
   2  -1 -10   26.20   12.40
  -2   1 -10   20.40   10.40
   2  -1 -10   16.70    8.60
   2   1  10   13.10   10.30
   2  -1 -10   17.60   10.50
  -2  -1  10   19.50    9.40
   3   1 -10  825.42   52.79
   3  -1  10  592.44   49.30
   3   1 -10  799.82   48.60
  -3  -1 -10  907.61   54.99
   3   1 -10  803.12   52.69
   3  -1 -10  735.43   49.50
  -3   1 -10  846.12   51.69
   3  -1 -10  829.02   52.69
  -3  -1  10  798.12   49.10
  -3   1 -10  813.42   51.49
   3   1  10  688.83   51.79
   3  -1 -10  825.92   49.00
   3  -1 -10  844.32   51.49
  -4   1  10   25.30   11.40
   4   1 -10    8.50   10.00
   4  -1  10   10.70   11.60
   4   1 -10    6.90   10.60
  -4  -1 -10   59.09   15.70
   4  -1 -10    3.20   10.70
   4  -1 -10   14.10   11.40
  -4   1 -10   21.20   12.50
  -4  -1  10   11.40   11.10
  -4   1 -10   11.00    9.60
   4   1  10   -5.40    9.40
  -5   1  10   25.40   12.40
   5   1 -10   61.59   17.70
   5  -1  10   32.70   16.60
  -5  -1 -10   45.20   15.50
   5   1 -10   30.90   15.80
   5   1  10   49.30   17.10
  -5   1 -10   56.69   19.00
  -5   1 -10   78.59   17.10
   5  -1 -10   70.29   19.30
   5  -1 -10   45.70   15.70
   6   1 -10  141.69   25.70
  -6   1  10  218.88   27.40
  -6  -1 -10  163.48   26.30
   6  -1  10  120.99   27.10
   6   1  10  178.18   28.80
  -6   1 -10  102.39   25.10
  -6  -1  10   97.49   23.80
   6  -1 -10  198.88   31.50
   0  -2 -10   81.29   17.40
   0   2 -10  100.39   18.30
   0  -2  10   82.09   16.00
   0   2  10   63.09   12.60
   0   2 -10   79.49   17.00
   0  -2 -10   77.99   16.40
   1   2 -10  548.35   41.90
  -1  -2 -10  531.85   41.00
   1  -2  10  587.24   41.20
  -1   2  10  598.94   38.30
   1   2 -10  582.34   41.50
   1  -2 -10  624.44   43.30
  -1   2 -10  531.85   40.90
  -1  -2  10  613.24   38.80
  -1   2 -10  520.35   40.00
   1  -2 -10  566.64   39.90
   1   2  10  559.74   36.50
   1   2  10  542.95   41.90
   2  -2  10   34.60   11.80
  -2   2  10   34.30   11.80
   2   2 -10   23.80   11.70
  -2  -2 -10   39.70   12.90
   2   2 -10   46.30   14.30
   2  -2 -10   60.79   14.00
   2  -2 -10   25.80   12.00
  -2   2 -10   68.89   16.50
  -2   2 -10   20.30   11.90
  -2  -2  10   16.00    8.50
   2   2  10   17.00   10.00
   2   2  10   56.49   12.00
  -3  -2 -10  719.93   49.80
   3   2 -10  638.44   48.10
  -3   2  10  722.23   46.90
   3  -2  10  706.23   49.99
   3   2 -10  677.13   43.40
   3   2  10  725.73   49.70
   3  -2 -10  679.33   45.00
  -3   2 -10  643.94   48.40
   3  -2 -10  704.33   49.10
  -3   2 -10  709.23   47.20
  -3  -2  10  666.03   46.50
   4  -2  10   -0.80   10.10
   4   2 -10   32.30   14.50
   4   2 -10   22.60   12.00
  -4  -2 -10    5.70   11.90
   4   2  10    4.90   10.70
  -4  -2  10    6.80   10.20
  -4   2 -10   13.00   10.00
   4  -2 -10   20.60   12.40
  -4   2 -10   14.20   12.40
   4  -2 -10  -13.40    9.10
   5   2 -10  195.58   30.50
  -5  -2 -10  112.99   22.50
   5   2 -10  120.79   22.90
  -5   2  10  165.28   34.00
   5  -2  10  177.88   30.30
   5  -2 -10  133.99   25.20
  -5   2 -10  170.88   28.60
   5   2  10  115.59   22.80
   5  -2 -10  178.68   26.00
  -5  -2  10  122.59   22.90
  -6  -2 -10   24.90   13.50
   6   2 -10   18.70   14.20
   6  -2  10   19.80   20.10
  -6   2 -10   12.00   17.20
   6  -2 -10    4.50   14.80
   6   2  10   20.20   14.80
  -6  -2  10   14.90   13.30
   6  -2 -10   29.20   16.90
   0   3  10 1042.60   58.59
   0  -3  10 1012.10   58.09
   0  -3 -10 1033.30   61.49
   0   3 -10  913.21   61.09
   0  -3 -10  937.61   61.89
   0   3 -10  999.50   62.89
  -1  -3 -10   -7.60    8.20
   1   3 -10   14.90   11.50
  -1   3  10    6.10    7.50
   1   3 -10   15.90   11.60
   1  -3  10    4.10    8.10
  -1   3 -10   17.10   10.90
   1   3  10    8.40    8.10
   1   3  10   20.90   11.70
  -1  -3  10    1.90    7.70
   1  -3 -10   19.40   10.60
   1  -3 -10    7.50    9.60
  -1   3 -10    1.60    9.80
  -2  -3 -10  104.39   19.50
   2   3 -10   89.89   19.90
   2  -3  10  137.79   20.10
  -2   3  10  114.89   19.70
   2  -3 -10  155.88   20.00
   2  -3 -10  137.59   23.00
   2   3  10  138.19   18.30
  -2   3 -10   96.09   19.50
   2   3  10  145.59   21.40
  -2  -3  10   92.29   18.30
  -2   3 -10  166.68   21.30
  -2  -3  10   98.49   17.30
   3   3 -10   80.49   19.20
  -3  -3 -10   66.19   16.50
   3  -3  10   56.39   16.60
  -3   3  10   45.70   14.10
   3  -3 -10   94.49   16.30
   3   3  10   79.19   16.60
  -3   3 -10   53.19   14.40
   3   3  10   58.29   16.60
   3  -3 -10   86.29   20.10
  -3   3 -10   61.89   16.60
  -3  -3  10   71.39   15.90
   4  -3  10    8.90   11.90
  -4  -3 -10   22.60   11.80
   4   3 -10    8.40   12.20
   4   3 -10   27.70   12.30
  -4   3  10   35.60   14.40
   4   3  10   27.20   13.20
   4  -3 -10   22.60   12.70
  -4   3 -10   17.40   11.90
   4   3  10   17.90   12.40
  -4  -3  10   19.90   11.10
  -4   3 -10   38.30   16.80
  -5  -3 -10    6.80   10.70
  -5   3  10    3.10   11.30
   5  -3  10    1.20   15.70
   5   3 -10    1.50   12.50
   5   3 -10  -10.70   13.30
   5  -3 -10   -0.40   12.00
   5   3  10    6.70   12.30
  -5   3 -10   13.60   14.70
  -5  -3  10   -5.20   12.70
   6  -3  10  263.57   41.20
  -6  -3 -10  281.07   32.60
  -6   3 -10  245.38   40.20
   6  -3 -10  296.47   35.60
   0  -4 -10  257.37   29.30
   0   4 -10  343.87   32.10
   0  -4  10  310.07   30.40
   0  -4  10  330.97   28.40
   0   4  10  292.87   28.70
   0  -4 -10  350.66   31.60
   0   4 -10  359.36   34.90
  -1  -4 -10   74.59   17.60
   1   4 -10   61.69   18.50
  -1   4  10   80.59   17.30
  -1  -4 -10   82.09   18.70
   1  -4  10   60.89   15.30
  -1   4 -10   59.69   16.00
   1   4  10   76.69   16.30
  -1  -4  10   69.89   15.60
  -1  -4  10   67.49   16.70
  -1   4 -10   87.79   19.10
   1  -4 -10   71.49   17.30
   1  -4 -10   35.70   12.80
   2  -4  10  247.68   28.20
   2   4 -10  246.08   30.70
  -2   4  10  292.07   28.60
  -2  -4 -10  287.47   30.10
  -2   4 -10  260.17   27.20
   2   4  10  274.67   27.50
   2  -4 -10  290.17   27.10
   2   4  10  235.28   28.40
  -2  -4  10  260.07   29.20
   2  -4 -10  273.17   30.70
  -2   4 -10  294.57   31.80
   3   4 -10   95.69   22.10
   3  -4  10  115.39   21.40
  -3  -4 -10   78.99   18.80
  -3   4  10   90.99   19.90
   3   4  10  111.69   19.50
  -3   4 -10   72.39   19.50
   3   4  10  124.69   22.40
  -3   4 -10   86.99   17.90
  -3  -4  10   68.89   17.80
   3  -4 -10   96.79   21.70
   4   4 -10  108.29   23.90
   4  -4  10  133.09   26.60
  -4   4  10  164.08   25.90
  -4  -4 -10  107.39   22.00
   4   4  10  163.98   25.90
  -4  -4  10  117.09   22.90
   4   4  10   92.19   19.00
  -4   4 -10  118.69   28.70
   4  -4 -10  116.19   24.80
  -4   4 -10  154.18   23.10
  -5  -4 -10   36.40   15.60
   5   4 -10   54.89   20.90
  -5   4  10   69.49   19.60
   5  -4  10   65.69   22.00
   5   4  10   51.09   17.70
  -5   4 -10   88.99   25.60
   5   4  10   29.20   17.30
  -5  -4  10   59.49   19.30
   5  -4 -10   56.89   22.40
   0  -5 -10   12.60   11.70
   0  -5 -10   -3.40   10.20
   0  -5  10    4.10    9.50
   0   5  10   -8.70    8.80
   0   5 -10   -4.10   11.70
   0  -5  10   11.40   12.20
  -1  -5 -10   63.29   17.70
  -1  -5 -10   57.09   17.60
   1   5 -10   47.40   18.80
  -1   5  10   78.09   18.10
   1  -5  10   55.39   15.80
   1  -5  10   43.50   16.30
  -1  -5  10   67.39   18.90
   1   5  10   60.49   16.20
  -1   5 -10   47.00   16.60
   1  -5 -10   52.59   16.70
   1  -5 -10   57.09   16.50
   2  -5  10   47.10   16.40
   2   5 -10   30.30   16.30
   2  -5  10   43.40   16.20
  -2  -5 -10   23.60   15.80
  -2   5  10   40.20   15.20
   2  -5 -10   46.20   16.50
  -2   5 -10   44.80   16.90
   2  -5 -10   30.90   14.40
  -2  -5  10   50.19   16.50
   2   5  10   37.00   14.70
   2   5  10   21.10   12.10
   3  -5  10  311.67   31.00
  -3   5  10  360.26   35.90
   3  -5  10  336.77   35.30
   3   5 -10  268.67   35.00
  -3  -5 -10  290.87   33.10
   3   5  10  320.77   32.90
  -3   5 -10  294.77   37.20
   3  -5 -10  301.87   36.80
  -3  -5  10  407.26   38.70
   3   5  10  275.47   30.90
  -4  -5 -10   20.30   14.40
  -4   5  10   19.20   15.70
   4  -5  10   37.70   19.00
   4   5 -10   22.20   17.30
   4   5  10   22.50   14.70
  -4  -5  10   49.99   18.20
  -4   5 -10   20.10   18.30
   4  -5 -10   18.90   18.50
   4   5  10   31.40   15.30
   0   6 -10  112.59   26.80
   0  -6  10   76.59   20.10
   0   6  10   96.49   21.00
   0  -6 -10  112.39   21.70
   0  -6 -10   60.19   17.50
  -1  -6 -10  125.79   24.80
   1  -6  10   96.99   21.80
  -1  -6 -10   96.39   21.80
  -1   6  10  130.19   25.20
   1  -6  10  133.39   24.70
   1   6 -10  109.29   27.50
  -1  -6  10  158.88   27.60
   1  -6 -10  125.09   22.20
   1  -6 -10  111.89   23.50
   1   6  10  121.09   24.50
  -1   6 -10  160.78   29.70
   2  -6  10   85.99   21.30
   2   6 -10   55.89   23.30
  -2  -6 -10   70.19   20.00
  -2   6  10   76.69   20.50
   2  -6  10   84.39   21.60
  -2  -6  10   87.49   21.70
   2  -6 -10   30.90   16.90
   2   6  10   80.69   19.60
   2   6  10   53.49   17.30
  -2   6 -10   83.09   24.70
   3   6 -10   39.30   18.80
  -3   6  10   19.10   15.90
  -3  -6 -10   53.19   19.80
   3  -6  10   37.00   16.00
   3  -6  10   20.40   16.60
  -3   6 -10   -4.10   16.90
   3  -6 -10   40.50   19.90
   3   6  10   28.30   16.90
  -3  -6  10   41.00   17.40
   3   6  10   29.80   15.10
  -4  -6 -10   22.60   14.30
   4   6 -10   51.89   21.00
   4  -6  10   30.20   17.80
  -4   6  10    7.00   13.60
   4   6  10   47.00   17.80
  -4   6 -10    8.10   20.50
   4  -6 -10   16.80   20.50
  -4  -6  10   36.20   19.00
   0   7 -10   31.50   16.60
   0  -7 -10   83.69   21.80
   0  -7 -10  105.79   24.10
   0  -7  10  149.09   28.70
   0   7  10  155.68   29.90
  -1  -7 -10   15.50   13.70
   1   7 -10   16.80   16.20
   1  -7  10    6.10   15.50
  -1   7  10   19.60   15.60
  -1  -7 -10   12.80   16.40
   1   7  10   46.50   18.70
  -1   7 -10   59.69   19.80
   1  -7 -10   18.00   15.70
   1  -7 -10   17.20   14.30
  -1  -7  10   45.90   21.40
  -2  -7 -10   34.30   19.70
   2  -7  10   19.80   16.20
   2  -7  10    6.60   15.60
  -2   7  10   15.10   16.10
   2   7 -10   38.70   19.80
   2  -7 -10   40.70   20.80
  -2   7 -10   30.30   17.60
   2   7  10   35.50   17.60
  -2  -7  10   44.70   21.70
   2   7  10   27.50   16.60
   0   0  11    4.30    8.40
   0   0 -11    7.10    9.00
   0   0 -11   -5.80    7.00
  -1   0  11   -7.50    7.00
   1   0  11    3.20    8.20
   1   0 -11    3.30    8.80
  -1   0 -11   -1.70    7.70
  -1   0 -11    9.80    8.00
   1   0 -11    4.10    7.70
  -2   0  11  565.44   40.50
  -2   0  11  538.95   35.10
  -2   0 -11  500.95   39.90
   2   0  11  520.05   42.00
   2   0 -11  509.45   40.60
   2   0 -11  566.44   38.50
  -2   0 -11  509.95   36.10
  -3   0 -11    1.60    8.80
   3   0 -11   -6.50    8.00
   3   0 -11  -15.00    9.10
   3   0 -11    9.50    9.60
   3   0  11   -0.80    9.60
  -3   0 -11   -3.60    8.20
   3   0 -11   15.60    9.40
   4   0 -11  604.74   43.20
  -4   0 -11  697.03   47.60
   4   0 -11  498.25   40.80
   4   0 -11  565.44   42.90
  -4   0 -11  512.05   42.50
   4   0  11  486.25   44.40
   4   0 -11  730.43   47.00
   5   0  11   -1.50   11.90
  -5   0 -11   -3.40   11.30
   5   0 -11  -12.60   11.60
  -5   0  11   13.70   13.20
   6   0  11   -4.70   13.70
  -6   0  11    1.80   13.60
   6   0 -11   -3.10   14.40
   0   1 -11    1.10    8.40
   0  -1  11    3.40    7.70
   0   1 -11   -8.30    7.50
   0  -1 -11    0.30    8.60
   0   1  11    6.60    9.10
   1  -1  11  124.59   19.10
   1   1 -11  120.49   22.00
  -1   1  11  109.19   14.80
  -1  -1 -11  111.99   20.80
  -1   1  11  137.59   19.80
   1   1 -11  139.89   18.60
  -1   1 -11   99.59   17.40
   1  -1 -11   86.89   17.40
  -1  -1  11  134.69   18.50
   1   1  11   86.89   18.50
  -1   1 -11   88.89   17.90
   2   1 -11   70.09   15.50
  -2   1  11   43.50   11.50
   2   1 -11   20.80   12.20
   2  -1  11   41.80   13.80
  -2  -1 -11   31.50   11.70
  -2  -1  11   53.69   14.00
   2  -1 -11   35.30   13.60
  -2   1 -11   58.79   14.30
   2  -1 -11   55.09   14.90
  -2   1 -11   35.00   12.30
   2   1  11   70.19   17.10
  -3  -1 -11    8.70   10.60
   3   1 -11    2.20    9.90
   3   1 -11   18.10   12.10
  -3   1  11    0.30    6.90
   3   1 -11    6.70    8.60
   3  -1  11    2.60    9.00
   3  -1 -11   50.69   15.50
   3  -1 -11    9.90   10.60
   3   1  11   -2.80   10.00
   3  -1 -11    9.60    9.60
  -3   1 -11   10.20    9.90
  -3   1 -11    5.00    9.80
  -3  -1  11    0.10    8.80
   4   1 -11   14.90   12.10
   4  -1  11   30.40   16.30
   4   1 -11   12.70   12.00
  -4  -1 -11   15.60   13.00
  -4   1  11   20.40   12.20
  -4   1 -11   14.90   11.40
   4  -1 -11   14.80   12.30
   4  -1 -11   16.10   12.30
  -4  -1  11   12.60   11.50
  -4   1 -11   19.70   11.90
   4   1  11   -1.30   10.60
  -5  -1 -11  116.99   22.30
   5   1 -11   65.69   20.60
  -5   1  11   83.39   20.30
   5   1 -11  101.99   21.80
   5  -1  11   71.09   21.70
   5   1  11  124.29   24.80
  -5   1 -11   52.19   17.40
   5  -1 -11   79.99   20.40
   5  -1 -11   87.79   21.30
  -5   1 -11  112.19   23.20
   6  -1  11    9.30   16.20
  -6  -1 -11   -5.00   12.80
  -6   1  11   16.70   13.80
  -6   1 -11  -10.80   13.80
  -6  -1  11  -12.40   14.40
   6   1  11   -8.50   13.30
   0  -2 -11    5.10    9.90
   0   2 -11   -2.00    9.50
   0  -2  11   -4.70    7.70
   0   2  11    7.50    6.70
   0   2  11   14.90    9.10
   0   2 -11   -4.20    8.80
  -1   2  11  533.05   38.10
   1   2 -11  574.04   44.30
  -1  -2 -11  592.04   44.30
   1   2 -11  574.24   42.20
   1  -2  11  606.04   43.10
  -1   2 -11  567.64   44.00
  -1  -2  11  622.84   40.80
   1   2  11  544.65   37.40
   1  -2 -11  548.95   43.80
  -1   2 -11  587.24   42.90
   1   2  11  538.35   43.50
   1  -2 -11  596.74   42.50
   2   2 -11   36.60   12.70
   2  -2  11   44.90   14.00
  -2   2  11   46.30   14.20
   2   2 -11   79.99   18.10
  -2  -2 -11   72.49   17.50
   2   2  11   63.59   16.90
   2  -2 -11   27.70   13.90
  -2   2 -11   61.29   15.70
   2  -2 -11   88.49   17.60
  -2   2 -11   79.19   17.90
  -2  -2  11   73.69   14.50
  -3   2  11    2.00    7.60
   3   2 -11    2.30    9.70
  -3  -2 -11   -3.00    9.10
   3  -2  11   10.40   11.20
   3  -2 -11    1.60    9.70
  -3   2 -11   -6.70    9.60
  -3   2 -11    5.20   10.40
   3  -2 -11    8.50   10.90
  -3  -2  11    5.60    8.60
   3   2  11   -1.70   10.40
   4  -2  11   98.39   22.30
  -4  -2 -11   68.49   16.60
   4   2 -11  107.29   29.30
  -4   2  11   35.00   13.80
   4   2 -11   85.99   20.50
  -4  -2  11   43.80   15.40
   4   2  11   35.00   15.70
  -4   2 -11   83.89   20.60
   4  -2 -11   55.69   17.30
  -4   2 -11   92.79   19.40
   5   2 -11  160.48   26.20
  -5  -2 -11   98.19   22.90
   5   2 -11  122.99   26.60
   5  -2  11   77.89   23.30
  -5   2 -11  129.79   26.50
  -5   2 -11  169.98   33.90
  -5  -2  11  140.49   24.00
   5  -2 -11  143.49   25.20
   5  -2 -11  141.79   25.90
   5   2  11  128.39   23.70
   0  -3 -11    0.00    9.90
   0   3 -11   -5.40    8.20
   0  -3  11   -7.70    7.50
   0   3  11    4.30    7.50
   0  -3 -11    8.70   12.00
   0   3 -11    5.90   10.30
  -1   3  11   22.40   10.10
   1  -3  11   18.90   11.00
   1   3 -11   24.30   12.70
   1   3 -11   11.90   11.50
  -1  -3 -11   12.60   11.10
   1  -3 -11   11.00   11.80
   1   3  11   15.10    9.50
   1  -3 -11   31.10   13.50
  -1   3 -11   20.60   11.20
  -1   3 -11    7.70    9.80
   1   3  11   32.90   13.30
  -1  -3  11   21.30    9.90
   2   3 -11  172.48   25.40
   2  -3  11  111.19   20.60
  -2   3  11  138.49   19.50
  -2  -3 -11  126.19   24.50
  -2   3 -11  122.29   22.50
   2   3  11  151.58   20.20
   2  -3 -11  128.89   23.50
  -2   3 -11  148.39   23.20
   2  -3 -11  147.09   20.80
   2   3  11   94.19   20.30
  -2  -3  11  145.09   22.90
   3  -3  11   -1.50   10.40
  -3  -3 -11   -4.80    9.90
   3   3 -11   -5.90   11.10
  -3   3  11   -2.70    8.80
  -3   3 -11    5.90   11.00
  -3   3 -11    8.10   12.10
   3   3  11    2.20   11.50
  -3  -3  11   17.10   11.30
   3  -3 -11  -16.60    8.90
   3  -3 -11   -0.90   15.40
   4  -3  11   66.59   20.00
  -4   3  11   48.20   15.60
   4   3 -11   49.30   19.30
  -4  -3 -11   53.99   17.90
   4   3  11   47.70   17.60
   4  -3 -11   57.09   17.00
  -4   3 -11   42.00   16.00
  -4  -3  11   80.89   18.70
  -4   3 -11   34.60   16.80
   5  -3  11   13.90   18.10
  -5  -3 -11   -2.50   13.80
  -5   3  11   -3.30   11.30
   5   3 -11   -6.20   15.60
   5  -3 -11  -13.80   12.60
   5   3  11   -9.60   13.00
  -5  -3  11    8.70   13.80
  -5   3 -11    4.30   15.40
   0  -4 -11   -5.50    9.20
   0  -4 -11   10.90   11.30
   0   4 -11   -0.10    9.90
   0  -4  11   -0.20    8.10
   0   4  11   -2.90    8.20
   0   4 -11  -11.40   10.00
  -1  -4 -11  178.08   25.60
   1   4 -11  205.58   29.20
  -1   4  11  207.18   25.40
   1  -4  11  211.98   24.50
   1  -4 -11  210.28   27.80
   1  -4 -11  218.78   25.80
   1   4  11  200.28   26.40
   1   4  11  178.38   23.40
  -1   4 -11  193.78   26.50
  -1  -4  11  181.08   24.40
  -1   4 -11  223.08   29.70
  -1  -4  11  203.48   32.80
  -2  -4 -11  146.99   24.80
   2   4 -11  162.08   27.40
  -2   4  11  146.89   24.10
   2  -4  11  145.59   24.60
   2  -4 -11  148.19   23.50
  -2  -4  11  113.99   22.50
  -2   4 -11  152.88   21.80
   2   4  11  101.89   21.70
   2   4  11  149.88   22.00
   2  -4 -11  138.89   25.20
  -2   4 -11  179.68   26.50
  -3  -4 -11    4.30   11.20
  -3   4  11    6.20   11.40
   3  -4  11   -2.20    9.90
   3   4 -11   -3.70   13.10
  -3   4 -11   -2.70    9.50
   3   4  11    4.40   12.50
   3  -4 -11   13.90   14.30
  -3  -4  11  -11.10    8.50
  -3   4 -11    7.90   15.10
   3   4  11    9.30   10.60
   4  -4  11  111.89   25.60
   4   4 -11  156.88   29.00
  -4  -4 -11  164.58   26.60
  -4   4  11  166.98   28.30
  -4   4 -11  147.09   29.60
  -4   4 -11  148.99   24.00
  -4  -4  11  176.58   29.10
   4   4  11  154.58   27.80
   4  -4 -11  157.88   31.30
   5  -4  11   73.29   22.00
   5   4 -11   25.80   19.40
  -5   4  11   54.19   19.00
  -5  -4 -11   64.49   19.60
  -5  -4  11   62.39   20.70
   5  -4 -11   93.79   25.30
  -5   4 -11   22.70   22.60
   5   4  11   43.00   17.20
   0  -5 -11   -8.50   10.80
   0  -5  11   -6.20   10.10
   0   5  11   -1.40    9.70
   0  -5  11   -3.50   13.30
   0  -5 -11    3.60   12.20
   0   5 -11   -3.50   12.70
  -1  -5 -11   69.49   18.20
   1   5 -11   54.89   20.80
  -1   5  11    5.30   10.70
   1  -5  11   36.60   15.20
   1  -5  11   28.90   14.80
  -1  -5 -11   30.60   16.60
  -1   5 -11   39.00   18.20
   1  -5 -11   25.90   14.20
   1   5  11   20.00   12.40
  -1  -5  11    7.80   13.20
   1  -5 -11   57.39   16.70
  -2  -5 -11   26.50   16.70
   2  -5  11   35.00   15.00
   2  -5  11    0.40   12.20
   2   5 -11   24.20   17.40
  -2   5  11   43.50   15.60
  -2   5 -11   11.60   17.10
   2   5  11   22.40   13.80
   2  -5 -11    7.70   14.50
  -2  -5  11   24.30   13.00
   2  -5 -11   63.29   17.00
   2   5  11   28.20   15.70
   3  -5  11   11.40   15.10
   3   5 -11   11.30   16.30
  -3   5  11   36.30   16.00
   3  -5  11    7.90   11.90
  -3  -5 -11   10.60   12.60
  -3   5 -11   -9.00   14.10
   3  -5 -11   22.10   17.30
   3   5  11   15.80   13.10
  -3  -5  11    6.30   14.50
   3   5  11    3.90   12.20
  -4  -5 -11   70.59   19.60
   4  -5  11   59.79   20.80
  -4   5  11   95.59   23.10
   4   5 -11   53.89   23.00
  -4   5 -11   60.09   24.10
   4   5  11   47.70   18.30
  -4  -5  11   47.60   19.30
   4   5  11   87.09   22.20
   4  -5 -11   55.29   20.70
   0   6  11  -25.70    9.00
   0  -6  11   -3.80   13.10
   0  -6 -11    2.30   13.70
   0   6 -11   11.20   17.20
   0  -6 -11   -2.10   12.00
  -1   6  11   28.40   15.70
  -1  -6 -11   40.30   18.00
   1   6 -11   10.80   16.90
  -1  -6 -11   54.19   18.90
   1  -6  11   43.40   19.50
   1  -6  11   53.89   18.00
   1  -6 -11   27.60   16.60
  -1   6 -11   74.39   24.00
   1  -6 -11   22.90   15.80
  -1  -6  11   23.50   16.50
   1   6  11   42.60   16.50
   2  -6  11  111.89   23.90
   2  -6  11   70.39   21.50
  -2   6  11   88.99   23.20
  -2  -6 -11  141.19   27.70
   2   6 -11   69.99   25.10
  -2  -6  11  116.29   26.20
   2   6  11   97.39   22.00
  -2   6 -11  121.99   29.60
   2  -6 -11  107.49   25.30
   2   6  11  107.49   23.90
  -3   6  11   15.80   14.00
  -3  -6 -11    1.50   16.20
   3   6 -11   23.10   20.30
   3  -6  11    0.70   13.70
   3  -6  11   -6.30   13.20
  -3  -6  11   -9.50   13.50
  -3   6 -11    7.80   17.60
   3   6  11   -5.70   11.90
   3   6  11    4.40   13.90
   3  -6 -11  -27.10   15.10
   0   7 -11    7.90   16.30
   0  -7  11    2.70   18.00
   0   7  11  -15.80   12.00
   0  -7 -11   -7.60   13.60
   0  -7 -11    5.60   15.00
  -1  -7 -11   30.20   19.00
  -1   7  11   59.89   21.10
   1  -7  11   61.49   22.20
   1   7 -11   83.79   25.20
  -1  -7 -11   90.09   24.70
  -1  -7  11  109.59   28.40
  -1   7 -11  140.49   33.00
   1   7  11   76.49   22.50
   1  -7 -11   84.19   22.20
   1  -7 -11  114.09   27.70
   0   0  12   18.60   11.20
   0   0 -12   22.90   10.70
   0   0 -12   16.20   11.90
   1   0 -12   -8.30    8.80
  -1   0  12    0.00    8.90
  -1   0 -12   -1.40    8.00
   1   0 -12    3.60    9.30
   1   0  12    7.70    9.10
  -2   0 -12  303.17   30.50
   2   0 -12  276.57   27.20
   2   0  12  260.77   30.80
   2   0 -12  316.27   31.30
  -2   0  12  317.27   30.60
   3   0  12    2.40   12.10
   3   0 -12   -7.70    9.50
  -3   0 -12   -0.50    9.30
   3   0 -12   -6.80   11.00
   4   0 -12   96.29   20.80
   4   0 -12  131.49   23.00
   4   0 -12  143.79   25.10
  -4   0 -12  158.68   26.20
   4   0 -12  120.39   21.90
   4   0  12  137.19   25.60
  -5   0  12    6.50   13.40
   5   0 -12   -0.20   13.20
   5   0  12    4.70   14.00
  -5   0 -12   -1.80   10.70
   0   1 -12   51.69   16.80
   0   1  12   98.59   20.20
   0  -1  12  147.29   21.00
   0   1 -12   98.09   18.10
   0  -1 -12   63.99   16.90
  -1  -1 -12  103.39   21.00
   1   1 -12  114.89   20.00
  -1   1  12   99.59   20.10
   1   1 -12   70.59   18.00
   1  -1  12   73.59   18.70
   1  -1 -12  118.89   21.10
  -1   1 -12  114.89   20.80
  -1  -1  12  114.39   20.10
   1   1  12  111.59   20.30
  -1   1 -12   78.39   17.10
   2   1 -12  120.19   20.90
   2   1 -12   79.89   19.60
  -2  -1 -12  106.29   20.70
  -2   1  12   75.89   15.50
   2  -1  12   87.19   19.40
   2  -1 -12   57.09   17.10
  -2  -1  12  110.39   20.40
  -2   1 -12   81.19   17.90
   2  -1 -12   76.29   18.40
   2   1  12   63.49   20.10
  -2   1 -12   68.99   16.00
   3  -1  12  213.58   27.60
  -3  -1 -12  259.97   30.10
   3   1 -12  277.27   29.90
  -3   1  12  242.38   25.00
   3   1 -12  255.27   29.70
  -3  -1  12  253.77   27.00
   3  -1 -12  245.48   28.10
   3   1  12  217.08   28.80
   3  -1 -12  285.17   29.20
  -3   1 -12  191.98   26.30
  -3   1 -12  252.37   28.20
   4  -1  12   26.30   16.20
   4   1 -12   58.69   17.70
  -4  -1 -12   38.00   16.40
  -4  -1  12   34.60   14.00
  -4   1 -12   23.90   13.80
  -4   1 -12   35.30   14.20
   4  -1 -12   43.80   16.70
   4   1  12   17.80   16.00
   5   1 -12   57.59   20.00
   5  -1  12   58.49   21.60
  -5  -1 -12  111.49   22.30
   5   1 -12   72.99   21.10
  -5   1 -12   67.49   19.90
   5   1  12   95.79   22.90
   5  -1 -12   79.19   21.50
  -5   1 -12   84.29   20.70
   0   2  12  107.99   20.70
   0   2 -12  108.39   21.00
   0  -2  12  122.89   21.30
   0   2 -12  114.69   22.10
   0  -2 -12  130.09   22.70
   1  -2  12  166.98   23.20
   1   2 -12  186.88   26.00
  -1   2  12  180.48   20.90
   1   2 -12  210.28   24.90
  -1  -2 -12  187.08   27.20
   1  -2 -12  214.48   25.10
  -1   2 -12  167.88   24.10
  -1  -2  12  232.98   24.20
  -1   2 -12  216.18   26.90
   1  -2 -12  247.48   29.20
   1   2  12  197.28   26.70
  -2  -2 -12   30.00   14.40
   2  -2  12    5.80   10.30
   2   2 -12   13.80   12.40
  -2   2  12    4.20    8.50
   2   2 -12   14.90   11.30
  -2  -2  12   19.80   10.50
   2   2  12   20.70   14.40
  -2   2 -12   16.40   11.70
   2  -2 -12   20.10   12.30
   2  -2 -12   21.00   13.20
  -2   2 -12    4.50   11.50
  -3   2  12   21.00   10.00
   3  -2  12    5.00   11.80
   3   2 -12    5.20   12.70
  -3  -2 -12    0.50   11.40
  -3   2 -12    8.10   12.80
  -3   2 -12   14.50   12.10
  -3  -2  12    9.70   10.80
   3  -2 -12   25.20   14.00
   3  -2 -12   15.90   11.20
   3   2  12   20.60   14.40
  -4  -2 -12   -4.00   10.80
  -4   2  12    1.70    8.90
   4   2 -12  -12.90   11.10
   4  -2  12   10.70   13.20
  -4  -2  12    4.90   11.40
  -4   2 -12   -6.20   11.20
  -4   2 -12    3.70   12.50
   4   2  12    0.50   13.10
   4  -2 -12    6.70   12.40
   5   2 -12   49.30   19.60
   5  -2  12   93.49   26.60
  -5  -2 -12   90.39   21.90
  -5   2  12  101.39   22.90
   5  -2 -12   74.29   21.90
  -5   2 -12  116.69   26.00
  -5   2 -12  108.19   27.40
   5   2  12  133.39   26.00
   0   3 -12  573.24   45.50
   0  -3 -12  576.24   44.70
   0   3 -12  579.84   45.40
   0   3  12  517.25   39.20
   0  -3  12  472.45   38.80
   0   3  12  499.65   43.70
   1  -3  12   44.20   14.60
   1   3 -12   25.00   14.50
  -1  -3 -12   35.40   16.30
   1   3 -12   34.10   16.90
  -1   3  12   17.60   10.90
   1   3  12   34.20   15.30
  -1  -3  12   60.59   15.10
  -1   3 -12   41.10   16.20
   1  -3 -12   38.40   15.60
   1  -3 -12   22.70   13.30
  -1   3 -12   81.89   19.80
   2   3 -12  111.19   23.10
  -2  -3 -12  120.39   23.70
   2  -3  12  102.79   21.30
  -2   3  12  105.59   19.00
   2  -3 -12  100.79   22.50
  -2   3 -12   89.39   20.40
   2  -3 -12  121.49   21.00
  -2  -3  12   98.39   19.50
   2   3  12   85.39   20.40
  -2   3 -12  112.49   22.20
   3   3 -12   31.80   14.90
  -3   3  12   16.30   11.90
   3  -3  12   -6.10   10.40
  -3  -3 -12   -3.90    9.80
  -3   3 -12    0.80   11.30
   3  -3 -12   -5.90   12.30
  -3  -3  12    1.30   10.00
  -3   3 -12   -6.60   11.60
   3   3  12   12.40   14.00
   4   3 -12   -3.50   14.00
   4  -3  12   20.60   16.00
  -4  -3 -12   37.60   16.70
  -4   3  12    9.70   11.80
   4   3  12   22.90   15.90
  -4   3 -12   45.30   20.90
   4  -3 -12   21.00   16.00
  -4  -3  12   23.00   13.60
  -4   3 -12   34.00   15.90
   0  -4 -12   96.39   23.30
   0   4 -12  125.69   23.50
   0   4  12   73.69   17.40
   0   4 -12   85.89   22.30
   0  -4  12   90.59   18.80
   0  -4 -12   43.20   18.00
   1  -4  12   18.20   12.40
  -1  -4 -12   23.00   14.80
  -1   4  12   38.30   13.70
   1   4 -12   31.00   17.40
   1  -4 -12   45.30   16.70
  -1  -4  12   26.40   12.90
  -1   4 -12   12.10   12.50
   1   4  12   -2.60   12.10
  -1   4 -12   38.10   15.00
   1   4  12   10.30   11.30
   1  -4 -12   26.30   13.80
  -2   4  12   77.99   20.00
   2  -4  12   54.29   17.80
   2   4 -12   60.69   19.50
  -2  -4 -12   49.90   19.70
   2   4  12   75.99   20.60
  -2   4 -12   44.80   14.60
  -2   4 -12   38.80   17.90
   2   4  12   67.59   17.30
   2  -4 -12  104.69   20.50
  -2  -4  12   58.59   18.90
   2  -4 -12   85.89   22.30
  -3   4  12  119.59   24.60
   3  -4  12  181.38   29.80
   3   4 -12  149.09   29.30
  -3  -4 -12  109.49   23.70
   3   4  12  188.78   27.80
  -3   4 -12  189.78   31.40
  -3  -4  12  189.68   27.60
  -3   4 -12  233.48   27.30
   3  -4 -12  210.88   30.70
  -4   4  12   13.80   14.40
   4  -4  12    5.90   14.90
  -4  -4 -12   38.70   17.90
   4   4 -12   38.10   20.20
  -4   4 -12   63.49   17.50
  -4   4 -12   26.10   21.10
   4   4  12   23.80   17.90
  -4  -4  12   13.30   14.50
   4  -4 -12   42.00   21.70
   0  -5 -12   47.20   18.20
   0  -5  12   94.99   23.30
   0   5  12  117.79   22.20
   0  -5 -12   81.79   23.00
   0   5 -12   80.89   23.40
   1  -5  12   30.20   13.60
  -1  -5 -12   11.80   17.20
   1  -5  12    5.50   14.00
   1   5 -12    9.60   17.10
  -1   5  12   43.00   16.40
   1  -5 -12    6.20   14.20
  -1   5 -12   27.90   17.90
   1   5  12   17.20   13.90
   1   5  12    5.20   13.10
   1  -5 -12   33.40   17.10
  -1  -5  12   29.60   17.60
   2  -5  12   28.50   14.70
  -2   5  12   25.40   14.70
   2  -5  12    9.00   13.00
   2   5 -12    0.80   16.20
  -2  -5 -12    1.10   16.60
  -2  -5  12   17.00   15.20
   2   5  12    8.90   15.30
   2  -5 -12   21.10   17.70
   2   5  12   26.70   14.90
  -2   5 -12   21.40   17.20
   3  -5  12  245.08   29.00
  -3  -5 -12  239.48   33.00
  -3   5  12  259.37   32.50
   3   5 -12  145.69   30.50
   3  -5  12  273.17   33.60
   3  -5 -12  194.48   33.90
  -3   5 -12  230.48   38.30
   3   5  12  226.98   29.60
   3   5  12  218.68   30.80
  -3  -5  12  258.67   33.80
   0   6  12  213.58   30.20
   0  -6 -12  212.18   30.80
   0  -6  12  175.48   31.80
   0  -6 -12  209.28   31.10
   0   6 -12  216.68   38.40
   1   6 -12   19.20   19.80
  -1   6  12   24.60   15.90
  -1  -6 -12   22.60   18.50
   1  -6  12   32.60   18.90
   1   6  12   14.50   14.90
  -1  -6  12   35.00   18.80
   1  -6 -12   10.80   14.70
   1   6  12   26.70   17.30
   1  -6 -12   17.20   15.20
  -1   6 -12   15.80   18.90
  -2  -6 -12   43.90   21.10
  -2   6  12   47.50   17.60
   2  -6  12   44.20   18.60
   2  -6  12   42.20   18.30
   2   6 -12    9.30   18.80
  -2  -6  12   38.80   19.10
  -2   6 -12   46.40   24.10
   2   6  12    9.10   16.80
   2   6  12   14.50   14.20
   2  -6 -12   34.80   19.30
   0   0  13   -2.10    8.40
   0   0 -13  -10.10    9.10
  -1   0 -13    8.00   11.00
  -1   0  13   13.50   11.00
   1   0  13    4.60    9.90
   1   0 -13   -7.50   10.80
  -2   0 -13  464.85   41.10
   2   0  13  454.35   42.60
   2   0 -13  458.85   41.20
  -2   0  13  498.35   40.90
   3   0 -13   -0.30   11.40
   3   0  13    1.70   13.10
  -3   0  13   12.30   12.00
  -3   0 -13    4.00   11.60
  -4   0 -13  456.45   39.70
   4   0 -13  266.77   36.10
   4   0  13  344.07   39.70
   0   1 -13    8.90   11.90
   0   1 -13   -4.50   10.00
   0  -1 -13    2.10   10.10
   0  -1  13   -0.60    9.70
   0   1  13   12.30   10.70
   1  -1  13  267.97   29.80
  -1   1  13  217.68   27.00
   1   1 -13  219.38   29.10
   1   1 -13  162.58   23.90
  -1  -1 -13  196.58   30.10
  -1  -1  13  210.58   26.00
   1  -1 -13  231.58   27.00
  -1   1 -13  171.68   26.30
   1   1  13  214.48   27.90
  -1   1 -13  183.48   24.60
  -2  -1 -13  170.68   24.90
   2   1 -13   64.99   16.50
   2  -1  13  145.39   26.70
   2   1 -13  120.79   24.50
  -2   1  13  119.59   22.60
   2   1  13   89.59   21.80
   2  -1 -13  128.29   24.30
  -2   1 -13  124.69   21.90
  -2  -1  13  171.58   23.10
  -2   1 -13  141.09   24.30
  -3  -1 -13    7.60   13.80
   3   1 -13    9.10   13.10
   3   1 -13    6.20   11.30
   3  -1  13    7.20   11.40
  -3  -1  13    0.20   11.10
   3  -1 -13    0.30   12.70
  -3   1 -13    8.20   17.80
  -3   1 -13   18.50   13.20
   3  -1 -13   14.20   13.10
   3   1  13   12.50   13.90
   4   1 -13   59.59   19.40
  -4   1  13   37.20   15.20
   4  -1  13   78.49   22.60
  -4  -1 -13   21.50   16.40
  -4  -1  13   58.09   16.50
   4   1  13   43.70   20.40
  -4   1 -13   52.79   17.80
   4  -1 -13   22.60   15.10
   0  -2 -13   -2.60   12.80
   0   2  13   -2.20    9.60
   0   2 -13  -10.50   10.90
   0   2 -13   -6.70   10.70
   0  -2  13   -1.80    8.30
  -1   2  13  419.86   38.30
   1   2 -13  406.76   37.20
   1   2 -13  438.56   41.10
  -1  -2 -13  412.36   40.20
   1  -2  13  454.55   39.10
   1  -2 -13  430.36   38.30
  -1   2 -13  436.76   38.00
  -1  -2  13  456.15   37.00
  -1   2 -13  351.56   38.20
   1   2  13  327.07   37.50
  -2  -2 -13   26.70   15.30
   2   2 -13   13.10   12.10
  -2   2  13   16.30   13.30
   2  -2  13   34.40   14.90
   2   2 -13   30.80   17.00
   2  -2 -13   19.90   15.70
   2  -2 -13   23.20   13.50
  -2  -2  13   29.20   14.20
  -2   2 -13   22.30   14.00
  -2   2 -13    4.20    9.90
   2   2  13   35.20   17.30
  -3   2  13    0.70   11.20
  -3  -2 -13   10.50   12.80
   3  -2  13    8.30   12.20
   3   2 -13    1.20   11.00
  -3   2 -13   22.20   14.80
   3   2  13   -9.30   13.90
   3  -2 -13    0.00   13.10
  -3  -2  13    0.60   11.90
  -3   2 -13  -16.10   11.20
   3  -2 -13    1.50   12.50
   4  -2  13    4.60   13.40
  -4  -2 -13   37.40   15.40
  -4   2  13   20.00   12.30
   4   2 -13   39.90   16.90
  -4  -2  13   12.80   12.40
   4  -2 -13   21.70   16.40
  -4   2 -13   20.60   16.80
  -4   2 -13   18.00   15.10
   4   2  13   46.30   19.40
   0   3  13   -0.90    9.80
   0   3 -13   10.00   11.20
   0   3 -13   -1.50   12.40
   0  -3 -13   -8.70   12.60
   0  -3  13    0.00   10.30
   1   3 -13   15.60   13.20
   1   3 -13   38.60   18.30
  -1   3  13   15.70   11.50
   1  -3  13   13.90   11.90
  -1  -3 -13    3.70   12.80
  -1   3 -13   17.60   14.80
   1  -3 -13    6.00   13.00
  -1  -3  13   18.50   12.20
   1  -3 -13   27.00   15.70
   1   3  13   -5.40   13.80
  -1   3 -13    9.70   13.50
   2   3 -13  136.39   26.30
  -2   3  13  179.78   23.90
   2  -3  13  144.89   25.40
  -2  -3 -13  199.08   30.00
   2  -3 -13  200.98   26.40
  -2   3 -13  228.88   29.30
  -2  -3  13  182.38   25.30
   2  -3 -13  155.18   28.50
  -2   3 -13  161.58   27.10
   2   3  13  202.38   29.20
  -3  -3 -13   16.30   16.10
   3  -3  13   -3.70   11.80
  -3   3  13   -1.30    8.90
   3   3 -13   27.00   15.10
   3   3  13   -3.80   12.00
  -3   3 -13   -9.40   11.50
  -3  -3  13    0.20   12.80
  -3   3 -13   19.20   15.30
   3  -3 -13   25.60   17.40
   4  -3  13  128.99   27.40
  -4   3  13  125.49   25.90
  -4  -3 -13  106.19   23.70
   4   3 -13   57.39   19.80
   4   3  13  167.88   30.50
  -4   3 -13  157.88   27.40
   4  -3 -13   84.69   22.20
  -4   3 -13   67.19   23.00
  -4  -3  13   98.79   21.90
   0   4  13    6.10    9.90
   0  -4 -13    9.80   14.40
   0   4 -13  -14.30   13.60
   0   4 -13   -5.30   10.70
   0  -4  13   -2.70   10.50
   0   4  13   -2.40   12.20
   1  -4  13   34.90   14.40
  -1  -4 -13   98.29   25.30
   1   4 -13   32.80   16.90
  -1   4  13   50.89   15.70
  -1   4 -13   75.09   22.60
   1   4  13   36.80   16.60
   1  -4 -13   44.90   17.30
  -1  -4  13   49.90   16.50
   1  -4 -13   40.00   19.20
  -1   4 -13   43.80   18.30
   2   4 -13   82.89   24.10
  -2  -4 -13   90.09   23.90
   2  -4  13  111.39   23.80
  -2   4  13  148.59   25.60
   2  -4 -13   81.49   23.90
   2   4  13  131.99   26.60
  -2   4 -13  155.18   26.00
  -2   4 -13  111.89   26.50
   2  -4 -13  133.59   24.60
  -2  -4  13  112.89   24.50
   3   4 -13    1.00   14.80
  -3  -4 -13   11.40   14.00
  -3   4  13   13.90   13.30
   3  -4  13   -0.80   12.90
  -3   4 -13    2.90   11.30
   3   4  13    6.40   15.80
  -3  -4  13    7.70   13.90
  -3   4 -13   14.10   16.50
   3  -4 -13    8.50   15.60
   0   5 -13   -7.10   17.20
   0  -5 -13   21.40   14.60
   0  -5  13   -9.80   16.20
   0   5  13   -0.50   11.20
   0  -5 -13   -6.80   13.50
  -1  -5 -13  113.49   25.90
   1  -5  13   60.39   20.60
   1  -5  13   56.59   17.90
  -1   5  13   44.70   16.10
   1   5 -13   28.30   21.40
  -1  -5  13   71.49   22.70
   1  -5 -13   46.20   19.50
   1   5  13   57.89   17.70
  -1   5 -13   31.30   20.40
   1   5  13  125.09   27.20
   1  -5 -13   54.09   20.40
   2  -5  13    6.90   14.10
   2   5 -13   35.00   22.00
  -2  -5 -13    2.30   18.90
  -2   5  13   -4.80   12.90
   2  -5  13    8.80   14.00
  -2   5 -13   -9.30   16.00
   2   5  13   12.00   16.60
   2  -5 -13    0.30   16.20
  -2  -5  13    5.70   13.60
   0   0 -14   49.50   19.20
   0   0  14  106.99   22.70
  -1   0  14    7.90   11.20
  -1   0 -14   -6.20   13.00
   1   0  14   -3.10   10.80
   1   0 -14    2.60   13.50
   2   0  14  194.48   29.00
  -2   0 -14  220.38   28.60
  -2   0  14  210.58   28.30
   2   0 -14  206.08   32.70
   3   0 -14  -17.20   12.40
  -3   0  14    5.40   12.40
   3   0  14   -0.70   14.70
  -3   0 -14    2.50   12.80
  -4   0 -14   79.99   21.50
   4   0  14   78.49   24.70
   0  -1 -14   19.50   15.00
   0  -1  14    3.10   11.00
   0   1 -14  -12.60   11.50
   0   1  14   -1.60   10.10
   1  -1  14   32.50   15.30
   1   1 -14   36.60   17.60
  -1  -1 -14   33.60   17.20
  -1   1  14   54.69   18.10
  -1   1 -14   44.90   17.10
  -1  -1  14   32.70   15.30
   1   1  14   26.70   15.70
   1  -1 -14   77.29   20.20
   2  -1  14   13.20   13.30
   2   1 -14   48.80   21.00
  -2   1  14   10.10   12.40
  -2  -1 -14   21.30   15.10
   2   1 -14   18.20   16.30
  -2  -1  14   38.40   14.60
  -2   1 -14   34.70   17.40
   2  -1 -14   22.50   15.30
   2   1  14   20.20   14.10
   3   1 -14   12.40   13.00
   3  -1  14   31.60   15.80
  -3   1  14   27.80   14.70
  -3  -1 -14   20.90   16.10
   3   1 -14    3.90   15.60
   3  -1 -14    8.90   14.90
  -3   1 -14   26.10   16.80
   3   1  14   23.10   17.50
   0  -2  14   95.89   20.60
   0   2 -14   54.29   18.70
   0  -2 -14  120.39   24.70
   0   2  14   47.20   17.60
   0   2 -14  144.89   27.70
  -1  -2 -14  209.88   31.50
   1   2 -14  240.98   29.40
   1   2 -14  190.08   31.20
   1  -2  14  152.38   26.40
  -1   2  14  146.19   27.50
  -1  -2  14  163.18   28.00
   1  -2 -14  176.38   28.60
  -1   2 -14  166.48   29.30
  -1   2 -14  193.68   27.30
   1   2  14  197.38   28.40
   2   2 -14    1.50   12.90
   2   2 -14   19.70   16.10
   2  -2  14   15.20   12.50
  -2  -2 -14    4.30   12.40
   2   2  14    5.70   15.20
  -2   2 -14    6.00   13.60
  -2   2 -14   19.70   14.10
   2  -2 -14   25.90   16.00
   2  -2 -14    8.60   13.30
   3  -2  14    3.00   12.70
  -3  -2 -14    8.70   12.30
   3   2 -14   20.50   16.30
   3   2  14    3.60   15.90
  -3  -2  14   23.60   14.90
   3  -2 -14   20.70   16.00
  -3   2 -14    2.20   13.10
   3  -2 -14   25.40   17.30
  -3   2 -14    4.00   14.30
   0   3 -14   22.40   16.40
   0   3  14   55.89   18.20
   0  -3  14   28.40   13.50
   0  -3 -14   18.20   18.00
   0   3 -14    4.80   11.20
   1   3 -14    1.90   13.20
   1  -3  14   -7.30   10.50
  -1  -3 -14   -3.20   15.20
   1   3 -14    1.70   16.60
  -1   3  14    6.60   12.40
  -1   3 -14   -4.20   12.30
   1   3  14    6.00   15.10
  -1  -3  14    6.00   11.80
  -1   3 -14    0.00   14.50
   1  -3 -14    3.30   13.40
   2  -3  14   87.89   21.70
  -2  -3 -14   85.19   24.50
   2   3 -14   42.80   18.80
   2  -3 -14   30.80   17.50
  -2   3 -14   50.59   19.30
   2  -3 -14   57.89   21.60
  -2  -3  14   56.69   17.70
  -2   3 -14  114.59   24.00
   2   3  14   60.79   22.30
   3   3 -14   39.80   19.50
   3  -3  14   35.90   17.90
  -3  -3 -14   66.59   22.10
  -3   3  14   41.50   15.40
  -3  -3  14   35.90   17.10
   3  -3 -14   32.90   18.40
   3   3  14   27.50   19.40
  -3   3 -14   16.50   16.80
  -3   3 -14   52.79   20.90
   0  -4 -14    8.40   16.70
   0   4 -14    9.30   14.60
   0   4 -14    2.20   14.10
   0  -4  14  -13.40   10.80
   0   4  14  -18.30   12.40
   1   4 -14   13.50   16.50
  -1  -4 -14    6.90   18.00
   1  -4  14   10.10   13.90
   1   4  14   13.00   18.50
  -1   4 -14    9.30   17.30
  -1  -4  14    7.00   13.70
   1  -4 -14   21.20   18.10
  -1   4 -14   32.20   18.50
   1  -4 -14   29.10   17.30
  -2   4  14   94.99   24.10
  -2  -4 -14  118.09   28.50
   2  -4  14  114.69   25.10
   2   4 -14   85.09   26.20
   2  -4 -14   90.89   22.20
   2   4  14   75.69   22.20
  -2   4 -14   80.79   23.90
  -2   4 -14   77.59   22.40
  -2  -4  14   66.39   20.90
   2  -4 -14   73.79   24.00
   0   0 -15   12.10   17.90
   0   0  15   -1.20   12.40
   1   0 -15    4.10   15.90
  -1   0 -15    9.30   15.20
   1   0  15   -6.80   12.20
  -1   0  15    5.40   12.40
   2   0  15  154.18   29.90
  -2   0 -15  116.69   25.60
  -2   0  15  144.59   26.90
   2   0 -15  181.58   31.90
   0   1  15    3.90   11.10
   0  -1 -15   -2.70   13.90
   0  -1  15    1.60   12.60
   0   1 -15   10.10   16.80
  -1  -1 -15  207.28   34.10
  -1   1  15  180.28   31.10
   1   1 -15  255.77   38.60
   1  -1  15  186.28   29.10
   1  -1 -15  190.18   31.50
   1   1  15  192.68   29.90
  -1  -1  15  214.28   29.50
  -1   1 -15  254.67   34.30
  -2  -1 -15   63.69   20.70
   2   1 -15   44.40   22.70
  -2   1  15   22.30   17.30
   2  -1  15    9.90   14.70
  -2  -1  15   46.10   17.40
  -2   1 -15   33.20   19.10
   2   1  15   33.10   18.40
   2  -1 -15   33.30   19.40
   0  -2  15    9.80   12.80
   0   2  15    1.70   12.10
   0  -2 -15    1.90   14.00
   0   2 -15   16.20   17.60
   0   2 -15    1.20   14.90
   1   2 -15   56.29   20.20
  -1  -2 -15   23.70   18.30
  -1   2  15   56.89   19.40
   1   2 -15   73.69   24.30
   1  -2  15   61.79   20.60
   1   2  15   61.49   21.10
  -1  -2  15   87.39   23.50
   1  -2 -15   36.90   18.90
  -1   2 -15   27.90   17.40
   2   2 -15   26.30   16.70
   2   2 -15   16.60   19.30
  -2  -2 -15   12.60   16.60
  -2   2  15   18.90   15.20
   2  -2  15   23.60   14.60
   2  -2 -15   45.50   20.60
  -2   2 -15   12.40   14.30
   2   2  15   21.80   19.80
   0  -3  15   -4.00   10.40
   0   3  15    1.40   14.00
   0   3 -15   18.00   14.50
   0  -3 -15   12.30   16.60
   0   3 -15   -7.90   13.80
   1  -3  15   -4.00   11.90
   1   3 -15    0.50   19.20
  -1  -3 -15    2.80   17.20
   1   3 -15   29.80   17.90
  -1   3  15   24.10   16.80
  -1   3 -15    0.70   16.20
  -1   3 -15   11.20   15.50
   1  -3 -15   21.80   17.10
   1   3  15    5.00   16.90
   0   0 -16  545.45   53.69
   0   0  16  604.24   52.09
   0   0   0    0.00    0.00

_computing_structure_solution     'SHELXT 2014/5 (Sheldrick, 2014)'
;
_shelx_hkl_checksum              9043
loop_
_space_group_symop_operation_xyz
'x, y, z'
'-x, -y, z+1/2'
'x+1/2, -y, z'
'-x+1/2, y, z+1/2'
loop_
_atom_site_type_symbol
_atom_site_label
_atom_site_fract_x
_atom_site_fract_y
_atom_site_fract_z
_atom_site_U_iso_or_equiv
_atom_site_adp_type
_atom_site_calc_flag
_atom_site_occupancy
Zr Zr1 0.42327(15) 0.33461(12) 0.50006(16) 0.0244(3) Uani d 1
Cl Cl1 0.5717(5) 0.1372(4) 0.6283(3) 0.0346(8) Uani d 1
Cl Cl2 0.0931(4) 0.3897(4) 0.6132(2) 0.0278(7) Uani d 1
Cl Cl3 0.2805(5) 0.1316(4) 0.3725(3) 0.0356(7) Uani d 1
Cl Cl4 0.7508(4) 0.3931(4) 0.3848(2) 0.0288(7) Uani d 1
loop_
_atom_site_aniso_label
_atom_site_aniso_U_11
_atom_site_aniso_U_22
_atom_site_aniso_U_33
_atom_site_aniso_U_12
_atom_site_aniso_U_13
_atom_site_aniso_U_23
Zr1 0.0189(5) 0.0265(5) 0.0278(6) 0.0001(4) 0.0001(5) 0.0001(7)
Cl1 0.0329(17) 0.0368(17) 0.0340(17) 0.0042(12) -0.0045(13) 0.0074(13)
Cl2 0.0217(14) 0.0330(15) 0.0287(16) 0.0017(11) 0.0019(11) 0.0050(12)
Cl3 0.0344(16) 0.0359(16) 0.0365(18) -0.0042(13) -0.0012(16) -0.0048(13)
Cl4 0.0229(13) 0.0343(14) 0.0290(16) -0.0017(12) 0.0025(13) -0.0036(12)
loop_
_atom_type_symbol
_atom_type_description
_atom_type_scat_dispersion_real
_atom_type_scat_dispersion_imag
_atom_type_scat_source
Cl Cl 0.1484 0.1585 'International Tables Vol C Tables 4.2.6.8 and 6.1.1.4'
Zr Zr -2.9673 0.5597 'International Tables Vol C Tables 4.2.6.8 and 6.1.1.4'
loop_
_geom_angle_atom_site_label_1
_geom_angle_atom_site_label_2
_geom_angle_atom_site_label_3
_geom_angle_site_symmetry_1
_geom_angle_site_symmetry_3
_geom_angle
Cl1 Zr1 Cl3 . . 100.74(11)
Cl1 Zr1 Cl2 . . 94.15(11)
Cl3 Zr1 Cl2 . . 98.37(11)
Cl1 Zr1 Cl4 . . 98.49(10)
Cl3 Zr1 Cl4 . . 93.52(12)
Cl2 Zr1 Cl4 . . 160.72(10)
Cl1 Zr1 Cl2 . 3_565 88.99(11)
Cl3 Zr1 Cl2 . 3_565 169.01(13)
Cl2 Zr1 Cl2 . 3_565 85.88(9)
Cl4 Zr1 Cl2 . 3_565 79.87(9)
Cl1 Zr1 Cl4 . 3_465 168.98(12)
Cl3 Zr1 Cl4 . 3_465 89.38(12)
Cl2 Zr1 Cl4 . 3_465 79.94(9)
Cl4 Zr1 Cl4 . 3_465 85.10(9)
Cl2 Zr1 Cl4 3_565 3_465 81.36(8)
Zr1 Cl2 Zr1 . 3_465 100.16(11)
Zr1 Cl4 Zr1 . 3_565 100.02(10)
loop_
_geom_bond_atom_site_label_1
_geom_bond_atom_site_label_2
_geom_bond_site_symmetry_2
_geom_bond_distance
Zr1 Cl1 . 2.309(3)
Zr1 Cl3 . 2.316(3)
Zr1 Cl2 . 2.499(3)
Zr1 Cl4 . 2.503(3)
Zr1 Cl2 3_565 2.661(3)
Zr1 Cl4 3_465 2.662(3)
Cl2 Zr1 3_465 2.661(3)
Cl4 Zr1 3_565 2.662(3)

_cod_database_fobs_code 2021029
