#------------------------------------------------------------------------------
#$Date: 2018-02-15 09:29:17 +0200 (Thu, 15 Feb 2018) $
#$Revision: 206447 $
#$URL: file:///home/coder/svn-repositories/cod/cif/2/02/10/2021003.cif $
#------------------------------------------------------------------------------
#
# This file is available in the Crystallography Open Database (COD),
# http://www.crystallography.net/. The original data for this entry
# were provided by IUCr Journals, http://journals.iucr.org/.
#
# The file may be used within the scientific community so long as
# proper attribution is given to the journal article from which the
# data were obtained.
#
data_2021003
loop_
_publ_author_name
'Klongdee, Fatima'
'Boonmak, Jaursup'
'Youngme, Sujittra'
_publ_section_title
;
 Effect of pH on the charge-assisted hydrogen-bonded assembly of the
 anionic [Cu(oxalate)~2~]^2{-^} building unit and
 <i>N</i>,<i>N</i>'-ditopic cations
;
_journal_coeditor_code           KU3215
_journal_issue                   3
_journal_name_full               'Acta Crystallographica Section C'
_journal_page_first
;
;
_journal_paper_doi               10.1107/S2053229618002024
_journal_volume                  74
_journal_year                    2018
_chemical_formula_iupac          '(C12 H14 N2) [Cu (C2 O4)2]'
_chemical_formula_moiety         'C12 H14 N2 2+, C4 Cu O8 2-'
_chemical_formula_sum            'C16 H14 Cu N2 O8'
_chemical_formula_weight         425.83
_chemical_name_common
;
4,4'-(Ethane-1,2-diyl)dipyridinium
bis(oxalato-\k^2^<i>O</i>^1^,<i>O</i>^2^)copper(II)
;
_space_group_crystal_system      triclinic
_space_group_IT_number           2
_space_group_name_Hall           '-P 1'
_space_group_name_H-M_alt        'P -1'
_symmetry_space_group_name_Hall  '-P 1'
_symmetry_space_group_name_H-M   'P -1'
_atom_sites_solution_hydrogens   geom
_audit_creation_method           SHELXL-2014/7
_cell_angle_alpha                109.382(2)
_cell_angle_beta                 95.641(2)
_cell_angle_gamma                97.930(2)
_cell_formula_units_Z            1
_cell_length_a                   3.84860(10)
_cell_length_b                   10.2380(3)
_cell_length_c                   10.6080(4)
_cell_measurement_reflns_used    5637
_cell_measurement_temperature    298(2)
_cell_measurement_theta_max      26.216
_cell_measurement_theta_min      3.4565
_cell_volume                     385.85(2)
_computing_cell_refinement
;
SAINT (Bruker, 2013)
;
_computing_data_collection
;
APEX2 (Bruker, 2013)
;
_computing_data_reduction
;
SAINT (Bruker, 2013)
;
_computing_molecular_graphics
;
SHELXL (Sheldrick, 2008)
;
_computing_publication_material
;
SHELXL (Sheldrick, 2008)
;
_computing_structure_refinement
;
SHELXL2014 (Sheldrick, 2015)
;
_computing_structure_solution
;
SHELXS97 (Sheldrick, 2008)
;
_diffrn_ambient_temperature      298(2)
_diffrn_measured_fraction_theta_full 0.997
_diffrn_measured_fraction_theta_max 0.997
_diffrn_measurement_device_type
;
Bruker D8 QUEST PHOTON 100
;
_diffrn_measurement_method       '\f and \w scans'
_diffrn_radiation_type           MoK\a
_diffrn_radiation_wavelength     0.71073
_diffrn_reflns_av_R_equivalents  0.0635
_diffrn_reflns_limit_h_max       4
_diffrn_reflns_limit_h_min       -4
_diffrn_reflns_limit_k_max       12
_diffrn_reflns_limit_k_min       -12
_diffrn_reflns_limit_l_max       13
_diffrn_reflns_limit_l_min       -13
_diffrn_reflns_number            11134
_diffrn_reflns_theta_full        25.242
_diffrn_reflns_theta_max         26.020
_diffrn_reflns_theta_min         3.924
_diffrn_standards_decay_%        0
_diffrn_standards_interval_count 0
_diffrn_standards_number         0
_exptl_absorpt_coefficient_mu    1.470
_exptl_absorpt_correction_T_max  0.7454
_exptl_absorpt_correction_T_min  0.4810
_exptl_absorpt_correction_type   multi-scan
_exptl_absorpt_process_details
;
(SADABS; Bruker, 2015)
;
_exptl_crystal_colour            purple
_exptl_crystal_density_diffrn    1.833
_exptl_crystal_description       block
_exptl_crystal_F_000             217
_exptl_crystal_size_max          0.090
_exptl_crystal_size_mid          0.040
_exptl_crystal_size_min          0.030
_refine_diff_density_max         0.411
_refine_diff_density_min         -0.359
_refine_ls_extinction_method     none
_refine_ls_goodness_of_fit_ref   1.042
_refine_ls_hydrogen_treatment    constr
_refine_ls_matrix_type           full
_refine_ls_number_parameters     124
_refine_ls_number_reflns         1515
_refine_ls_number_restraints     0
_refine_ls_restrained_S_all      1.042
_refine_ls_R_factor_all          0.0383
_refine_ls_R_factor_gt           0.0329
_refine_ls_shift/su_max          0.000
_refine_ls_shift/su_mean         0.000
_refine_ls_structure_factor_coef Fsqd
_refine_ls_weighting_details
'w=1/[\s^2^(Fo^2^)+(0.0423P)^2^+0.2752P] where P=(Fo^2^+2Fc^2^)/3'
_refine_ls_weighting_scheme      calc
_refine_ls_wR_factor_gt          0.0839
_refine_ls_wR_factor_ref         0.0866
_reflns_number_gt                1370
_reflns_number_total             1515
_reflns_threshold_expression     'I > 2\s(I)'
_cod_data_source_file            ku3215sup1.cif
_cod_data_source_block           compoundII
_cod_database_code               2021003
_shelx_space_group_comment
;
The symmetry employed for this shelxl refinement is uniquely defined
by the following loop, which should always be used as a source of
symmetry information in preference to the above space-group names.
They are only intended as comments.
;
_shelx_estimated_absorpt_t_min   0.351
_shelx_estimated_absorpt_t_max   0.957
_shelx_hkl_file
;
  -1   0   0  399.46   33.20
  -1   0   0  385.36   33.30
   1   0   0  401.66   33.30
   1   0   0  400.46   33.30
   1   0   0  424.46   33.10
   1   0   0  372.06   33.30
   1   0   0  372.06   33.30
  -2   0   0  110.19    9.10
   2   0   0  106.69    8.80
   2   0   0  106.49    8.90
   2   0   0   89.69    9.40
   2   0   0  104.69    9.20
   2   0   0  100.29    9.20
   2   0   0  105.19    9.20
  -3   0   0  120.29    9.90
   3   0   0  112.09   10.10
   3   0   0   95.29   10.10
   3   0   0  114.59   10.10
   3   0   0  105.09   10.20
   3   0   0  108.29   10.10
   3   0   0  114.09   10.20
  -4   0   0    2.20    2.20
   4   0   0    4.80    2.40
   4   0   0    2.30    2.70
   4   0   0   -5.90    3.70
   4   0   0    5.00    2.80
   4  -1   0   15.70    3.30
   4  -1   0   22.40    3.80
   4  -1   0   18.10    3.50
   4  -1   0   15.80    4.70
  -4   1   0   17.80    2.90
   3  -1   0  105.29   10.50
   3  -1   0  120.09   10.40
   3  -1   0  112.89   10.50
   3  -1   0  107.89   10.40
   3  -1   0  112.59   10.40
   3  -1   0  113.09   10.50
  -3   1   0  122.89   10.10
   2  -1   0   68.39    6.90
   2  -1   0   79.59    6.70
   2  -1   0   76.09    6.80
   2  -1   0   59.09    7.40
  -2   1   0   80.89    6.60
   1  -1   0  211.48   18.50
   1  -1   0  208.68   18.40
   1  -1   0  223.68   18.60
   1  -1   0  212.68   18.50
  -1   1   0  224.78   18.70
  -1   1   0  227.48   18.50
  -1  -1   0   97.69    8.20
  -1  -1   0   89.49    8.20
  -1  -1   0   98.79    8.20
  -1  -1   0   94.39    8.30
  -1  -1   0  102.59    8.20
  -1  -1   0   97.09    8.40
   1   1   0   91.79    8.30
   1   1   0   95.99    8.20
   1   1   0   92.09    8.40
   1   1   0   90.59    8.20
   1   1   0   97.59    8.20
  -2  -1   0  233.48   19.50
  -2  -1   0  238.38   19.80
   2   1   0  227.48   19.40
   2   1   0  216.88   19.50
   2   1   0  215.08   19.70
   2   1   0  229.68   19.70
   2   1   0  230.28   19.60
   2   1   0  234.88   19.40
  -3  -1   0  189.78   15.70
   3   1   0  176.38   16.00
   3   1   0  177.38   15.40
   3   1   0  178.08   15.80
   3   1   0  173.68   16.00
   3   1   0  184.48   15.90
   3   1   0  174.28   16.00
   3   1   0  181.78   15.40
  -4  -1   0    1.90    2.20
   4   1   0    1.10    2.90
   4   1   0   -2.90    2.30
   4   1   0    1.30    2.60
   4  -2   0   18.90    3.40
   4  -2   0   15.00    3.80
   4  -2   0   19.90    3.40
   4  -2   0   17.60    3.50
  -4   2   0   16.50    2.90
   3  -2   0  166.68   15.30
   3  -2   0  163.88   15.10
   3  -2   0  176.08   15.10
   3  -2   0  164.18   15.30
   3  -2   0  176.98   15.30
  -3   2   0  179.18   14.90
   2  -2   0  687.13   54.29
   2  -2   0  561.94   54.59
   2  -2   0  599.94   54.39
   2  -2   0  631.84   54.09
   2  -2   0  634.44   54.09
  -2   2   0  664.23   54.09
  -2   2   0  713.43   54.39
   1  -2   0   23.50    2.30
   1  -2   0   22.20    2.20
   1  -2   0   23.50    2.30
   1  -2   0   21.00    2.30
  -1   2   0   27.90    2.40
  -1   2   0   25.40    2.30
  -1   2   0   23.80    2.50
  -1   2   0   18.60    2.40
   0  -2   0  436.16   35.20
   0  -2   0  419.56   35.20
   0  -2   0  379.06   35.10
   0  -2   0  413.36   35.20
   0  -2   0  387.46   35.30
   0  -2   0  400.46   35.30
   0   2   0  447.96   35.20
   0   2   0  439.56   35.30
   0   2   0  405.16   35.20
   0   2   0  423.86   35.20
  -1  -2   0    0.00    0.60
  -1  -2   0    1.10    0.70
  -1  -2   0    0.30    0.70
  -1  -2   0    0.40    0.50
  -1  -2   0    1.20    0.90
  -1  -2   0    0.80    0.60
   1   2   0    0.60    0.70
   1   2   0    1.80    0.80
   1   2   0    1.40    0.90
   1   2   0    0.50    0.40
   1   2   0    1.20    0.80
  -2  -2   0   32.90    3.60
  -2  -2   0   22.90    2.90
  -2  -2   0   31.40    2.90
  -2  -2   0   29.80    3.50
   2   2   0   27.70    3.00
   2   2   0   29.20    3.20
   2   2   0   30.90    3.10
   2   2   0   33.30    3.10
   2   2   0   28.20    3.40
   2   2   0   27.60    3.00
  -3  -2   0    8.80    2.00
   3   2   0    8.10    1.70
   3   2   0    8.80    2.00
   3   2   0    9.90    2.10
   3   2   0    5.70    2.20
   3   2   0    6.40    1.50
   3   2   0    9.30    4.10
   3   2   0    7.90    1.80
  -4  -2   0    1.20    2.40
   4   2   0    4.10    1.60
   4   2   0    5.60    2.50
   4   2   0   -5.90    3.40
   4   2   0    8.40    3.40
   4   2   0    5.50    3.50
   4   2   0    3.80    2.20
   4  -3   0    0.90    3.00
   4  -3   0   -0.40    2.40
   4  -3   0    5.70    2.40
   4  -3   0    4.30    3.20
  -4   3   0    0.80    2.00
   3  -3   0   15.40    2.30
   3  -3   0   16.70    2.70
   3  -3   0   15.70    2.20
   3  -3   0   14.20    1.90
   3  -3   0   13.60    1.70
   3  -3   0   12.80    2.50
   3  -3   0   10.00    2.90
  -3   3   0   15.40    2.70
  -3   3   0   12.50    2.00
   2  -3   0  161.68   13.50
   2  -3   0  147.79   13.40
   2  -3   0  152.68   13.50
   2  -3   0  149.79   13.40
   2  -3   0  148.09   13.60
   2  -3   0  155.78   13.70
  -2   3   0  161.68   13.80
  -2   3   0  165.48   13.30
  -2   3   0  161.68   13.70
  -2   3   0  158.58   13.40
   1  -3   0  366.86   29.40
   1  -3   0  344.57   29.60
   1  -3   0  354.56   29.60
   1  -3   0  320.97   29.60
   1  -3   0  339.77   29.60
   1  -3   0  358.86   29.40
  -1   3   0  361.16   29.60
  -1   3   0  334.27   29.60
  -1   3   0  371.76   29.70
  -1   3   0  327.07   29.30
   0  -3   0  149.69   14.20
   0  -3   0  149.29   14.00
   0  -3   0  165.18   14.30
   0  -3   0  176.08   14.20
   0  -3   0  172.08   14.20
   0  -3   0  177.58   14.40
   0   3   0  161.28   14.20
   0   3   0  162.18   14.30
   0   3   0  152.88   14.50
   0   3   0  182.98   14.20
   0   3   0  169.38   14.10
  -1  -3   0   77.29    7.20
  -1  -3   0   89.89    7.50
  -1  -3   0   81.59    7.40
  -1  -3   0   86.99    7.10
  -1  -3   0   85.69    7.50
   1   3   0   82.49    7.40
   1   3   0   80.19    7.50
   1   3   0   76.69    7.10
   1   3   0   82.79    7.50
   1   3   0   79.59    7.40
  -2  -3   0    3.80    1.50
  -2  -3   0    0.00    1.50
  -2  -3   0    2.50    0.90
  -2  -3   0    3.80    1.10
  -2  -3   0    2.20    1.20
   2   3   0    3.80    1.40
   2   3   0    2.80    1.00
   2   3   0    3.00    1.20
   2   3   0    2.50    1.20
   2   3   0    1.60    1.10
  -3  -3   0   40.00    4.80
  -3  -3   0   36.50    4.40
   3   3   0   49.40    4.80
   3   3   0   60.69    7.00
   3   3   0   48.30    5.30
   3   3   0   49.20    4.90
   3   3   0   41.70    5.40
   3   3   0   46.90    5.10
  -4  -3   0    1.60    2.10
   4   3   0    7.90    3.40
   4   3   0    2.30    2.10
   4   3   0    3.50    3.30
   4   3   0   -0.90    2.40
   4   3   0    2.70    1.90
   4  -4   0    4.00    2.90
   4  -4   0    4.90    2.10
   4  -4   0    0.30    3.40
  -4   4   0   -0.50    2.00
   3  -4   0  103.79    9.10
   3  -4   0   97.89    9.00
   3  -4   0  103.39    9.20
   3  -4   0  106.59    9.70
   3  -4   0   95.29    9.60
   3  -4   0   95.59    9.30
  -3   4   0  111.09    9.70
   2  -4   0   88.89    8.00
   2  -4   0   96.19    8.30
   2  -4   0  103.19    8.40
   2  -4   0   88.49    7.90
   2  -4   0   90.99    7.90
   2  -4   0   90.49    8.10
   2  -4   0   83.19    8.30
  -2   4   0   75.59    8.10
  -2   4   0   97.99    8.60
  -2   4   0   95.59    8.10
  -2   4   0   95.39    8.40
   1  -4   0    1.00    0.70
   1  -4   0    2.60    0.80
   1  -4   0    3.40    1.00
   1  -4   0    1.30    1.00
   1  -4   0    1.90    0.50
   1  -4   0    2.90    0.80
  -1   4   0    1.40    0.80
  -1   4   0    2.00    1.10
  -1   4   0    2.80    0.50
  -1   4   0    2.40    1.10
   0  -4   0 1308.07  114.89
   0  -4   0 1328.47  115.29
   0  -4   0 1353.46  114.99
   0  -4   0 1409.76  114.99
   0  -4   0 1272.27  115.29
   0   4   0 1456.05  115.09
   0   4   0 1411.16  114.99
   0   4   0 1324.17  115.29
   0   4   0 1438.56  115.39
  -1  -4   0  301.37   24.60
  -1  -4   0  316.17   24.70
  -1  -4   0  264.27   24.50
  -1  -4   0  279.67   24.30
  -1  -4   0  259.07   24.20
   1   4   0  264.67   24.50
   1   4   0  297.07   24.50
   1   4   0  268.77   24.60
   1   4   0  318.67   24.70
   1   4   0  287.27   24.20
  -2  -4   0  153.58   12.50
  -2  -4   0  117.89   12.50
  -2  -4   0  154.98   12.80
  -2  -4   0  141.19   12.20
   2   4   0  128.79   12.40
   2   4   0  142.19   12.60
   2   4   0  136.79   12.50
   2   4   0  143.19   12.60
   2   4   0  137.39   12.00
  -3  -4   0   18.20    2.90
  -3  -4   0   14.10    2.70
   3   4   0   19.10    3.10
   3   4   0   14.50    2.20
   3   4   0   20.30    2.60
   3   4   0   19.50    3.80
   3   4   0   15.50    2.50
  -4  -4   0   26.70    4.10
   4   4   0   23.80    5.30
   4   4   0   23.60    3.70
   4   4   0   18.90    3.60
   4   4   0   24.20    4.90
   4  -5   0   20.50    2.70
   4  -5   0   16.80    4.30
   4  -5   0   18.90    3.70
   4  -5   0   20.50    3.20
  -4   5   0   25.90    4.50
   3  -5   0   20.00    3.40
   3  -5   0   15.70    2.20
   3  -5   0   13.70    2.60
   3  -5   0   13.10    2.00
   3  -5   0   13.50    2.20
   3  -5   0   19.00    2.60
  -3   5   0   13.00    2.00
  -3   5   0   13.40    2.80
   2  -5   0  146.29   13.10
   2  -5   0  156.98   13.50
   2  -5   0  145.39   13.00
   2  -5   0  151.58   13.40
   2  -5   0  144.79   13.50
   2  -5   0  147.99   13.50
   2  -5   0  154.28   13.00
  -2   5   0  155.38   13.60
  -2   5   0  159.88   13.40
  -2   5   0  162.28   13.70
   1  -5   0  149.49   12.60
   1  -5   0  150.28   13.10
   1  -5   0  155.08   13.00
   1  -5   0  148.59   13.00
   1  -5   0  148.49   13.20
   1  -5   0  139.29   12.70
  -1   5   0  135.99   12.60
  -1   5   0  153.48   13.10
  -1   5   0  153.68   13.10
  -1   5   0  145.49   13.00
   0  -5   0  249.48   22.30
   0  -5   0  265.47   22.50
   0  -5   0  247.08   22.20
   0  -5   0  278.17   22.70
   0  -5   0  274.27   22.30
   0  -5   0  247.28   22.60
   0   5   0  259.67   22.30
   0   5   0  247.48   22.40
   0   5   0  263.77   22.60
   0   5   0  275.97   22.30
   0   5   0  257.27   22.70
  -1  -5   0  399.46   40.30
  -1  -5   0  443.26   40.40
  -1  -5   0  486.65   40.70
  -1  -5   0  504.35   40.70
  -1  -5   0  536.55   40.90
  -1  -5   0  415.16   40.70
   1   5   0  501.55   40.90
   1   5   0  461.65   40.60
   1   5   0  471.35   40.80
   1   5   0  520.25   40.50
   1   5   0  510.95   40.70
  -2  -5   0   47.20    4.40
  -2  -5   0   28.60    4.80
  -2  -5   0   34.00    4.00
  -2  -5   0   56.29    5.20
   2   5   0   45.70    4.80
   2   5   0   40.60    4.80
   2   5   0   49.50    5.00
  -3  -5   0   50.39    6.50
  -3  -5   0   61.29    5.90
   3   5   0   54.09    5.40
   3   5   0   46.20    5.20
   3   5   0   62.69    6.90
   3   5   0   70.49    7.00
   3   5   0   62.19    6.40
   4  -6   0   20.10    3.20
   4  -6   0   19.90    3.10
   4  -6   0   22.60    3.40
   4  -6   0   26.60    5.10
   4  -6   0   19.30    3.00
  -4   6   0   26.80    4.70
   3  -6   0  130.39   12.30
   3  -6   0  128.39   12.80
   3  -6   0  146.09   12.60
   3  -6   0  130.69   11.90
   3  -6   0  136.19   12.10
   3  -6   0  132.19   11.90
  -3   6   0  148.69   12.90
  -3   6   0  146.99   12.40
   2  -6   0  355.56   31.00
   2  -6   0  338.37   31.00
   2  -6   0  332.97   30.90
   2  -6   0  340.57   30.50
  -2   6   0  398.46   31.20
  -2   6   0  380.26   31.10
  -2   6   0  375.26   31.00
   1  -6   0   34.70    3.50
   1  -6   0   33.10    4.20
   1  -6   0   36.20    4.20
   1  -6   0   31.90    4.00
   1  -6   0   39.60    3.80
  -1   6   0   34.30    4.30
  -1   6   0   37.90    4.00
  -1   6   0   35.60    3.50
  -1   6   0   33.60    4.10
  -1   6   0   35.70    4.00
   0  -6   0   67.09    5.80
   0  -6   0   62.99    5.90
   0  -6   0   63.49    6.40
   0  -6   0   50.19    6.20
   0  -6   0   59.29    5.60
   0   6   0   56.69    5.80
   0   6   0   67.39    5.90
   0   6   0   58.29    6.40
   0   6   0   63.59    6.00
   0   6   0   62.99    6.40
  -1  -6   0  218.48   23.10
  -1  -6   0  257.47   22.60
  -1  -6   0  310.47   23.50
  -1  -6   0  293.47   23.10
  -1  -6   0  258.97   22.90
  -1  -6   0  250.47   22.60
   1   6   0  294.17   23.40
   1   6   0  272.57   23.00
   1   6   0  252.77   23.10
   1   6   0  223.88   22.90
   1   6   0  278.37   22.50
  -2  -6   0   30.20    3.60
  -2  -6   0   42.40    4.90
  -2  -6   0   41.90    5.10
  -2  -6   0   34.30    4.90
  -2  -6   0   43.30    5.50
  -2  -6   0   43.20    4.20
   2   6   0   33.30    3.60
   2   6   0   32.40    4.70
   2   6   0   47.30    5.10
   2   6   0   38.40    4.90
  -3  -6   0   13.60    2.70
   3   6   0   12.40    3.60
   3   6   0   16.80    3.20
   3   6   0   15.40    3.70
   4  -7   0   24.10    3.40
   4  -7   0   19.70    5.20
   4  -7   0   17.40    3.90
   4  -7   0   23.70    3.40
  -4   7   0   25.10    5.00
   3  -7   0    9.00    3.00
   3  -7   0    8.90    2.10
   3  -7   0    8.40    2.00
  -3   7   0    9.30    2.50
   2  -7   0  139.79   15.60
   2  -7   0  138.49   14.40
   2  -7   0  148.79   13.70
   2  -7   0  156.88   14.40
  -2   7   0  172.08   14.30
  -2   7   0  171.68   14.30
  -2   7   0  170.38   14.50
   1  -7   0  141.89   13.40
   1  -7   0  138.49   12.70
   1  -7   0  151.28   13.50
   1  -7   0  151.18   12.60
   1  -7   0  147.09   13.10
  -1   7   0  126.19   12.70
  -1   7   0  160.38   13.50
  -1   7   0  152.38   13.20
  -1   7   0  153.38   13.30
   0  -7   0  114.89    9.30
   0  -7   0   91.49    9.30
   0  -7   0   97.69    9.10
   0  -7   0   90.29    9.80
   0  -7   0  114.29    9.60
   0  -7   0  113.19   10.10
   0   7   0  108.39    9.30
   0   7   0   96.99   10.00
   0   7   0  105.29    9.60
   0   7   0  102.59   10.00
   0   7   0   91.49    9.40
  -1  -7   0   22.10    3.20
  -1  -7   0   24.40    3.30
  -1  -7   0   19.40    2.70
  -1  -7   0   20.00    3.10
  -1  -7   0   20.20    4.10
   1   7   0   19.00    3.20
   1   7   0   23.90    2.80
   1   7   0   18.00    3.40
   1   7   0   19.40    3.50
   1   7   0   16.10    3.30
  -2  -7   0   30.30    2.90
  -2  -7   0   32.50    3.80
  -2  -7   0   26.20    4.10
  -2  -7   0   16.70    4.10
   2   7   0   31.90    4.50
   2   7   0   23.80    4.10
   2   7   0   26.80    4.20
  -3  -7   0    1.60    2.10
   3   7   0    0.00    2.80
   3   7   0    3.50    3.90
   4  -8   0   -3.30    4.10
   4  -8   0    0.20    2.30
   4  -8   0    1.00    2.40
  -4   8   0    2.50    4.60
   3  -8   0    2.50    2.30
   3  -8   0    4.20    2.90
   3  -8   0    3.50    2.00
  -3   8   0    2.20    3.00
  -3   8   0    4.20    3.30
   2  -8   0   39.50    5.50
   2  -8   0   35.00    6.20
   2  -8   0   34.90    5.10
   2  -8   0   35.40    4.00
  -2   8   0   33.70    5.20
  -2   8   0   44.80    5.40
  -2   8   0   28.40    4.70
  -2   8   0   48.80    5.40
   1  -8   0  130.99   12.50
   1  -8   0  121.49   11.40
   1  -8   0  136.09   12.50
   1  -8   0  133.39   12.00
   1  -8   0  133.19   11.30
  -1   8   0  102.69   12.20
  -1   8   0  141.49   12.50
  -1   8   0  126.79   11.50
  -1   8   0  130.69   11.90
  -1   8   0  139.39   12.20
   0  -8   0    9.00    1.80
   0  -8   0    5.40    1.90
   0  -8   0    4.50    2.60
   0  -8   0    6.20    2.80
   0  -8   0    5.60    2.00
   0  -8   0    5.80    2.10
   0   8   0    3.90    1.90
   0   8   0    7.40    2.30
   0   8   0    6.80    2.40
   0   8   0    5.50    1.90
   0   8   0    6.90    2.80
  -1  -8   0   83.19    7.80
  -1  -8   0   80.29    8.10
  -1  -8   0   85.39    8.60
  -1  -8   0   98.99   10.20
  -1  -8   0   68.09    8.90
   1   8   0   85.29    9.10
   1   8   0   84.79    8.40
   1   8   0   79.39    8.90
   1   8   0   83.49    7.60
  -2  -8   0   87.09    9.00
  -2  -8   0   86.79   13.50
  -2  -8   0  108.19   10.40
   2   8   0   90.89    9.90
   2   8   0   99.19   10.30
   2   8   0   85.29   10.60
   3  -9   0    6.50    2.30
   3  -9   0    7.20    2.90
  -3   9   0    6.70    3.80
   2  -9   0   75.49    7.30
   2  -9   0   77.99    8.70
   2  -9   0   74.99    9.00
  -2   9   0   52.99    9.70
  -2   9   0   87.79    8.60
  -2   9   0   82.09    8.50
   1  -9   0    7.30    1.60
   1  -9   0    6.90    3.00
   1  -9   0    7.20    1.80
   1  -9   0   10.80    3.20
   1  -9   0    6.80    3.20
  -1   9   0    3.60    2.60
  -1   9   0   10.30    2.30
  -1   9   0    8.90    3.40
  -1   9   0    7.60    2.80
   0  -9   0    5.70    3.20
   0  -9   0   13.40    2.70
   0  -9   0   14.30    4.20
   0  -9   0   15.00    2.40
   0  -9   0   12.50    2.80
   0   9   0   17.40    4.00
   0   9   0   12.40    2.60
   0   9   0   13.40    3.20
   0   9   0    9.70    3.10
   0   9   0    7.90    3.30
  -1  -9   0  130.39   12.00
  -1  -9   0  139.19   11.50
  -1  -9   0   99.99   12.60
   1   9   0  131.39   13.00
   1   9   0  129.29   13.90
   1   9   0  137.89   12.10
   1   9   0  133.59   12.60
   1   9   0  106.39   11.10
  -2  -9   0    9.20    2.50
   2   9   0    4.80    3.90
   2   9   0   11.90    3.50
   3 -10   0   17.20    4.00
   3 -10   0   14.80    3.10
  -3  10   0   13.80    5.30
   2 -10   0   47.60    6.30
   2 -10   0   33.00    4.20
  -2  10   0   34.20    5.50
  -2  10   0   36.10    5.60
   1 -10   0   86.49    8.90
   1 -10   0  102.89   11.60
   1 -10   0   91.69   10.30
   1 -10   0   90.59   10.70
  -1  10   0   97.79   11.30
  -1  10   0  114.09   10.20
  -1  10   0   90.29    9.30
  -1  10   0  110.39    9.80
  -1  10   0   76.19   10.70
   0 -10   0   25.10    4.70
   0 -10   0   36.10    5.00
   0 -10   0   41.90    4.60
   0 -10   0   34.20    5.70
   0 -10   0   39.80    7.10
   0  10   0   33.40    4.40
   0  10   0   31.70    5.00
   0  10   0   36.60    5.90
   0  10   0   24.00    4.80
   0  10   0   35.70    5.00
  -1 -10   0  124.49   11.80
   1  10   0  133.59   13.60
   1  10   0  110.89   11.40
   1  10   0  151.88   12.80
   2 -11   0   17.40    3.10
   2 -11   0   19.20    5.10
  -2  11   0   21.60    4.80
  -2  11   0   12.20    4.60
   1 -11   0   74.29    7.90
   1 -11   0   79.99   10.90
  -1  11   0   84.19    9.20
  -1  11   0   80.69    9.20
   0 -11   0   20.90    3.70
   0 -11   0   19.60    5.80
   0 -11   0   22.00    7.40
   0  11   0   31.30    6.80
   0  11   0   23.40    5.10
   0  11   0   23.30    5.90
   0  11   0   25.70    4.10
  -1 -11   0   13.20    3.20
   1  11   0   20.20    4.80
   1  11   0    9.50    4.60
   0  12  -1   25.30    5.50
   0  12  -1   24.00    6.80
   0  12  -1   20.10    5.00
   0 -12   1   34.80    4.20
   0 -12   1   16.80    4.40
  -1  12  -1   69.29    9.00
  -1  12  -1   93.79    9.70
   1 -12   1   58.29    9.30
   1 -12   1   57.89    7.50
   1  11  -1   18.70    4.40
   1  11  -1   16.90    4.60
   1  11  -1   13.90    5.20
  -1 -11   1   19.20    3.60
  -1 -11   1   16.00    4.60
   0  11  -1   37.00    6.40
   0  11  -1   42.10    5.70
   0  11  -1   29.10    6.10
   0  11  -1   37.60    5.50
   0  11  -1   26.80    6.00
   0 -11   1   46.80    8.00
   0 -11   1   41.80    4.70
   0 -11   1   25.30    6.30
   0 -11   1   42.00    5.80
   0 -11   1   41.20    5.20
  -1  11  -1    0.60    3.10
  -1  11  -1   -0.10    3.20
  -1  11  -1    1.70    4.20
   1 -11   1    1.80    6.10
   1 -11   1   -0.50    4.20
   1 -11   1    3.70    2.20
   1 -11   1    5.60    2.30
  -2  11  -1   18.50    4.30
  -2  11  -1   22.20    5.00
   2 -11   1    9.20    4.70
   2 -11   1   12.30    2.80
   2  10  -1   30.70    5.40
   2  10  -1   12.70    5.00
  -2 -10   1   23.30    5.30
  -2 -10   1   26.80    4.20
   1  10  -1   25.00    4.20
   1  10  -1   20.50    4.90
   1  10  -1   25.40    4.90
   1  10  -1   24.10    3.30
  -1 -10   1   25.30    3.50
  -1 -10   1   30.50    4.50
  -1 -10   1   11.10    4.60
   0  10  -1    1.80    2.20
   0  10  -1   -0.20    3.20
   0  10  -1    5.30    3.90
   0  10  -1   -0.50    3.00
   0  10  -1    2.50    2.60
   0 -10   1    1.70    2.00
   0 -10   1    0.40    2.30
   0 -10   1   -0.70    3.60
   0 -10   1    1.80    3.00
   0 -10   1   -1.90    4.10
  -1  10  -1   37.40    6.10
  -1  10  -1   31.80    5.80
  -1  10  -1   53.19    6.20
  -1  10  -1   51.09    6.50
  -1  10  -1   39.70    5.30
   1 -10   1   52.19    6.90
   1 -10   1   44.50    4.80
   1 -10   1   46.30    4.90
   1 -10   1   46.40    9.10
  -2  10  -1   17.00    4.00
  -2  10  -1   19.90    4.30
   2 -10   1   15.60    2.70
   2 -10   1   21.20    4.10
   2 -10   1   12.20    4.10
  -3  10  -1   10.80    5.10
  -3  10  -1    4.10    4.50
   3 -10   1    2.00    3.30
   3 -10   1    7.70    2.60
   2   9  -1   36.50    4.70
   2   9  -1   29.90    5.50
   2   9  -1   25.30    4.90
  -2  -9   1   35.60    4.50
  -2  -9   1   40.90    5.70
   1   9  -1    3.40    3.40
   1   9  -1   -2.40    3.20
   1   9  -1    1.60    2.90
   1   9  -1    3.50    2.20
   1   9  -1    5.20    2.00
  -1  -9   1    2.40    4.00
  -1  -9   1    4.50    1.90
  -1  -9   1    6.40    2.90
  -1  -9   1    0.20    2.90
   0   9  -1   61.19    6.40
   0   9  -1   49.60    7.30
   0   9  -1   66.39    6.30
   0   9  -1   55.09    6.80
   0   9  -1   66.29    7.60
   0  -9   1   39.90    6.50
   0  -9   1   46.10    7.10
   0  -9   1   64.39    8.30
   0  -9   1   63.59    5.80
   0  -9   1   58.19    6.20
  -1   9  -1   46.90    7.20
  -1   9  -1   59.69    6.90
  -1   9  -1   65.69    7.60
  -1   9  -1   50.99    6.20
  -1   9  -1   57.59    6.60
   1  -9   1   64.29    7.10
   1  -9   1   51.69    7.90
   1  -9   1   64.79    7.20
   1  -9   1   60.79    5.70
   1  -9   1   60.79    5.80
  -2   9  -1   22.40    4.10
  -2   9  -1   27.60    4.30
  -2   9  -1   17.50    4.10
   2  -9   1   22.40    4.30
   2  -9   1   24.70    2.80
   2  -9   1   18.10    3.50
  -3   9  -1   -0.40    3.30
  -3   9  -1    1.00    3.60
   3  -9   1    3.60    2.60
   3  -9   1    3.20    3.70
   3  -9   1    3.60    2.20
   3   8  -1    5.50    3.90
   3   8  -1    0.90    3.40
   2   8  -1   47.40    6.40
   2   8  -1   44.90    6.40
   2   8  -1   52.89    7.00
   2   8  -1   45.60    4.90
  -2  -8   1   52.49    5.50
  -2  -8   1   39.00    5.20
  -2  -8   1   49.00    6.90
  -2  -8   1   58.99    7.20
   1   8  -1    1.40    2.60
   1   8  -1    1.90    2.40
   1   8  -1   -0.10    2.10
   1   8  -1    0.80    1.40
   1   8  -1    4.50    2.60
  -1  -8   1    1.90    2.30
  -1  -8   1    0.40    1.50
  -1  -8   1   -0.70    2.10
  -1  -8   1   -0.20    2.10
  -1  -8   1    4.00    3.20
   0   8  -1   57.19    6.10
   0   8  -1   55.09    6.70
   0   8  -1   68.39    5.90
   0   8  -1   46.30    6.60
   0   8  -1   53.09    6.20
   0  -8   1   59.49    7.30
   0  -8   1   46.20    6.30
   0  -8   1   60.49    5.90
   0  -8   1   61.29    5.50
   0  -8   1   56.69    5.80
   0  -8   1   46.10    5.90
  -1   8  -1   97.99    9.10
  -1   8  -1   82.19    8.20
  -1   8  -1   97.29    8.80
  -1   8  -1   90.59    8.70
  -1   8  -1   75.69    9.00
   1  -8   1   89.39    9.00
   1  -8   1   91.39    7.90
   1  -8   1   89.89    9.20
   1  -8   1   79.99    7.90
  -2   8  -1  227.18   19.00
  -2   8  -1  244.68   19.10
  -2   8  -1  174.28   18.90
  -2   8  -1  214.18   19.00
   2  -8   1  222.98   19.50
   2  -8   1  209.28   18.80
   2  -8   1  216.38   19.10
   2  -8   1  180.48   19.00
   2  -8   1  217.78   18.20
  -3   8  -1  194.78   20.10
  -3   8  -1  236.68   20.80
  -3   8  -1  266.17   20.70
   3  -8   1  209.98   20.50
   3  -8   1  224.48   19.50
   3  -8   1  225.98   19.30
   3  -8   1  237.28   20.30
  -4   8  -1   25.20    5.90
   4  -8   1   26.40    3.80
   4  -8   1   26.10    3.70
   3   7  -1   55.29    7.50
   3   7  -1   56.69    7.50
  -3  -7   1   64.79    6.40
  -3  -7   1   57.19    8.10
   2   7  -1   56.09    5.20
   2   7  -1   63.39    7.00
   2   7  -1   48.40    6.60
   2   7  -1   61.79    6.40
  -2  -7   1   47.20    5.50
  -2  -7   1   39.90    6.20
  -2  -7   1   58.89    5.70
  -2  -7   1   63.49    6.80
   1   7  -1   72.79    7.30
   1   7  -1   73.19    6.30
   1   7  -1   68.29    6.80
   1   7  -1   53.49    6.80
   1   7  -1   66.19    7.30
  -1  -7   1   79.09    7.60
  -1  -7   1   63.19    6.30
  -1  -7   1   54.09    6.60
  -1  -7   1   64.79    6.90
  -1  -7   1   67.29    6.90
   0   7  -1  234.08   19.60
   0   7  -1  239.28   20.10
   0   7  -1  228.18   19.70
   0   7  -1  215.18   19.60
   0  -7   1  233.98   19.50
   0  -7   1  223.58   19.30
   0  -7   1  197.48   19.50
   0  -7   1  242.58   20.30
   0  -7   1  216.58   19.60
  -1   7  -1   88.59    7.90
  -1   7  -1   90.69    8.20
  -1   7  -1   63.89    8.00
  -1   7  -1   76.09    7.50
  -1   7  -1   84.39    8.00
   1  -7   1   80.19    7.30
   1  -7   1   76.09    8.20
   1  -7   1   85.39    7.30
   1  -7   1   90.29    7.80
   1  -7   1   78.79    8.00
  -2   7  -1  100.99   11.50
  -2   7  -1  141.99   11.60
  -2   7  -1  133.49   11.80
  -2   7  -1  112.59   10.80
   2  -7   1  129.79   11.60
   2  -7   1  133.99   10.90
   2  -7   1  109.29   11.70
   2  -7   1  129.19   10.80
   2  -7   1  129.99   11.50
   2  -7   1  135.99   11.60
  -3   7  -1    0.60    2.40
  -3   7  -1    0.00    1.90
  -3   7  -1   -1.70    2.40
   3  -7   1    2.00    2.20
   3  -7   1    1.50    1.50
   3  -7   1    1.10    1.40
   3  -7   1   -1.50    1.50
   3  -7   1    3.10    3.10
   3  -7   1    0.60    1.50
  -4   7  -1    3.00    3.80
   4  -7   1    5.50    2.40
   4  -7   1    5.10    2.10
   3   6  -1   23.00    4.10
   3   6  -1   19.20    3.70
   3   6  -1   26.80    4.30
   3   6  -1   19.30    2.90
   3   6  -1   22.20    3.10
  -3  -6   1   21.50    4.00
  -3  -6   1   26.10    3.30
  -3  -6   1   28.90    4.30
   2   6  -1   61.59    6.90
   2   6  -1   64.39    6.70
   2   6  -1   67.29    5.90
   2   6  -1   67.39    6.80
   2   6  -1   67.29    6.80
  -2  -6   1   46.20    6.80
  -2  -6   1   68.29    6.60
  -2  -6   1   51.99    6.00
  -2  -6   1   65.89    7.00
  -2  -6   1   62.89    7.00
  -2  -6   1   69.49    6.10
   1   6  -1  194.68   16.90
   1   6  -1  185.58   17.40
   1   6  -1  191.88   17.30
   1   6  -1  200.78   17.30
   1   6  -1  199.48   17.50
  -1  -6   1  201.98   17.30
  -1  -6   1  214.98   17.60
  -1  -6   1  173.88   17.00
  -1  -6   1  205.88   17.30
  -1  -6   1  194.88   16.90
   0   6  -1  578.54   48.60
   0   6  -1  553.04   48.70
   0   6  -1  580.94   49.00
   0   6  -1  613.84   48.70
   0   6  -1  470.45   48.90
   0  -6   1  637.64   48.80
   0  -6   1  545.55   48.40
   0  -6   1  590.34   48.60
   0  -6   1  591.94   49.10
  -1   6  -1  214.08   20.30
  -1   6  -1  247.68   20.70
  -1   6  -1  248.68   20.70
  -1   6  -1  257.37   20.80
   1  -6   1  231.68   20.70
   1  -6   1  226.88   20.20
   1  -6   1  243.08   20.70
   1  -6   1  226.58   20.80
   1  -6   1  239.28   20.20
   1  -6   1  244.68   20.60
  -2   6  -1   50.29    4.70
  -2   6  -1   44.60    5.20
  -2   6  -1   45.10    5.00
  -2   6  -1   38.00    4.90
   2  -6   1   46.70    5.20
   2  -6   1   42.50    4.80
   2  -6   1   39.90    4.30
   2  -6   1   49.20    5.10
   2  -6   1   48.80    4.30
  -3   6  -1   81.89    7.60
  -3   6  -1   69.49    6.70
  -3   6  -1   57.89    6.70
  -3   6  -1   78.09    8.10
   3  -6   1   73.89    6.90
   3  -6   1   71.59    6.70
   3  -6   1   69.89    6.90
   3  -6   1   73.69    6.70
   3  -6   1   80.29    7.40
   3  -6   1   80.69    8.10
  -4   6  -1    4.70    3.50
   4  -6   1    5.10    2.30
   4  -6   1    3.40    2.10
   4  -6   1    1.90    1.90
   4  -6   1    4.50    1.60
   4  -6   1    6.60    3.70
   3   5  -1   32.80    4.10
   3   5  -1   34.30    4.70
   3   5  -1   33.40    4.70
   3   5  -1   42.80    4.70
   3   5  -1   35.70    5.00
  -3  -5   1   44.30    4.60
  -3  -5   1   30.70    4.40
  -3  -5   1   39.20    5.30
   2   5  -1  143.49   12.70
   2   5  -1  122.29   12.70
   2   5  -1  140.99   12.80
   2   5  -1  139.89   12.20
   2   5  -1  140.09   12.80
  -2  -5   1  150.98   12.70
  -2  -5   1  136.29   13.50
  -2  -5   1  137.29   12.40
  -2  -5   1  154.08   13.10
   1   5  -1   23.00    2.50
   1   5  -1   18.40    3.10
   1   5  -1   19.60    2.90
   1   5  -1   24.80    3.30
   1   5  -1   21.10    3.00
  -1  -5   1   24.70    3.20
  -1  -5   1   24.90    2.80
  -1  -5   1   25.10    3.00
  -1  -5   1   24.60    3.10
   0   5  -1  110.79    9.90
   0   5  -1  107.89   10.10
   0   5  -1  109.59    9.90
   0   5  -1  114.59    9.90
   0   5  -1  111.19   10.20
   0  -5   1  108.69    9.80
   0  -5   1  114.79    9.80
   0  -5   1  112.89   10.20
   0  -5   1  109.69    9.70
   0  -5   1  115.19   10.20
  -1   5  -1   15.40    2.10
  -1   5  -1    7.10    2.10
  -1   5  -1   13.60    1.60
  -1   5  -1   14.70    2.00
  -1   5  -1    9.60    1.80
   1  -5   1   11.00    1.90
   1  -5   1   11.30    1.80
   1  -5   1   11.80    1.60
   1  -5   1   11.40    1.90
   1  -5   1   11.50    1.50
   1  -5   1   15.30    2.00
  -2   5  -1  144.49   12.20
  -2   5  -1  136.79   11.90
  -2   5  -1  136.99   12.30
   2  -5   1  128.09   12.10
   2  -5   1  133.19   11.70
   2  -5   1  134.79   12.00
   2  -5   1  138.29   11.80
   2  -5   1  132.89   12.10
  -3   5  -1   53.29    5.30
  -3   5  -1   45.20    5.60
   3  -5   1   41.20    4.60
   3  -5   1   39.50    5.20
   3  -5   1   34.60    4.50
   3  -5   1   39.50    4.70
   3  -5   1   45.10    4.50
   3  -5   1   48.20    4.70
   3  -5   1   46.40    5.40
   4  -5   1    1.40    1.10
   4  -5   1    1.60    3.30
   4  -5   1    3.90    2.30
   4  -5   1   -1.70    1.70
   4  -5   1    0.10    3.10
   4   4  -1    7.90    2.90
   4   4  -1   10.20    2.60
   4   4  -1    3.30    2.70
   4   4  -1   19.30    4.30
  -4  -4   1    8.60    2.60
   3   4  -1    7.90    1.90
   3   4  -1    8.20    2.20
   3   4  -1    9.50    2.80
   3   4  -1    8.00    2.10
   3   4  -1    6.70    2.10
  -3  -4   1    5.80    2.50
  -3  -4   1    7.00    1.90
  -3  -4   1    7.00    1.90
   2   4  -1  103.09    9.60
   2   4  -1  106.09    9.60
   2   4  -1  100.49    9.50
   2   4  -1  115.39    9.20
   2   4  -1   98.19    9.50
  -2  -4   1  107.89    9.30
  -2  -4   1  116.99    9.90
  -2  -4   1   85.79    9.20
   1   4  -1   54.39    5.40
   1   4  -1   56.09    5.30
   1   4  -1   55.79    5.40
   1   4  -1   55.49    5.50
   1   4  -1   55.69    5.10
  -1  -4   1   54.99    5.10
  -1  -4   1   58.39    5.30
  -1  -4   1   55.69    5.50
  -1  -4   1   53.99    5.10
   0   4  -1  178.78   16.00
   0   4  -1  183.08   16.20
   0   4  -1  191.78   16.00
   0   4  -1  187.28   16.00
   0  -4   1  186.08   15.80
   0  -4   1  191.08   16.30
   0  -4   1  177.18   16.00
   0  -4   1  180.38   16.00
   0  -4   1  196.08   16.30
   0  -4   1  190.78   16.00
  -1   4  -1    2.30    0.70
  -1   4  -1    1.60    1.10
  -1   4  -1    3.70    1.10
  -1   4  -1    2.10    0.90
  -1   4  -1   -0.10    0.80
   1  -4   1    2.80    0.70
   1  -4   1    3.30    1.10
   1  -4   1    1.10    0.90
   1  -4   1    1.90    0.80
   1  -4   1    1.90    0.90
  -2   4  -1  417.56   33.60
  -2   4  -1  414.06   33.20
  -2   4  -1  398.36   33.40
   2  -4   1  363.96   33.30
   2  -4   1  413.46   33.40
   2  -4   1  371.66   33.20
   2  -4   1  377.06   33.30
   2  -4   1  390.46   33.10
   2  -4   1  376.76   33.50
  -3   4  -1  107.39   10.40
  -3   4  -1  124.39   10.90
   3  -4   1  119.69   10.50
   3  -4   1  113.59   10.80
   3  -4   1  118.09   10.30
   3  -4   1  110.99   11.00
   3  -4   1  122.59   10.70
  -4   4  -1    2.30    2.10
   4  -4   1   -0.50    2.90
   4  -4   1    4.10    2.40
   4  -4   1    0.10    3.20
   4   3  -1   13.10    3.60
   4   3  -1   10.60    2.40
   4   3  -1   13.80    2.50
   4   3  -1   14.60    3.30
  -4  -3   1   10.50    2.90
   3   3  -1   74.09    7.30
   3   3  -1   74.79    7.70
   3   3  -1   75.69    7.30
   3   3  -1   66.19    7.60
   3   3  -1   73.09    7.50
   3   3  -1   78.09    7.30
  -3  -3   1   81.29    7.30
  -3  -3   1   67.99    8.10
  -3  -3   1   84.99    6.90
   2   3  -1  141.69   12.80
   2   3  -1  138.19   12.90
   2   3  -1  148.19   12.70
   2   3  -1  144.99   13.10
   2   3  -1  143.19   12.90
  -2  -3   1  157.08   12.80
  -2  -3   1  143.69   12.80
  -2  -3   1  146.19   13.10
  -2  -3   1  147.29   12.70
   1   3  -1  196.78   18.00
   1   3  -1  194.28   17.80
   1   3  -1  211.88   18.00
   1   3  -1  217.48   18.00
   1   3  -1  209.68   18.00
  -1  -3   1  208.58   18.00
  -1  -3   1  222.68   18.10
  -1  -3   1  217.88   17.80
  -1  -3   1  201.08   17.80
  -1  -3   1  207.18   18.00
   0   3  -1   29.00    2.90
   0   3  -1   23.80    2.60
   0   3  -1   24.50    2.60
   0   3  -1   27.10    2.90
   0   3  -1   27.30    2.60
   0  -3   1   25.80    2.60
   0  -3   1   24.60    2.60
   0  -3   1   27.00    2.40
   0  -3   1   26.70    2.80
   0  -3   1   25.10    2.60
  -1   3  -1  166.48   16.70
  -1   3  -1  214.68   16.90
  -1   3  -1  215.38   16.80
  -1   3  -1  198.98   16.60
  -1   3  -1  192.18   16.70
   1  -3   1  186.48   16.50
   1  -3   1  171.78   16.60
   1  -3   1  196.38   16.70
   1  -3   1  206.48   16.80
   1  -3   1  205.68   16.80
  -2   3  -1  262.77   22.50
  -2   3  -1  274.57   22.00
  -2   3  -1  270.27   22.30
  -2   3  -1  265.67   22.00
  -2   3  -1  263.87   22.10
   2  -3   1  249.08   22.10
   2  -3   1  251.27   22.40
   2  -3   1  259.27   22.30
   2  -3   1  244.98   22.20
   2  -3   1  258.27   22.20
   3  -3   1   10.60    2.40
   3  -3   1   16.40    2.70
   3  -3   1   13.80    1.80
   3  -3   1   16.30    1.60
   3  -3   1   12.50    2.30
   3  -3   1   16.10    3.00
  -4   3  -1   26.10    3.50
   4  -3   1   21.90    4.40
   4  -3   1   25.50    4.70
   4  -3   1   31.40    4.10
   4  -3   1   26.10    4.00
   4  -3   1   25.20    5.00
   4   2  -1    2.90    3.80
   4   2  -1    5.30    3.10
   4   2  -1    1.70    1.50
   4   2  -1    1.60    2.40
   4   2  -1    3.00    1.60
  -4  -2   1    2.80    2.40
   3   2  -1    3.60    2.40
   3   2  -1   -0.50    1.70
   3   2  -1    0.30    1.10
   3   2  -1    0.10    1.60
   3   2  -1   -0.10    1.10
   3   2  -1    1.00    1.50
   3   2  -1    0.10    2.00
  -3  -2   1   -0.80    1.20
  -3  -2   1    0.50    1.80
   2   2  -1   80.09    6.80
   2   2  -1   72.99    7.00
   2   2  -1   75.99    6.80
   2   2  -1   73.29    6.90
   2   2  -1   76.19    6.90
  -2  -2   1   79.69    7.30
  -2  -2   1   71.89    6.90
  -2  -2   1   72.69    6.90
  -2  -2   1   77.59    6.70
  -2  -2   1   68.19    6.70
  -2  -2   1   80.99    7.10
   1   2  -1   47.80    4.80
   1   2  -1   50.69    4.80
   1   2  -1   49.90    4.80
   1   2  -1   54.69    4.90
  -1  -2   1   51.99    4.90
  -1  -2   1   53.99    4.70
  -1  -2   1   55.19    4.80
  -1  -2   1   53.19    4.60
   0   2  -1 3319.17  253.87
   0   2  -1 2985.80  253.27
   0   2  -1 2682.73  253.37
   0   2  -1 2948.70  253.47
   0   2  -1 3251.67  253.77
   0  -2   1 2987.10  253.47
   0  -2   1 3001.40  253.37
   0  -2   1 2921.31  253.37
  -1   2  -1  471.15   36.80
  -1   2  -1  430.26   36.90
  -1   2  -1  426.06   36.80
  -1   2  -1  457.75   36.80
  -1   2  -1  437.36   36.80
   1  -2   1  425.06   36.90
   1  -2   1  434.76   36.90
   1  -2   1  404.36   36.70
   1  -2   1  447.56   36.80
   1  -2   1  420.06   36.80
  -2   2  -1   20.50    2.40
  -2   2  -1   18.70    2.60
  -2   2  -1   16.70    2.00
   2  -2   1   15.80    2.30
   2  -2   1   15.90    1.80
   2  -2   1   20.30    2.30
   2  -2   1   18.40    2.20
   2  -2   1   18.00    1.80
   2  -2   1   16.80    2.40
  -3   2  -1  114.69    9.80
   3  -2   1  108.29   10.30
   3  -2   1  110.49   10.20
   3  -2   1  112.09   10.10
   3  -2   1  108.49   10.40
   3  -2   1  112.09   10.30
   3  -2   1  109.49   10.30
  -4   2  -1   24.70    3.70
   4  -2   1   29.00    5.20
   4  -2   1   37.50    4.60
   4  -2   1   29.60    4.30
   4   1  -1    8.80    3.40
   4   1  -1    8.60    3.90
   4   1  -1   10.70    3.00
   4   1  -1    1.40    2.50
  -4  -1   1    2.70    2.20
   3   1  -1   72.79    6.70
   3   1  -1   74.19    7.20
   3   1  -1   72.89    7.40
   3   1  -1   73.59    7.40
   3   1  -1   75.49    6.70
   3   1  -1   72.89    7.40
   3   1  -1   73.89    7.50
  -3  -1   1   73.49    7.00
  -3  -1   1   80.99    7.80
   2   1  -1    2.10    1.10
   2   1  -1    1.90    0.70
   2   1  -1    1.60    0.70
   2   1  -1    1.50    1.00
   2   1  -1    2.70    1.00
   2   1  -1    1.40    0.90
  -2  -1   1    1.50    1.30
  -2  -1   1    0.60    0.90
   1   1  -1  338.37   28.40
   1   1  -1  343.77   28.40
   1   1  -1  343.47   28.50
  -1  -1   1  299.17   28.30
  -1  -1   1  358.16   28.40
  -1  -1   1  325.77   28.30
  -1  -1   1  324.07   28.30
  -1  -1   1  350.96   28.50
  -1   1  -1   62.99    5.00
  -1   1  -1   56.69    5.00
  -1   1  -1   51.29    5.30
  -1   1  -1   55.29    5.00
  -1   1  -1   59.89    5.10
  -1   1  -1   57.69    5.20
   1  -1   1   56.69    5.00
   1  -1   1   57.99    5.00
   1  -1   1   56.09    5.20
   1  -1   1   57.09    5.10
   1  -1   1   53.89    5.20
  -2   1  -1  422.96   33.50
   2  -1   1  387.56   33.70
   2  -1   1  388.76   33.60
   2  -1   1  370.56   33.60
   2  -1   1  406.26   33.60
   2  -1   1  395.86   33.70
  -3   1  -1  215.38   17.60
   3  -1   1  201.38   17.90
   3  -1   1  206.78   17.80
   3  -1   1  197.98   17.80
   3  -1   1  192.78   18.00
   3  -1   1  196.78   17.90
   3  -1   1  211.08   17.80
  -4   1  -1    0.50    2.20
   4  -1   1   -2.20    3.60
   4  -1   1    1.00    2.50
   4  -1   1    1.50    2.60
   4   0  -1   70.09    7.10
   4   0  -1   70.49    7.20
   4   0  -1   59.79    6.90
   4   0  -1   43.40    6.90
  -4   0   1   54.39    6.30
   3   0  -1   98.69    9.50
   3   0  -1  102.59    9.50
   3   0  -1   93.89    9.50
   3   0  -1  101.49    8.80
   3   0  -1  104.29    9.60
   3   0  -1  107.29    9.70
  -3   0   1  111.39    9.30
   2   0  -1   23.40    2.70
   2   0  -1   18.80    2.80
   2   0  -1   23.80    2.20
   2   0  -1   21.60    2.20
   2   0  -1   20.80    2.60
   2   0  -1   22.60    2.70
   2   0  -1   23.70    2.80
  -2   0   1   25.30    2.90
  -2   0   1   25.80    2.50
   1   0  -1  167.68   14.20
   1   0  -1  170.38   14.30
   1   0  -1  171.28   14.20
   1   0  -1  166.08   14.30
   1   0  -1  160.88   14.30
  -1   0   1  160.38   14.40
  -1   0   1  182.88   14.20
  -1   0   1  168.58   14.20
  -1   0   1  158.28   14.30
  -1   0   1  182.88   14.20
  -1   0   1  146.99   14.30
  -1   0  -1    0.40    0.60
  -1   0  -1    0.80    0.40
  -1   0  -1    0.30    0.50
  -1   0  -1    0.40    0.40
  -1   0  -1    0.70    0.50
   1   0   1    0.70    0.60
   1   0   1    0.30    0.70
   1   0   1    0.50    0.40
   1   0   1    0.20    0.50
   1   0   1    0.80    0.70
   1   0   1    0.10    0.40
  -2   0  -1  191.98   16.00
   2   0   1  181.78   16.00
   2   0   1  171.48   16.10
   2   0   1  182.38   16.20
   2   0   1  195.68   16.10
   2   0   1  195.98   15.80
   2   0   1  194.48   16.10
   2   0   1  184.78   16.00
   2   0   1  177.38   15.80
  -3   0  -1   32.90    3.50
   3   0   1   23.20    3.60
   3   0   1   27.90    3.70
   3   0   1   31.00    3.80
   3   0   1   28.30    2.80
   3   0   1   30.60    4.20
   3   0   1   30.90    3.90
   3   0   1   31.00    4.00
  -4   0  -1   14.10    2.90
   4   0   1   16.00    3.50
   4   0   1   22.20    5.30
   4   0   1   25.00    3.80
   4   0   1   15.60    3.40
   4  -1  -1   12.60    3.20
   4  -1  -1   17.50    3.50
   4  -1  -1   16.70    3.80
   4  -1  -1   14.00    4.10
  -4   1   1   17.90    2.80
   3  -1  -1   23.90    3.40
   3  -1  -1   25.40    3.60
   3  -1  -1   27.50    3.60
   3  -1  -1   29.00    3.70
   3  -1  -1   25.80    3.60
  -3   1   1   26.40    3.10
   2  -1  -1  388.36   31.60
   2  -1  -1  372.86   31.90
   2  -1  -1  362.36   31.90
   2  -1  -1  369.66   31.60
   2  -1  -1  364.16   31.90
   2  -1  -1  324.47   31.70
  -2   1   1  410.26   32.00
  -2   1   1  382.76   31.70
  -2   1   1  391.96   31.80
   1  -1  -1 3212.78  269.27
   1  -1  -1 3321.57  269.47
   1  -1  -1 3074.89  269.17
   1  -1  -1 3248.88  269.37
   1  -1  -1 2996.70  269.07
   1  -1  -1 2998.90  269.37
  -1   1   1 3264.17  269.47
  -1   1   1 3319.97  269.37
  -1   1   1 3267.47  268.97
  -1   1   1 3263.27  269.27
  -1   1   1 3272.07  269.57
  -1  -1  -1  344.97   27.30
  -1  -1  -1  334.27   27.30
  -1  -1  -1  344.77   27.30
  -1  -1  -1  320.97   27.20
   1   1   1  312.87   27.30
   1   1   1  314.37   27.10
   1   1   1  302.67   27.30
   1   1   1  306.47   27.40
   1   1   1  330.67   27.30
   1   1   1  306.27   27.10
  -2  -1  -1   11.40    1.60
  -2  -1  -1   14.60    1.40
  -2  -1  -1   13.20    1.50
  -2  -1  -1   12.80    2.00
   2   1   1   11.40    1.70
   2   1   1   11.20    1.70
   2   1   1   12.30    1.80
   2   1   1   11.10    1.60
   2   1   1   11.90    1.70
   2   1   1   11.80    1.60
  -3  -1  -1    7.50    1.90
   3   1   1    8.70    2.20
   3   1   1    9.30    1.90
   3   1   1   12.70    2.50
   3   1   1    8.60    2.40
   3   1   1    7.20    2.10
   3   1   1    9.40    2.10
   3   1   1   11.40    1.60
   3   1   1   10.20    1.60
  -4  -1  -1   13.30    2.80
   4   1   1   14.40    3.60
   4   1   1    9.70    3.60
   4   1   1    8.70    3.60
   4   1   1   12.20    2.90
   4  -2  -1   -0.70    2.10
   4  -2  -1   -3.00    2.50
   4  -2  -1   -0.90    2.60
   4  -2  -1   -0.80    4.70
  -4   2   1   -0.40    1.90
   3  -2  -1   97.09    8.40
   3  -2  -1   93.09    8.90
   3  -2  -1   95.59    9.30
   3  -2  -1  102.29    9.10
   3  -2  -1  103.09    9.40
   3  -2  -1   98.29    8.50
   3  -2  -1   94.29    9.30
  -3   2   1  100.79    8.80
   2  -2  -1   79.39    7.20
   2  -2  -1   78.09    7.00
   2  -2  -1   79.79    7.30
   2  -2  -1   77.79    7.10
   2  -2  -1   63.89    7.20
   2  -2  -1   77.69    7.00
  -2   2   1   80.69    6.80
  -2   2   1   79.59    7.00
  -2   2   1   84.69    6.80
  -2   2   1   90.99    7.40
   1  -2  -1   17.60    1.90
   1  -2  -1   16.50    1.90
   1  -2  -1   15.80    1.70
   1  -2  -1   15.70    1.90
   1  -2  -1   17.20    1.50
   1  -2  -1   16.70    1.90
  -1   2   1   18.00    1.90
  -1   2   1   15.20    2.00
  -1   2   1   11.20    1.80
   0  -2  -1  275.87   23.70
   0  -2  -1  280.07   23.50
   0  -2  -1  270.67   23.60
   0  -2  -1  285.07   23.50
   0  -2  -1  286.17   23.70
   0   2   1  279.67   23.60
   0   2   1  256.07   23.50
   0   2   1  277.67   23.70
   0   2   1  278.17   23.50
  -1  -2  -1  326.27   25.70
  -1  -2  -1  329.67   25.80
  -1  -2  -1  308.57   25.60
   1   2   1  288.77   25.70
   1   2   1  293.77   25.40
   1   2   1  272.27   25.70
   1   2   1  296.57   25.70
   1   2   1  298.07   25.70
  -2  -2  -1  230.88   18.00
  -2  -2  -1  180.38   17.70
  -2  -2  -1  235.18   17.70
  -2  -2  -1  210.18   17.70
   2   2   1  207.38   17.90
   2   2   1  201.48   17.80
   2   2   1  191.58   17.50
   2   2   1  204.88   17.60
   2   2   1  202.08   17.90
   2   2   1  199.08   17.70
  -3  -2  -1  104.39    8.70
   3   2   1   93.29    8.60
   3   2   1   98.19    8.60
   3   2   1   99.69    9.00
   3   2   1   93.59    8.70
   3   2   1   77.49    9.10
   3   2   1   98.99    9.20
   3   2   1   87.99    8.90
  -4  -2  -1   20.20    3.40
   4   2   1   19.00    3.30
   4   2   1   23.80    3.40
   4   2   1   19.80    4.10
   4   2   1   19.50    4.80
   4  -3  -1   56.49    6.80
   4  -3  -1   41.30    6.00
   4  -3  -1   50.59    6.70
   4  -3  -1   45.20    5.70
  -4   3   1   48.50    5.40
   3  -3  -1  181.68   15.90
   3  -3  -1  184.48   15.70
   3  -3  -1  175.88   16.30
   3  -3  -1  188.08   15.80
   3  -3  -1  177.08   16.30
  -3   3   1  197.98   16.40
  -3   3   1  175.58   15.90
   2  -3  -1    4.20    1.00
   2  -3  -1    4.10    0.90
   2  -3  -1    3.40    0.80
   2  -3  -1    4.00    0.90
   2  -3  -1    4.50    1.10
   2  -3  -1    3.40    1.20
  -2   3   1    4.20    1.30
  -2   3   1    2.80    0.70
  -2   3   1    2.20    0.90
   1  -3  -1  285.37   24.20
   1  -3  -1  304.07   24.40
   1  -3  -1  276.47   24.40
   1  -3  -1  281.17   24.40
   1  -3  -1  267.67   24.40
  -1   3   1  288.77   24.40
  -1   3   1  293.37   24.40
  -1   3   1  288.47   24.40
   0  -3  -1   57.09    5.10
   0  -3  -1   52.59    5.00
   0  -3  -1   49.70    5.30
   0  -3  -1   55.69    5.00
   0  -3  -1   60.99    5.00
   0   3   1   53.99    4.90
   0   3   1   55.19    5.20
   0   3   1   52.69    5.10
   0   3   1   58.29    5.30
   0   3   1   62.29    5.00
  -1  -3  -1  337.87   27.50
  -1  -3  -1  316.77   27.30
   1   3   1  304.27   27.50
   1   3   1  329.17   27.60
   1   3   1  335.67   27.50
   1   3   1  308.97   27.60
  -2  -3  -1   30.40    3.30
  -2  -3  -1   32.70    3.30
  -2  -3  -1   28.80    3.90
  -2  -3  -1   20.50    3.40
   2   3   1   31.30    3.50
   2   3   1   32.70    3.40
   2   3   1   32.60    2.90
   2   3   1   26.60    2.80
   2   3   1   31.30    3.70
  -3  -3  -1   26.40    3.30
  -3  -3  -1   34.00    4.80
  -3  -3  -1   23.20    3.40
  -3  -3  -1   26.20    3.30
   3   3   1   31.50    4.10
   3   3   1   24.00    3.20
   3   3   1   34.70    4.30
   3   3   1   25.30    3.50
   3   3   1   26.80    3.80
   3   3   1   30.50    3.70
  -4  -3  -1   16.70    3.50
   4   3   1   29.60    4.80
   4   3   1   15.70    3.20
   4   3   1   15.70    3.20
   4   3   1   28.50    4.80
   4  -4  -1    8.40    3.50
   4  -4  -1    9.00    2.30
   4  -4  -1    6.30    1.50
   4  -4  -1    5.10    1.20
   4  -4  -1    3.70    2.90
   3  -4  -1   22.20    3.20
   3  -4  -1   23.50    3.40
   3  -4  -1   25.80    2.90
   3  -4  -1   21.60    3.50
   3  -4  -1   22.90    3.20
   3  -4  -1   26.40    2.90
   3  -4  -1   17.00    4.10
  -3   4   1   29.00    3.80
   2  -4  -1    0.80    0.90
   2  -4  -1    0.70    1.10
   2  -4  -1    1.30    0.80
   2  -4  -1    0.60    1.30
   2  -4  -1    0.60    0.50
   2  -4  -1    0.10    0.90
   2  -4  -1    0.40    0.50
  -2   4   1    3.60    1.00
  -2   4   1    1.00    1.20
  -2   4   1    2.40    1.20
   1  -4  -1   73.19    6.30
   1  -4  -1   70.59    6.70
   1  -4  -1   70.69    6.70
   1  -4  -1   74.39    6.60
  -1   4   1   68.89    6.60
  -1   4   1   71.19    6.60
   0  -4  -1   38.10    4.10
   0  -4  -1   35.40    3.50
   0  -4  -1   36.70    3.60
   0  -4  -1   34.50    4.00
   0  -4  -1   38.50    3.60
   0  -4  -1   36.20    3.80
   0   4   1   36.20    3.60
   0   4   1   36.30    4.00
   0   4   1   38.90    4.10
   0   4   1   42.20    3.70
   0   4   1   37.40    3.80
  -1  -4  -1  367.16   34.80
  -1  -4  -1  435.86   35.40
  -1  -4  -1  443.06   35.40
  -1  -4  -1  358.56   35.20
   1   4   1  421.46   35.30
   1   4   1  459.35   35.40
   1   4   1  410.66   35.40
   1   4   1  421.16   35.50
  -2  -4  -1   71.19    6.40
  -2  -4  -1   76.69    6.70
  -2  -4  -1   62.29    7.00
  -2  -4  -1   54.09    6.70
   2   4   1   66.39    6.50
   2   4   1   69.39    6.60
   2   4   1   68.19    6.70
   2   4   1   70.59    6.80
  -3  -4  -1   17.20    3.00
  -3  -4  -1   18.30    2.70
   3   4   1   17.10    2.20
   3   4   1   18.50    3.70
   3   4   1   18.70    3.10
   3   4   1   15.60    3.00
   3   4   1   20.80    3.10
   4  -5  -1   28.60    4.20
   4  -5  -1   29.20    3.70
   4  -5  -1   22.50    3.60
   4  -5  -1   35.30    3.50
   4  -5  -1   29.30    5.10
   4  -5  -1   23.10    4.00
  -4   5   1   34.40    5.00
   3  -5  -1   33.80    5.00
   3  -5  -1   40.00    4.00
   3  -5  -1   44.80    4.60
   3  -5  -1   38.30    4.00
   3  -5  -1   33.40    3.60
   3  -5  -1   35.90    3.80
   3  -5  -1   43.90    5.60
  -3   5   1   41.20    4.80
  -3   5   1   37.40    3.90
  -3   5   1   31.50    4.00
   2  -5  -1  167.28   14.80
   2  -5  -1  171.18   14.70
   2  -5  -1  131.89   14.70
   2  -5  -1  169.58   14.40
   2  -5  -1  160.18   14.70
  -2   5   1  178.38   14.90
  -2   5   1  189.78   14.70
   1  -5  -1  700.93   58.89
   1  -5  -1  726.53   58.69
   1  -5  -1  636.94   58.39
   1  -5  -1  722.23   58.69
   1  -5  -1  690.73   58.89
  -1   5   1  712.43   58.89
  -1   5   1  619.64   58.19
  -1   5   1  716.93   58.79
  -1   5   1  715.43   58.69
   0  -5  -1  408.86   33.30
   0  -5  -1  394.76   33.10
   0  -5  -1  393.26   32.90
   0  -5  -1  348.17   33.20
   0  -5  -1  363.86   32.80
   0   5   1  411.46   33.40
   0   5   1  395.36   33.10
   0   5   1  390.76   32.80
   0   5   1  376.16   33.20
  -1  -5  -1  284.67   21.20
  -1  -5  -1  197.48   20.70
  -1  -5  -1  221.38   20.30
  -1  -5  -1  205.58   20.90
  -1  -5  -1  266.77   20.60
  -1  -5  -1  248.08   20.80
   1   5   1  245.08   21.00
   1   5   1  236.18   20.20
   1   5   1  266.87   20.90
   1   5   1  242.48   21.00
   1   5   1  229.38   20.80
  -2  -5  -1   32.70    4.10
  -2  -5  -1   31.10    4.40
  -2  -5  -1   30.70    3.60
  -2  -5  -1   24.20    3.90
   2   5   1   28.10    4.10
   2   5   1   28.30    3.90
   2   5   1   37.20    4.30
   2   5   1   32.40    4.40
  -3  -5  -1   21.10    3.20
  -3  -5  -1   22.10    4.00
   3   5   1   26.70    4.40
   3   5   1   24.30    3.60
   3   5   1   20.30    3.80
   3   5   1   23.90    3.70
   4  -6  -1    0.10    1.80
   4  -6  -1    4.00    2.60
   4  -6  -1    1.00    2.20
   4  -6  -1   -0.30    3.40
  -4   6   1   -3.40    3.30
   3  -6  -1   58.29    6.10
   3  -6  -1   52.59    6.40
   3  -6  -1   62.49    5.90
   3  -6  -1   59.09    6.80
  -3   6   1   56.89    6.30
  -3   6   1   65.49    6.80
   2  -6  -1   76.59    7.90
   2  -6  -1   77.49    7.90
   2  -6  -1   84.59    7.90
   2  -6  -1   79.49    8.00
   2  -6  -1   78.29    7.40
  -2   6   1   82.89    8.10
  -2   6   1   80.49    8.00
  -2   6   1   89.39    7.80
   1  -6  -1  242.58   21.30
   1  -6  -1  254.87   21.10
   1  -6  -1  244.58   21.10
   1  -6  -1  261.17   21.40
  -1   6   1  252.47   21.10
  -1   6   1  279.97   21.50
  -1   6   1  213.98   21.30
  -1   6   1  239.38   20.60
  -1   6   1  207.98   20.50
   0  -6  -1  105.49    9.30
   0  -6  -1   79.99    9.40
   0  -6  -1  113.09    9.80
   0  -6  -1   91.59    8.90
   0  -6  -1  103.29    9.00
   0  -6  -1  107.29    9.00
   0   6   1   99.19    9.60
   0   6   1  108.99    9.00
   0   6   1  100.29    9.30
   0   6   1  106.79    9.60
   0   6   1   90.59    9.10
  -1  -6  -1   95.59   10.60
  -1  -6  -1  121.19   10.40
  -1  -6  -1  134.49   11.00
  -1  -6  -1  108.69   10.50
  -1  -6  -1  120.69   10.10
  -1  -6  -1  104.59    9.80
   1   6   1  116.49   10.80
   1   6   1  111.99   10.40
   1   6   1  112.89   10.70
   1   6   1  108.09    9.70
  -2  -6  -1  133.29   11.60
  -2  -6  -1  117.49   12.30
   2   6   1  124.99   12.30
   2   6   1  136.79   12.30
  -3  -6  -1   29.70    4.00
   3   6   1   30.80    4.30
   3   6   1   23.60    4.60
   3   6   1   21.50    3.90
   4  -7  -1  111.69   11.50
   4  -7  -1  117.09   11.60
   4  -7  -1   96.99   10.20
   4  -7  -1  110.29   10.40
  -4   7   1  111.79   12.30
   3  -7  -1   79.79    9.00
   3  -7  -1   99.49    8.70
   3  -7  -1   88.09    8.10
   3  -7  -1   94.89    9.00
  -3   7   1   66.79    8.90
  -3   7   1   98.29    9.30
   2  -7  -1   64.59    7.20
   2  -7  -1   64.09    6.90
   2  -7  -1   67.49    6.30
   2  -7  -1   73.09    7.10
  -2   7   1   55.09    7.20
  -2   7   1   69.89    7.10
  -2   7   1   67.79    7.10
  -2   7   1   76.49    7.10
   1  -7  -1   55.39    5.80
   1  -7  -1   65.49    6.80
   1  -7  -1   59.79    6.80
   1  -7  -1   71.19    6.40
   1  -7  -1   46.50    6.20
  -1   7   1   69.29    6.50
  -1   7   1   61.09    5.70
  -1   7   1   67.39    6.90
  -1   7   1   67.89    6.80
  -1   7   1   59.09    5.50
  -1   7   1   59.19    6.30
   0  -7  -1    1.50    1.40
   0  -7  -1    3.60    2.40
   0  -7  -1    3.00    1.50
   0  -7  -1    1.80    1.20
   0  -7  -1    0.10    1.90
   0   7   1    1.80    2.20
   0   7   1    0.70    2.00
   0   7   1    0.30    1.50
   0   7   1    2.00    1.90
   0   7   1    1.10    1.30
  -1  -7  -1  203.28   16.60
  -1  -7  -1  159.78   15.20
  -1  -7  -1  187.48   15.60
  -1  -7  -1  173.78   16.10
   1   7   1  176.48   16.20
   1   7   1  168.28   15.10
   1   7   1  169.68   16.20
   1   7   1  186.58   16.00
  -2  -7  -1   21.50    2.90
  -2  -7  -1   23.80    4.40
   2   7   1    9.20    3.40
   2   7   1   14.70    3.10
   2   7   1   19.90    3.60
  -3  -7  -1   -1.30    2.20
   3   7   1    5.90    4.00
   3   7   1   -2.20    3.00
   3   7   1    3.30    4.10
   3  -8  -1    5.70    2.40
   3  -8  -1   11.80    2.60
   3  -8  -1    5.10    3.40
  -3   8   1   12.60    3.80
  -3   8   1   17.20    3.40
   2  -8  -1   54.09    6.70
   2  -8  -1   48.00    6.50
   2  -8  -1   53.29    5.40
  -2   8   1   62.79    6.50
  -2   8   1   45.70    6.80
   1  -8  -1   41.90    4.70
   1  -8  -1   36.80    4.20
   1  -8  -1   34.30    4.90
   1  -8  -1   47.80    5.80
   1  -8  -1   44.80    5.80
  -1   8   1   36.80    4.20
  -1   8   1   36.20    5.50
  -1   8   1   48.80    6.00
  -1   8   1   43.40    5.00
  -1   8   1   35.20    3.80
  -1   8   1   42.00    5.20
   0  -8  -1    1.90    2.30
   0  -8  -1    3.70    3.00
   0  -8  -1    1.90    1.30
   0  -8  -1    0.70    1.90
   0   8   1    1.80    1.60
   0   8   1    2.30    2.50
   0   8   1    1.30    2.40
   0   8   1    1.00    2.30
   0   8   1    1.40    1.90
  -1  -8  -1   44.20    5.00
  -1  -8  -1   43.00    6.90
  -1  -8  -1   48.60    5.10
  -1  -8  -1   51.59    6.80
   1   8   1   45.50    6.90
   1   8   1   45.10    5.90
   1   8   1   46.90    6.00
   1   8   1   49.30    6.60
  -2  -8  -1    3.00    2.10
   2   8   1    0.20    2.70
   2   8   1    5.30    3.10
   3  -9  -1    7.30    2.50
   3  -9  -1   11.40    4.10
   3  -9  -1   10.70    3.40
  -3   9   1    4.30    3.90
   2  -9  -1   35.60    4.30
   2  -9  -1   42.00    5.60
   2  -9  -1   41.80    6.20
  -2   9   1   38.00    5.50
   1  -9  -1    5.50    3.10
   1  -9  -1    9.80    3.40
   1  -9  -1    4.90    2.00
  -1   9   1    3.40    3.50
  -1   9   1    6.30    2.60
  -1   9   1    3.80    1.30
  -1   9   1    5.00    2.00
  -1   9   1    7.30    3.40
  -1   9   1    2.80    2.30
   0  -9  -1   64.29    8.50
   0  -9  -1   57.49    5.60
   0  -9  -1   49.80    6.20
   0  -9  -1   39.50    6.30
   0   9   1   56.19    7.60
   0   9   1   40.00    6.30
   0   9   1   44.50    7.10
   0   9   1   58.09    6.40
   0   9   1   61.89    5.80
  -1  -9  -1   78.39    7.90
  -1  -9  -1   63.89    9.60
   1   9   1   94.69    9.10
   1   9   1   83.89    9.60
  -2  -9  -1    2.70    2.30
   2   9   1   -0.60    3.80
   2   9   1   -4.60    3.10
   3 -10  -1    8.30    2.80
   3 -10  -1   14.50    4.90
   3 -10  -1    5.40    3.90
  -3  10   1   13.70    5.40
   2 -10  -1    1.30    2.00
   2 -10  -1    8.30    3.90
  -2  10   1    0.70    3.40
   1 -10  -1   63.09    5.90
   1 -10  -1   62.59    8.10
   1 -10  -1   69.19    9.30
   1 -10  -1   61.49    8.50
  -1  10   1   60.49    7.20
  -1  10   1   59.29    6.80
  -1  10   1   43.10    5.30
  -1  10   1   45.90    7.60
   0 -10  -1   24.60    4.50
   0 -10  -1   26.10    6.20
   0 -10  -1   31.50    3.90
   0 -10  -1   30.30    5.50
   0  10   1   23.40    5.20
   0  10   1   31.10    5.70
   0  10   1   19.20    4.30
   0  10   1   24.00    4.30
  -1 -10  -1   13.30    3.00
   1  10   1   22.10    4.20
   1  10   1   10.70    4.10
   2 -11  -1   88.19    9.30
   2 -11  -1  113.19   12.70
  -2  11   1   91.49   11.20
   1 -11  -1   77.49   11.00
   1 -11  -1   59.49    6.80
  -1  11   1   60.89    7.90
   0 -11  -1   31.30    4.40
   0 -11  -1   34.60    6.60
   0  11   1   17.70    5.50
   0  11   1   30.30    5.10
   0  11   1   26.20    4.10
   0  12  -2   28.10    7.00
   0  12  -2   33.60    5.50
   0  12  -2   32.90    6.20
   0 -12   2   34.30    7.20
   0 -12   2   39.50    4.70
   0 -12   2   37.30    5.70
  -1  12  -2   15.60    4.70
  -1  12  -2   20.10    4.70
   1 -12   2   15.10    5.40
   1 -12   2   12.50    3.30
   1 -12   2   12.90    3.20
   1  11  -2   13.70    3.50
   1  11  -2   15.20    4.30
   1  11  -2    5.80    4.90
  -1 -11   2   11.00    2.70
  -1 -11   2    3.50    4.30
   0  11  -2   43.60    7.20
   0  11  -2   60.79    7.20
   0  11  -2   54.89    7.00
   0  11  -2   64.59    7.10
   0 -11   2   55.79    6.10
   0 -11   2   69.19   11.10
   0 -11   2   54.69    7.10
   0 -11   2   42.10    7.20
   0 -11   2   53.09    7.00
  -1  11  -2   47.70    6.30
  -1  11  -2   53.99    6.80
  -1  11  -2   42.20    7.00
  -1  11  -2   51.19    6.80
   1 -11   2   55.49    5.90
   1 -11   2   57.89    8.40
   1 -11   2   66.59    8.20
   1 -11   2   48.00    6.10
  -2  11  -2   15.90    4.50
  -2  11  -2   31.30    5.60
   2 -11   2   18.30    4.40
   2 -11   2   23.70    3.20
   2  10  -2   27.70    5.90
   2  10  -2   26.20    4.90
  -2 -10   2   26.90    4.10
  -2 -10   2   36.00    5.90
   1  10  -2    4.40    4.20
   1  10  -2    6.30    4.10
   1  10  -2    4.10    2.80
   1  10  -2    8.20    2.50
  -1 -10   2    4.20    2.20
  -1 -10   2    5.20    3.40
  -1 -10   2    5.90    3.00
  -1 -10   2   12.50    3.80
   0  10  -2    5.10    2.80
   0  10  -2    5.00    3.60
   0  10  -2    3.90    2.90
   0  10  -2    6.90    2.70
   0  10  -2    6.40    3.60
   0 -10   2    1.40    3.90
   0 -10   2    2.70    1.90
   0 -10   2    3.50    2.40
   0 -10   2    2.00    3.00
  -1  10  -2   48.50    8.50
  -1  10  -2   73.89    8.00
  -1  10  -2   77.89    8.90
  -1  10  -2   59.59    7.70
   1 -10   2   68.69    6.80
   1 -10   2   73.99    9.10
   1 -10   2   62.09    6.60
   1 -10   2   76.99    8.40
  -2  10  -2    1.40    3.30
  -2  10  -2    1.10    1.80
  -2  10  -2    5.30    3.60
  -2  10  -2    6.00    3.50
   2 -10   2    4.30    3.80
   2 -10   2    4.40    1.80
   2 -10   2    3.10    1.60
   2 -10   2    4.10    2.70
  -3  10  -2   49.30    7.00
  -3  10  -2   73.59    9.20
   3 -10   2   51.09    7.20
   3 -10   2   44.30    5.20
   2   9  -2   26.30    5.00
   2   9  -2   21.30    4.00
   2   9  -2   18.30    3.00
  -2  -9   2   21.50    4.80
  -2  -9   2   17.10    3.20
   1   9  -2    1.80    2.20
   1   9  -2    2.80    2.80
   1   9  -2    3.70    2.00
   1   9  -2   -2.60    3.10
   1   9  -2   -1.10    2.80
  -1  -9   2    6.20    3.40
  -1  -9   2    1.40    3.50
  -1  -9   2    3.10    1.80
  -1  -9   2    4.40    2.80
   0   9  -2   83.29    8.10
   0   9  -2   73.49    8.30
   0   9  -2   92.69    9.20
   0   9  -2   96.89    8.20
   0   9  -2   58.39    8.70
   0  -9   2   62.19    8.20
   0  -9   2   85.19    7.50
   0  -9   2   60.09    8.50
   0  -9   2   98.69    9.60
   0  -9   2   93.99    8.10
  -1   9  -2   58.89    6.10
  -1   9  -2   59.19    6.20
  -1   9  -2   40.30    6.70
  -1   9  -2   46.90    6.70
  -1   9  -2   40.50    5.90
   1  -9   2   51.39    6.40
   1  -9   2   43.50    6.10
   1  -9   2   53.69    6.80
   1  -9   2   50.69    6.60
   1  -9   2   47.60    5.00
   1  -9   2   54.29    5.30
  -2   9  -2   14.30    3.40
  -2   9  -2   13.30    2.20
  -2   9  -2    7.70    3.10
  -2   9  -2   19.20    3.60
   2  -9   2   13.70    3.70
   2  -9   2   11.00    2.70
   2  -9   2   16.50    2.20
   2  -9   2    9.70    3.30
  -3   9  -2    8.70    3.50
  -3   9  -2   -3.60    3.50
   3  -9   2    6.60    3.40
   3  -9   2    4.50    1.60
   3  -9   2    5.10    2.40
   3  -9   2    3.90    2.00
   3   8  -2    7.90    4.10
   3   8  -2    7.60    3.80
  -3  -8   2    8.50    2.60
  -3  -8   2    8.50    4.30
   2   8  -2    2.90    3.10
   2   8  -2    8.50    3.00
   2   8  -2    7.30    2.00
   2   8  -2    7.30    3.20
  -2  -8   2   10.50    2.90
  -2  -8   2    6.80    3.30
  -2  -8   2   11.30    3.20
  -2  -8   2    6.70    2.20
   1   8  -2   89.09    8.40
   1   8  -2   80.39    8.70
   1   8  -2   83.19    8.70
   1   8  -2   76.69    8.10
   1   8  -2   79.59    7.60
  -1  -8   2   57.69    8.20
  -1  -8   2   80.69    8.90
  -1  -8   2   70.79    8.20
  -1  -8   2   81.99    7.50
  -1  -8   2   83.69    8.20
  -1  -8   2  102.89    9.40
   0   8  -2   72.79    7.50
   0   8  -2   73.79    7.50
   0   8  -2   75.39    8.10
   0   8  -2   54.49    7.80
   0   8  -2   83.49    7.30
   0  -8   2   75.19    7.20
   0  -8   2   99.19    9.00
   0  -8   2   75.09    7.50
   0  -8   2   74.19    6.80
   0  -8   2   61.49    7.70
   0  -8   2   83.49    8.40
  -1   8  -2  212.38   17.30
  -1   8  -2  190.28   17.10
  -1   8  -2  199.08   17.40
  -1   8  -2  168.38   16.80
   1  -8   2  200.48   16.70
   1  -8   2  188.08   17.30
   1  -8   2  183.28   16.40
   1  -8   2  197.98   17.50
   1  -8   2  184.98   17.00
  -2   8  -2    9.80    2.20
  -2   8  -2   11.20    1.90
  -2   8  -2   10.00    2.70
  -2   8  -2    9.90    2.70
  -2   8  -2   12.20    2.70
   2  -8   2   14.50    2.80
   2  -8   2   15.20    2.00
   2  -8   2   12.80    3.10
   2  -8   2    7.00    2.50
   2  -8   2   13.20    2.00
  -3   8  -2   41.70    5.20
  -3   8  -2   38.50    5.30
  -3   8  -2   35.60    5.30
   3  -8   2   29.80    4.80
   3  -8   2   34.60    4.70
   3  -8   2   32.70    4.00
   3  -8   2   34.80    5.00
   3  -8   2   38.70    4.40
   3  -8   2   28.40    3.70
  -4   8  -2   30.50    6.00
   4  -8   2   39.00    6.10
   4  -8   2   37.90    5.10
   4  -8   2   41.20    5.30
   3   7  -2   14.50    2.70
   3   7  -2   15.30    3.60
   3   7  -2   15.00    3.70
  -3  -7   2   14.10    2.70
  -3  -7   2   11.80    4.00
   2   7  -2   81.49    8.50
   2   7  -2   85.49    8.30
   2   7  -2   89.99    7.70
   2   7  -2   64.39    8.40
  -2  -7   2   91.79    8.60
  -2  -7   2   94.49    7.70
  -2  -7   2   60.79    8.30
  -2  -7   2   79.79    8.10
   1   7  -2   45.50    5.50
   1   7  -2   40.80    5.00
   1   7  -2   44.40    4.60
   1   7  -2   36.00    5.10
   1   7  -2   45.60    5.50
  -1  -7   2   41.10    5.00
  -1  -7   2   43.20    5.60
  -1  -7   2   45.00    4.40
  -1  -7   2   45.80    5.10
   0   7  -2   70.39    6.30
   0   7  -2   67.69    6.90
   0   7  -2   64.69    6.30
   0   7  -2   64.89    6.40
   0   7  -2   57.19    6.70
   0  -7   2   67.59    6.30
   0  -7   2   56.79    6.40
   0  -7   2   68.79    6.40
   0  -7   2   49.00    6.60
   0  -7   2   68.29    5.90
   0  -7   2   67.09    7.00
  -1   7  -2  542.05   44.20
  -1   7  -2  521.65   43.70
  -1   7  -2  539.75   44.00
  -1   7  -2  528.85   44.00
   1  -7   2  513.25   44.00
   1  -7   2  479.05   43.80
   1  -7   2  511.85   43.60
   1  -7   2  524.15   44.10
   1  -7   2  461.35   43.40
   1  -7   2  524.15   44.20
  -2   7  -2  335.87   26.90
  -2   7  -2  312.57   27.10
   2  -7   2  298.67   27.10
   2  -7   2  306.17   26.50
   2  -7   2  321.67   27.00
   2  -7   2  293.77   26.30
   2  -7   2  307.37   26.90
  -3   7  -2   53.49    6.80
  -3   7  -2   65.49    7.40
  -3   7  -2   86.79    7.90
   3  -7   2   64.49    6.30
   3  -7   2   65.99    6.80
   3  -7   2   67.29    7.20
   3  -7   2   66.09    6.80
   3  -7   2   77.79    6.70
   3  -7   2   63.59    8.70
  -4   7  -2   30.30    5.40
   4  -7   2   28.40    4.10
   4  -7   2   29.00    3.70
   4  -7   2   27.00    4.30
   4  -7   2   32.00    4.30
   3   6  -2   20.20    3.00
   3   6  -2   19.30    3.80
   3   6  -2   18.60    3.40
   3   6  -2   15.60    3.70
  -3  -6   2   20.60    3.20
  -3  -6   2   20.40    3.70
  -3  -6   2   20.40    4.50
  -3  -6   2   19.90    3.60
   2   6  -2  122.39   11.20
   2   6  -2   96.19   11.10
   2   6  -2  125.19   11.20
   2   6  -2  125.99   11.00
   2   6  -2  124.19   10.60
  -2  -6   2  123.39   10.60
  -2  -6   2  123.39   11.10
  -2  -6   2  125.19   11.30
  -2  -6   2   99.59   10.90
  -2  -6   2  118.19   11.10
   1   6  -2  160.48   14.70
   1   6  -2  165.18   14.80
   1   6  -2  165.18   14.60
   1   6  -2  159.48   14.30
   1   6  -2  162.28   14.80
  -1  -6   2  176.18   15.00
  -1  -6   2  164.68   14.70
  -1  -6   2  160.28   14.60
  -1  -6   2  163.98   14.20
  -1  -6   2  165.78   14.60
   0   6  -2   59.49    5.80
   0   6  -2   62.89    6.30
   0   6  -2   58.99    5.90
   0   6  -2   56.19    5.80
   0   6  -2   56.09    6.10
   0  -6   2   60.09    5.80
   0  -6   2   57.09    6.10
   0  -6   2   64.69    5.50
   0  -6   2   64.89    5.90
   0  -6   2   67.29    6.40
   0  -6   2   60.89    5.90
  -1   6  -2  129.39   12.30
  -1   6  -2  145.79   12.60
  -1   6  -2  142.69   12.50
  -1   6  -2  155.98   12.70
   1  -6   2  120.09   12.40
   1  -6   2  132.39   12.00
   1  -6   2  144.59   12.20
   1  -6   2  138.79   12.40
   1  -6   2  152.18   12.80
   1  -6   2  143.09   12.70
  -2   6  -2   15.20    2.40
  -2   6  -2   11.50    2.40
  -2   6  -2   12.10    2.00
  -2   6  -2   15.80    2.80
  -2   6  -2   15.70    2.30
   2  -6   2   13.90    2.30
   2  -6   2   15.40    2.40
   2  -6   2   16.10    2.60
   2  -6   2   16.70    2.50
   2  -6   2   17.50    1.90
   2  -6   2   17.50    2.20
  -3   6  -2   13.80    2.00
  -3   6  -2    9.90    2.00
  -3   6  -2   21.90    3.70
  -3   6  -2   16.20    2.90
   3  -6   2   18.60    2.80
   3  -6   2   17.80    2.20
   3  -6   2   17.10    2.40
   3  -6   2   16.80    2.50
   3  -6   2   14.40    3.20
   4  -6   2   19.20    3.10
   4  -6   2   20.70    3.00
   4  -6   2   13.90    2.60
   4  -6   2   12.00    2.70
   4  -6   2   12.90    4.10
   4   5  -2    4.00    2.70
   4   5  -2    0.80    4.20
   3   5  -2   22.10    3.40
   3   5  -2   20.10    3.70
   3   5  -2   22.60    3.60
   3   5  -2   25.10    3.20
  -3  -5   2   27.20    4.10
  -3  -5   2   27.40    3.50
  -3  -5   2   19.70    3.70
  -3  -5   2   21.00    3.30
   2   5  -2   81.19    7.90
   2   5  -2   83.89    8.30
   2   5  -2   84.99    8.30
   2   5  -2   74.29    8.30
   2   5  -2   87.49    8.20
  -2  -5   2   80.69    7.80
  -2  -5   2   92.39    8.40
  -2  -5   2   90.59    8.40
  -2  -5   2  102.39    8.20
   1   5  -2  739.93   61.89
   1   5  -2  742.13   62.09
   1   5  -2  707.63   61.69
   1   5  -2  752.92   61.89
   1   5  -2  728.13   62.09
  -1  -5   2  665.43   61.59
  -1  -5   2  705.63   61.89
  -1  -5   2  756.82   61.79
  -1  -5   2  782.12   62.09
  -1  -5   2  724.63   61.89
   0   5  -2    1.90    1.00
   0   5  -2    0.80    0.90
   0   5  -2    1.80    1.00
   0   5  -2    2.00    1.10
   0   5  -2    2.40    1.10
   0  -5   2    1.40    1.20
   0  -5   2    1.10    1.00
   0  -5   2    1.60    1.00
   0  -5   2    1.10    1.00
   0  -5   2    1.70    0.70
   0  -5   2    2.00    1.20
  -1   5  -2   64.79    6.90
  -1   5  -2   81.19    7.20
  -1   5  -2   80.49    7.30
  -1   5  -2   89.29    7.20
   1  -5   2   77.39    7.00
   1  -5   2   83.69    7.20
   1  -5   2   77.19    7.40
   1  -5   2   72.59    7.00
   1  -5   2   74.89    6.70
   1  -5   2   81.09    7.30
  -2   5  -2  216.08   21.40
  -2   5  -2  263.67   21.40
  -2   5  -2  259.37   21.80
  -2   5  -2  246.78   21.40
   2  -5   2  249.88   21.30
   2  -5   2  253.57   21.60
   2  -5   2  247.28   21.40
   2  -5   2  265.47   21.50
   2  -5   2  261.27   21.60
   2  -5   2  226.88   21.10
  -3   5  -2    9.70    2.40
  -3   5  -2   12.80    3.00
   3  -5   2    8.10    2.50
   3  -5   2   10.80    2.10
   3  -5   2   12.20    2.50
   3  -5   2   10.70    2.00
   3  -5   2   12.60    2.60
   4  -5   2   31.00    5.10
   4  -5   2   28.10    4.10
   4  -5   2   28.10    4.90
   4   4  -2   12.10    3.00
   4   4  -2   10.70    2.70
   4   4  -2   11.60    3.90
   4   4  -2    7.00    3.30
  -4  -4   2   10.10    2.70
   3   4  -2    4.30    2.30
   3   4  -2    1.90    1.40
   3   4  -2    0.20    1.70
   3   4  -2   -0.90    1.80
  -3  -4   2   -1.70    1.50
  -3  -4   2    0.70    2.20
  -3  -4   2    2.00    1.70
   2   4  -2   22.20    2.90
   2   4  -2   18.70    2.50
   2   4  -2   21.20    2.90
   2   4  -2   18.90    2.60
   2   4  -2   20.60    3.10
  -2  -4   2   19.80    2.80
  -2  -4   2   18.30    2.40
  -2  -4   2   22.90    3.20
  -2  -4   2   18.60    2.60
  -2  -4   2   13.80    2.40
   1   4  -2   37.80    3.80
   1   4  -2   35.90    4.00
   1   4  -2   32.80    3.90
   1   4  -2   36.10    3.70
   1   4  -2   42.70    4.00
  -1  -4   2   41.40    3.90
  -1  -4   2   34.40    4.00
  -1  -4   2   37.10    3.80
  -1  -4   2   38.10    3.90
  -1  -4   2   35.80    3.60
   0   4  -2  404.76   36.70
   0   4  -2  448.36   36.60
   0   4  -2  442.06   36.80
   0   4  -2  428.56   36.50
   0   4  -2  386.36   36.50
   0  -4   2  420.06   36.30
   0  -4   2  435.86   36.60
   0  -4   2  421.46   36.80
   0  -4   2  424.86   36.60
   0  -4   2  479.85   36.80
   0  -4   2  447.56   36.60
  -1   4  -2  396.96   33.20
  -1   4  -2  353.96   33.40
  -1   4  -2  397.56   33.20
  -1   4  -2  403.26   33.40
   1  -4   2  393.26   33.40
   1  -4   2  409.96   33.40
   1  -4   2  401.76   33.20
   1  -4   2  376.96   33.00
  -2   4  -2   24.20    3.20
  -2   4  -2   25.10    2.80
  -2   4  -2   22.30    2.60
  -2   4  -2   19.30    2.80
  -2   4  -2   27.40    2.40
   2  -4   2   22.90    2.60
   2  -4   2   25.40    2.80
   2  -4   2   22.10    2.80
   2  -4   2   17.10    2.60
  -3   4  -2    3.80    1.50
  -3   4  -2    4.10    1.90
  -3   4  -2    2.20    2.10
   3  -4   2   -0.50    2.20
   3  -4   2    3.10    1.00
   3  -4   2    3.30    1.20
   3  -4   2    3.80    1.90
   3  -4   2    1.40    1.90
   3  -4   2    4.70    1.60
  -4   4  -2   42.00    5.90
   4  -4   2   58.59    7.80
   4  -4   2   60.89    7.60
   4  -4   2   62.09    6.70
   4  -4   2   61.29    7.70
   4   3  -2   -1.00    2.50
   4   3  -2    1.30    2.10
   4   3  -2   -2.80    1.70
   4   3  -2    4.80    4.00
   4   3  -2    2.00    3.00
  -4  -3   2    0.00    2.40
   3   3  -2   21.40    3.40
   3   3  -2   23.50    3.40
   3   3  -2   24.70    3.10
   3   3  -2   24.20    3.20
   3   3  -2   17.40    3.20
   3   3  -2   19.30    3.10
  -3  -3   2   24.70    2.80
  -3  -3   2   20.00    2.80
  -3  -3   2   17.80    2.70
  -3  -3   2   25.80    4.20
   2   3  -2    1.20    1.20
   2   3  -2    1.60    1.20
   2   3  -2    1.10    1.00
   2   3  -2    1.20    1.00
  -2  -3   2    0.30    0.90
  -2  -3   2    0.70    1.00
  -2  -3   2    1.90    1.20
  -2  -3   2    1.00    0.90
  -2  -3   2    1.30    1.30
   1   3  -2  317.97   27.00
   1   3  -2  309.57   27.10
   1   3  -2  310.97   27.10
   1   3  -2  311.87   27.10
   1   3  -2  312.97   27.10
  -1  -3   2  307.27   26.90
  -1  -3   2  316.57   27.10
  -1  -3   2  315.77   27.10
  -1  -3   2  332.07   27.00
  -1  -3   2  334.77   27.10
   0   3  -2   68.19    5.70
   0   3  -2   63.39    5.60
   0   3  -2   63.69    5.70
   0   3  -2   62.49    5.60
   0  -3   2   54.79    5.60
   0  -3   2   61.79    5.60
   0  -3   2   60.79    5.40
   0  -3   2   59.99    5.50
   0  -3   2   67.59    5.80
  -1   3  -2  889.31   77.39
  -1   3  -2  936.01   77.49
  -1   3  -2  843.92   77.39
   1  -3   2  888.31   77.29
   1  -3   2  966.70   77.49
   1  -3   2  976.70   77.59
   1  -3   2  914.91   77.39
   1  -3   2  935.91   77.49
  -2   3  -2  641.24   51.59
  -2   3  -2  632.44   51.59
  -2   3  -2  519.95   51.79
  -2   3  -2  630.44   51.59
  -2   3  -2  638.64   52.09
   2  -3   2  641.74   51.79
   2  -3   2  603.94   51.99
   2  -3   2  625.04   51.79
   2  -3   2  595.34   51.89
   2  -3   2  598.84   51.79
  -3   3  -2   93.99    7.80
  -3   3  -2  102.09    8.60
   3  -3   2   76.99    8.40
   3  -3   2   83.19    8.40
   3  -3   2   78.49    8.10
   3  -3   2   82.89    7.40
   3  -3   2   84.59    8.10
   3  -3   2   89.49    8.00
   3  -3   2   82.49    7.40
  -4   3  -2   48.10    6.00
   4  -3   2   58.39    7.20
   4  -3   2   67.89    6.80
   4  -3   2   58.79    6.90
   4  -3   2   51.59    7.70
   4   2  -2   60.59    6.20
   4   2  -2   70.79    8.70
   4   2  -2   62.19    6.30
   4   2  -2   64.89    7.70
   4   2  -2   59.69    7.40
  -4  -2   2   75.49    7.00
   3   2  -2   75.89    7.40
   3   2  -2   76.89    7.60
   3   2  -2   74.59    7.20
   3   2  -2   72.39    6.90
   3   2  -2   67.79    7.50
   3   2  -2   67.79    6.80
  -3  -2   2   87.79    7.90
  -3  -2   2   73.99    7.00
   2   2  -2    7.50    1.40
   2   2  -2    9.30    1.50
   2   2  -2   10.00    1.60
   2   2  -2    6.40    1.50
   2   2  -2    8.60    1.80
  -2  -2   2   11.40    1.50
  -2  -2   2    7.10    1.30
  -2  -2   2   12.40    2.10
   1   2  -2  656.93   57.39
   1   2  -2  669.83   57.39
   1   2  -2  677.53   57.39
   1   2  -2  643.14   57.39
  -1  -2   2  682.53   57.29
  -1  -2   2  689.33   57.39
  -1  -2   2  713.23   57.39
  -1  -2   2  606.14   57.39
  -1  -2   2  736.63   57.49
  -1  -2   2  724.63   57.49
   0   2  -2  258.87   22.20
   0   2  -2  268.17   22.40
   0   2  -2  262.77   22.30
   0  -2   2  261.97   22.30
   0  -2   2  281.47   22.40
   0  -2   2  256.17   22.30
   0  -2   2  270.27   22.40
   0  -2   2  239.78   22.20
  -1   2  -2  132.49   10.80
  -1   2  -2  122.89   10.80
  -1   2  -2  130.89   10.70
  -1   2  -2  133.49   10.90
  -1   2  -2  126.49   11.00
   1  -2   2  117.69   10.90
   1  -2   2  118.29   10.80
   1  -2   2  125.39   10.80
   1  -2   2  121.89   10.70
  -2   2  -2  497.75   40.30
  -2   2  -2  490.55   40.70
   2  -2   2  463.35   40.30
   2  -2   2  483.55   40.30
   2  -2   2  461.65   40.60
   2  -2   2  452.35   40.60
   2  -2   2  494.05   40.50
  -3   2  -2   62.89    5.80
   3  -2   2   60.09    6.50
   3  -2   2   60.79    6.00
   3  -2   2   58.29    6.40
   3  -2   2   61.79    6.20
   3  -2   2   56.89    6.10
  -4   2  -2   43.30    5.30
   4  -2   2   52.49    7.10
   4  -2   2   51.99    6.30
   4  -2   2   40.90    6.20
   4  -2   2   46.90    6.50
   4  -2   2   62.59    9.30
   4   1  -2   12.40    1.80
   4   1  -2   14.30    3.50
   4   1  -2   13.10    1.80
   4   1  -2   14.70    3.30
  -4  -1   2   10.00    2.70
   3   1  -2   38.00    4.70
   3   1  -2   30.90    4.20
   3   1  -2   34.20    3.60
   3   1  -2   33.40    3.60
   3   1  -2   37.30    4.30
   3   1  -2   33.60    4.50
  -3  -1   2   33.60    3.90
  -3  -1   2   39.10    4.80
   2   1  -2  186.08   17.50
   2   1  -2  199.18   17.40
   2   1  -2  197.18   17.40
   2   1  -2  214.08   17.60
   2   1  -2  184.88   17.50
  -2  -1   2  209.98   17.70
  -2  -1   2  197.48   17.40
  -2  -1   2  219.08   17.70
  -2  -1   2  216.78   17.30
   1   1  -2 9751.82  798.62
   1   1  -2 9999.00  798.92
   1   1  -2 9507.05  798.62
   1   1  -2 8930.41  798.42
   1   1  -2 9919.81  798.92
   1   1  -2 9254.37  798.52
  -1  -1   2 9769.92  798.42
  -1  -1   2 9330.57  798.32
  -1  -1   2 9138.89  798.52
  -1  -1   2 9624.34  797.92
  -1  -1   2 9245.28  798.32
   0   1  -2  277.57   23.40
   0   1  -2  271.97   23.40
   0   1  -2  275.27   23.40
   0   1  -2  284.57   23.20
   0   1  -2  293.57   23.20
   0  -1   2  282.57   23.40
   0  -1   2  260.97   23.30
   0  -1   2  258.57   23.40
  -1   1  -2  161.28   13.80
  -1   1  -2  167.58   13.70
  -1   1  -2  167.98   13.60
  -1   1  -2  180.78   13.70
  -1   1  -2  154.08   13.50
   1  -1   2  155.78   13.50
   1  -1   2  162.38   13.50
   1  -1   2  146.89   13.60
   1  -1   2  148.69   13.80
   1  -1   2  159.78   13.60
   1  -1   2  150.28   13.70
  -2   1  -2  444.36   34.80
  -2   1  -2  427.86   34.50
   2  -1   2  384.46   34.50
   2  -1   2  394.96   34.70
   2  -1   2  415.86   34.70
   2  -1   2  407.16   34.60
   2  -1   2  406.06   34.50
   2  -1   2  395.16   34.80
   2  -1   2  402.06   34.80
  -3   1  -2    4.20    1.50
   3  -1   2    4.00    2.10
   3  -1   2    2.70    1.50
   3  -1   2    1.90    1.90
   3  -1   2    2.30    1.80
   3  -1   2    3.40    1.60
   3  -1   2    3.10    1.50
  -4   1  -2   28.90    4.10
   4  -1   2   32.20    5.20
   4  -1   2   39.20    5.30
   4  -1   2   35.30    5.10
   4  -1   2   38.50    4.80
   4  -1   2   31.30    4.70
   4   0  -2   20.40    3.90
   4   0  -2   19.80    3.70
  -4   0   2   16.40    3.20
   3   0  -2   28.90    4.10
   3   0  -2   33.90    4.40
   3   0  -2   37.30    4.60
   3   0  -2   34.50    4.50
   3   0  -2   35.90    3.50
   3   0  -2   33.00    4.30
  -3   0   2   43.00    4.70
  -3   0   2   35.90    3.80
   2   0  -2   76.49    7.00
   2   0  -2   78.39    7.00
   2   0  -2   84.39    7.40
   2   0  -2   82.99    7.30
   2   0  -2   76.69    7.20
  -2   0   2   90.49    6.90
  -2   0   2   74.99    7.00
  -2   0   2   89.79    7.40
  -2   0   2   66.99    6.90
   1   0  -2  113.69    9.70
   1   0  -2  103.49    9.70
   1   0  -2  116.59    9.60
   1   0  -2  103.59    9.60
   1   0  -2  106.59    9.60
  -1   0   2  118.59    9.70
  -1   0   2  106.29    9.60
  -1   0   2  118.49    9.60
  -1   0   2  116.59    9.70
  -1   0   2  110.39    9.60
  -1   0   2  108.19    9.50
   0   0  -2   82.19    7.40
   0   0  -2   82.19    7.30
   0   0  -2   88.49    7.40
   0   0  -2   97.69    7.50
   0   0  -2   91.69    7.50
   0   0  -2   80.49    7.30
   0   0   2   89.59    7.50
   0   0   2   88.79    7.50
   0   0   2   85.29    7.40
   0   0   2   78.59    7.30
   0   0   2   79.89    7.40
  -1   0  -2  321.47   28.60
  -1   0  -2  316.97   28.40
  -1   0  -2  348.47   28.60
  -1   0  -2  357.26   28.50
  -1   0  -2  342.27   28.50
  -1   0  -2  373.06   28.60
   1   0   2  330.97   28.60
   1   0   2  315.27   28.40
   1   0   2  334.97   28.60
   1   0   2  336.17   28.60
   1   0   2  325.87   28.50
  -2   0  -2  338.67   28.70
  -2   0  -2  386.26   28.60
  -2   0  -2  362.96   28.60
   2   0   2  329.07   28.70
   2   0   2  334.67   28.80
   2   0   2  333.47   28.80
   2   0   2  343.87   29.10
   2   0   2  313.77   28.80
   2   0   2  297.67   29.00
  -3   0  -2    2.20    1.60
   3   0   2    2.90    2.00
   3   0   2    3.60    1.00
   3   0   2    1.60    2.20
   3   0   2    1.80    1.80
   3   0   2    3.20    1.00
   3   0   2    0.10    1.50
   3   0   2    2.20    1.60
   3   0   2    3.90    1.70
  -4   0  -2   -1.00    2.30
   4   0   2    4.50    3.00
   4   0   2   -0.10    3.20
   4   0   2    0.70    2.50
   4  -1  -2   26.90    4.70
   4  -1  -2   25.10    4.80
   4  -1  -2   41.30    5.20
   4  -1  -2   48.20    5.20
  -4   1   2   40.30    4.50
   3  -1  -2  165.18   15.20
   3  -1  -2  167.98   15.40
   3  -1  -2  173.98   15.50
   3  -1  -2  171.08   14.80
   3  -1  -2  176.88   15.40
   3  -1  -2  174.38   14.80
  -3   1   2  176.38   15.00
   2  -1  -2   68.99    5.80
   2  -1  -2   60.19    6.10
   2  -1  -2   64.09    5.90
   2  -1  -2   60.39    5.90
   2  -1  -2   63.69    6.00
   2  -1  -2   60.69    6.00
  -2   1   2   67.09    6.00
  -2   1   2   61.59    5.80
  -2   1   2   71.19    5.70
  -2   1   2   62.69    6.10
   1  -1  -2  123.99   11.30
   1  -1  -2  129.59   11.30
   1  -1  -2  129.89   11.30
   1  -1  -2  136.69   11.30
   1  -1  -2  121.19   11.10
  -1   1   2  149.99   11.40
  -1   1   2  116.99   11.30
  -1   1   2  130.99   11.10
  -1   1   2  133.59   11.30
   0  -1  -2    1.20    0.60
   0  -1  -2    0.20    0.60
   0  -1  -2    0.70    0.70
   0  -1  -2    1.60    0.90
   0  -1  -2    0.70    0.60
   0  -1  -2    0.10    0.60
   0   1   2    2.50    0.90
   0   1   2   -0.30    0.70
   0   1   2    0.90    0.60
   0   1   2    0.50    0.50
  -1  -1  -2   17.70    1.90
  -1  -1  -2   16.30    2.00
  -1  -1  -2   18.00    2.00
  -1  -1  -2   17.50    1.60
  -1  -1  -2   15.60    2.00
   1   1   2   15.90    1.60
   1   1   2   18.50    1.90
   1   1   2   16.60    2.10
   1   1   2   18.40    2.10
   1   1   2   15.20    2.10
  -2  -1  -2   57.29    5.10
  -2  -1  -2   48.50    4.60
  -2  -1  -2   44.00    4.70
  -2  -1  -2   51.89    4.70
   2   1   2   51.49    5.00
   2   1   2   51.99    4.80
   2   1   2   53.79    4.70
   2   1   2   48.60    4.70
   2   1   2   47.90    4.80
   2   1   2   48.80    5.00
   2   1   2   52.79    4.90
  -3  -1  -2   21.70    2.90
   3   1   2   22.60    2.90
   3   1   2   20.10    3.60
   3   1   2   25.40    3.60
   3   1   2   25.80    3.50
   3   1   2   21.30    3.00
   3   1   2   20.70    3.10
   3   1   2   19.50    3.20
  -4  -1  -2   18.20    3.60
   4   1   2   30.70    4.90
   4   1   2   26.50    3.90
   4   1   2   28.40    3.40
   4   1   2   29.50    3.40
   4   1   2   32.60    4.60
   4  -2  -2    6.60    2.30
   4  -2  -2    3.00    3.00
   4  -2  -2    4.10    2.70
   4  -2  -2    0.90    3.00
  -4   2   2    3.00    1.90
   3  -2  -2   46.10    5.50
   3  -2  -2   53.49    5.60
   3  -2  -2   44.80    5.20
   3  -2  -2   51.49    4.60
   3  -2  -2   52.79    5.90
   3  -2  -2   49.90    4.70
  -3   2   2   55.59    5.70
  -3   2   2   40.20    4.80
   2  -2  -2   11.10    1.50
   2  -2  -2   13.10    1.70
   2  -2  -2   11.30    1.80
   2  -2  -2   12.50    2.00
   2  -2  -2   12.00    1.80
   2  -2  -2   10.80    1.70
  -2   2   2    8.10    1.40
  -2   2   2   12.40    2.00
  -2   2   2    8.50    1.40
  -2   2   2   11.90    1.60
  -2   2   2   13.70    1.40
   1  -2  -2  309.17   25.90
   1  -2  -2  285.97   25.80
   1  -2  -2  324.07   25.60
   1  -2  -2  287.07   25.70
   1  -2  -2  306.87   25.80
   1  -2  -2  308.67   25.90
   1  -2  -2  291.67   25.80
  -1   2   2  304.57   25.90
  -1   2   2  298.97   25.80
  -1   2   2  311.97   25.60
   0  -2  -2  181.38   16.00
   0  -2  -2  195.98   15.80
   0  -2  -2  187.68   15.90
   0  -2  -2  184.58   15.70
   0  -2  -2  195.78   16.10
   0  -2  -2  172.18   15.80
   0   2   2  179.58   15.90
   0   2   2  186.88   16.10
   0   2   2  188.88   15.80
   0   2   2  179.98   16.00
  -1  -2  -2   77.49    6.60
  -1  -2  -2   71.39    6.40
  -1  -2  -2   74.09    6.50
   1   2   2   69.19    6.50
   1   2   2   72.59    6.60
   1   2   2   70.09    6.60
   1   2   2   67.59    6.50
   1   2   2   68.99    6.60
  -2  -2  -2  152.18   12.00
  -2  -2  -2  133.59   11.90
  -2  -2  -2  145.89   12.20
   2   2   2  138.89   12.10
   2   2   2  137.39   12.10
   2   2   2  129.39   12.00
   2   2   2  132.49   11.60
   2   2   2  138.89   12.20
   2   2   2  136.99   12.30
   2   2   2  122.09   11.60
  -3  -2  -2   30.90    3.50
   3   2   2   34.50    4.00
   3   2   2   28.30    3.60
   3   2   2   26.60    3.40
   3   2   2   21.90    3.20
   3   2   2   25.40    4.00
   3   2   2   25.50    3.60
  -4  -2  -2    7.10    2.80
   4   2   2   14.40    2.50
   4   2   2   17.80    4.20
   4   2   2   13.40    4.00
   4  -3  -2   28.30    4.70
   4  -3  -2   25.90    3.20
   4  -3  -2   31.10    3.70
   4  -3  -2   24.60    2.90
   4  -3  -2   23.60    4.00
  -4   3   2   27.40    3.60
   3  -3  -2   39.90    4.70
   3  -3  -2   42.30    4.40
   3  -3  -2   49.60    4.40
   3  -3  -2   43.00    4.60
   3  -3  -2   41.40    5.10
   3  -3  -2   43.80    5.30
   3  -3  -2   46.70    5.30
  -3   3   2   46.00    4.60
  -3   3   2   47.60    5.20
   2  -3  -2    3.10    0.80
   2  -3  -2    6.10    1.40
   2  -3  -2    3.70    0.90
   2  -3  -2    4.10    1.20
   2  -3  -2    4.10    1.30
   2  -3  -2    3.00    1.10
   2  -3  -2    4.10    1.00
  -2   3   2    4.70    1.20
  -2   3   2    4.50    0.90
  -2   3   2    3.00    1.40
   1  -3  -2  858.01   75.99
   1  -3  -2  931.01   75.99
   1  -3  -2  961.40   75.89
   1  -3  -2  800.22   75.89
   1  -3  -2  905.51   75.99
   1  -3  -2  930.81   75.69
  -1   3   2  861.11   75.89
  -1   3   2  947.31   75.99
   0  -3  -2  572.24   46.10
   0  -3  -2  559.74   46.40
   0  -3  -2  543.65   46.40
   0  -3  -2  568.24   46.10
   0  -3  -2  489.95   46.10
   0   3   2  526.85   46.40
   0   3   2  546.55   46.10
   0   3   2  527.65   46.40
   0   3   2  559.84   46.30
   0   3   2  563.14   46.10
  -1  -3  -2  527.25   45.10
  -1  -3  -2  586.24   45.50
  -1  -3  -2  586.54   45.30
   1   3   2  495.75   45.20
   1   3   2  518.65   45.20
   1   3   2  526.95   45.30
   1   3   2  492.45   45.30
   1   3   2  532.65   45.40
  -2  -3  -2  125.99   11.10
  -2  -3  -2  143.79   11.40
  -2  -3  -2  113.49   11.50
  -2  -3  -2  105.19   11.30
   2   3   2  126.99   11.30
   2   3   2  132.89   11.40
   2   3   2  129.99   11.30
   2   3   2  125.79   11.30
   2   3   2  122.79   11.30
  -3  -3  -2  122.69   11.20
  -3  -3  -2   87.79    9.60
  -3  -3  -2  107.79    9.80
   3   3   2  109.19   10.00
   3   3   2  103.39   10.20
   3   3   2  123.39   10.50
   3   3   2  101.39    9.20
   3   3   2  108.69    9.90
  -4  -3  -2   28.50    4.60
   4   3   2   38.20    5.20
   4   3   2   24.20    5.20
   4   3   2   38.80    5.50
   4   3   2   36.00    4.70
   4  -4  -2    9.50    1.80
   4  -4  -2   10.60    3.40
   4  -4  -2    8.10    2.30
   4  -4  -2   10.50    2.80
   4  -4  -2   12.50    2.20
  -4   4   2   11.90    3.70
   3  -4  -2   75.19    7.30
   3  -4  -2   75.19    7.70
   3  -4  -2   72.79    7.50
   3  -4  -2   77.09    7.30
   3  -4  -2   73.89    7.00
   3  -4  -2   69.79    6.70
   3  -4  -2   72.19    6.90
   3  -4  -2   78.89    7.70
  -3   4   2   75.19    6.80
  -3   4   2   84.49    7.70
   2  -4  -2  151.08   13.60
   2  -4  -2  150.38   13.70
   2  -4  -2  136.49   13.60
   2  -4  -2  154.48   13.70
   2  -4  -2  157.58   13.60
   2  -4  -2  145.69   13.50
  -2   4   2  173.58   13.70
  -2   4   2  162.78   13.70
   1  -4  -2  157.08   13.40
   1  -4  -2  155.28   13.20
   1  -4  -2  162.58   13.60
   1  -4  -2  134.39   13.50
   1  -4  -2  168.48   13.50
  -1   4   2  127.79   13.50
  -1   4   2  167.08   13.70
   0  -4  -2  962.20   84.89
   0  -4  -2  894.21   84.69
   0  -4  -2 1003.90   84.69
   0  -4  -2 1031.10   85.09
   0  -4  -2  888.21   85.09
   0  -4  -2 1038.80   84.69
   0   4   2  989.60   85.09
   0   4   2 1110.49   85.19
   0   4   2 1053.59   84.99
   0   4   2 1085.19   84.79
  -1  -4  -2   54.39    5.30
  -1  -4  -2   63.19    5.90
  -1  -4  -2   61.29    5.90
   1   4   2   59.59    5.80
   1   4   2   51.89    5.60
   1   4   2   53.99    5.80
   1   4   2   58.89    5.60
  -2  -4  -2  107.19    9.50
  -2  -4  -2   86.29   10.10
  -2  -4  -2  119.99    9.80
  -2  -4  -2   92.69    9.90
   2   4   2  106.09    9.90
   2   4   2  100.39   10.10
   2   4   2  114.79   10.00
   2   4   2  111.89   10.00
   2   4   2  104.79    9.90
  -3  -4  -2   71.09    6.80
  -3  -4  -2   58.59    7.40
   3   4   2   65.69    7.50
   3   4   2   71.19    7.30
   3   4   2   71.79    7.60
   3   4   2   69.99    7.60
   4  -5  -2   28.60    3.90
   4  -5  -2   35.10    4.00
   4  -5  -2   35.50    4.90
   4  -5  -2   28.40    5.10
   4  -5  -2   23.30    3.40
  -4   5   2   38.40    5.50
   3  -5  -2  109.29    9.20
   3  -5  -2   95.09    9.60
   3  -5  -2  114.39   10.60
   3  -5  -2  109.39    9.80
   3  -5  -2   99.89    9.30
  -3   5   2  105.19    9.20
  -3   5   2   81.19    9.20
  -3   5   2  103.09    9.90
   2  -5  -2   10.10    2.30
   2  -5  -2    8.20    1.90
   2  -5  -2    9.80    1.70
   2  -5  -2    3.50    1.40
   2  -5  -2    9.60    1.60
   2  -5  -2    6.60    1.90
  -2   5   2    5.90    2.10
  -2   5   2   10.40    1.80
  -2   5   2    6.60    2.00
   1  -5  -2   69.69    6.80
   1  -5  -2   71.19    6.40
   1  -5  -2   66.99    6.70
   1  -5  -2   66.59    6.50
  -1   5   2   71.09    6.70
  -1   5   2   69.79    6.50
  -1   5   2   55.29    6.70
   0  -5  -2  388.86   33.80
   0  -5  -2  387.96   33.70
   0  -5  -2  452.95   34.50
   0  -5  -2  385.46   34.00
   0   5   2  401.86   33.80
   0   5   2  411.26   34.40
   0   5   2  413.36   34.10
   0   5   2  326.17   33.80
   0   5   2  422.06   34.30
  -1  -5  -2   60.49    5.10
  -1  -5  -2   41.90    5.70
  -1  -5  -2   63.59    5.90
  -1  -5  -2   44.60    5.60
   1   5   2   41.10    5.40
   1   5   2   54.79    5.70
   1   5   2   54.49    5.70
   1   5   2   55.59    5.40
  -2  -5  -2   56.09    6.70
  -2  -5  -2   38.70    5.80
  -2  -5  -2   40.50    5.40
  -2  -5  -2   51.69    4.90
   2   5   2   46.40    5.50
   2   5   2   44.90    5.70
   2   5   2   45.10    5.50
   2   5   2   45.90    5.60
   2   5   2   46.20    5.40
  -3  -5  -2   31.10    4.40
   3   5   2   35.40    5.30
   3   5   2   32.30    5.10
   3   5   2   42.50    5.40
   3   5   2   46.60    5.70
   4  -6  -2    5.00    4.00
   4  -6  -2    5.80    2.60
   4  -6  -2    4.30    2.80
   4  -6  -2    5.60    2.00
  -4   6   2    4.60    4.10
   3  -6  -2   53.49    6.30
   3  -6  -2   57.19    5.90
   3  -6  -2   51.79    5.40
   3  -6  -2   54.39    6.50
  -3   6   2   46.60    6.60
  -3   6   2   61.29    6.70
   2  -6  -2  174.18   14.60
   2  -6  -2  177.68   15.00
   2  -6  -2  179.88   15.20
   2  -6  -2  163.68   15.10
   2  -6  -2  138.79   15.10
  -2   6   2  198.08   15.30
  -2   6   2  145.99   15.20
   1  -6  -2   62.59    6.00
   1  -6  -2   73.79    6.80
   1  -6  -2   68.89    6.90
   1  -6  -2   63.19    6.30
   1  -6  -2   63.99    6.50
  -1   6   2   50.39    7.30
  -1   6   2   67.59    6.70
  -1   6   2   59.09    5.70
  -1   6   2   74.99    6.90
   0  -6  -2   20.90    3.50
   0  -6  -2   26.40    3.10
   0  -6  -2   25.10    2.90
   0  -6  -2   26.40    3.10
   0  -6  -2   32.30    4.00
   0   6   2   18.20    3.20
   0   6   2   29.70    3.60
   0   6   2   24.70    3.30
   0   6   2   20.30    2.80
   0   6   2   30.90    4.10
  -1  -6  -2   39.20    4.40
  -1  -6  -2   46.00    5.50
  -1  -6  -2   42.60    5.60
  -1  -6  -2   34.40    5.20
   1   6   2   35.10    4.90
   1   6   2   42.10    5.20
   1   6   2   42.30    4.90
  -2  -6  -2   -1.10    2.50
  -2  -6  -2    0.80    1.50
   2   6   2    1.20    2.10
   2   6   2    0.40    2.20
   2   6   2    2.20    2.50
   2   6   2    1.40    2.50
  -3  -6  -2    4.00    2.50
   3   6   2    0.60    3.60
   3   6   2    4.50    3.60
   3   6   2    1.20    2.90
   4  -7  -2   -2.60    3.90
   4  -7  -2    2.30    2.50
   4  -7  -2   -2.10    2.20
  -4   7   2    7.20    4.50
   3  -7  -2   23.50    3.10
   3  -7  -2   18.50    3.90
   3  -7  -2   22.40    3.90
   3  -7  -2   20.30    3.30
  -3   7   2   16.60    3.60
  -3   7   2   24.20    4.10
   2  -7  -2   81.49    9.60
   2  -7  -2  109.29    9.50
   2  -7  -2  104.79    9.60
   2  -7  -2   99.99    8.80
   2  -7  -2   96.19    9.70
  -2   7   2   75.69    9.60
  -2   7   2  106.89    9.80
  -2   7   2   97.89    9.90
   1  -7  -2    8.70    2.40
   1  -7  -2   12.90    2.20
   1  -7  -2   12.50    2.80
   1  -7  -2    7.50    2.50
   1  -7  -2   10.60    1.90
  -1   7   2   12.60    2.80
  -1   7   2   11.90    2.70
  -1   7   2    6.20    2.40
  -1   7   2   12.30    1.60
   0  -7  -2  178.38   15.40
   0  -7  -2  167.18   14.70
   0  -7  -2  165.88   14.30
   0  -7  -2  140.89   15.00
   0   7   2  173.88   14.80
   0   7   2  160.18   14.50
   0   7   2  174.68   15.30
   0   7   2  142.39   15.00
  -1  -7  -2  228.68   20.50
  -1  -7  -2  260.17   21.70
   1   7   2  225.88   20.90
   1   7   2  246.98   21.40
   1   7   2  216.78   21.20
   1   7   2  234.38   20.70
  -2  -7  -2   15.30    2.70
  -2  -7  -2   17.80    5.30
   2   7   2   11.40    3.10
   2   7   2   10.50    3.70
   2   7   2   22.20    3.60
   2   7   2   12.70    3.70
   3  -8  -2   42.00    5.30
   3  -8  -2   53.19    7.10
   3  -8  -2   45.90    6.30
   3  -8  -2   42.00    6.20
  -3   8   2   45.70    6.30
   2  -8  -2    4.60    3.20
   2  -8  -2    4.50    2.10
   2  -8  -2    6.60    2.60
   2  -8  -2    7.10    2.70
  -2   8   2    8.40    2.60
   1  -8  -2    5.50    1.70
   1  -8  -2    6.80    2.80
   1  -8  -2    5.00    2.70
   1  -8  -2    5.00    2.60
  -1   8   2    4.70    2.80
  -1   8   2    6.20    1.20
  -1   8   2    8.10    1.60
  -1   8   2   10.10    3.40
  -1   8   2    7.10    2.40
   0  -8  -2  305.77   23.60
   0  -8  -2  278.97   22.20
   0  -8  -2  256.87   22.30
   0  -8  -2  231.98   23.10
   0   8   2  226.78   23.20
   0   8   2  220.18   22.30
   0   8   2  285.57   22.80
  -1  -8  -2   13.00    4.20
  -1  -8  -2   22.50    3.50
   1   8   2   24.30    5.10
   1   8   2   28.80    4.80
   1   8   2   29.50    4.40
   1   8   2   27.30    4.30
  -2  -8  -2   20.90    3.20
   2   8   2    7.20    3.90
   2   8   2   14.40    3.70
   2   8   2   13.00    3.70
   3  -9  -2   22.10    4.10
   3  -9  -2   12.50    2.90
   3  -9  -2    8.80    4.20
  -3   9   2    3.30    3.90
   2  -9  -2   95.29   11.10
   2  -9  -2   87.69    9.30
   2  -9  -2  105.39   10.90
   2  -9  -2  107.59   10.60
  -2   9   2  104.79   10.40
   1  -9  -2   54.69    8.00
   1  -9  -2   55.09    5.40
   1  -9  -2   55.19    6.90
   1  -9  -2   48.30    7.40
  -1   9   2   42.70    4.70
  -1   9   2   59.59    8.40
  -1   9   2   41.80    6.70
  -1   9   2   55.59    5.30
  -1   9   2   53.09    6.60
   0  -9  -2  132.19   10.70
   0  -9  -2  112.19   12.20
   0  -9  -2  104.59   10.90
   0  -9  -2  103.39   10.60
   0   9   2  134.39   11.40
   0   9   2  137.79   12.90
   0   9   2  117.59   11.10
   0   9   2  106.99   10.70
   0   9   2  100.09   12.10
  -1  -9  -2   32.90    4.00
   1   9   2   24.70    4.10
   1   9   2   39.20    5.30
   1   9   2   19.70    4.70
   2 -10  -2   86.89   10.20
   2 -10  -2   90.19   11.20
   2 -10  -2   80.79    8.50
  -2  10   2   96.49   10.10
   1 -10  -2   15.00    5.30
   1 -10  -2   24.90    5.60
   1 -10  -2   23.10    6.00
   1 -10  -2   24.00    4.30
   1 -10  -2   23.60    3.40
  -1  10   2   23.00    4.80
  -1  10   2   11.20    4.80
   0 -10  -2   28.90    3.80
   0 -10  -2   20.50    3.50
   0 -10  -2   25.40    7.20
   0 -10  -2   26.10    5.50
   0  10   2   19.20    3.40
   0  10   2   25.80    5.00
   0  10   2   23.10    5.70
  -1 -10  -2    1.70    2.60
   1  10   2    6.80    4.90
   1  10   2    5.90    3.50
   1  10   2    6.80    4.50
   1 -11  -2   -3.70    5.20
   1 -11  -2    0.80    3.60
   1 -11  -2    1.30    2.30
  -1  11   2    1.70    4.20
   0  12  -3    6.60    4.20
   0  12  -3    2.50    3.80
   0  12  -3    3.30    5.40
   0 -12   3    3.30    2.60
   0 -12   3    1.10    3.70
   0 -12   3    0.80    4.90
  -1  12  -3   13.90    4.80
  -1  12  -3   14.50    4.60
   1 -12   3   10.50    3.30
   1 -12   3    9.00    4.40
   1 -12   3   12.50    2.90
  -2  12  -3   -7.10    4.70
  -2  12  -3   -1.60    4.70
   2 -12   3    3.50    5.00
   2 -12   3   -4.80    2.50
   1  11  -3   -0.50    4.60
   1  11  -3    0.70    2.60
   1  11  -3   -5.60    3.40
  -1 -11   3    1.40    2.50
  -1 -11   3    4.60    3.70
   0  11  -3   18.20    5.30
   0  11  -3   33.40    4.70
   0  11  -3   28.80    5.30
   0  11  -3   25.90    6.70
   0 -11   3   26.70    4.50
   0 -11   3   27.00    6.50
   0 -11   3   22.90    3.50
   0 -11   3   20.60    5.20
  -1  11  -3   20.50    4.00
  -1  11  -3   18.60    4.30
  -1  11  -3   10.50    5.00
  -1  11  -3   18.20    4.50
   1 -11   3   18.10    4.80
   1 -11   3   13.70    5.30
   1 -11   3   16.20    2.80
   1 -11   3   17.70    3.30
  -2  11  -3   13.50    4.00
  -2  11  -3   15.10    4.50
   2 -11   3   13.40    2.80
   2 -11   3    7.50    2.40
   2 -11   3   12.40    4.20
   2  10  -3    3.60    3.60
   2  10  -3    2.20    4.40
   2  10  -3   -0.40    2.60
  -2 -10   3    6.20    3.90
  -2 -10   3    5.80    2.60
   1  10  -3   54.99    6.70
   1  10  -3   57.39   10.10
   1  10  -3   43.50    6.80
   1  10  -3   54.39    6.20
  -1 -10   3   54.69    5.80
  -1 -10   3   50.69    6.90
  -1 -10   3   46.20    6.50
   0  10  -3   41.70    5.70
   0  10  -3   43.80    5.70
   0  10  -3   41.00    6.20
   0  10  -3   43.60    5.50
   0  10  -3   40.80    6.00
   0 -10   3   29.80    5.50
   0 -10   3   42.80    4.70
   0 -10   3   46.20    5.60
   0 -10   3   53.79    7.30
   0 -10   3   42.10    5.70
  -1  10  -3   42.00    6.20
  -1  10  -3   28.90    5.60
  -1  10  -3   36.40    5.60
  -1  10  -3   38.50    5.30
  -1  10  -3   38.10    5.70
   1 -10   3   43.30    6.30
   1 -10   3   35.10    4.40
   1 -10   3   43.70    6.20
   1 -10   3   38.20    5.00
  -2  10  -3   16.50    4.20
  -2  10  -3    9.80    2.80
  -2  10  -3   14.10    4.10
  -2  10  -3   11.10    3.80
   2 -10   3   16.30    2.70
   2 -10   3   10.60    4.20
   2 -10   3   10.70    2.10
   2 -10   3   14.10    3.50
  -3  10  -3   15.10    5.10
  -3  10  -3   13.70    4.50
   3 -10   3   15.60    3.70
   2   9  -3   -3.20    2.70
   2   9  -3   -1.50    3.20
   2   9  -3    0.20    2.10
  -2  -9   3   -0.90    2.10
  -2  -9   3    1.70    3.70
  -2  -9   3   -4.80    3.20
   1   9  -3   21.00    4.50
   1   9  -3   23.70    4.70
   1   9  -3   14.90    3.40
   1   9  -3   20.70    3.20
   1   9  -3   22.60    4.40
  -1  -9   3   20.60    3.00
  -1  -9   3   17.20    4.60
  -1  -9   3   14.10    3.90
  -1  -9   3   22.30    3.90
  -1  -9   3   19.00    4.20
   0   9  -3   59.29    6.30
   0   9  -3   68.79    7.50
   0   9  -3   51.79    6.60
   0   9  -3   41.20    6.90
   0   9  -3   61.39    6.50
   0  -9   3   48.70    6.60
   0  -9   3   45.80    6.90
   0  -9   3   61.09    5.70
   0  -9   3   66.19    6.40
   0  -9   3   61.19    7.70
   0  -9   3   62.29    6.90
  -1   9  -3  200.48   21.90
  -1   9  -3  264.17   22.60
  -1   9  -3  267.47   22.20
  -1   9  -3  263.17   22.20
   1  -9   3  250.77   22.30
   1  -9   3  267.47   21.80
   1  -9   3  253.37   22.20
   1  -9   3  237.78   21.40
   1  -9   3  253.27   22.50
   1  -9   3  243.58   22.50
  -2   9  -3  299.97   24.60
   2  -9   3  283.47   24.40
   2  -9   3  284.67   24.20
   2  -9   3  228.28   23.30
   2  -9   3  282.47   23.70
   2  -9   3  277.87   24.60
  -3   9  -3   46.50    6.00
   3  -9   3   34.70    4.80
   3  -9   3   30.40    4.10
   3   8  -3   18.30    4.30
   3   8  -3   19.10    3.50
   3   8  -3   19.60    4.20
  -3  -8   3   19.30    3.60
  -3  -8   3   20.80    5.00
   2   8  -3   18.70    3.70
   2   8  -3   21.80    4.20
   2   8  -3   17.20    4.00
   2   8  -3   18.90    3.00
  -2  -8   3   17.10    3.90
  -2  -8   3   14.50    2.70
  -2  -8   3   15.20    3.50
  -2  -8   3   12.70    5.60
   1   8  -3  105.09   10.80
   1   8  -3  113.99   11.40
   1   8  -3  121.19   10.60
   1   8  -3  158.28   14.70
   1   8  -3  105.19   11.20
  -1  -8   3  122.19   10.90
  -1  -8   3  120.29   11.60
  -1  -8   3  115.79   10.30
  -1  -8   3  103.69   10.70
  -1  -8   3  109.29   11.00
   0   8  -3   56.59    6.20
   0   8  -3   52.49    5.50
   0   8  -3   38.90    5.80
   0   8  -3   49.30    5.40
   0   8  -3   52.59    5.70
   0  -8   3   60.59    5.80
   0  -8   3   54.69    6.50
   0  -8   3   33.10    5.90
   0  -8   3   49.99    5.20
   0  -8   3   57.09    5.60
   0  -8   3   39.80    5.40
  -1   8  -3  125.19   12.50
  -1   8  -3  156.48   12.60
  -1   8  -3  133.49   12.80
  -1   8  -3  138.09   12.60
   1  -8   3  127.29   12.50
   1  -8   3  135.19   13.00
   1  -8   3  142.49   12.90
   1  -8   3  139.09   12.20
   1  -8   3  126.29   11.80
   1  -8   3  146.39   12.70
  -2   8  -3    0.30    1.50
  -2   8  -3    0.30    2.30
  -2   8  -3   -1.30    1.70
  -2   8  -3   -2.30    2.00
   2  -8   3   -2.60    2.50
   2  -8   3   -0.20    2.20
   2  -8   3   -1.40    2.20
   2  -8   3    0.20    1.50
   2  -8   3    1.50    1.20
  -3   8  -3   10.60    2.80
  -3   8  -3    6.70    3.40
  -3   8  -3   10.40    3.10
   3  -8   3   10.80    2.10
   3  -8   3   12.60    2.50
   3  -8   3   13.20    2.50
   3  -8   3   12.00    3.70
   3   7  -3    6.10    2.60
   3   7  -3    4.70    3.20
   3   7  -3    6.90    2.90
  -3  -7   3    8.40    2.70
  -3  -7   3   10.60    3.90
   2   7  -3   55.29    5.50
   2   7  -3   38.20    6.30
   2   7  -3   43.70    6.30
   2   7  -3   59.79    6.10
  -2  -7   3   47.70    6.30
  -2  -7   3   78.49    9.60
  -2  -7   3   60.29    5.40
  -2  -7   3   59.39    6.40
  -2  -7   3   36.70    6.10
   1   7  -3  242.38   20.70
   1   7  -3  245.08   20.50
   1   7  -3  210.58   20.70
   1   7  -3  234.78   20.90
   1   7  -3  240.68   20.90
  -1  -7   3  223.98   20.60
  -1  -7   3  204.18   20.50
  -1  -7   3  260.27   21.10
  -1  -7   3  234.88   20.20
  -1  -7   3  256.97   20.70
   0   7  -3  114.29   10.00
   0   7  -3  108.39   10.00
   0   7  -3  106.79   10.00
   0   7  -3  119.99   10.70
   0  -7   3  111.09   10.00
   0  -7   3  105.49    9.50
   0  -7   3   91.39    9.90
   0  -7   3  112.49    9.90
   0  -7   3  114.69   10.60
  -1   7  -3   21.00    3.00
  -1   7  -3   14.90    3.00
  -1   7  -3   20.50    3.00
  -1   7  -3   19.60    3.30
  -1   7  -3   23.00    3.30
   1  -7   3   20.90    2.80
   1  -7   3   20.60    2.90
   1  -7   3   20.40    3.20
   1  -7   3   20.30    3.10
   1  -7   3   13.90    2.40
   1  -7   3   19.10    2.30
  -2   7  -3  137.39   11.50
  -2   7  -3  120.59   11.00
  -2   7  -3  128.99   11.00
   2  -7   3  119.89   11.20
   2  -7   3  126.49   11.00
   2  -7   3   95.59   10.30
   2  -7   3  126.59   11.20
   2  -7   3  129.79   10.80
   2  -7   3  105.59   11.00
  -3   7  -3    2.30    2.00
  -3   7  -3   -0.60    2.60
  -3   7  -3    2.80    2.40
   3  -7   3    4.00    2.00
   3  -7   3    2.60    1.40
   3  -7   3    2.30    1.50
   3  -7   3    1.10    2.50
   3  -7   3    5.10    2.00
  -4   7  -3   17.40    4.90
  -4   7  -3   13.00    7.80
   4  -7   3    5.10    2.70
   4  -7   3   11.90    2.50
   4  -7   3    9.50    3.20
   3   6  -3   34.30    4.50
   3   6  -3   41.10    5.10
   3   6  -3   23.20    4.30
   3   6  -3   32.90    5.00
  -3  -6   3   33.50    4.20
  -3  -6   3   31.60    4.90
  -3  -6   3   40.90    5.30
  -3  -6   3   25.30    5.40
   2   6  -3   18.10    2.50
   2   6  -3    7.90    2.30
   2   6  -3    8.20    2.00
   2   6  -3   11.80    2.50
   2   6  -3    7.20    2.20
  -2  -6   3    9.30    2.00
  -2  -6   3    7.20    2.20
  -2  -6   3    6.70    2.30
  -2  -6   3    7.90    2.10
  -2  -6   3    9.20    2.70
  -2  -6   3   12.30    2.80
   1   6  -3   64.79    6.10
   1   6  -3   57.09    6.00
   1   6  -3   60.69    5.90
   1   6  -3   60.99    6.50
   1   6  -3   60.19    6.40
  -1  -6   3   63.69    6.30
  -1  -6   3   59.89    5.70
  -1  -6   3   58.59    5.90
  -1  -6   3   62.79    6.20
   0   6  -3    6.70    1.60
   0   6  -3    7.20    1.60
   0   6  -3    5.50    1.50
   0   6  -3    4.40    1.50
   0   6  -3    4.90    1.50
   0  -6   3    7.70    1.60
   0  -6   3    8.80    1.70
   0  -6   3    6.90    1.20
   0  -6   3    8.70    1.70
   0  -6   3    8.00    2.00
   0  -6   3    6.60    1.80
  -1   6  -3  291.27   28.80
  -1   6  -3  365.86   28.90
  -1   6  -3  364.76   29.10
  -1   6  -3  325.57   29.00
   1  -6   3  326.17   29.00
   1  -6   3  339.67   28.80
   1  -6   3  334.37   28.40
   1  -6   3  348.97   28.80
   1  -6   3  323.17   29.10
   1  -6   3  350.46   29.10
  -2   6  -3  102.79   11.60
  -2   6  -3  141.39   11.60
  -2   6  -3  137.69   12.00
  -2   6  -3  104.39   11.80
   2  -6   3  133.69   11.60
   2  -6   3  143.09   11.60
   2  -6   3  133.59   11.70
   2  -6   3  136.29   11.80
   2  -6   3  131.39   11.10
  -3   6  -3    5.80    1.50
  -3   6  -3    3.40    2.80
  -3   6  -3    4.00    2.10
  -3   6  -3    4.00    1.30
   3  -6   3    6.90    2.00
   3  -6   3    5.20    2.20
   3  -6   3    5.20    1.50
   3  -6   3    2.60    1.40
   3  -6   3    5.70    1.90
   4  -6   3   13.90    4.50
   4  -6   3   19.50    3.40
   4  -6   3   16.40    2.40
   4  -6   3    7.70    4.50
   4  -6   3   15.10    2.80
   4   5  -3   -0.20    2.60
   4   5  -3    4.80    3.20
   4   5  -3    0.90    3.70
  -4  -5   3   -7.80    3.90
   3   5  -3   20.90    3.80
   3   5  -3   22.60    3.70
   3   5  -3   31.20    4.10
   3   5  -3   17.00    3.20
  -3  -5   3   24.90    4.10
  -3  -5   3   21.00    3.50
  -3  -5   3   32.80    4.50
  -3  -5   3   21.10    3.30
   2   5  -3   17.40    2.50
   2   5  -3   17.30    2.70
   2   5  -3   11.20    2.70
   2   5  -3   18.00    2.80
   2   5  -3   17.20    2.50
  -2  -5   3   21.10    2.70
  -2  -5   3   10.50    2.40
  -2  -5   3   13.50    2.70
  -2  -5   3   17.30    3.00
  -2  -5   3   14.40    2.20
  -2  -5   3   18.50    3.20
   1   5  -3   68.19    7.00
   1   5  -3   76.99    7.00
   1   5  -3   77.19    7.40
   1   5  -3   75.29    7.00
   1   5  -3   70.69    7.30
  -1  -5   3   79.09    7.10
  -1  -5   3   78.79    7.00
  -1  -5   3   80.19    7.30
  -1  -5   3   69.69    7.10
  -1  -5   3   75.59    6.70
   0   5  -3    2.90    1.20
   0   5  -3    1.60    1.00
   0   5  -3    1.70    0.90
   0   5  -3    1.40    1.20
   0   5  -3    2.50    1.40
   0  -5   3    1.90    1.40
   0  -5   3    2.60    0.70
   0  -5   3    1.60    1.00
   0  -5   3    3.00    1.00
   0  -5   3   -0.30    0.90
   0  -5   3    2.70    1.20
  -1   5  -3  337.17   29.50
  -1   5  -3  361.76   29.50
  -1   5  -3  357.26   29.30
  -1   5  -3  362.16   29.30
   1  -5   3  329.97   29.40
   1  -5   3  338.07   29.30
   1  -5   3  339.37   29.50
   1  -5   3  319.57   29.20
   1  -5   3  344.27   29.50
  -2   5  -3  178.68   16.30
  -2   5  -3  201.68   16.20
  -2   5  -3  190.98   16.60
   2  -5   3  186.38   16.50
   2  -5   3  174.58   15.80
   2  -5   3  183.88   16.20
   2  -5   3  190.78   16.30
   2  -5   3  177.48   16.20
   2  -5   3  195.18   16.40
  -3   5  -3    5.50    2.90
  -3   5  -3    7.20    2.20
   3  -5   3    7.50    1.60
   3  -5   3    7.80    1.90
   3  -5   3    6.00    2.10
   3  -5   3    8.20    1.80
   3  -5   3    4.40    2.80
   4  -5   3  138.19   13.30
   4  -5   3  140.89   13.60
   4  -5   3  129.39   12.70
   4  -5   3  126.09   12.60
   4   4  -3   17.30    3.80
   4   4  -3   16.10    3.50
   4   4  -3   16.30    4.50
   4   4  -3   14.10    3.10
  -4  -4   3   10.30    4.70
  -4  -4   3   20.90    3.50
   3   4  -3   41.00    4.70
   3   4  -3   39.50    5.00
   3   4  -3   43.60    5.10
   3   4  -3   38.40    4.90
  -3  -4   3   28.30    4.50
  -3  -4   3   48.00    4.70
  -3  -4   3   45.00    5.40
  -3  -4   3   39.90    5.20
   2   4  -3   74.69    7.30
   2   4  -3   78.29    7.40
   2   4  -3   77.39    7.50
   2   4  -3   82.59    7.50
   2   4  -3   81.99    7.50
  -2  -4   3   80.29    7.60
  -2  -4   3   83.09    7.50
  -2  -4   3   83.99    7.70
  -2  -4   3   82.19    7.30
  -2  -4   3   71.99    7.10
  -2  -4   3   63.49    7.30
   1   4  -3   98.99    9.30
   1   4  -3  100.99    9.30
   1   4  -3   98.29    9.20
   1   4  -3  106.59    9.20
   1   4  -3   90.79    9.10
  -1  -4   3  102.09    9.20
  -1  -4   3  118.89    9.30
  -1  -4   3   97.19    9.60
  -1  -4   3  109.99    9.20
  -1  -4   3   98.29    8.90
   0   4  -3  212.58   17.70
   0   4  -3  208.28   17.50
   0   4  -3  209.58   17.50
   0   4  -3  190.58   17.40
   0   4  -3  214.48   17.70
   0  -4   3  219.58   17.70
   0  -4   3  215.28   17.50
   0  -4   3  201.28   17.50
   0  -4   3  197.28   17.20
   0  -4   3  180.28   17.40
   0  -4   3  186.88   17.60
  -1   4  -3  363.06   31.40
  -1   4  -3  368.86   31.50
  -1   4  -3  379.96   31.30
  -1   4  -3  341.87   31.70
   1  -4   3  374.56   31.50
   1  -4   3  379.16   31.40
   1  -4   3  377.36   31.50
   1  -4   3  344.57   31.20
   1  -4   3  390.66   31.50
  -2   4  -3   67.89    6.60
  -2   4  -3   59.79    6.10
  -2   4  -3   67.69    6.00
  -2   4  -3   53.99    6.10
  -2   4  -3   75.39    6.50
   2  -4   3   72.99    6.30
   2  -4   3   70.29    6.20
   2  -4   3   66.49    6.20
   2  -4   3   66.09    6.20
   2  -4   3   73.69    6.60
  -3   4  -3  106.89    9.40
   3  -4   3   97.79    8.40
   3  -4   3   80.19    9.30
   3  -4   3   96.69    8.90
   3  -4   3   97.09    8.70
   3  -4   3   86.09    9.00
   3  -4   3   87.49    8.30
  -4   4  -3   38.00    4.60
   4  -4   3   39.90    5.40
   4  -4   3   50.69    5.70
   4  -4   3   41.70    7.10
   4   3  -3    1.00    1.90
   4   3  -3    1.60    2.70
   4   3  -3    1.50    2.10
  -4  -3   3    1.60    2.10
  -4  -3   3   -0.60    3.40
   3   3  -3   14.80    2.90
   3   3  -3   13.40    2.50
   3   3  -3   11.00    2.90
   3   3  -3   14.30    2.70
   3   3  -3   15.30    2.40
   3   3  -3   15.40    2.70
  -3  -3   3    8.50    2.00
  -3  -3   3   17.50    3.20
  -3  -3   3   12.10    2.40
  -3  -3   3   14.60    3.20
  -3  -3   3   13.00    2.00
   2   3  -3    3.30    1.40
   2   3  -3    3.40    1.50
   2   3  -3    3.90    1.30
   2   3  -3    4.00    1.20
   2   3  -3    5.30    1.40
  -2  -3   3    2.70    1.20
  -2  -3   3    5.30    1.20
  -2  -3   3    2.60    1.50
  -2  -3   3    5.00    1.20
  -2  -3   3    5.20    1.60
   1   3  -3  891.61   75.29
   1   3  -3  882.11   75.29
   1   3  -3  883.71   75.19
   1   3  -3  883.21   75.29
   1   3  -3  998.10   75.29
  -1  -3   3  888.51   75.19
  -1  -3   3  872.21   74.99
  -1  -3   3  887.91   75.29
  -1  -3   3  838.52   75.19
  -1  -3   3  885.11   75.19
   0   3  -3  207.18   16.50
   0   3  -3  195.18   16.50
   0   3  -3  181.78   16.50
   0   3  -3  177.88   16.40
   0  -3   3  193.98   16.60
   0  -3   3  208.28   16.60
   0  -3   3  189.78   16.50
   0  -3   3  182.78   16.20
   0  -3   3  188.28   16.30
  -1   3  -3    3.80    0.80
  -1   3  -3    3.90    1.10
  -1   3  -3    5.10    1.00
  -1   3  -3    3.80    1.20
  -1   3  -3    4.20    1.00
   1  -3   3    4.30    1.10
   1  -3   3    4.00    1.10
   1  -3   3    5.00    1.10
   1  -3   3    5.20    0.80
   1  -3   3    5.40    1.10
  -2   3  -3  347.37   31.70
  -2   3  -3  394.86   32.10
  -2   3  -3  388.16   32.10
  -2   3  -3  392.56   31.60
   2  -3   3  363.26   32.00
   2  -3   3  377.86   31.70
   2  -3   3  345.57   32.00
   2  -3   3  389.76   31.80
   2  -3   3  370.36   31.80
  -3   3  -3   58.49    5.10
  -3   3  -3   60.89    6.20
   3  -3   3   56.09    5.70
   3  -3   3   47.90    6.00
   3  -3   3   53.69    5.30
   3  -3   3   53.39    4.90
   3  -3   3   48.70    6.10
   3  -3   3   51.59    5.00
   3  -3   3   46.90    5.50
  -4   3  -3   30.80    4.40
   4  -3   3   49.50    6.00
   4  -3   3   41.10    5.40
   4  -3   3   39.10    5.50
   4   2  -3   14.30    2.50
   4   2  -3   20.80    3.60
   4   2  -3   13.60    2.40
   4   2  -3   18.10    3.80
  -4  -2   3   15.90    3.40
  -4  -2   3   19.10    4.60
   3   2  -3    1.50    1.70
   3   2  -3   -0.10    1.10
   3   2  -3   -0.30    1.80
   3   2  -3    3.20    2.00
   3   2  -3    2.40    1.30
   3   2  -3   -0.20    1.80
  -3  -2   3    1.10    1.50
  -3  -2   3    0.20    1.00
  -3  -2   3   -0.50    0.80
  -3  -2   3    2.00    1.80
  -3  -2   3   -1.50    2.30
   2   2  -3  179.98   16.10
   2   2  -3  182.58   16.00
   2   2  -3  181.98   16.10
   2   2  -3  180.88   16.10
   2   2  -3  183.08   16.10
  -2  -2   3  199.58   16.20
  -2  -2   3  187.18   16.20
  -2  -2   3  167.08   15.90
  -2  -2   3  196.88   16.00
   1   2  -3  476.65   41.40
   1   2  -3  498.35   41.40
   1   2  -3  548.05   41.40
   1   2  -3  408.06   41.30
   1   2  -3  503.85   41.30
  -1  -2   3  500.05   41.40
  -1  -2   3  479.65   41.30
  -1  -2   3  481.65   41.40
  -1  -2   3  493.55   41.10
   0   2  -3   93.19    8.10
   0   2  -3   93.79    7.90
   0   2  -3   97.59    8.20
   0   2  -3   94.09    8.20
   0   2  -3   95.69    8.10
   0  -2   3   89.89    7.90
   0  -2   3   79.89    8.10
   0  -2   3   84.99    8.10
   0  -2   3   92.19    8.10
  -1   2  -3 1001.90   82.59
  -1   2  -3 1097.49   82.59
  -1   2  -3  966.50   82.59
   1  -2   3  945.31   82.29
   1  -2   3  998.30   82.59
   1  -2   3  957.30   82.59
   1  -2   3  965.30   82.59
   1  -2   3  902.11   82.59
  -2   2  -3  513.65   40.40
  -2   2  -3  503.85   40.40
  -2   2  -3  507.05   40.90
  -2   2  -3  427.46   40.40
  -2   2  -3  487.25   40.80
   2  -2   3  487.85   40.60
   2  -2   3  451.95   40.50
   2  -2   3  489.45   40.80
   2  -2   3  456.65   40.70
   2  -2   3  474.95   40.50
   2  -2   3  473.65   40.50
  -3   2  -3    1.60    1.70
  -3   2  -3   -1.50    1.70
   3  -2   3    0.80    0.80
   3  -2   3    0.20    2.10
   3  -2   3   -0.80    1.90
   3  -2   3    0.30    0.80
   3  -2   3    0.10    1.40
   3  -2   3    3.30    1.60
   3  -2   3   -0.50    1.70
  -4   2  -3   14.40    3.00
   4  -2   3   17.80    4.30
   4  -2   3   19.50    3.50
   4  -2   3   18.10    3.60
   4  -2   3   13.60    4.40
   4  -2   3   25.20    4.00
   4   1  -3   19.60    3.70
   4   1  -3   17.50    2.50
   4   1  -3   21.30    3.80
   4   1  -3   17.40    2.50
  -4  -1   3   22.70    4.40
  -4  -1   3   22.40    3.40
   3   1  -3    6.40    2.30
   3   1  -3   12.00    2.30
   3   1  -3    9.60    2.30
   3   1  -3    8.00    2.10
   3   1  -3    9.70    1.70
  -3  -1   3   15.30    2.70
  -3  -1   3    9.50    2.00
   2   1  -3   49.10    4.50
   2   1  -3   42.50    4.40
   2   1  -3   42.00    4.30
   2   1  -3   40.50    4.50
   2   1  -3   45.90    4.50
   2   1  -3   46.40    4.30
  -2  -1   3   47.40    4.60
  -2  -1   3   48.20    4.70
  -2  -1   3   35.00    4.20
  -2  -1   3   41.10    4.20
  -2  -1   3   49.80    4.20
   1   1  -3   29.90    2.90
   1   1  -3   31.40    2.90
   1   1  -3   25.50    2.80
   1   1  -3   27.70    2.90
   1   1  -3   24.90    3.00
  -1  -1   3   28.30    2.80
  -1  -1   3   34.60    3.10
  -1  -1   3   28.20    2.90
  -1  -1   3   27.70    3.00
   0   1  -3   25.70    2.50
   0   1  -3   26.90    2.70
   0   1  -3   30.90    2.90
   0   1  -3   26.50    2.50
   0   1  -3   26.50    2.80
   0  -1   3   28.70    2.90
   0  -1   3   24.90    2.50
   0  -1   3   28.80    2.70
   0  -1   3   28.10    2.80
  -1   1  -3  202.48   17.00
  -1   1  -3  216.08   17.20
  -1   1  -3  208.08   17.10
  -1   1  -3  187.88   16.80
   1  -1   3  195.48   17.10
   1  -1   3  203.58   16.80
   1  -1   3  192.78   16.80
   1  -1   3  200.38   17.10
   1  -1   3  200.88   17.20
   1  -1   3  182.18   17.00
  -2   1  -3   91.39    7.40
  -2   1  -3   90.49    7.50
  -2   1  -3   82.99    7.80
   2  -1   3   82.39    7.70
   2  -1   3   82.19    7.60
   2  -1   3   85.49    7.60
   2  -1   3   87.89    7.60
   2  -1   3   77.19    7.60
   2  -1   3   86.59    7.90
  -3   1  -3   58.89    5.70
   3  -1   3   60.29    5.40
   3  -1   3   53.49    5.90
   3  -1   3   52.89    5.30
   3  -1   3   55.09    6.10
   3  -1   3   55.29    6.20
   3  -1   3   68.99    6.70
   3  -1   3   59.19    5.70
  -4   1  -3   43.10    5.70
   4  -1   3   51.59    6.50
   4  -1   3   63.79    7.60
   4  -1   3   50.19    6.40
   4  -1   3   49.40    6.50
   4  -1   3   49.40    6.90
   4   0  -3   12.50    3.30
   4   0  -3   11.20    1.90
   4   0  -3    7.20    3.20
   4   0  -3    3.40    3.60
   4   0  -3   12.50    1.90
  -4   0   3   16.80    2.90
   3   0  -3  131.59   12.50
   3   0  -3  137.99   12.40
   3   0  -3  134.59   11.90
   3   0  -3  129.19   12.50
   3   0  -3  130.89   11.90
   3   0  -3  130.59   12.30
   3   0  -3  138.39   12.40
  -3   0   3  135.49   12.00
  -3   0   3  158.48   12.60
   2   0  -3  952.90   86.09
   2   0  -3 1045.70   86.19
   2   0  -3  996.70   85.99
   2   0  -3 1055.39   85.99
   2   0  -3 1017.60   85.99
  -2   0   3  881.31   86.09
  -2   0   3 1101.49   86.09
  -2   0   3 1129.89   85.99
  -2   0   3  989.20   85.89
   1   0  -3  433.16   36.90
   1   0  -3  440.96   37.00
   1   0  -3  428.76   37.00
   1   0  -3  465.35   37.00
   1   0  -3  380.76   36.80
  -1   0   3  435.26   37.00
  -1   0   3  454.35   37.00
  -1   0   3  436.46   36.90
  -1   0   3  427.76   37.00
  -1   0   3  456.15   36.80
   0   0  -3  468.85   38.60
   0   0  -3  438.56   38.30
   0   0  -3  408.16   38.40
   0   0  -3  508.05   38.60
   0   0  -3  453.45   38.30
   0   0   3  442.26   38.30
   0   0   3  438.56   38.40
   0   0   3  473.35   38.60
   0   0   3  461.15   38.80
  -1   0  -3   94.39    8.30
  -1   0  -3  104.49    8.30
  -1   0  -3   98.89    8.60
  -1   0  -3  101.29    8.50
  -1   0  -3   92.39    8.30
  -1   0  -3   87.79    8.50
   1   0   3  107.89    8.60
   1   0   3   84.99    8.20
   1   0   3   89.59    8.50
   1   0   3   96.89    8.50
  -2   0  -3   52.09    4.60
  -2   0  -3   39.40    4.50
  -2   0  -3   50.69    4.60
   2   0   3   46.80    4.70
   2   0   3   52.39    5.00
   2   0   3   50.49    4.90
   2   0   3   51.09    4.70
   2   0   3   49.80    4.70
   2   0   3   51.09    4.70
  -3   0  -3   70.49    6.20
   3   0   3   54.09    7.10
   3   0   3   66.09    6.00
   3   0   3   55.09    6.20
   3   0   3   61.49    6.20
   3   0   3   58.69    6.30
   3   0   3   59.49    6.80
   3   0   3   68.69    6.20
   3   0   3   65.09    6.40
  -4   0  -3    3.00    2.40
   4   0   3   -1.70    2.50
   4   0   3   -3.90    3.70
   4   0   3    1.00    2.80
   4   0   3   -4.50    3.10
   4   0   3    1.10    1.20
   4  -1  -3   19.70    4.00
   4  -1  -3   18.70    4.00
   4  -1  -3   21.20    2.90
   4  -1  -3   21.10    3.90
  -4   1   3   22.80    3.40
   3  -1  -3   16.90    2.70
   3  -1  -3   17.00    2.70
   3  -1  -3   22.00    3.20
   3  -1  -3   17.50    2.30
   3  -1  -3   18.30    3.10
  -3   1   3   21.10    2.60
  -3   1   3   23.40    3.10
   2  -1  -3   11.00    1.70
   2  -1  -3   12.90    2.10
   2  -1  -3   11.50    1.90
   2  -1  -3   11.00    1.60
  -2   1   3   11.40    1.70
  -2   1   3   12.00    1.60
  -2   1   3   12.20    1.70
  -2   1   3   11.00    1.60
  -2   1   3   11.70    2.00
   1  -1  -3  101.49    9.10
   1  -1  -3  111.09    9.30
   1  -1  -3  109.59    9.30
   1  -1  -3   99.29    9.00
   1  -1  -3  101.69    9.30
   1  -1  -3  105.49    9.00
  -1   1   3   93.39    9.20
  -1   1   3  108.19    9.10
  -1   1   3   99.29    9.20
  -1   1   3  109.09    9.30
   0  -1  -3  351.76   29.50
   0  -1  -3  356.16   29.60
   0  -1  -3  347.67   29.80
   0  -1  -3  371.46   29.90
   0  -1  -3  340.17   29.60
   0   1   3  345.77   29.80
   0   1   3  323.87   29.50
   0   1   3  352.46   29.60
   0   1   3  360.96   29.80
   0   1   3  344.27   29.60
  -1  -1  -3  422.96   35.70
  -1  -1  -3  436.06   35.90
  -1  -1  -3  396.66   36.10
  -1  -1  -3  436.86   36.60
  -1  -1  -3  403.16   35.80
   1   1   3  442.66   36.10
   1   1   3  435.86   36.10
   1   1   3  417.16   35.70
   1   1   3  446.06   36.10
   1   1   3  400.86   35.80
  -2  -1  -3  286.87   24.70
  -2  -1  -3  242.88   24.60
  -2  -1  -3  312.27   24.60
   2   1   3  283.77   24.90
   2   1   3  277.27   24.40
   2   1   3  288.67   24.70
   2   1   3  295.97   24.40
   2   1   3  291.27   24.60
   2   1   3  298.07   24.70
   2   1   3  298.87   24.90
  -3  -1  -3   46.20    4.90
   3   1   3   43.20    5.00
   3   1   3   49.10    5.60
   3   1   3   45.20    5.50
   3   1   3   45.50    4.90
   3   1   3   49.99    4.80
   3   1   3   48.40    4.90
   3   1   3   46.70    5.40
  -4  -1  -3    9.30    3.10
   4   1   3   11.90    2.30
   4   1   3   11.10    2.90
   4   1   3   11.90    3.60
   4   1   3   13.40    4.00
   4   1   3   12.70    2.30
   4  -2  -3   46.60    6.70
   4  -2  -3   57.19    5.20
   4  -2  -3   45.70    6.40
   4  -2  -3   46.40    5.20
   4  -2  -3   51.99    7.10
   4  -2  -3   55.39    6.00
  -4   2   3   59.09    5.80
   3  -2  -3    1.70    1.80
   3  -2  -3    0.50    1.30
   3  -2  -3    1.40    0.90
   3  -2  -3    1.40    1.80
   3  -2  -3    1.70    1.60
   3  -2  -3    6.70    1.90
  -3   2   3   -1.00    1.80
  -3   2   3    2.30    1.40
  -3   2   3    0.10    0.80
  -3   2   3    1.30    0.90
  -3   2   3    1.80    1.50
   2  -2  -3  139.29   12.30
   2  -2  -3  140.39   12.40
   2  -2  -3  134.19   12.40
   2  -2  -3  131.69   12.40
   2  -2  -3  137.89   12.00
  -2   2   3  138.19   12.40
  -2   2   3  154.08   12.30
   1  -2  -3   30.00    3.40
   1  -2  -3   32.80    3.50
   1  -2  -3   29.70    3.00
   1  -2  -3   30.10    3.10
   1  -2  -3   28.60    3.40
   1  -2  -3   31.50    3.60
  -1   2   3   36.50    3.10
  -1   2   3   39.30    3.50
  -1   2   3   34.30    3.40
   0  -2  -3  673.33   54.99
   0  -2  -3  649.83   55.09
   0  -2  -3  643.54   54.89
   0   2   3  653.53   55.29
   0   2   3  615.44   54.89
   0   2   3  660.73   55.09
   0   2   3  693.23   55.09
   0   2   3  624.04   55.19
  -1  -2  -3   58.99    5.30
  -1  -2  -3   54.19    5.00
  -1  -2  -3   58.39    5.20
  -1  -2  -3   41.20    5.20
   1   2   3   53.99    5.30
   1   2   3   53.69    5.20
   1   2   3   53.99    5.10
   1   2   3   53.59    5.10
   1   2   3   55.69    5.30
  -2  -2  -3   60.79    6.40
  -2  -2  -3   64.99    6.00
  -2  -2  -3   75.09    6.20
  -2  -2  -3   52.19    6.20
   2   2   3   61.89    6.30
   2   2   3   63.49    7.70
   2   2   3   68.89    6.30
   2   2   3   66.59    6.30
   2   2   3   60.39    6.30
  -3  -2  -3  118.09   10.30
  -3  -2  -3   99.49   10.00
   3   2   3  112.99    9.80
   3   2   3  119.29   10.40
   3   2   3  106.29    9.80
   3   2   3  112.09   10.40
   3   2   3  123.59   11.00
   3   2   3  114.89   10.50
  -4  -2  -3    0.60    2.80
   4   2   3    1.20    2.50
   4   2   3    4.70    2.20
   4   2   3    1.90    3.80
   4   2   3    4.20    3.40
   4  -3  -3    1.10    1.30
   4  -3  -3    2.20    2.70
   4  -3  -3   -0.20    1.90
   4  -3  -3    2.20    3.10
   4  -3  -3    5.00    2.10
   3  -3  -3    4.10    1.20
   3  -3  -3    5.40    1.60
   3  -3  -3    5.80    2.20
   3  -3  -3    5.60    1.80
   3  -3  -3    6.80    2.00
   3  -3  -3    6.80    2.00
  -3   3   3    5.10    2.20
  -3   3   3    4.40    1.30
  -3   3   3    5.70    1.40
   2  -3  -3   36.40    4.00
   2  -3  -3   36.40    4.20
   2  -3  -3   39.30    3.50
   2  -3  -3   36.20    3.80
   2  -3  -3   33.60    4.00
   2  -3  -3   37.00    4.00
   2  -3  -3   39.10    4.00
  -2   3   3   36.80    4.20
  -2   3   3   41.10    3.90
   1  -3  -3   54.79    5.20
   1  -3  -3   55.79    5.60
   1  -3  -3   65.39    5.50
   1  -3  -3   54.59    5.40
   1  -3  -3   57.89    5.50
   1  -3  -3   58.99    5.00
   1  -3  -3   56.59    5.70
  -1   3   3   54.39    5.10
  -1   3   3   51.89    5.40
  -1   3   3   58.29    5.60
   0  -3  -3  574.64   48.00
   0  -3  -3  528.55   47.90
   0  -3  -3  484.95   48.30
   0  -3  -3  618.44   48.40
   0  -3  -3  546.75   48.40
   0   3   3  622.84   48.10
   0   3   3  569.34   48.00
   0   3   3  523.75   48.30
   0   3   3  589.14   48.40
   0   3   3  621.34   48.20
  -1  -3  -3   66.69    6.00
  -1  -3  -3   66.89    6.10
  -1  -3  -3   58.39    5.60
   1   3   3   60.59    5.80
   1   3   3   59.69    5.80
   1   3   3   53.49    6.00
   1   3   3   57.99    5.90
   1   3   3   61.29    6.10
  -2  -3  -3   62.89    6.60
  -2  -3  -3   66.69    6.40
  -2  -3  -3   53.89    5.50
  -2  -3  -3   46.10    5.90
   2   3   3   58.19    5.80
   2   3   3   55.79    5.80
   2   3   3   54.89    5.80
   2   3   3   55.89    6.00
  -3  -3  -3  118.59   10.70
  -3  -3  -3  137.79   12.20
  -3  -3  -3  109.29   10.90
   3   3   3  119.99   11.10
   3   3   3  116.79   11.30
   3   3   3  124.89   11.30
   3   3   3  102.89   11.00
   4  -4  -3   16.10    2.50
   4  -4  -3   16.70    4.00
   4  -4  -3   16.10    2.80
   4  -4  -3   15.70    2.90
   4  -4  -3   20.70    3.30
  -4   4   3   19.40    4.40
   3  -4  -3   56.39    6.20
   3  -4  -3   64.99    6.00
   3  -4  -3   54.39    5.40
   3  -4  -3   58.59    5.50
   3  -4  -3   55.89    5.80
  -3   4   3   64.29    6.60
  -3   4   3   62.49    5.90
   2  -4  -3  378.96   32.20
   2  -4  -3  379.06   32.20
   2  -4  -3  389.46   32.20
   2  -4  -3  370.96   31.90
   2  -4  -3  372.56   32.20
  -2   4   3  410.26   32.30
  -2   4   3  323.67   32.20
   1  -4  -3  294.57   25.10
   1  -4  -3  293.17   24.90
   1  -4  -3  284.07   24.90
   1  -4  -3  324.07   25.00
   1  -4  -3  294.97   25.20
  -1   4   3  256.27   24.50
  -1   4   3  239.68   24.50
  -1   4   3  323.67   25.20
  -1   4   3  315.07   25.00
   0  -4  -3  381.46   37.60
   0  -4  -3  473.85   37.80
   0  -4  -3  455.05   37.50
   0  -4  -3  357.16   37.10
   0  -4  -3  422.26   37.20
   0   4   3  483.25   37.30
   0   4   3  436.36   37.40
   0   4   3  473.15   37.80
   0   4   3  477.85   37.80
  -1  -4  -3   16.40    2.70
  -1  -4  -3   12.90    1.90
  -1  -4  -3   18.60    2.80
   1   4   3   10.20    2.00
   1   4   3   13.40    2.50
   1   4   3   16.80    2.40
   1   4   3   14.60    2.50
   1   4   3   12.60    2.30
  -2  -4  -3   74.39    9.20
  -2  -4  -3   95.49    8.30
  -2  -4  -3   73.59    8.80
  -2  -4  -3  101.59    8.60
   2   4   3   93.49    8.80
   2   4   3   87.59    9.90
   2   4   3   90.49    8.60
   2   4   3   81.59   10.60
  -3  -4  -3   41.10    6.40
  -3  -4  -3   49.30    5.50
   3   4   3   54.89    6.30
   3   4   3   50.59    6.30
   3   4   3   41.10    6.40
   3   4   3   45.90    6.20
   4  -5  -3   15.70    2.70
   4  -5  -3   12.30    2.80
   4  -5  -3   12.10    4.10
   4  -5  -3   13.20    3.20
  -4   5   3   17.40    4.40
   3  -5  -3   44.70    6.00
   3  -5  -3   53.89    5.30
   3  -5  -3   51.09    5.50
   3  -5  -3   49.60    6.20
  -3   5   3   56.59    6.20
   2  -5  -3  132.59   13.90
   2  -5  -3  140.49   12.80
   2  -5  -3  148.59   13.50
   2  -5  -3  134.39   13.30
   2  -5  -3  153.38   13.40
   2  -5  -3  149.19   13.40
  -2   5   3  167.48   13.40
  -2   5   3  145.69   13.30
   1  -5  -3   74.89    6.80
   1  -5  -3   68.39    6.80
   1  -5  -3   72.99    6.50
   1  -5  -3   78.19    7.10
   1  -5  -3   70.39    6.70
   1  -5  -3   82.79    7.40
  -1   5   3   67.79    6.20
  -1   5   3   77.39    7.30
  -1   5   3   73.19    7.00
  -1   5   3   59.29    6.20
   0  -5  -3  100.49    9.30
   0  -5  -3   86.39    9.80
   0  -5  -3  126.29    9.80
   0  -5  -3  112.19    9.40
   0  -5  -3   93.59    9.30
   0   5   3  124.89   10.20
   0   5   3  100.79    9.50
   0   5   3  126.99    9.80
   0   5   3   87.59   10.00
   0   5   3  110.59    9.50
  -1  -5  -3  259.57   20.60
  -1  -5  -3  199.98   20.20
  -1  -5  -3  247.68   19.90
  -1  -5  -3  205.98   20.30
   1   5   3  240.08   20.40
   1   5   3  225.88   20.30
   1   5   3  241.08   20.10
   1   5   3  243.88   20.10
   1   5   3  199.58   20.00
  -2  -5  -3   34.20    4.00
  -2  -5  -3   27.60    4.50
  -2  -5  -3   33.20    5.40
   2   5   3   37.80    4.90
   2   5   3   26.70    4.00
   2   5   3   28.10    4.40
   2   5   3   33.90    4.40
  -3  -5  -3    6.80    2.50
   3   5   3    3.20    2.80
   3   5   3   -1.50    2.90
   3   5   3    5.20    3.50
   4  -6  -3   30.40    5.20
   4  -6  -3   23.80    3.60
   4  -6  -3   20.10    4.30
  -4   6   3   20.20    4.90
   3  -6  -3   18.80    3.10
   3  -6  -3   25.50    3.40
   3  -6  -3   20.20    3.60
   3  -6  -3   19.60    4.00
  -3   6   3   18.70    3.40
  -3   6   3   26.30    4.40
   2  -6  -3   33.50    4.80
   2  -6  -3   30.30    4.30
   2  -6  -3   35.60    3.90
   2  -6  -3   40.60    4.90
   2  -6  -3   31.90    5.10
   2  -6  -3   35.50    4.50
  -2   6   3   42.60    4.80
  -2   6   3   35.80    4.60
  -2   6   3   33.10    5.00
   1  -6  -3    3.20    1.70
   1  -6  -3    7.40    2.30
   1  -6  -3    5.60    2.20
   1  -6  -3    7.00    1.50
   1  -6  -3    8.00    1.80
  -1   6   3    5.80    2.30
  -1   6   3    5.20    2.30
  -1   6   3    6.80    2.20
  -1   6   3    2.60    1.00
   0  -6  -3  275.17   25.80
   0  -6  -3  279.57   26.50
   0  -6  -3  331.47   26.00
   0  -6  -3  279.37   25.90
   0   6   3  353.56   26.40
   0   6   3  279.27   26.00
   0   6   3  290.07   26.00
   0   6   3  348.87   26.90
  -1  -6  -3   56.79    6.60
  -1  -6  -3   52.49    5.40
  -1  -6  -3   43.60    6.10
   1   6   3   56.39    5.70
   1   6   3   55.89    6.00
   1   6   3   55.29    6.50
   1   6   3   56.79    6.40
   1   6   3   38.30    5.60
  -2  -6  -3   -0.60    1.80
  -2  -6  -3    2.00    3.30
   2   6   3    4.90    3.10
   2   6   3    4.90    2.70
   2   6   3    5.70    2.70
   2   6   3    3.80    2.60
  -3  -6  -3   22.90    4.30
   3   6   3   23.30    5.00
   3   6   3   28.00    4.80
   3   6   3   23.50    4.90
   3  -7  -3   35.10    4.60
   3  -7  -3   31.60    3.80
   3  -7  -3   18.90    4.30
   3  -7  -3   30.10    4.80
  -3   7   3   30.50    4.70
  -3   7   3   30.20    4.80
   2  -7  -3   17.50    4.20
   2  -7  -3   20.10    3.30
   2  -7  -3   10.80    3.50
   2  -7  -3   16.40    2.60
   2  -7  -3   19.40    3.90
  -2   7   3   23.90    3.70
   1  -7  -3    4.00    2.40
   1  -7  -3    0.50    2.20
   1  -7  -3    1.10    2.30
   1  -7  -3    0.10    2.10
   1  -7  -3    1.50    1.80
   1  -7  -3    2.00    1.50
  -1   7   3    0.80    2.50
  -1   7   3    1.40    0.80
  -1   7   3    0.40    1.10
  -1   7   3    1.10    2.00
  -1   7   3   -2.60    2.50
   0  -7  -3   30.40    4.60
   0  -7  -3   35.80    3.70
   0  -7  -3   27.60    3.60
   0  -7  -3   29.60    4.60
   0  -7  -3   30.80    4.40
   0   7   3   27.00    3.70
   0   7   3   31.20    3.80
   0   7   3   21.30    3.90
   0   7   3   28.40    3.90
   0   7   3   34.40    4.80
  -1  -7  -3   11.20    3.40
  -1  -7  -3    1.60    2.20
  -1  -7  -3    1.70    1.70
   1   7   3    4.20    2.90
   1   7   3    5.20    2.50
   1   7   3    4.90    2.10
   1   7   3    3.50    3.10
   1   7   3    0.90    2.90
  -2  -7  -3    1.70    2.20
   2   7   3    3.70    2.80
   2   7   3    5.70    3.40
   2   7   3    6.00    3.10
   3  -8  -3   20.80    4.20
   3  -8  -3   20.20    4.80
   3  -8  -3   20.80    3.40
  -3   8   3   21.20    4.80
   2  -8  -3   13.60    4.20
   2  -8  -3   18.90    3.70
   2  -8  -3    9.80    3.10
   2  -8  -3   14.40    2.80
  -2   8   3   17.00    3.60
   1  -8  -3   54.19    7.40
   1  -8  -3   62.89    8.30
   1  -8  -3   80.49    8.80
   1  -8  -3   75.09    6.50
  -1   8   3   61.19    8.60
  -1   8   3   82.39    7.80
  -1   8   3   92.89    9.30
  -1   8   3   58.49    6.00
  -1   8   3   62.59    6.30
   0  -8  -3  146.99   11.60
   0  -8  -3  161.58   13.70
   0  -8  -3  113.09   11.50
   0  -8  -3  118.59   11.60
   0  -8  -3  134.99   13.00
   0   8   3  156.88   12.60
   0   8   3  114.39   11.60
   0   8   3  115.49   12.00
   0   8   3  117.29   13.00
  -1  -8  -3   26.00    4.00
   1   8   3   35.10    5.50
   1   8   3   41.50    5.50
   1   8   3   36.10    6.10
   1   8   3   35.00    4.70
  -2  -8  -3   33.40    4.60
   2   8   3   28.40    5.00
   2   8   3   30.90    5.60
   2   8   3   22.20    5.00
   3  -9  -3    4.00    3.60
   3  -9  -3   -4.20    4.20
   3  -9  -3    0.30    2.30
  -3   9   3    2.50    4.40
   2  -9  -3   44.70    6.50
   2  -9  -3   63.59    8.60
   2  -9  -3   55.29    6.00
  -2   9   3   57.99    7.10
   1  -9  -3   44.60    5.90
   1  -9  -3   36.20    6.00
   1  -9  -3   27.70    4.90
   1  -9  -3   25.50    3.50
   1  -9  -3   26.30    4.40
  -1   9   3   24.50    3.10
  -1   9   3   31.50    5.00
  -1   9   3   41.90    8.10
  -1   9   3   27.90    5.90
   0  -9  -3   28.50    5.40
   0  -9  -3   33.50    6.50
   0  -9  -3   31.50    3.80
   0  -9  -3   23.70    3.40
   0   9   3   31.90    6.00
   0   9   3   16.20    4.60
   0   9   3   23.00    3.60
   0   9   3   32.80    4.80
   0   9   3   22.30    4.20
  -1  -9  -3   74.69    7.30
   1   9   3   80.79   10.10
   1   9   3   56.19    7.80
   1   9   3   65.99    8.80
   2 -10  -3   58.99    7.20
   2 -10  -3   67.59    9.70
   2 -10  -3   85.89   11.00
  -2  10   3   76.99    8.90
   1 -10  -3   33.20    4.00
   1 -10  -3   26.90    5.80
   1 -10  -3   22.80    4.60
  -1  10   3   28.40    5.00
   0 -10  -3   67.69    6.80
   0 -10  -3   59.39    8.50
   0  10   3   62.29    7.00
   0  10   3   40.70    7.40
   0  10   3   77.59    8.60
   0  12  -4   46.40    6.50
   0  12  -4   38.00    5.80
   0  12  -4   29.70    6.90
   0 -12   4   49.40    6.20
   0 -12   4   41.60    4.80
   0 -12   4   27.70    6.80
  -1  12  -4   27.60    5.50
  -1  12  -4   19.40    4.90
   1 -12   4   22.40    4.30
   1 -12   4   15.50    5.30
   1 -12   4   20.10    3.20
  -2  12  -4   19.40    5.90
  -2  12  -4   27.20    6.50
   2 -12   4   19.20    5.30
   1  11  -4   -1.30    3.50
   1  11  -4   -0.90    4.30
   1  11  -4   -0.10    3.50
  -1 -11   4   -1.80    3.80
  -1 -11   4   -0.60    2.20
   0  11  -4   30.60    5.80
   0  11  -4   28.60    4.50
   0  11  -4   24.90    9.50
   0  11  -4   25.40    4.70
   0  11  -4   23.60    5.90
   0 -11   4   24.40    5.30
   0 -11   4   42.30    6.80
   0 -11   4   35.30    5.00
   0 -11   4   34.90    3.90
  -1  11  -4   -1.40    3.60
  -1  11  -4   -3.60    3.90
  -1  11  -4    0.60    3.90
  -1  11  -4    5.30    3.10
   1 -11   4   -0.20    4.40
   1 -11   4    3.30    3.60
   1 -11   4    2.10    2.90
   1 -11   4    2.40    1.80
  -2  11  -4   39.30    6.30
  -2  11  -4   39.40    6.20
   2 -11   4   31.60    4.70
   2 -11   4   41.30    5.70
   2  10  -4    4.00    4.00
   2  10  -4   -0.60    3.20
   2  10  -4    3.00    2.70
  -2 -10   4   -0.70    3.90
  -2 -10   4    3.90    2.60
   1  10  -4   41.10    6.30
   1  10  -4   48.70    5.60
   1  10  -4   25.30    5.50
   1  10  -4   32.70    5.20
  -1 -10   4   28.70    5.80
  -1 -10   4   39.40    5.40
  -1 -10   4   44.50    6.00
  -1 -10   4   37.20    4.50
   0  10  -4   22.90    4.90
   0  10  -4   35.90    5.10
   0  10  -4   21.90    4.80
   0  10  -4   39.30    4.80
   0  10  -4   33.30    4.70
   0 -10   4   23.20    4.50
   0 -10   4   21.30    4.70
   0 -10   4   30.10    3.50
   0 -10   4   42.90    5.80
   0 -10   4   34.40    4.70
  -1  10  -4   29.60    4.60
  -1  10  -4   22.90    4.20
  -1  10  -4   19.60    4.60
  -1  10  -4   29.50    5.20
  -1  10  -4   27.00    4.50
   1 -10   4   23.60    4.60
   1 -10   4   25.70    3.90
   1 -10   4   24.20    4.80
   1 -10   4   31.30    3.10
   1 -10   4   23.20    4.70
  -2  10  -4   19.90    4.40
  -2  10  -4   11.30    4.00
  -2  10  -4   10.80    3.40
  -2  10  -4   21.10    3.90
   2 -10   4   11.20    3.40
   2 -10   4   12.40    4.10
   2 -10   4   15.10    3.00
  -3  10  -4   53.39    7.30
  -3  10  -4   69.39    8.70
   3 -10   4   58.09    7.40
   3 -10   4   52.69    6.90
   2   9  -4   41.80    6.30
   2   9  -4   46.50    6.50
   2   9  -4   47.10    5.80
  -2  -9   4   36.70    5.10
  -2  -9   4   50.69    6.90
  -2  -9   4   55.39    7.10
   1   9  -4   30.70    4.70
   1   9  -4   32.00    4.40
   1   9  -4   24.00    4.70
   1   9  -4   33.60    4.60
   1   9  -4   41.50    5.70
  -1  -9   4   28.50    3.50
  -1  -9   4   28.00    4.80
  -1  -9   4   25.00    4.60
  -1  -9   4   28.60    4.80
  -1  -9   4   27.50    4.30
   0   9  -4   87.69   10.10
   0   9  -4  113.79   10.00
   0   9  -4   92.59    9.80
   0   9  -4   98.19   10.60
   0  -9   4  106.29   10.00
   0  -9   4  105.79    9.10
   0  -9   4   99.39   10.10
   0  -9   4  116.89   11.00
   0  -9   4  108.79   10.20
   0  -9   4   87.29   10.40
  -1   9  -4    9.60    2.90
  -1   9  -4   10.70    3.20
  -1   9  -4   11.50    2.60
  -1   9  -4   11.20    2.70
   1  -9   4    9.10    2.80
   1  -9   4   10.10    3.20
   1  -9   4    6.70    2.30
   1  -9   4   11.90    3.30
   1  -9   4   10.20    1.70
   1  -9   4    9.60    3.00
  -2   9  -4   28.60    4.30
  -2   9  -4   35.70    5.00
  -2   9  -4   22.10    4.50
  -2   9  -4   36.80    4.90
   2  -9   4   36.70    5.30
   2  -9   4   34.50    4.60
   2  -9   4   31.70    4.50
  -3   9  -4   80.79    9.10
  -3   9  -4   62.49    8.50
   3  -9   4   82.89    8.00
   3  -9   4   77.19    7.90
   3  -9   4   62.59    8.50
   3  -9   4   74.49    8.90
   3   8  -4   13.10    3.60
   3   8  -4   14.50    3.90
   3   8  -4   15.40    4.10
  -3  -8   4   25.20    4.70
  -3  -8   4   15.90    3.10
   2   8  -4   12.10    3.50
   2   8  -4   10.50    3.30
   2   8  -4   10.80    2.60
   2   8  -4   12.00    2.60
  -2  -8   4   11.70    2.40
  -2  -8   4   11.10    3.90
  -2  -8   4    5.70    3.20
   1   8  -4   53.59    6.40
   1   8  -4   51.89    6.60
   1   8  -4   47.20    6.50
   1   8  -4   55.69    6.00
   1   8  -4   48.10    5.60
  -1  -8   4   52.99    6.90
  -1  -8   4   50.19    5.10
  -1  -8   4   42.00    6.40
  -1  -8   4   60.49    6.30
  -1  -8   4   50.29    6.00
  -1  -8   4   48.70    6.30
   0   8  -4  315.87   25.90
   0   8  -4  251.37   25.80
   0   8  -4  320.57   25.90
   0   8  -4  303.27   26.30
   0  -8   4  234.98   26.10
   0  -8   4  299.37   25.30
   0  -8   4  333.57   25.90
   0  -8   4  320.37   25.90
  -1   8  -4  393.36   33.30
  -1   8  -4  333.47   33.10
  -1   8  -4  404.06   33.60
  -1   8  -4  421.66   33.30
   1  -8   4  398.86   33.00
   1  -8   4  369.16   33.10
   1  -8   4  387.46   33.30
   1  -8   4  357.46   32.50
   1  -8   4  393.46   33.60
   1  -8   4  398.36   33.60
  -2   8  -4  116.39   11.30
  -2   8  -4  137.19   11.80
  -2   8  -4  104.59   11.40
  -2   8  -4  135.39   12.00
   2  -8   4  102.39   11.70
   2  -8   4  135.59   11.80
   2  -8   4  127.19   11.10
   2  -8   4  122.09   10.50
   2  -8   4  120.29   11.30
  -3   8  -4   40.20    5.30
  -3   8  -4   52.49    7.00
  -3   8  -4   36.90    5.20
  -3   8  -4   37.00    5.40
   3  -8   4   49.80    5.80
   3  -8   4   46.00    5.40
   3  -8   4   48.20    6.10
   3  -8   4   49.60    5.50
   3   7  -4   15.30    3.50
   3   7  -4   17.20    3.40
   3   7  -4   14.20    4.00
  -3  -7   4   15.00    3.80
  -3  -7   4   13.00    5.30
  -3  -7   4   17.80    3.30
   2   7  -4   46.30    7.40
   2   7  -4   45.80    6.40
   2   7  -4   61.59    6.30
   2   7  -4   53.19    5.90
  -2  -7   4   60.29    6.50
  -2  -7   4   46.50    6.70
  -2  -7   4   60.29    5.60
  -2  -7   4   64.69    7.10
  -2  -7   4   41.20    6.40
   1   7  -4   16.60    3.20
   1   7  -4   17.80    2.70
   1   7  -4   17.50    3.30
   1   7  -4   16.70    2.70
   1   7  -4   13.10    2.90
  -1  -7   4   14.90    2.90
  -1  -7   4   14.10    3.00
  -1  -7   4   21.40    3.70
  -1  -7   4   17.40    3.00
  -1  -7   4   17.00    3.30
  -1  -7   4   16.80    2.30
   0   7  -4   51.59    5.30
   0   7  -4   55.29    5.40
   0   7  -4   50.09    5.70
   0   7  -4   57.49    5.50
   0   7  -4   38.30    5.50
   0  -7   4   45.40    5.70
   0  -7   4   47.60    5.40
   0  -7   4   52.39    4.70
   0  -7   4   54.19    5.30
   0  -7   4   56.49    5.40
  -1   7  -4   19.40    2.70
  -1   7  -4   17.40    2.90
  -1   7  -4   17.40    2.80
  -1   7  -4   20.10    3.10
  -1   7  -4   13.80    2.90
   1  -7   4   16.20    2.80
   1  -7   4   18.80    2.50
   1  -7   4   14.30    2.30
   1  -7   4   16.30    2.00
   1  -7   4   16.20    2.50
  -2   7  -4    7.80    2.50
  -2   7  -4    3.20    1.40
  -2   7  -4    2.40    2.20
  -2   7  -4    1.80    1.70
  -2   7  -4    4.80    2.00
   2  -7   4    5.50    1.80
   2  -7   4    5.90    1.80
   2  -7   4    4.40    1.80
   2  -7   4    1.90    1.90
   2  -7   4    5.00    1.70
  -3   7  -4   21.80    3.30
  -3   7  -4   17.30    3.10
  -3   7  -4   23.40    4.20
  -3   7  -4   17.00    3.60
   3  -7   4   23.90    3.50
   3  -7   4   18.80    3.30
   3  -7   4   25.20    3.50
   3  -7   4   25.10    3.70
  -4   7  -4   36.40    6.20
   4  -7   4   44.70    5.50
   4  -7   4   34.50    4.20
   4  -7   4   31.90    4.50
   3   6  -4   15.20    3.10
   3   6  -4   19.20    3.30
   3   6  -4   22.30    3.60
   3   6  -4   14.00    3.50
  -3  -6   4   17.40    2.90
  -3  -6   4   26.80    5.40
  -3  -6   4   16.70    3.50
  -3  -6   4   16.20    3.60
   2   6  -4  186.08   16.10
   2   6  -4  178.48   16.10
   2   6  -4  176.28   16.00
   2   6  -4  184.18   15.80
   2   6  -4  147.29   16.00
  -2  -6   4  170.38   15.90
  -2  -6   4  193.18   15.60
  -2  -6   4  193.88   16.10
  -2  -6   4  184.88   16.10
  -2  -6   4  162.28   16.10
   1   6  -4    0.20    1.20
   1   6  -4    2.60    1.50
   1   6  -4    2.10    1.80
   1   6  -4    1.70    1.40
   1   6  -4    0.80    1.50
  -1  -6   4    1.70    1.70
  -1  -6   4    1.00    1.70
  -1  -6   4    1.00    1.50
  -1  -6   4   -0.20    1.30
  -1  -6   4    2.00    1.70
  -1  -6   4    1.70    1.60
   0   6  -4   44.30    4.50
   0   6  -4   45.30    4.70
   0   6  -4   46.20    4.20
   0   6  -4   39.70    4.30
   0   6  -4   30.00    4.60
   0  -6   4   34.30    4.10
   0  -6   4   40.20    4.80
   0  -6   4   41.70    4.90
   0  -6   4   37.60    3.70
   0  -6   4   41.60    4.30
   0  -6   4   43.80    4.30
  -1   6  -4  352.56   26.60
  -1   6  -4  312.07   26.60
  -1   6  -4  268.27   26.30
  -1   6  -4  307.37   26.60
   1  -6   4  301.07   26.70
   1  -6   4  307.47   26.30
   1  -6   4  308.97   26.50
   1  -6   4  304.67   26.40
   1  -6   4  305.07   26.70
  -2   6  -4   32.30    3.90
  -2   6  -4   27.50    3.70
  -2   6  -4   19.20    2.80
  -2   6  -4   17.40    3.00
  -2   6  -4   22.30    3.00
   2  -6   4   23.90    3.20
   2  -6   4   22.60    3.30
   2  -6   4   24.70    3.40
   2  -6   4   27.40    3.50
  -3   6  -4   67.39    7.20
  -3   6  -4   84.09    8.40
  -3   6  -4   60.99    6.80
   3  -6   4   86.89    7.60
   3  -6   4   77.39    7.10
   3  -6   4   78.79    7.40
   3  -6   4   59.29    6.50
   3  -6   4   82.79    7.40
  -4   6  -4   16.30    5.00
   4  -6   4   19.80    3.90
   4  -6   4   10.20    3.20
   4  -6   4   12.10    2.30
   4   5  -4    1.70    2.50
   4   5  -4   -0.60    3.60
   4   5  -4    0.20    3.70
  -4  -5   4    3.90    4.70
   3   5  -4    1.90    2.30
   3   5  -4    2.90    1.80
   3   5  -4    1.50    2.30
   3   5  -4    2.50    2.30
  -3  -5   4    4.20    2.80
  -3  -5   4   -0.90    3.10
  -3  -5   4    1.80    2.00
   2   5  -4    5.10    2.00
   2   5  -4    3.70    1.70
   2   5  -4    3.40    1.80
   2   5  -4    3.20    1.60
   2   5  -4    5.70    1.90
  -2  -5   4    3.20    2.00
  -2  -5   4    3.60    1.50
  -2  -5   4    4.10    2.10
  -2  -5   4    2.30    1.70
  -2  -5   4    2.10    1.30
   1   5  -4   63.79    6.00
   1   5  -4   62.99    6.30
   1   5  -4   56.99    6.10
   1   5  -4   57.29    5.90
   1   5  -4   56.79    5.80
  -1  -5   4   58.79    5.50
  -1  -5   4   48.00    6.20
  -1  -5   4   63.59    6.20
  -1  -5   4   69.89    6.00
  -1  -5   4   58.49    5.90
  -1  -5   4   64.49    5.90
   0   5  -4  347.47   30.00
   0   5  -4  343.97   29.70
   0   5  -4  352.26   30.10
   0   5  -4  321.67   29.90
   0   5  -4  340.27   29.80
   0  -5   4  358.36   29.70
   0  -5   4  372.76   30.10
   0  -5   4  385.46   30.10
   0  -5   4  320.27   29.40
   0  -5   4  348.17   29.80
   0  -5   4  345.97   29.80
  -1   5  -4   43.10    4.10
  -1   5  -4   33.60    4.00
  -1   5  -4   30.10    3.70
  -1   5  -4   41.20    4.10
   1  -5   4   37.00    3.90
   1  -5   4   42.00    4.20
   1  -5   4   36.30    4.20
   1  -5   4   37.90    3.70
   1  -5   4   36.00    3.90
  -2   5  -4    1.30    1.00
  -2   5  -4   -0.20    1.70
  -2   5  -4    0.30    1.20
  -2   5  -4    3.00    1.70
  -2   5  -4   -0.10    0.80
   2  -5   4    1.20    1.10
   2  -5   4    1.00    1.30
   2  -5   4    0.50    1.70
   2  -5   4    0.60    1.40
   2  -5   4    2.60    1.30
  -3   5  -4  155.48   13.30
   3  -5   4  144.09   12.40
   3  -5   4  134.79   12.60
   3  -5   4  138.89   12.40
   3  -5   4  135.59   12.40
   3  -5   4  120.99   13.10
  -4   5  -4   31.30    5.10
   4  -5   4   20.90    2.90
   4  -5   4   13.00    3.90
   4  -5   4   25.90    3.60
   4  -5   4   18.00    2.90
   4   4  -4    4.70    3.10
   4   4  -4    3.60    2.30
   4   4  -4   10.00    3.70
   4   4  -4    8.10    3.60
  -4  -4   4    5.40    2.70
  -4  -4   4   12.20    4.30
   3   4  -4   -0.50    1.80
   3   4  -4    0.30    2.10
   3   4  -4    2.40    2.00
   3   4  -4    1.80    1.90
  -3  -4   4    0.60    3.00
  -3  -4   4    5.00    2.60
  -3  -4   4    3.60    1.50
  -3  -4   4    0.90    1.70
   2   4  -4  124.29   11.20
   2   4  -4  106.69   11.00
   2   4  -4  125.89   11.10
   2   4  -4  122.69   11.00
   2   4  -4  114.79   11.00
  -2  -4   4  116.69   10.80
  -2  -4   4  117.69   11.20
  -2  -4   4  135.29   11.00
  -2  -4   4  121.29   11.30
  -2  -4   4  130.59   11.10
   1   4  -4  108.39   10.40
   1   4  -4  115.79   10.30
   1   4  -4  112.09   10.30
   1   4  -4  116.29   10.30
   1   4  -4  109.79   10.40
  -1  -4   4  119.69   10.50
  -1  -4   4  122.29   10.30
  -1  -4   4  111.39   10.00
  -1  -4   4  113.69   10.30
  -1  -4   4  122.49   10.40
   0   4  -4  434.76   37.00
   0   4  -4  443.26   37.00
   0   4  -4  447.26   36.90
   0   4  -4  456.25   36.90
   0   4  -4  425.16   36.70
   0  -4   4  453.95   37.00
   0  -4   4  424.66   37.00
   0  -4   4  373.06   36.60
   0  -4   4  431.66   36.50
   0  -4   4  444.96   36.90
  -1   4  -4  883.71   84.29
  -1   4  -4 1046.70   84.39
  -1   4  -4  914.11   83.99
   1  -4   4 1001.80   84.39
   1  -4   4 1101.49   84.39
   1  -4   4 1007.60   84.39
   1  -4   4 1037.00   84.29
  -2   4  -4  220.68   17.70
  -2   4  -4  225.98   18.10
  -2   4  -4  166.88   17.70
  -2   4  -4  212.18   17.30
  -2   4  -4  217.68   18.00
   2  -4   4  218.58   17.90
   2  -4   4  200.88   17.90
   2  -4   4  189.58   17.50
   2  -4   4  201.88   18.00
   2  -4   4  202.38   17.80
  -3   4  -4  173.38   15.20
  -3   4  -4  149.69   14.30
   3  -4   4  144.59   15.10
   3  -4   4  177.18   14.50
   3  -4   4  172.18   14.60
   3  -4   4  167.08   14.50
   3  -4   4  168.68   14.90
   3  -4   4  168.98   14.50
  -4   4  -4   -2.00    2.20
   4  -4   4    3.50    2.70
   4  -4   4    2.90    3.10
   4   3  -4   16.30    3.70
   4   3  -4   18.60    3.90
   4   3  -4   12.60    2.90
   4   3  -4   15.60    3.10
  -4  -3   4   20.30    4.90
  -4  -3   4   17.80    3.40
   3   3  -4    0.40    1.50
   3   3  -4    0.30    1.70
   3   3  -4   -1.80    1.80
   3   3  -4   -0.40    2.10
  -3  -3   4   -0.30    1.20
  -3  -3   4    0.20    1.40
  -3  -3   4    0.90    2.40
  -3  -3   4    0.80    1.50
  -3  -3   4    2.70    2.80
   2   3  -4  268.57   24.50
   2   3  -4  288.87   24.60
   2   3  -4  281.47   24.60
   2   3  -4  259.67   24.50
   2   3  -4  288.37   24.60
  -2  -3   4  312.47   24.60
  -2  -3   4  287.97   24.70
  -2  -3   4  270.77   24.30
  -2  -3   4  300.07   24.70
   1   3  -4  139.39   12.70
   1   3  -4  138.39   12.50
   1   3  -4  133.19   12.50
   1   3  -4  158.48   12.70
   1   3  -4  137.59   12.60
  -1  -3   4  130.99   12.60
  -1  -3   4  144.99   12.30
  -1  -3   4  148.29   12.70
  -1  -3   4  158.08   12.60
   0   3  -4  151.78   11.90
   0   3  -4  146.89   11.90
   0   3  -4  121.89   11.90
   0  -3   4  127.49   11.90
   0  -3   4  130.59   11.80
   0  -3   4  126.29   11.50
   0  -3   4  138.49   11.40
   0  -3   4  125.59   11.80
   0  -3   4  144.39   12.00
  -1   3  -4  679.83   59.09
  -1   3  -4  609.14   58.99
  -1   3  -4  786.82   59.19
  -1   3  -4  729.23   59.09
   1  -3   4  716.73   59.09
   1  -3   4  726.93   58.59
   1  -3   4  739.93   59.09
   1  -3   4  707.03   59.09
   1  -3   4  581.14   59.19
  -2   3  -4  109.99    8.50
  -2   3  -4   92.19    8.70
  -2   3  -4  108.19    9.20
  -2   3  -4  106.79    9.20
  -2   3  -4   80.69    8.80
   2  -3   4  100.99    9.10
   2  -3   4  101.79    9.10
   2  -3   4   97.19    8.80
   2  -3   4   98.79    8.90
   2  -3   4  100.49    8.60
   2  -3   4   95.69    8.60
  -3   3  -4   81.19    7.70
  -3   3  -4   93.79    8.60
   3  -3   4   73.79    8.60
   3  -3   4   85.19    7.70
   3  -3   4   78.69    7.80
   3  -3   4   90.99    7.80
   3  -3   4   90.49    8.30
   3  -3   4   85.89    7.70
   3  -3   4   76.09    8.60
  -4   3  -4   54.39    6.30
   4  -3   4   51.79    6.60
   4  -3   4   70.59    7.60
   4   2  -4    3.70    3.00
   4   2  -4    7.20    2.30
   4   2  -4    5.50    2.30
   4   2  -4    7.60    3.20
  -4  -2   4    9.20    4.00
  -4  -2   4    9.40    2.40
   3   2  -4   39.60    5.20
   3   2  -4   43.50    5.00
   3   2  -4   37.40    4.60
   3   2  -4   39.40    4.50
   3   2  -4   41.20    4.80
  -3  -2   4   39.00    4.20
  -3  -2   4   31.10    4.00
  -3  -2   4   37.20    4.00
  -3  -2   4   45.80    6.00
  -3  -2   4   44.70    5.40
   2   2  -4 1570.34  136.29
   2   2  -4 1589.84  136.39
   2   2  -4 1667.53  136.39
   2   2  -4 1578.34  136.29
   2   2  -4 1538.35  136.29
   2   2  -4 1573.74  136.39
  -2  -2   4 1622.04  136.49
  -2  -2   4 1518.25  136.09
  -2  -2   4 1810.12  136.39
  -2  -2   4 1709.03  136.49
   1   2  -4   72.29    6.30
   1   2  -4   73.99    6.30
   1   2  -4   71.09    6.50
   1   2  -4   60.99    6.20
   1   2  -4   67.99    6.50
   1   2  -4   67.79    6.40
  -1  -2   4   67.79    6.10
  -1  -2   4   66.19    6.40
  -1  -2   4   73.79    6.40
   0   2  -4   53.09    4.80
   0   2  -4   48.20    4.60
   0   2  -4   50.79    4.70
   0   2  -4   50.79    4.40
   0   2  -4   47.30    4.40
   0   2  -4   48.10    4.80
   0   2  -4   49.50    4.30
   0  -2   4   52.29    4.70
   0  -2   4   46.70    4.80
   0  -2   4   49.20    4.60
   0  -2   4   44.70    4.70
  -1   2  -4  598.24   50.89
  -1   2  -4  524.25   50.19
  -1   2  -4  624.44   50.19
  -1   2  -4  581.74   49.90
   1  -2   4  614.54   50.29
   1  -2   4  601.74   50.29
   1  -2   4  567.64   50.19
   1  -2   4  633.44   50.29
  -2   2  -4   -0.30    0.60
  -2   2  -4    1.00    1.40
  -2   2  -4   -0.90    0.90
  -2   2  -4    0.30    1.30
  -2   2  -4    1.40    0.90
   2  -2   4    2.00    0.80
   2  -2   4    0.80    0.70
   2  -2   4    0.80    1.30
   2  -2   4    0.80    1.00
   2  -2   4    1.40    1.20
   2  -2   4    1.40    0.80
  -3   2  -4   97.29    9.50
  -3   2  -4   87.29    9.60
   3  -2   4  107.39    9.80
   3  -2   4  108.79   10.10
   3  -2   4  101.89    9.30
   3  -2   4  103.89    9.20
   3  -2   4  105.29    9.90
   3  -2   4  103.39    9.40
   3  -2   4  106.69    9.20
  -4   2  -4   -2.10    2.20
   4  -2   4    1.90    4.00
   4  -2   4    0.00    3.10
   4  -2   4    0.20    2.80
   4  -2   4   -0.80    2.40
   4   1  -4   10.80    3.10
   4   1  -4    8.20    2.10
   4   1  -4    6.60    3.20
   4   1  -4    8.80    2.30
  -4  -1   4    9.80    3.80
  -4  -1   4   10.20    2.50
   3   1  -4   29.80    3.90
   3   1  -4   33.30    3.50
   3   1  -4   26.80    3.80
   3   1  -4   27.00    3.70
   3   1  -4   29.10    4.00
   3   1  -4   33.00    4.20
  -3  -1   4   34.90    4.70
  -3  -1   4   30.40    6.40
  -3  -1   4   23.60    3.20
  -3  -1   4   30.70    3.60
   2   1  -4   31.80    3.50
   2   1  -4   30.90    3.40
   2   1  -4   32.90    3.60
   2   1  -4   31.30    3.20
   2   1  -4   30.10    3.30
  -2  -1   4   23.50    3.30
  -2  -1   4   30.40    3.60
  -2  -1   4   25.20    3.40
  -2  -1   4   29.60    3.20
  -2  -1   4   30.20    3.00
   1   1  -4    3.00    1.20
   1   1  -4    0.80    0.80
   1   1  -4    0.80    0.90
   1   1  -4    1.10    0.90
   1   1  -4    0.90    0.70
  -1  -1   4    3.20    1.10
  -1  -1   4    0.00    0.60
  -1  -1   4    1.80    0.80
  -1  -1   4    0.60    0.90
  -1  -1   4    0.40    0.70
   0   1  -4  290.57   24.10
   0   1  -4  285.87   23.80
   0   1  -4  288.07   23.80
   0   1  -4  318.07   24.30
   0  -1   4  246.98   24.00
   0  -1   4  281.37   24.10
   0  -1   4  282.07   24.20
   0  -1   4  270.87   24.20
   0  -1   4  275.47   23.80
  -1   1  -4  279.97   22.70
  -1   1  -4  242.58   22.80
  -1   1  -4  272.47   22.80
  -1   1  -4  221.78   23.30
  -1   1  -4  276.27   22.40
  -1   1  -4  267.47   22.50
   1  -1   4  262.37   22.80
   1  -1   4  266.67   22.80
   1  -1   4  285.77   22.90
   1  -1   4  269.27   22.40
  -2   1  -4    3.40    0.90
  -2   1  -4    2.00    1.10
  -2   1  -4    1.10    1.00
  -2   1  -4    3.10    1.20
   2  -1   4    3.30    1.40
   2  -1   4    1.50    1.00
   2  -1   4    2.90    1.00
   2  -1   4    1.80    1.30
   2  -1   4    2.60    0.90
   2  -1   4    3.00    0.90
  -3   1  -4   12.30    2.30
   3  -1   4   15.60    2.10
   3  -1   4   13.80    2.60
   3  -1   4   10.40    2.30
   3  -1   4   18.50    3.00
   3  -1   4   14.10    3.10
   3  -1   4   13.00    2.10
   3  -1   4   15.40    2.40
  -4   1  -4   -1.60    2.20
   4  -1   4    2.90    2.90
   4  -1   4    3.00    2.90
   4  -1   4    1.50    1.30
   4  -1   4   -0.50    1.40
   4  -1   4    1.30    3.40
   4   0  -4   24.10    3.30
   4   0  -4   27.10    4.50
   4   0  -4   24.60    4.80
   4   0  -4   30.60    4.50
  -4   0   4   28.90    4.80
  -4   0   4   28.20    3.70
   3   0  -4   38.90    4.50
   3   0  -4   33.00    4.20
   3   0  -4   35.60    4.80
   3   0  -4   33.20    4.70
   3   0  -4   40.50    4.50
   3   0  -4   34.30    3.90
  -3   0   4   46.10    5.00
  -3   0   4   36.10    4.00
  -3   0   4   37.20    4.00
   2   0  -4   18.00    2.30
   2   0  -4   18.40    2.60
   2   0  -4   20.90    2.50
   2   0  -4   15.70    2.10
   2   0  -4   15.40    2.40
  -2   0   4   13.10    2.10
  -2   0   4   16.30    2.10
  -2   0   4   21.40    2.60
  -2   0   4   20.90    2.70
  -2   0   4   15.30    2.40
  -2   0   4   13.70    2.20
   1   0  -4   33.40    3.50
   1   0  -4   37.70    3.80
   1   0  -4   35.30    3.80
   1   0  -4   36.00    3.80
   1   0  -4   34.40    3.60
  -1   0   4   37.90    3.60
  -1   0   4   35.40    3.70
  -1   0   4   32.60    3.60
  -1   0   4   39.30    3.70
   0   0  -4    1.90    0.80
   0   0  -4    0.80    0.70
   0   0  -4    1.70    0.70
   0   0  -4    2.10    1.00
   0   0  -4    2.60    1.00
   0   0  -4    2.30    0.90
   0   0   4    2.50    0.90
   0   0   4    1.20    1.10
   0   0   4    1.60    1.00
   0   0   4    1.40    0.80
   0   0   4    2.10    0.80
  -1   0  -4  176.18   13.90
  -1   0  -4  148.79   13.50
  -1   0  -4  161.48   13.90
  -1   0  -4  155.98   13.60
  -1   0  -4  136.19   13.90
  -1   0  -4  164.58   13.60
   1   0   4  163.18   13.60
   1   0   4  161.98   13.90
   1   0   4  164.98   13.90
   1   0   4  161.88   13.90
   1   0   4  149.59   13.50
  -2   0  -4   65.59    7.20
  -2   0  -4   82.99    7.20
  -2   0  -4   88.69    7.20
  -2   0  -4   72.49    7.40
   2   0   4   80.09    7.40
   2   0   4   84.49    7.40
   2   0   4   76.59    7.60
   2   0   4   81.49    7.20
   2   0   4   85.59    7.20
  -3   0  -4  127.59   10.60
   3   0   4  121.29   10.70
   3   0   4  115.99   10.70
   3   0   4  116.59   10.70
   3   0   4  106.59   11.10
   3   0   4  118.89   10.80
   3   0   4  118.49   10.70
   3   0   4  116.49   10.80
  -4   0  -4   33.50    4.70
   4   0   4   37.20    4.70
   4   0   4   41.70    4.70
   4   0   4   42.70    5.30
   4   0   4   39.60    5.70
   4   0   4   36.30    4.60
   4  -1  -4   12.10    2.30
   4  -1  -4    9.50    3.50
   4  -1  -4   13.40    2.20
   4  -1  -4   12.40    3.20
  -4   1   4   11.00    2.80
   3  -1  -4   23.50    3.40
   3  -1  -4   18.70    2.90
   3  -1  -4   17.20    2.40
   3  -1  -4   18.70    2.80
   3  -1  -4   17.00    2.60
   3  -1  -4   16.80    2.80
  -3   1   4   19.90    2.80
  -3   1   4   13.90    2.40
  -3   1   4   13.00    2.10
  -3   1   4   19.40    2.70
   2  -1  -4  241.48   19.80
   2  -1  -4  232.08   19.70
   2  -1  -4  210.98   19.50
   2  -1  -4  219.08   19.80
   2  -1  -4  226.98   19.70
  -2   1   4  259.37   20.00
  -2   1   4  226.48   19.50
  -2   1   4  229.98   19.60
  -2   1   4  215.88   19.40
  -2   1   4  210.68   19.70
   1  -1  -4  122.69   10.90
   1  -1  -4  116.59   10.50
   1  -1  -4  112.79   10.50
   1  -1  -4  117.29   10.90
   1  -1  -4  117.99   10.80
  -1   1   4  129.89   10.90
  -1   1   4  131.19   10.60
  -1   1   4  120.79   10.70
   0  -1  -4   63.29    5.70
   0  -1  -4   66.29    5.70
   0  -1  -4   62.69    6.40
   0  -1  -4   63.19    5.60
   0  -1  -4   58.29    5.70
   0  -1  -4   62.99    6.00
   0   1   4   60.79    5.60
   0   1   4   58.99    5.90
   0   1   4   61.19    5.60
   0   1   4   64.09    6.10
   0   1   4   61.79    5.70
  -1  -1  -4  199.08   19.20
  -1  -1  -4  238.38   19.20
  -1  -1  -4  245.78   19.30
  -1  -1  -4  223.18   18.90
  -1  -1  -4  187.68   18.90
   1   1   4  237.28   19.30
   1   1   4  225.28   18.90
   1   1   4  226.48   19.20
   1   1   4  229.88   19.20
   1   1   4  203.48   18.70
  -2  -1  -4   95.09    7.90
  -2  -1  -4   88.69    7.60
  -2  -1  -4   73.49    7.90
  -2  -1  -4   70.49    7.80
   2   1   4   88.59    8.00
   2   1   4   90.59    8.00
   2   1   4   85.09    8.00
   2   1   4   78.89    7.40
   2   1   4   86.19    8.00
   2   1   4   88.29    7.80
  -3  -1  -4   46.60    4.90
  -3  -1  -4   51.29    5.20
   3   1   4   49.50    5.80
   3   1   4   52.49    5.50
   3   1   4   49.60    5.00
   3   1   4   47.20    5.90
   3   1   4   44.10    4.80
   3   1   4   50.39    5.30
   3   1   4   47.90    5.40
  -4  -1  -4   24.10    4.00
   4   1   4   18.80    4.60
   4   1   4   18.10    4.80
   4   1   4   30.10    3.70
   4   1   4   32.90    4.60
   4  -2  -4   12.30    2.50
   4  -2  -4   14.10    3.60
   4  -2  -4   11.20    3.40
   4  -2  -4   13.00    2.10
  -4   2   4    9.90    2.50
   3  -2  -4    2.10    2.20
   3  -2  -4    1.20    1.70
   3  -2  -4    0.40    1.80
   3  -2  -4    4.60    1.70
   3  -2  -4    1.30    1.90
  -3   2   4    1.40    1.50
  -3   2   4    2.70    1.70
  -3   2   4    0.60    1.40
  -3   2   4    1.00    2.10
  -3   2   4    1.50    1.30
   2  -2  -4  232.58   19.90
   2  -2  -4  247.78   20.20
   2  -2  -4  209.98   20.10
   2  -2  -4  206.18   20.10
   2  -2  -4  252.97   19.80
  -2   2   4  254.07   20.10
  -2   2   4  213.98   20.10
   1  -2  -4  460.55   42.30
   1  -2  -4  492.65   42.30
   1  -2  -4  499.25   42.70
   1  -2  -4  492.45   42.60
   1  -2  -4  502.65   42.70
   1  -2  -4  507.25   42.50
  -1   2   4  490.75   42.50
  -1   2   4  511.45   42.90
  -1   2   4  517.75   42.60
  -1   2   4  531.15   42.40
   0  -2  -4  886.91   73.19
   0  -2  -4  865.51   72.99
   0  -2  -4  832.92   73.09
   0  -2  -4  833.12   73.39
   0  -2  -4  925.41   73.09
   0  -2  -4  887.11   73.49
   0   2   4  882.11   73.19
   0   2   4  864.21   73.19
   0   2   4  894.91   73.09
   0   2   4  908.71   73.49
   0   2   4  750.12   73.39
  -1  -2  -4  329.87   25.90
  -1  -2  -4  281.47   25.40
  -1  -2  -4  296.87   25.60
   1   2   4  298.47   25.50
   1   2   4  306.37   25.70
   1   2   4  294.87   25.90
   1   2   4  277.67   25.80
   1   2   4  302.87   25.20
  -2  -2  -4  289.97   24.10
  -2  -2  -4  253.07   24.30
  -2  -2  -4  306.07   24.60
   2   2   4  263.47   25.20
   2   2   4  283.57   24.20
   2   2   4  285.47   24.40
   2   2   4  273.57   24.40
   2   2   4  285.57   24.40
  -3  -2  -4   87.59    9.10
  -3  -2  -4   97.69    9.10
   3   2   4   99.99    9.30
   3   2   4   90.29    9.40
   3   2   4  104.59    9.40
   3   2   4   95.59    9.60
   4  -3  -4   15.20    3.00
   4  -3  -4   17.10    3.50
   4  -3  -4   13.70    3.70
   4  -3  -4   17.60    2.80
   4  -3  -4   16.40    2.50
   3  -3  -4   65.99    7.30
   3  -3  -4   70.49    6.80
   3  -3  -4   74.49    6.80
   3  -3  -4   76.29    7.00
  -3   3   4   69.59    6.80
   2  -3  -4   70.59    6.90
   2  -3  -4   74.99    6.40
   2  -3  -4   67.79    6.60
   2  -3  -4   77.09    6.80
   2  -3  -4   67.99    6.90
   2  -3  -4   69.09    6.10
  -2   3   4   53.89    6.70
  -2   3   4   73.99    6.70
  -2   3   4   66.49    6.70
   1  -3  -4  665.93   64.79
   1  -3  -4  839.72   65.19
   1  -3  -4  731.23   64.69
   1  -3  -4  785.52   64.89
   1  -3  -4  758.62   64.59
   1  -3  -4  785.02   65.19
   1  -3  -4  827.82   64.89
  -1   3   4  768.32   64.89
  -1   3   4  826.02   65.19
  -1   3   4  683.73   64.59
   0  -3  -4   33.50    3.90
   0  -3  -4   23.40    3.50
   0  -3  -4   30.30    3.30
   0  -3  -4   24.40    3.00
   0   3   4   29.90    3.80
   0   3   4   30.30    3.70
   0   3   4   32.10    3.40
   0   3   4   28.10    3.10
  -1  -3  -4  145.79   12.70
  -1  -3  -4  139.09   12.10
  -1  -3  -4  154.08   12.50
   1   3   4  129.99   12.20
   1   3   4  119.19   12.30
   1   3   4  139.89   12.30
   1   3   4  140.09   12.60
   1   3   4  136.69   12.60
  -2  -3  -4  177.58   14.90
  -2  -3  -4  172.28   14.50
  -2  -3  -4  146.09   14.90
  -2  -3  -4  150.08   15.10
   2   3   4  164.58   15.00
   2   3   4  173.18   14.80
   2   3   4  151.88   16.30
   2   3   4  168.88   15.60
   2   3   4  172.68   15.00
  -3  -3  -4    9.60    2.50
  -3  -3  -4    6.20    4.50
  -3  -3  -4    2.80    3.00
   3   3   4    9.80    2.60
   3   3   4    8.20    2.80
   3   3   4    6.40    2.80
   3   3   4    5.20    2.30
   4  -4  -4    8.50    3.00
   4  -4  -4   13.90    2.40
   4  -4  -4   12.40    2.40
   4  -4  -4    9.50    3.50
   4  -4  -4   17.00    3.00
  -4   4   4   20.70    4.50
   3  -4  -4    4.80    1.70
   3  -4  -4    2.20    2.20
   3  -4  -4    2.50    1.20
   3  -4  -4    1.40    2.10
   3  -4  -4    4.70    1.70
  -3   4   4    2.60    1.80
  -3   4   4    3.80    2.20
   2  -4  -4   45.30    5.40
   2  -4  -4   41.70    5.00
   2  -4  -4   36.50    4.60
   2  -4  -4   33.80    4.50
   2  -4  -4   43.80    4.70
   2  -4  -4   39.50    4.10
  -2   4   4   34.20    4.90
  -2   4   4   44.80    4.60
  -2   4   4   40.80    4.60
   1  -4  -4  227.18   19.50
   1  -4  -4  233.48   19.60
   1  -4  -4  205.58   18.90
   1  -4  -4  228.78   19.20
   1  -4  -4  227.68   19.20
  -1   4   4  215.28   19.20
  -1   4   4  190.58   18.80
  -1   4   4  240.88   19.60
   0  -4  -4   46.00    4.80
   0  -4  -4   49.99    4.80
   0  -4  -4   52.09    4.80
   0  -4  -4   54.79    5.30
   0  -4  -4   59.69    5.80
   0  -4  -4   45.20    5.40
   0   4   4   62.49    5.40
   0   4   4   43.40    5.20
   0   4   4   43.20    5.60
   0   4   4   44.40    4.90
   0   4   4   59.29    5.80
  -1  -4  -4   87.59    7.80
  -1  -4  -4   74.19    8.40
  -1  -4  -4  100.19    8.90
   1   4   4   83.19    8.50
   1   4   4   84.59    8.00
   1   4   4   71.09    8.10
   1   4   4   89.59    8.40
   1   4   4   85.79    8.10
  -2  -4  -4   67.59    8.00
  -2  -4  -4   53.49    7.30
  -2  -4  -4   61.69    6.30
   2   4   4   64.39    6.80
   2   4   4   61.89    7.10
   2   4   4   68.79    7.10
   2   4   4   59.39    6.60
  -3  -4  -4    3.50    2.60
   3   4   4   -0.50    2.70
   3   4   4    2.10    3.00
   3   4   4    2.10    2.90
   4  -5  -4   12.20    3.70
   4  -5  -4   11.40    3.00
   4  -5  -4   19.50    4.30
  -4   5   4   10.70    4.00
   3  -5  -4  112.59    9.50
   3  -5  -4  100.99   10.10
   3  -5  -4   82.89   10.00
   3  -5  -4  120.49    9.90
  -3   5   4  114.69   10.30
  -3   5   4   80.49    9.90
   2  -5  -4   19.60    3.20
   2  -5  -4   14.00    3.00
   2  -5  -4   24.80    3.10
   2  -5  -4   18.00    2.90
   2  -5  -4   19.80    2.60
   2  -5  -4   14.40    2.90
  -2   5   4   16.90    3.20
  -2   5   4   14.70    3.20
  -2   5   4   19.70    3.00
   1  -5  -4   26.20    3.60
   1  -5  -4   28.70    3.10
   1  -5  -4   21.40    3.60
   1  -5  -4   32.10    4.10
   1  -5  -4   32.10    3.60
   1  -5  -4   20.50    3.20
  -1   5   4   25.20    2.70
  -1   5   4   25.50    4.00
  -1   5   4   30.50    4.30
  -1   5   4   29.50    3.50
  -1   5   4   22.70    2.70
   0  -5  -4   17.10    2.20
   0  -5  -4   14.80    2.90
   0  -5  -4   15.00    2.80
   0  -5  -4   13.80    2.70
   0  -5  -4   14.00    2.00
   0  -5  -4   11.70    2.00
   0   5   4   19.10    2.40
   0   5   4   14.20    2.80
   0   5   4   17.90    3.10
   0   5   4   16.60    3.00
   0   5   4   16.70    2.50
  -1  -5  -4    2.40    2.60
  -1  -5  -4    0.80    1.70
  -1  -5  -4    1.70    2.20
  -1  -5  -4    1.50    2.90
   1   5   4    3.00    2.20
   1   5   4    0.20    2.40
   1   5   4    0.00    2.10
   1   5   4    0.80    1.50
   1   5   4    0.70    1.90
  -2  -5  -4    9.00    4.80
  -2  -5  -4   11.80    3.50
  -2  -5  -4   10.80    2.40
   2   5   4   13.60    3.10
   2   5   4   10.20    2.90
   2   5   4   13.20    3.30
   2   5   4   10.90    3.10
  -3  -5  -4   19.80    3.50
   3   5   4   13.00    4.20
   3   5   4   22.30    4.50
   3   5   4   21.70    4.60
   4  -6  -4   12.40    4.60
   4  -6  -4    9.30    2.80
   4  -6  -4    9.60    2.90
  -4   6   4    4.20    4.40
   3  -6  -4   41.10    5.70
   3  -6  -4   39.80    5.80
   3  -6  -4   40.50    4.80
   3  -6  -4   45.70    5.70
  -3   6   4   30.60    5.10
  -3   6   4   49.20    6.10
   2  -6  -4    5.20    2.60
   2  -6  -4    4.90    2.30
   2  -6  -4    7.80    2.60
   2  -6  -4    5.00    2.60
   2  -6  -4    7.60    1.80
  -2   6   4    1.30    2.30
  -2   6   4    6.30    2.50
   1  -6  -4  180.28   14.80
   1  -6  -4  174.98   14.60
   1  -6  -4  156.18   13.60
   1  -6  -4  175.28   13.90
   1  -6  -4  154.48   14.00
   1  -6  -4  125.09   13.80
  -1   6   4  179.28   14.80
  -1   6   4  131.69   13.20
  -1   6   4  132.49   13.30
  -1   6   4  177.18   14.20
  -1   6   4  144.79   14.60
   0  -6  -4  246.38   22.70
   0  -6  -4  292.57   22.80
   0  -6  -4  237.08   22.70
   0  -6  -4  262.47   23.60
   0   6   4  263.77   22.90
   0   6   4  256.67   22.90
   0   6   4  249.97   23.60
   0   6   4  316.67   23.40
  -1  -6  -4   14.80    4.70
  -1  -6  -4   21.20    3.00
  -1  -6  -4   22.20    4.70
   1   6   4   23.50    4.40
   1   6   4   28.90    4.10
   1   6   4   22.60    4.50
   1   6   4   22.00    4.00
   1   6   4   24.10    3.60
  -2  -6  -4   72.19    7.60
   2   6   4   81.99    9.30
   2   6   4   81.09    8.80
   2   6   4   75.99    8.60
   3  -7  -4    3.50    2.40
   3  -7  -4   10.10    3.00
   3  -7  -4    4.20    3.50
  -3   7   4    0.00    3.30
   2  -7  -4    1.20    2.80
   2  -7  -4    1.50    1.60
   2  -7  -4    1.70    3.10
   2  -7  -4    2.10    2.60
  -2   7   4    0.60    2.90
  -2   7   4    3.50    2.60
   1  -7  -4  282.77   27.50
   1  -7  -4  340.37   30.20
   1  -7  -4  353.26   28.30
   1  -7  -4  306.67   27.20
   1  -7  -4  357.36   27.50
  -1   7   4  369.56   28.50
  -1   7   4  255.97   28.10
  -1   7   4  353.66   27.90
  -1   7   4  261.87   26.90
   0  -7  -4   41.20    6.20
   0  -7  -4   37.70    4.30
   0  -7  -4   52.09    7.10
   0  -7  -4   35.10    4.30
   0   7   4   44.00    5.30
   0   7   4   47.80    7.00
   0   7   4   28.90    5.10
   0   7   4   34.40    4.60
   0   7   4   42.50    5.60
  -1  -7  -4   41.50    4.90
  -1  -7  -4   31.20    5.70
   1   7   4   39.80    5.70
   1   7   4   44.30    5.90
   1   7   4   51.09    6.50
   1   7   4   46.70    5.70
   1   7   4   46.40    6.90
  -2  -7  -4   84.99    8.80
   2   7   4   88.59   10.10
   2   7   4   90.39   10.90
   2   7   4   83.59    9.80
   3  -8  -4   68.29    8.80
   3  -8  -4   63.49    8.80
   3  -8  -4   55.79    6.70
  -3   8   4   64.99    8.60
   2  -8  -4   44.00    5.90
   2  -8  -4   40.80    5.10
   2  -8  -4   51.09    7.50
   2  -8  -4   56.09    8.20
  -2   8   4   51.89    6.60
  -2   8   4   33.20    6.30
   1  -8  -4   51.99    7.60
   1  -8  -4   46.00    6.30
   1  -8  -4   62.69    5.80
   1  -8  -4   66.89    7.10
   1  -8  -4   73.19    8.70
  -1   8   4   65.69    5.60
  -1   8   4   64.19    8.90
  -1   8   4   61.29    7.10
  -1   8   4   45.90    7.30
  -1   8   4   44.70    5.20
   0  -8  -4   27.50    5.30
   0  -8  -4   25.40    3.70
   0  -8  -4   25.80    3.50
   0  -8  -4   30.10    3.60
   0  -8  -4   34.50    6.30
   0   8   4   20.60    4.60
   0   8   4   26.10    4.40
   0   8   4   38.50    5.10
   0   8   4   44.90    6.30
   0   8   4   29.10    3.90
  -1  -8  -4   25.70    3.90
   1   8   4   38.70    5.60
   1   8   4   29.60    4.60
   1   8   4   31.80    6.00
   2  -9  -4   14.60    4.50
   2  -9  -4   11.20    2.90
   2  -9  -4   14.30    4.50
  -2   9   4   10.40    3.90
   1  -9  -4   38.60    5.60
   1  -9  -4   28.10    4.70
   1  -9  -4   26.50    6.70
   1  -9  -4   40.70    9.00
   1  -9  -4   28.80    4.00
  -1   9   4   36.20    5.60
  -1   9   4   45.20    7.20
   0  -9  -4   23.30    3.60
   0  -9  -4   23.90    5.80
   0  -9  -4   30.40    5.10
   0   9   4   24.70    3.80
   0   9   4   33.40    8.10
   0   9   4   26.80    5.10
   0   9   4   20.00    5.30
   1 -10  -4   16.30    3.20
   1 -10  -4   16.60    6.00
   1 -10  -4    7.70    5.00
  -1  10   4   10.40    4.70
   0  12  -5    4.90    3.80
   0  12  -5    6.40    5.00
   0  12  -5   12.60    4.10
   0 -12   5    7.10    2.30
   0 -12   5    5.60    4.20
   0 -12   5    4.50    4.60
  -1  12  -5   13.20    4.60
  -1  12  -5   16.50    5.10
   1 -12   5   13.20    4.80
   1 -12   5   12.20    4.10
   1 -12   5    8.10    2.50
   1  11  -5   15.50    5.10
   1  11  -5   17.60    4.10
   1  11  -5   25.10    4.40
  -1 -11   5   21.50    3.40
  -1 -11   5   21.10    4.60
   0  11  -5   36.70    5.30
   0  11  -5   23.40    5.80
   0  11  -5   29.30    4.90
   0  11  -5   33.10    5.40
   0 -11   5   24.20    5.60
   0 -11   5   37.90    3.90
   0 -11   5   34.70    6.80
   0 -11   5   36.10    5.40
  -1  11  -5   18.00    4.80
  -1  11  -5   37.00    5.80
  -1  11  -5   20.60    4.50
  -1  11  -5   32.30    5.00
   1 -11   5   16.70    4.60
   1 -11   5   30.90    4.50
   1 -11   5   18.00    4.90
   1 -11   5   21.60    3.60
  -2  11  -5   13.40    4.60
  -2  11  -5   19.10    4.60
   2 -11   5   12.90    4.30
   2 -11   5   16.70    3.70
   2  10  -5    0.90    3.60
   2  10  -5   -1.10    3.50
   2  10  -5    2.90    3.80
  -2 -10   5    3.40    2.70
  -2 -10   5    6.00    4.20
   1  10  -5   26.80    4.10
   1  10  -5   31.00    5.50
   1  10  -5   26.10    5.30
   1  10  -5   21.80    4.30
  -1 -10   5   22.40    4.50
  -1 -10   5   17.20    4.60
  -1 -10   5   21.50    3.20
   0  10  -5  125.69   12.20
   0  10  -5  113.09   11.10
   0  10  -5  124.79   11.20
   0  10  -5   84.49   11.70
   0  10  -5  126.19   11.80
   0 -10   5  119.09   11.30
   0 -10   5   82.79   11.80
   0 -10   5  130.19   12.50
   0 -10   5  108.99   10.00
  -1  10  -5  146.89   16.40
  -1  10  -5  179.18   16.20
  -1  10  -5  191.98   17.20
  -1  10  -5  205.48   16.20
   1 -10   5  168.68   16.30
   1 -10   5  180.08   16.70
   1 -10   5  189.98   15.90
   1 -10   5  179.28   17.00
   1 -10   5  142.49   15.00
  -2  10  -5   35.00    6.00
  -2  10  -5   36.10    5.40
  -2  10  -5   29.80    5.40
   2 -10   5   39.80    5.50
   2 -10   5   36.70    4.80
   2 -10   5   39.10    6.10
   2 -10   5   33.90    5.40
  -3  10  -5   64.59    9.00
  -3  10  -5   80.29    9.30
   3 -10   5   77.59    8.50
   3 -10   5   62.89    8.10
   2   9  -5   36.40    6.20
   2   9  -5   41.20    5.30
   2   9  -5   41.30    5.90
  -2  -9   5   40.70    5.00
  -2  -9   5   39.30    5.60
  -2  -9   5   40.70    6.70
   1   9  -5   14.70    3.50
   1   9  -5   18.30    3.40
   1   9  -5   15.50    3.90
  -1  -9   5   11.80    4.00
  -1  -9   5   13.20    3.70
  -1  -9   5   14.60    2.50
  -1  -9   5   18.60    3.60
  -1  -9   5   15.10    4.20
   0   9  -5   62.69    7.50
   0   9  -5   61.39    7.00
   0   9  -5   41.80    6.80
   0   9  -5   61.39    6.40
   0   9  -5   61.89    6.50
   0  -9   5   57.49    7.10
   0  -9   5   48.80    6.90
   0  -9   5   63.09    6.50
   0  -9   5   56.99    7.60
   0  -9   5   59.89    7.00
   0  -9   5   45.60    5.50
  -1   9  -5    1.60    2.20
  -1   9  -5    3.20    2.40
  -1   9  -5    9.00    3.30
  -1   9  -5    2.50    2.50
  -1   9  -5    3.20    3.20
   1  -9   5    5.00    2.20
   1  -9   5    0.60    2.30
   1  -9   5    3.60    1.20
   1  -9   5    5.10    3.00
   1  -9   5    3.60    2.80
  -2   9  -5   12.40    3.80
  -2   9  -5   13.80    3.20
  -2   9  -5   16.30    3.90
  -2   9  -5   21.80    3.80
   2  -9   5   11.90    3.00
   2  -9   5   19.30    3.90
   2  -9   5   18.50    3.60
   2  -9   5   14.70    3.40
  -3   9  -5  102.59   11.90
  -3   9  -5   63.09    8.90
  -3   9  -5  101.19   10.10
   3  -9   5   82.19    9.00
   3  -9   5   88.19    9.00
   3   8  -5   10.70    4.30
   3   8  -5   19.90    4.50
  -3  -8   5   18.80    4.20
  -3  -8   5   13.50    3.20
   2   8  -5   58.39    7.90
   2   8  -5   59.49    8.30
   2   8  -5   64.79    7.10
   2   8  -5   58.59    6.90
  -2  -8   5   63.29    7.20
  -2  -8   5   53.49    8.00
  -2  -8   5   81.59    9.00
  -2  -8   5   61.29    6.40
   1   8  -5   15.10    3.60
   1   8  -5   22.80    3.80
   1   8  -5   20.50    3.40
   1   8  -5   22.90    3.40
   1   8  -5   20.20    4.00
  -1  -8   5   22.60    3.70
  -1  -8   5   13.30    3.70
  -1  -8   5   17.40    3.80
  -1  -8   5   18.90    4.20
  -1  -8   5   18.00    2.50
  -1  -8   5   15.10    3.40
   0   8  -5    1.80    1.80
   0   8  -5    4.10    2.80
   0   8  -5    1.20    2.00
   0   8  -5    0.80    2.00
   0   8  -5    0.40    1.70
   0  -8   5    3.10    2.20
   0  -8   5    0.60    2.10
   0  -8   5    2.80    2.70
   0  -8   5    1.10    2.10
   0  -8   5    2.20    1.80
   0  -8   5    0.70    1.00
  -1   8  -5  126.89   10.70
  -1   8  -5  107.79   10.70
  -1   8  -5  110.09   10.90
  -1   8  -5  135.39   11.10
   1  -8   5  111.19   11.00
   1  -8   5  102.09    9.60
   1  -8   5   99.79   10.50
   1  -8   5  113.49   11.00
   1  -8   5  116.59   10.50
   1  -8   5  111.89   10.50
  -2   8  -5    0.50    1.90
  -2   8  -5    0.50    2.60
  -2   8  -5   -0.20    2.20
  -2   8  -5    2.00    2.20
   2  -8   5   -1.80    2.30
   2  -8   5    0.90    1.80
   2  -8   5   -0.60    2.10
   2  -8   5    0.50    1.90
  -3   8  -5   15.30    3.40
  -3   8  -5   13.40    3.20
  -3   8  -5   19.60    4.20
  -3   8  -5   19.00    7.80
   3  -8   5   17.60    3.60
   3  -8   5   24.00    3.50
   3  -8   5   19.30    3.60
   3  -8   5   22.10    3.60
   3   7  -5   -3.60    2.50
   3   7  -5    0.30    3.00
   3   7  -5   -0.20    2.70
  -3  -7   5    1.60    2.40
  -3  -7   5    2.40    3.60
  -3  -7   5   -0.90    5.40
   2   7  -5   21.40    3.30
   2   7  -5   20.00    3.70
   2   7  -5   15.70    3.60
   2   7  -5   22.30    3.80
  -2  -7   5   24.90    4.50
  -2  -7   5   18.70    3.40
  -2  -7   5   19.60    2.80
   1   7  -5    1.70    1.80
   1   7  -5    1.30    2.30
   1   7  -5    0.00    1.50
   1   7  -5    1.40    2.20
   1   7  -5    0.80    1.60
  -1  -7   5   -0.10    2.30
  -1  -7   5    1.80    1.30
  -1  -7   5   -0.90    2.10
  -1  -7   5    0.90    1.60
  -1  -7   5    0.10    2.20
  -1  -7   5   -0.30    2.10
   0   7  -5  347.27   29.10
   0   7  -5  358.56   29.50
   0   7  -5  350.56   29.00
   0   7  -5  270.77   29.30
   0  -7   5  340.97   28.50
   0  -7   5  372.16   29.60
   0  -7   5  344.17   29.10
   0  -7   5  292.47   29.30
   0  -7   5  353.36   29.00
  -1   7  -5  202.58   18.70
  -1   7  -5  219.38   18.90
  -1   7  -5  204.98   18.50
  -1   7  -5  192.58   18.70
   1  -7   5  229.68   19.00
   1  -7   5  204.68   18.50
   1  -7   5  219.78   18.80
   1  -7   5  216.08   19.00
   1  -7   5  215.28   18.40
  -2   7  -5    4.70    1.80
  -2   7  -5    8.30    1.80
  -2   7  -5    5.60    2.70
  -2   7  -5    7.10    2.60
  -2   7  -5    6.00    2.30
   2  -7   5    7.90    2.20
   2  -7   5   10.30    2.00
   2  -7   5    7.50    2.30
   2  -7   5   10.90    2.30
   2  -7   5    8.60    2.20
  -3   7  -5   37.20    5.10
  -3   7  -5   55.29    6.60
  -3   7  -5   53.39    6.70
  -3   7  -5   37.60    5.40
   3  -7   5   54.09    6.00
   3  -7   5   36.30    5.60
   3  -7   5   42.60    5.10
   3  -7   5   44.70    5.40
   3   6  -5    2.50    2.70
   3   6  -5    3.30    2.40
   3   6  -5   -0.10    2.20
  -3  -6   5    4.70    2.00
  -3  -6   5   -2.50    3.00
  -3  -6   5   -0.90    2.60
  -3  -6   5    5.70    4.50
   2   6  -5   15.90    2.70
   2   6  -5   13.00    3.20
   2   6  -5   20.80    3.50
   2   6  -5   17.50    2.90
   2   6  -5   17.00    2.90
  -2  -6   5   15.30    3.00
  -2  -6   5   13.70    3.30
  -2  -6   5   10.10    3.00
  -2  -6   5   16.70    2.50
  -2  -6   5   20.10    3.10
   1   6  -5    8.20    2.20
   1   6  -5    8.50    2.30
   1   6  -5    3.00    1.40
   1   6  -5    9.30    2.40
   1   6  -5    7.10    1.80
  -1  -6   5   12.20    2.40
  -1  -6   5    5.80    1.60
  -1  -6   5    5.50    1.90
  -1  -6   5    5.10    2.30
  -1  -6   5   10.50    2.30
   0   6  -5  133.99   11.50
   0   6  -5  122.99   11.40
   0   6  -5  125.89   11.70
   0  -6   5  125.89   11.80
   0  -6   5  109.39   11.20
   0  -6   5  133.99   11.30
   0  -6   5  125.19   11.40
   0  -6   5  125.69   10.90
   0  -6   5  135.99   11.80
  -1   6  -5  132.59   11.40
  -1   6  -5  134.39   11.50
  -1   6  -5  124.69   11.40
   1  -6   5  123.39   11.30
   1  -6   5  115.79   11.20
   1  -6   5  121.99   11.50
   1  -6   5  121.59   10.90
   1  -6   5  120.99   11.50
  -2   6  -5   13.20    2.50
  -2   6  -5   17.70    2.50
  -2   6  -5   17.20    3.00
  -2   6  -5   20.80    3.30
  -2   6  -5   13.40    2.10
   2  -6   5   15.10    2.90
   2  -6   5   17.00    2.20
   2  -6   5   15.20    2.60
   2  -6   5   14.50    2.50
   2  -6   5   18.80    2.80
  -3   6  -5  290.97   25.30
  -3   6  -5  304.67   25.20
   3  -6   5  289.37   25.00
   3  -6   5  266.97   24.40
   3  -6   5  281.77   24.70
   3  -6   5  276.37   24.70
  -4   6  -5   39.30    6.20
   4  -6   5   30.30    4.60
   4  -6   5   36.30    5.40
   4   5  -5    3.90    2.80
   4   5  -5    0.30    3.90
   4   5  -5    2.60    4.00
  -4  -5   5    5.00    5.00
   3   5  -5   18.70    3.70
   3   5  -5   15.90    3.30
   3   5  -5   13.80    3.50
   3   5  -5   20.50    3.40
  -3  -5   5   17.90    3.40
  -3  -5   5   16.60    2.90
  -3  -5   5   19.00    3.60
  -3  -5   5   16.80    4.30
   2   5  -5   67.29    7.30
   2   5  -5   74.99    7.20
   2   5  -5   56.49    7.20
   2   5  -5   80.69    7.20
  -2  -5   5   74.99    7.10
  -2  -5   5   82.99    7.20
  -2  -5   5   76.29    7.40
  -2  -5   5   57.49    7.20
  -2  -5   5   65.89    6.60
  -2  -5   5   69.49    7.50
   1   5  -5  114.29   10.40
   1   5  -5  113.59   10.00
   1   5  -5  103.59    9.90
   1   5  -5  110.29   10.30
   1   5  -5  115.09   10.10
  -1  -5   5   90.79   10.20
  -1  -5   5  105.99    9.60
  -1  -5   5  115.49   10.10
  -1  -5   5  116.49   10.00
  -1  -5   5  119.19   10.30
  -1  -5   5  108.49   10.10
   0   5  -5  183.28   16.30
   0   5  -5  205.98   16.80
   0   5  -5  170.38   16.50
   0   5  -5  202.98   16.50
   0  -5   5  196.48   16.70
   0  -5   5  184.88   16.50
   0  -5   5  203.28   16.30
   0  -5   5  199.38   16.80
   0  -5   5  163.58   16.30
   0  -5   5  176.98   16.00
  -1   5  -5  159.68   12.60
  -1   5  -5  140.19   12.60
  -1   5  -5  156.58   12.50
  -1   5  -5  115.99   12.00
   1  -5   5  135.19   12.40
   1  -5   5  141.39   12.40
   1  -5   5  142.59   12.60
   1  -5   5  136.59   12.00
   1  -5   5  132.89   12.50
  -2   5  -5  141.19   14.60
  -2   5  -5  180.38   14.20
  -2   5  -5  170.68   14.90
  -2   5  -5  181.58   14.60
   2  -5   5  167.08   14.70
   2  -5   5  160.78   14.70
   2  -5   5  158.18   14.20
   2  -5   5  156.48   15.10
   2  -5   5  164.28   15.00
  -3   5  -5   72.49    7.50
  -3   5  -5   51.19    5.80
   3  -5   5   61.59    6.10
   3  -5   5   63.89    6.30
   3  -5   5   68.79    6.80
   3  -5   5   65.69    6.30
   3  -5   5   60.29    5.90
  -4   5  -5   16.20    5.20
   4  -5   5   25.30    3.70
   4  -5   5   21.90    4.40
   4  -5   5   28.50    3.70
   4   4  -5    3.80    2.40
   4   4  -5    3.00    2.80
   4   4  -5    0.80    3.50
   4   4  -5    0.90    3.00
  -4  -4   5   -1.70    4.70
  -4  -4   5   -4.20    2.20
   3   4  -5    1.60    1.80
   3   4  -5   -0.30    2.20
   3   4  -5    3.40    2.10
   3   4  -5    2.40    2.00
  -3  -4   5    0.60    2.10
  -3  -4   5   -0.60    2.60
  -3  -4   5   -2.10    3.30
  -3  -4   5   -3.60    1.40
   2   4  -5  180.18   14.90
   2   4  -5  165.68   14.90
   2   4  -5  179.38   14.90
   2   4  -5  169.18   14.80
   2   4  -5  164.88   14.90
  -2  -4   5  166.98   14.50
  -2  -4   5  191.68   14.90
  -2  -4   5  134.29   14.90
  -2  -4   5  133.79   14.80
  -2  -4   5  174.08   15.00
   1   4  -5   35.30    4.10
   1   4  -5   42.60    4.10
   1   4  -5   39.00    4.30
   1   4  -5   36.50    4.00
   1   4  -5   38.50    4.40
  -1  -4   5   38.50    4.00
  -1  -4   5   43.30    4.20
  -1  -4   5   41.10    4.30
  -1  -4   5   35.60    3.60
  -1  -4   5   28.40    4.30
  -1  -4   5   36.40    4.00
   0   4  -5    3.90    1.40
   0   4  -5    5.10    1.10
   0   4  -5    4.10    1.40
   0   4  -5    4.10    1.40
   0   4  -5    5.40    1.30
   0  -4   5    3.90    1.00
   0  -4   5    5.40    1.30
   0  -4   5    6.60    1.70
   0  -4   5    3.60    1.20
   0  -4   5    4.50    0.90
   0  -4   5    5.10    1.40
  -1   4  -5  541.75   45.40
  -1   4  -5  588.14   45.50
  -1   4  -5  562.34   45.40
   1  -4   5  519.15   44.90
   1  -4   5  518.35   45.40
   1  -4   5  521.75   45.40
   1  -4   5  512.25   45.40
   1  -4   5  504.75   45.40
  -2   4  -5   42.00    4.70
  -2   4  -5   45.40    4.10
  -2   4  -5   34.30    4.60
  -2   4  -5   31.10    4.30
   2  -4   5   43.30    4.80
   2  -4   5   38.40    3.60
   2  -4   5   40.60    4.30
   2  -4   5   36.20    4.20
   2  -4   5   37.80    3.60
   2  -4   5   42.60    4.50
  -3   4  -5   64.99    6.60
  -3   4  -5   50.49    5.20
   3  -4   5   53.69    5.30
   3  -4   5   52.99    5.20
   3  -4   5   54.79    5.50
   3  -4   5   51.09    5.40
   3  -4   5   50.29    6.70
   4  -4   5   23.30    4.40
   4  -4   5   20.10    2.70
   4  -4   5   17.50    3.70
   4  -4   5   21.80    2.80
   4   3  -5    2.80    3.20
   4   3  -5    1.30    2.20
   4   3  -5   -2.80    2.40
   4   3  -5   -0.60    2.90
  -4  -3   5   -1.30    2.10
  -4  -3   5   -2.30    4.20
   3   3  -5   62.39    6.10
   3   3  -5   43.40    6.00
   3   3  -5   50.69    6.20
   3   3  -5   61.29    6.00
   3   3  -5   41.10    6.60
  -3  -3   5   63.69    7.50
  -3  -3   5   61.09    5.60
  -3  -3   5   58.89    8.20
   2   3  -5  160.08   13.30
   2   3  -5  151.88   13.20
   2   3  -5  152.28   13.30
   2   3  -5  153.38   13.30
   2   3  -5  137.59   13.20
   2   3  -5  121.49   13.10
  -2  -3   5  139.49   12.90
  -2  -3   5  164.78   13.20
  -2  -3   5  158.08   13.40
  -2  -3   5  138.19   13.30
   1   3  -5   77.89    7.20
   1   3  -5   75.39    7.20
   1   3  -5   85.39    7.20
   1   3  -5   78.49    7.40
   1   3  -5   84.99    7.40
   1   3  -5   85.29    7.50
  -1  -3   5   78.99    7.40
  -1  -3   5   82.59    7.00
  -1  -3   5   69.49    7.20
  -1  -3   5   61.49    8.30
   0   3  -5  890.11   70.29
   0   3  -5  892.61   70.19
   0   3  -5  862.11   70.09
   0   3  -5  758.92   70.19
   0   3  -5  903.01   69.79
   0   3  -5  774.02   69.79
   0  -3   5  747.73   69.99
   0  -3   5  848.42   70.09
   0  -3   5  721.43   70.19
   0  -3   5  893.01   70.29
  -1   3  -5  557.94   42.80
  -1   3  -5  428.66   42.60
  -1   3  -5  515.75   42.70
  -1   3  -5  511.15   42.70
   1  -3   5  487.15   42.60
   1  -3   5  534.55   42.80
   1  -3   5  479.25   42.70
   1  -3   5  495.55   42.60
  -2   3  -5    2.30    0.90
  -2   3  -5    4.10    1.70
  -2   3  -5    6.20    1.90
  -2   3  -5    4.90    1.10
   2  -3   5    4.30    1.70
   2  -3   5    3.40    1.20
   2  -3   5    4.70    1.40
   2  -3   5    5.90    0.80
   2  -3   5    4.30    0.80
   2  -3   5    2.00    1.60
  -3   3  -5   25.30    3.70
  -3   3  -5   19.60    2.70
   3  -3   5   15.00    3.60
   3  -3   5   21.40    2.80
   3  -3   5   24.80    3.10
   3  -3   5   25.80    3.10
   3  -3   5   23.90    3.70
   3  -3   5   19.90    2.60
  -4   3  -5    3.10    2.60
   4  -3   5    9.70    1.90
   4  -3   5   13.00    4.10
   4  -3   5    2.50    2.50
   4  -3   5    4.80    1.70
   4   2  -5    3.50    3.20
   4   2  -5    5.80    3.50
   4   2  -5    2.60    2.60
   4   2  -5    4.40    2.30
  -4  -2   5    4.30    4.20
  -4  -2   5    7.10    2.50
   3   2  -5    3.20    1.50
   3   2  -5    4.50    2.30
   3   2  -5    1.60    1.80
   3   2  -5    0.90    2.80
   3   2  -5    3.80    3.00
  -3  -2   5    8.00    3.10
  -3  -2   5    2.50    1.30
  -3  -2   5    2.70    1.70
  -3  -2   5    4.10    1.80
  -3  -2   5    5.70    2.70
   2   2  -5    8.00    1.90
   2   2  -5    9.50    1.70
   2   2  -5    7.20    1.60
   2   2  -5    7.20    1.70
   2   2  -5    9.70    1.90
   2   2  -5    6.80    1.70
  -2  -2   5    5.80    1.70
  -2  -2   5    7.90    2.20
  -2  -2   5    7.60    1.40
  -2  -2   5    4.80    1.60
  -2  -2   5    9.80    1.60
   1   2  -5   65.69    6.40
   1   2  -5   64.49    6.60
   1   2  -5   63.69    6.30
   1   2  -5   66.99    6.60
   1   2  -5   80.39    6.70
  -1  -2   5   71.29    6.60
  -1  -2   5   69.89    6.40
  -1  -2   5   73.09    6.60
  -1  -2   5   66.99    6.20
   0   2  -5   69.49    6.10
   0   2  -5   58.49    6.50
   0   2  -5   82.19    6.50
   0   2  -5   75.49    6.70
   0   2  -5   65.09    6.60
   0   2  -5   68.39    6.10
   0   2  -5   71.89    6.10
   0  -2   5   66.29    6.60
   0  -2   5   65.69    6.60
   0  -2   5   70.49    6.50
  -1   2  -5  141.49   11.90
  -1   2  -5  134.09   11.40
  -1   2  -5  151.78   12.00
  -1   2  -5  132.79   11.90
  -1   2  -5  111.59   11.90
   1  -2   5  132.49   11.90
   1  -2   5  126.29   11.90
   1  -2   5  141.69   12.00
  -2   2  -5   89.49   10.00
  -2   2  -5  115.49    9.50
  -2   2  -5  106.09    9.90
  -2   2  -5  100.29    9.70
   2  -2   5  114.39    9.90
   2  -2   5  115.09    9.40
   2  -2   5  111.89    9.90
   2  -2   5  117.39   10.20
   2  -2   5  110.29   10.00
   2  -2   5  108.59    9.40
  -3   2  -5  100.59    8.70
   3  -2   5   92.39    8.70
   3  -2   5   99.99    8.80
   3  -2   5   93.29    8.80
   3  -2   5   91.79    9.30
   3  -2   5   96.99    9.50
   3  -2   5   91.49    8.60
  -4   2  -5   56.39    6.70
   4  -2   5   56.89    7.60
   4  -2   5   57.99    7.10
   4  -2   5   75.59    8.40
   4  -2   5   60.29    6.10
   4  -2   5   60.29    6.30
   4   1  -5   36.70    5.00
   4   1  -5   27.40    4.20
   4   1  -5   24.00    3.80
  -4  -1   5   30.50    5.20
  -4  -1   5   25.60    4.10
   3   1  -5  228.68   20.40
   3   1  -5  234.48   20.30
   3   1  -5  233.78   20.10
   3   1  -5  234.88   20.40
   3   1  -5  207.68   20.30
  -3  -1   5  215.28   19.90
  -3  -1   5  237.68   19.90
  -3  -1   5  247.08   20.80
   2   1  -5  131.79   14.00
   2   1  -5  156.18   14.20
   2   1  -5  146.19   14.10
   2   1  -5  163.88   14.10
   2   1  -5  155.48   14.00
  -2  -1   5  179.68   14.20
  -2  -1   5  165.58   13.90
  -2  -1   5  157.18   14.20
  -2  -1   5  179.78   14.10
   1   1  -5  165.58   14.70
   1   1  -5  165.98   14.90
   1   1  -5  168.28   14.90
   1   1  -5  176.28   14.80
   1   1  -5  177.88   15.00
  -1  -1   5  172.38   14.50
  -1  -1   5  171.88   14.80
  -1  -1   5  176.98   14.90
  -1  -1   5  152.88   14.80
  -1  -1   5  164.48   14.70
   0   1  -5   31.80    3.30
   0   1  -5   37.80    3.70
   0   1  -5   34.60    3.60
   0   1  -5   32.00    3.10
   0   1  -5   27.90    3.60
   0  -1   5   32.30    3.70
   0  -1   5   32.50    3.40
   0  -1   5   29.60    3.50
   0  -1   5   33.70    3.50
  -1   1  -5  116.79    9.40
  -1   1  -5  109.59    9.30
  -1   1  -5   86.39    9.40
  -1   1  -5  111.79    9.40
  -1   1  -5  102.29    9.00
   1  -1   5   97.19    8.80
   1  -1   5  106.69    9.20
   1  -1   5  109.49    9.50
   1  -1   5  103.29    9.40
   1  -1   5   95.09    9.40
  -2   1  -5  172.58   16.50
  -2   1  -5  210.38   16.50
  -2   1  -5  197.28   16.20
  -2   1  -5  169.58   16.60
  -2   1  -5  168.08   16.40
   2  -1   5  159.08   17.20
   2  -1   5  200.38   16.80
   2  -1   5  190.98   16.10
   2  -1   5  198.28   16.10
   2  -1   5  198.88   16.60
   2  -1   5  200.38   16.60
  -3   1  -5   -1.20    1.60
  -3   1  -5   -3.20    1.70
   3  -1   5   -0.40    1.40
   3  -1   5    2.00    1.50
   3  -1   5   -2.40    2.10
   3  -1   5    1.40    2.10
   3  -1   5   -0.90    1.70
   3  -1   5   -0.30    1.50
  -4   1  -5   53.49    7.50
   4  -1   5   75.49    7.90
   4  -1   5   60.99    8.00
   4  -1   5   74.59    7.10
   4  -1   5   88.39    9.30
   4  -1   5   67.79    7.20
   4   0  -5   11.20    4.20
   4   0  -5    9.50    3.40
   4   0  -5    7.00    2.10
   4   0  -5    4.20    2.50
   4   0  -5    2.40    2.60
  -4   0   5    1.80    2.30
  -4   0   5    8.50    4.00
   3   0  -5    4.20    1.50
   3   0  -5    2.30    2.20
   3   0  -5    2.80    1.80
   3   0  -5    2.60    2.10
  -3   0   5    5.70    1.40
  -3   0   5    4.30    2.50
  -3   0   5    4.50    1.70
  -3   0   5    2.10    1.60
  -3   0   5    1.60    2.20
   2   0  -5   16.00    2.40
   2   0  -5   18.80    2.50
   2   0  -5   17.10    2.70
   2   0  -5   15.70    2.60
   2   0  -5   15.80    2.40
  -2   0   5   15.80    2.40
  -2   0   5   17.40    2.10
  -2   0   5   13.70    2.40
  -2   0   5   10.90    2.20
  -2   0   5   16.70    2.30
  -2   0   5   12.80    2.30
   1   0  -5  221.48   20.10
   1   0  -5  242.38   20.50
   1   0  -5  227.98   20.30
   1   0  -5  235.48   20.00
   1   0  -5  237.58   20.20
   1   0  -5  225.28   20.40
  -1   0   5  244.48   20.20
  -1   0   5  247.68   20.30
  -1   0   5  234.38   20.40
  -1   0   5  228.08   20.20
   0   0  -5  331.77   28.10
   0   0  -5  314.67   27.60
   0   0  -5  322.67   27.80
   0   0  -5  376.66   28.20
   0   0  -5  334.97   27.80
   0   0   5  283.97   27.90
   0   0   5  336.57   27.60
   0   0   5  311.07   27.80
   0   0   5  341.17   28.10
   0   0   5  304.27   27.70
  -1   0  -5  342.07   29.00
  -1   0  -5  308.87   29.00
  -1   0  -5  353.76   29.30
  -1   0  -5  360.76   29.40
   1   0   5  340.67   29.30
   1   0   5  334.57   29.40
   1   0   5  341.57   29.00
   1   0   5  326.27   29.00
   1   0   5  369.06   29.50
  -2   0  -5   50.29    5.80
  -2   0  -5   47.50    5.30
  -2   0  -5   52.49    5.40
   2   0   5   61.19    5.80
   2   0   5   63.09    5.30
   2   0   5   56.39    5.30
   2   0   5   62.29    5.90
  -3   0  -5   16.40    2.50
  -3   0  -5   20.00    2.80
   3   0   5   20.30    2.80
   3   0   5   15.80    2.70
   3   0   5   18.70    3.40
   3   0   5   18.30    2.90
   3   0   5   16.60    2.70
   3   0   5   19.60    2.90
   4  -1  -5    1.90    2.20
   4  -1  -5    1.20    2.70
   4  -1  -5    1.20    5.40
   4  -1  -5    3.00    1.70
   4  -1  -5    2.10    3.10
  -4   1   5    1.30    2.40
  -4   1   5    2.20    3.00
   3  -1  -5   23.70    4.00
   3  -1  -5   27.90    3.90
   3  -1  -5   29.20    3.80
   3  -1  -5   29.60    3.50
  -3   1   5   34.40    3.60
  -3   1   5   31.90    4.40
  -3   1   5   30.00    6.20
  -3   1   5   33.70    3.80
   2  -1  -5   18.10    2.60
   2  -1  -5   16.80    2.30
   2  -1  -5   12.40    2.20
   2  -1  -5   14.70    2.40
   2  -1  -5   10.00    2.00
  -2   1   5   17.40    2.60
  -2   1   5   18.60    2.30
  -2   1   5   15.40    2.30
  -2   1   5    9.90    2.20
   1  -1  -5  403.16   36.40
   1  -1  -5  428.06   36.80
   1  -1  -5  405.76   36.80
   1  -1  -5  454.65   36.70
   1  -1  -5  408.26   36.50
   1  -1  -5  430.36   36.40
  -1   1   5  428.96   36.80
  -1   1   5  463.55   36.50
  -1   1   5  409.66   36.50
  -1   1   5  462.25   36.70
   0  -1  -5   79.49    7.20
   0  -1  -5   81.09    7.40
   0  -1  -5   83.59    7.80
   0  -1  -5   77.49    7.70
   0  -1  -5   85.29    7.30
   0  -1  -5   84.09    7.40
   0   1   5   74.99    7.20
   0   1   5   79.29    7.60
   0   1   5   79.89    7.70
   0   1   5   82.49    7.30
   0   1   5   77.79    7.30
  -1  -1  -5   94.39    8.40
  -1  -1  -5  105.49    8.90
  -1  -1  -5   95.19    8.70
  -1  -1  -5  105.29    8.50
  -1  -1  -5   77.09    8.20
   1   1   5   84.69    8.80
   1   1   5   93.89    8.70
   1   1   5   95.59    8.20
   1   1   5  102.39    8.90
   1   1   5   92.89    8.40
  -2  -1  -5  351.66   33.80
  -2  -1  -5  326.07   34.00
  -2  -1  -5  413.36   33.70
  -2  -1  -5  455.75   34.10
   2   1   5  421.06   33.50
   2   1   5  404.06   33.70
   2   1   5  408.56   34.10
   2   1   5  384.96   34.20
   2   1   5  416.66   34.20
   2   1   5  376.66   34.10
  -3  -1  -5    5.10    2.20
  -3  -1  -5    2.70    1.80
   3   1   5    3.60    2.00
   3   1   5   -1.10    2.00
   3   1   5    2.00    1.50
   3   1   5    4.50    2.30
   3   1   5    1.00    1.30
   3   1   5   -0.20    2.20
   4  -2  -5    2.70    2.40
   4  -2  -5    3.30    1.70
   4  -2  -5    7.80    3.50
   4  -2  -5    2.80    3.20
   3  -2  -5   17.40    2.60
   3  -2  -5   20.00    3.40
   3  -2  -5   20.00    2.80
   3  -2  -5   16.00    2.90
  -3   2   5   16.60    2.70
  -3   2   5   11.30    2.50
  -3   2   5   20.50    3.40
   2  -2  -5   36.40    3.60
   2  -2  -5   21.80    3.40
   2  -2  -5   32.70    3.40
   2  -2  -5   31.50    3.80
   2  -2  -5   33.00    4.10
   2  -2  -5   33.70    4.10
  -2   2   5   21.30    3.60
  -2   2   5   33.10    3.70
  -2   2   5   31.70    3.50
  -2   2   5   33.40    3.90
   1  -2  -5  331.37   27.20
   1  -2  -5  304.77   26.90
   1  -2  -5  293.57   26.90
   1  -2  -5  323.47   27.40
   1  -2  -5  306.77   27.40
   1  -2  -5  295.27   27.10
  -1   2   5  316.37   27.20
  -1   2   5  334.27   27.40
  -1   2   5  337.37   27.20
   0  -2  -5   13.00    2.10
   0  -2  -5   14.00    2.50
   0  -2  -5   10.90    2.10
   0  -2  -5   10.90    1.80
   0  -2  -5   12.40    2.30
   0   2   5   15.00    2.50
   0   2   5   15.40    2.60
   0   2   5   13.90    1.90
   0   2   5   11.20    1.90
   0   2   5   12.50    2.00
  -1  -2  -5  105.39    9.10
  -1  -2  -5   89.79    8.70
  -1  -2  -5   95.89    8.40
  -1  -2  -5   79.49    8.10
   1   2   5   94.09    8.50
   1   2   5   97.49    8.80
   1   2   5   99.29    9.10
   1   2   5  103.29    9.10
   1   2   5   91.49    8.10
  -2  -2  -5  270.87   22.00
  -2  -2  -5  283.47   22.40
  -2  -2  -5  223.38   22.20
  -2  -2  -5  254.97   22.50
   2   2   5  261.17   22.50
   2   2   5  256.47   22.40
   2   2   5  248.28   22.40
   2   2   5  226.18   23.00
   2   2   5  261.17   22.00
  -3  -2  -5    6.70    2.70
  -3  -2  -5   -1.00    1.80
   3   2   5   -6.10    2.40
   3   2   5    1.60    2.40
   3   2   5   -1.40    2.10
   3   2   5    1.20    2.50
   4  -3  -5    3.40    2.00
   4  -3  -5   10.80    3.80
   4  -3  -5    5.20    2.20
   4  -3  -5    7.00    2.90
  -4   3   5   15.20    4.10
   3  -3  -5  118.89   12.10
   3  -3  -5  140.49   11.80
   3  -3  -5  127.49   12.00
   3  -3  -5  140.29   11.40
   3  -3  -5  132.99   11.60
  -3   3   5  103.59   11.30
  -3   3   5  137.89   12.20
   2  -3  -5  107.49   10.60
   2  -3  -5  114.69   10.70
   2  -3  -5  105.29   10.70
   2  -3  -5  121.59   10.30
   2  -3  -5  128.29   10.80
   2  -3  -5  114.09   10.00
   2  -3  -5  120.49   10.90
  -2   3   5  127.29   10.80
  -2   3   5   97.79   10.10
  -2   3   5  120.19   10.70
   1  -3  -5  343.47   29.80
   1  -3  -5  334.47   29.40
   1  -3  -5  340.97   29.70
   1  -3  -5  357.76   29.20
   1  -3  -5  379.36   29.50
   1  -3  -5  321.47   29.20
  -1   3   5  357.46   29.80
  -1   3   5  354.56   29.50
  -1   3   5  297.77   29.10
   0  -3  -5    3.30    1.60
   0  -3  -5    4.20    1.20
   0  -3  -5    2.60    1.30
   0  -3  -5    2.90    1.60
   0  -3  -5    5.20    2.20
   0  -3  -5    3.30    1.20
   0   3   5    2.20    1.50
   0   3   5    1.50    1.80
   0   3   5    3.70    1.80
   0   3   5    1.50    1.10
  -1  -3  -5  202.08   16.30
  -1  -3  -5  174.98   15.50
  -1  -3  -5  183.38   16.00
  -1  -3  -5  159.58   16.10
   1   3   5  178.18   15.90
   1   3   5  178.58   16.10
   1   3   5  186.78   15.80
   1   3   5  155.58   15.70
   1   3   5  186.18   16.20
  -2  -3  -5  126.99   10.20
  -2  -3  -5   90.19   10.90
  -2  -3  -5   92.29   10.80
   2   3   5  116.49   10.30
   2   3   5  128.99   10.90
   2   3   5  107.49   10.90
   2   3   5  107.79   10.50
  -3  -3  -5    0.60    2.30
  -3  -3  -5    1.30    5.00
   3   3   5   -1.20    2.50
   3   3   5    1.70    2.80
   3   3   5   -4.90    2.60
   4  -4  -5   20.10    4.30
   4  -4  -5   27.60    4.00
   4  -4  -5   15.30    3.90
   4  -4  -5   19.90    3.30
  -4   4   5   25.40    4.90
   3  -4  -5   55.69    5.00
   3  -4  -5   64.69    6.10
   3  -4  -5   54.49    6.50
   3  -4  -5   45.10    6.70
   3  -4  -5   54.29    5.70
  -3   4   5   63.89    6.60
  -3   4   5   42.60    6.20
   2  -4  -5   28.00    4.10
   2  -4  -5   20.20    3.30
   2  -4  -5   22.50    2.20
   2  -4  -5   28.30    3.70
   2  -4  -5   20.30    2.90
   2  -4  -5   21.10    3.10
   2  -4  -5   21.10    3.30
  -2   4   5   18.30    2.30
  -2   4   5   19.80    3.50
  -2   4   5   22.50    3.40
  -2   4   5   20.40    3.70
   1  -4  -5   79.99    7.00
   1  -4  -5   80.09    7.70
   1  -4  -5   71.39    6.40
   1  -4  -5   81.79    7.40
   1  -4  -5   58.89    6.80
   1  -4  -5   60.29    6.80
  -1   4   5   73.69    7.60
  -1   4   5   78.89    7.00
  -1   4   5   61.89    6.40
  -1   4   5   58.19    7.30
   0  -4  -5  176.28   18.80
   0  -4  -5  232.78   18.90
   0  -4  -5  186.78   19.10
   0  -4  -5  198.28   19.50
   0   4   5  243.78   19.80
   0   4   5  237.88   19.80
   0   4   5  250.87   19.30
   0   4   5  236.78   19.10
  -1  -4  -5   17.80    3.50
  -1  -4  -5   13.80    3.20
  -1  -4  -5   11.30    2.20
  -1  -4  -5    9.00    2.70
   1   4   5   10.60    2.60
   1   4   5   14.00    2.60
   1   4   5   18.50    3.50
   1   4   5   10.10    2.70
   1   4   5   14.80    2.60
  -2  -4  -5   16.80    4.10
  -2  -4  -5   13.20    4.20
  -2  -4  -5   15.00    2.70
   2   4   5   11.70    3.00
   2   4   5    7.70    2.70
   2   4   5   12.70    3.50
   2   4   5   12.00    3.50
  -3  -4  -5   -0.20    2.60
   3   4   5   -0.50    3.40
   3   4   5   -3.80    3.20
   3   4   5    2.10    3.30
   4  -5  -5    5.00    2.30
   4  -5  -5    7.90    2.50
   4  -5  -5    4.10    3.90
  -4   5   5    7.50    4.50
   3  -5  -5   10.90    2.40
   3  -5  -5    8.80    2.20
   3  -5  -5    6.00    2.90
   3  -5  -5    8.30    3.50
  -3   5   5    6.30    3.20
  -3   5   5   14.30    3.30
   2  -5  -5    4.70    2.20
   2  -5  -5    3.90    2.90
   2  -5  -5    5.40    1.70
   2  -5  -5    2.90    2.20
   2  -5  -5    3.00    2.60
  -2   5   5    3.20    2.40
  -2   5   5    4.70    2.30
   1  -5  -5  363.66   31.30
   1  -5  -5  397.76   32.20
   1  -5  -5  374.76   31.70
   1  -5  -5  380.46   31.60
   1  -5  -5  390.76   32.20
  -1   5   5  376.56   31.70
  -1   5   5  296.77   31.10
   0  -5  -5   63.69    5.50
   0  -5  -5   51.09    5.40
   0  -5  -5   67.09    7.10
   0  -5  -5   69.29    6.90
   0  -5  -5   52.39    6.50
   0  -5  -5   45.30    5.40
   0   5   5   69.19    6.20
   0   5   5   49.30    5.60
   0   5   5   46.40    5.80
   0   5   5   70.59    7.20
   0   5   5   50.39    6.70
  -1  -5  -5    4.70    3.40
  -1  -5  -5    3.20    3.20
  -1  -5  -5    7.00    1.90
  -1  -5  -5    4.00    2.90
   1   5   5    2.40    2.30
   1   5   5    0.80    2.60
   1   5   5    2.20    2.00
   1   5   5    4.80    2.50
   1   5   5    3.40    2.50
  -2  -5  -5  108.69   10.20
   2   5   5  113.19   10.60
   2   5   5   91.89   11.80
   2   5   5  103.99   10.70
   2   5   5  109.29   11.20
   3  -6  -5    8.10    2.30
   3  -6  -5    5.70    3.50
   3  -6  -5    7.70    2.60
   3  -6  -5    3.00    3.20
  -3   6   5    4.80    3.30
   2  -6  -5    6.00    2.70
   2  -6  -5    2.20    1.50
   2  -6  -5    3.30    3.50
  -2   6   5   -0.40    2.50
  -2   6   5    1.20    2.40
   1  -6  -5    9.00    1.80
   1  -6  -5    4.30    2.20
   1  -6  -5   10.80    2.50
   1  -6  -5   11.90    3.00
  -1   6   5    9.90    4.50
  -1   6   5    7.00    1.50
  -1   6   5    7.10    1.80
  -1   6   5    9.00    3.70
  -1   6   5   12.00    3.70
   0  -6  -5    4.50    1.80
   0  -6  -5    9.50    3.00
   0  -6  -5    1.80    1.60
   0  -6  -5    4.40    1.60
   0  -6  -5    3.90    3.50
   0  -6  -5    2.90    3.10
   0   6   5    2.10    3.20
   0   6   5    3.30    2.20
   0   6   5    3.90    2.60
   0   6   5    4.80    2.90
   0   6   5    3.70    1.80
  -1  -6  -5    8.90    3.50
  -1  -6  -5   13.10    2.70
   1   6   5   14.50    3.10
   1   6   5   11.50    3.50
   1   6   5   15.40    4.40
   1   6   5   14.80    4.00
   1   6   5    9.10    3.60
  -2  -6  -5  143.59   13.20
   2   6   5  138.69   14.60
   2   6   5  146.89   14.00
   2   6   5  134.69   13.80
   3  -7  -5   16.70    3.70
   3  -7  -5   12.00    4.10
   3  -7  -5   14.20    2.90
  -3   7   5   12.60    4.20
   2  -7  -5   52.69    6.50
   2  -7  -5   58.99    7.50
   2  -7  -5   46.20    7.00
   2  -7  -5   44.40    5.20
  -2   7   5   47.50    6.40
  -2   7   5   35.60    6.30
   1  -7  -5  144.29   11.50
   1  -7  -5  135.19   12.70
   1  -7  -5  117.99   12.00
   1  -7  -5  117.29   11.70
  -1   7   5  122.99   11.00
  -1   7   5  125.29   11.20
  -1   7   5  113.39   13.00
   0  -7  -5   68.99    6.90
   0  -7  -5   85.79    7.00
   0  -7  -5   69.09    7.10
   0  -7  -5   70.49    8.70
   0   7   5   71.99    9.20
   0   7   5   61.29    7.60
   0   7   5   65.99    7.10
  -1  -7  -5   66.39    6.40
   1   7   5   47.50    7.00
   1   7   5   51.99    7.30
   1   7   5   66.39    8.90
   2  -8  -5   21.80    3.70
   2  -8  -5   30.90    5.40
   2  -8  -5   27.50    4.90
  -2   8   5   29.80    4.90
   1  -8  -5   31.70    6.40
   1  -8  -5   35.50    4.00
   1  -8  -5   41.40    6.00
   1  -8  -5   31.00    4.80
   1  -8  -5   24.50    4.30
  -1   8   5   22.90    5.50
  -1   8   5   33.80    5.20
  -1   8   5   26.70    3.70
   0  -8  -5  106.69    9.10
   0  -8  -5   88.29    9.00
   0  -8  -5   89.69   11.30
   0   8   5  111.09   12.40
   0   8   5   97.69   10.40
   0   8   5   85.59   11.70
   0   8   5  105.49   10.40
   0   8   5   87.49    9.40
  -1  -8  -5   16.60    3.20
   1   8   5   14.70    5.10
   1   8   5   13.30    4.50
   1   8   5   14.40    4.00
   2  -9  -5   15.10    3.20
   2  -9  -5   10.30    5.70
   2  -9  -5   18.20    4.80
  -2   9   5   18.90    4.70
   1  -9  -5   43.10    6.20
   1  -9  -5   47.10    7.80
   1  -9  -5   59.99    5.90
  -1   9   5   57.99    7.30
   0  -9  -5   39.70    5.40
   0   9   5   32.90    4.70
   0   9   5   40.00    6.10
   0   9   5   23.90    6.50
   0  12  -6    4.10    5.10
   0  12  -6    2.40    4.00
   0  12  -6   -0.10    4.00
   0 -12   6   -4.30    4.80
   0 -12   6   -0.80    4.00
   0 -12   6   -5.30    2.20
  -1  12  -6    6.20    5.10
  -1  12  -6    8.10    4.50
   1 -12   6    3.80    5.10
   1 -12   6   17.00    4.30
   1  11  -6   12.60    5.30
   1  11  -6    6.80    3.90
   1  11  -6   15.90    4.10
  -1 -11   6   14.10    3.10
  -1 -11   6    9.20    4.30
   0  11  -6   22.10    5.60
   0  11  -6   16.10    4.90
   0  11  -6   27.00    4.70
   0  11  -6   21.50    4.60
   0 -11   6   25.90    3.20
   0 -11   6   22.00    6.20
   0 -11   6   19.40    5.30
   0 -11   6   24.00    4.60
  -1  11  -6   18.80    5.70
  -1  11  -6   15.50    4.90
  -1  11  -6   19.80    4.50
  -1  11  -6   20.50    4.20
   1 -11   6   28.20    4.30
   1 -11   6   21.90    4.80
  -2  11  -6   69.19    9.90
   2 -11   6   87.69   10.20
   2  10  -6   11.80    4.70
   2  10  -6   18.00    4.60
   2  10  -6   16.90    4.20
  -2 -10   6   14.30    3.30
  -2 -10   6   15.90    5.00
   1  10  -6   24.00    5.40
   1  10  -6   33.80    4.90
   1  10  -6   33.00    4.90
   1  10  -6   39.30    5.90
  -1 -10   6   34.40    5.50
  -1 -10   6   30.60    3.90
  -1 -10   6   21.00    5.40
   0  10  -6    6.20    3.50
   0  10  -6    3.70    3.20
   0  10  -6   10.20    4.60
   0  10  -6    6.70    3.00
   0 -10   6    8.40    3.00
   0 -10   6    1.90    3.90
   0 -10   6    4.10    4.50
   0 -10   6    5.30    1.80
  -1  10  -6   15.30    4.10
  -1  10  -6   20.90    4.00
  -1  10  -6   24.90    4.10
  -1  10  -6   24.40    5.30
   1 -10   6   15.80    4.40
   1 -10   6   27.80    4.00
   1 -10   6   17.50    5.40
   1 -10   6   25.60    4.30
  -2  10  -6   75.89    9.90
  -2  10  -6  111.19   10.60
  -2  10  -6  107.09   11.60
   2 -10   6   97.09   10.70
   2 -10   6   98.19   10.20
   2 -10   6   88.29    9.80
  -3  10  -6   -5.40    4.90
   3 -10   6   -0.60    3.10
   3 -10   6    0.30    3.50
   2   9  -6   17.50    4.00
   2   9  -6   20.60    3.80
   2   9  -6   20.60    4.80
  -2  -9   6   23.40    4.50
  -2  -9   6   19.40    3.40
   1   9  -6   95.19    9.40
   1   9  -6   70.79    9.70
   1   9  -6   94.49    9.20
   1   9  -6   88.89   10.40
  -1  -9   6   96.89    9.50
  -1  -9   6   94.69    8.40
  -1  -9   6   95.29   10.80
  -1  -9   6   72.09   10.20
   0   9  -6  285.67   23.40
   0   9  -6  226.08   24.50
   0   9  -6  279.27   24.10
   0   9  -6  282.87   23.90
   0  -9   6  212.88   23.80
   0  -9   6  264.07   22.70
   0  -9   6  288.47   24.30
   0  -9   6  281.47   23.50
  -1   9  -6  106.09   11.30
  -1   9  -6  127.89   11.50
  -1   9  -6  117.59   11.00
  -1   9  -6   87.39   11.10
  -1   9  -6   90.89   10.70
   1  -9   6  119.59   11.40
   1  -9   6  119.09   11.60
   1  -9   6  120.49   10.80
   1  -9   6  112.99   10.60
  -2   9  -6   56.99    7.20
  -2   9  -6   31.50    5.00
  -2   9  -6   34.80    5.30
  -2   9  -6   31.70    4.40
   2  -9   6   38.10    5.20
   2  -9   6   39.30    5.80
   2  -9   6   34.80    5.40
   2  -9   6   38.10    4.70
  -3   9  -6    2.80    4.40
  -3   9  -6    1.00    2.60
  -3   9  -6   10.40    7.10
   3  -9   6    4.90    3.00
   3  -9   6    0.50    3.10
   3   8  -6   15.20    4.30
   3   8  -6   14.50    4.40
   3   8  -6    7.70    3.90
  -3  -8   6   12.30    4.10
  -3  -8   6   14.80    3.30
   2   8  -6    8.40    3.70
   2   8  -6   -3.90    2.80
   2   8  -6    5.60    3.00
   2   8  -6   -1.30    3.10
  -2  -8   6   -2.00    3.10
  -2  -8   6    5.50    2.10
  -2  -8   6    2.30    2.80
   1   8  -6   14.80    3.40
   1   8  -6   12.50    3.40
   1   8  -6   14.90    3.60
   1   8  -6   15.00    2.90
   1   8  -6   12.30    2.80
  -1  -8   6   13.80    3.10
  -1  -8   6   12.30    3.70
  -1  -8   6   11.60    3.20
  -1  -8   6   15.90    3.80
  -1  -8   6   12.80    2.20
  -1  -8   6    8.90    3.20
   0   8  -6   12.80    2.50
   0   8  -6   11.50    3.00
   0   8  -6   12.50    3.20
   0   8  -6   12.40    2.50
   0   8  -6   10.10    3.30
   0  -8   6   13.50    3.40
   0  -8   6   10.50    1.80
   0  -8   6   11.10    2.60
   0  -8   6    8.80    2.80
   0  -8   6    8.40    3.10
   0  -8   6    9.70    2.60
  -1   8  -6    6.00    2.90
  -1   8  -6    2.10    2.30
  -1   8  -6    0.70    2.20
  -1   8  -6    0.40    2.60
  -1   8  -6    0.60    2.00
   1  -8   6    1.70    1.90
   1  -8   6    2.50    2.40
   1  -8   6   -0.30    1.90
   1  -8   6   -2.00    1.70
   1  -8   6   -1.10    2.50
  -2   8  -6   39.70    5.50
  -2   8  -6   25.80    4.40
  -2   8  -6   42.80    5.30
  -2   8  -6   28.20    3.70
   2  -8   6   23.10    4.30
   2  -8   6   31.30    4.30
   2  -8   6   30.70    4.20
   2  -8   6   32.40    5.00
  -3   8  -6   47.00    6.20
  -3   8  -6   73.39    8.50
   3  -8   6   47.50    7.30
   3  -8   6   57.89    6.60
   3  -8   6   65.49    7.10
   3   7  -6   34.20    5.00
   3   7  -6   27.70    4.60
   3   7  -6   21.00    4.70
  -3  -7   6   32.00    4.10
  -3  -7   6   23.10    5.10
   2   7  -6   -0.40    2.30
   2   7  -6    0.50    2.40
   2   7  -6    1.50    2.60
   2   7  -6    0.50    2.80
  -2  -7   6    2.50    3.70
  -2  -7   6    1.70    2.40
  -2  -7   6   -0.70    1.70
   1   7  -6    9.90    2.30
   1   7  -6    6.40    2.50
   1   7  -6    9.50    2.50
   1   7  -6    7.30    2.70
   1   7  -6    8.60    2.50
  -1  -7   6    8.40    2.90
  -1  -7   6    8.30    1.70
  -1  -7   6    5.80    3.10
  -1  -7   6   13.90    3.30
  -1  -7   6    7.90    2.50
  -1  -7   6   10.20    2.50
   0   7  -6  121.09   13.60
   0   7  -6  159.58   13.50
   0   7  -6  158.78   13.80
   0   7  -6  119.19   13.30
   0   7  -6  167.68   13.20
   0  -7   6  145.49   12.60
   0  -7   6  145.39   13.30
   0  -7   6  134.99   13.20
   0  -7   6  157.58   13.80
   0  -7   6  159.08   13.20
   0  -7   6  149.79   13.90
  -1   7  -6   13.30    2.60
  -1   7  -6   15.90    2.40
  -1   7  -6   13.20    2.90
  -1   7  -6   12.20    2.80
  -1   7  -6   13.50    2.70
   1  -7   6   14.80    2.50
   1  -7   6   14.40    2.30
   1  -7   6   13.60    2.80
   1  -7   6   12.60    2.50
   1  -7   6   11.20    2.50
  -2   7  -6   93.69   10.40
  -2   7  -6  113.19   11.00
  -2   7  -6  102.39   11.00
  -2   7  -6   95.49    9.60
   2  -7   6  109.19   10.50
   2  -7   6  116.59   10.40
   2  -7   6  122.49   10.60
   2  -7   6  116.59    9.70
  -3   7  -6   38.50    5.20
  -3   7  -6   27.20    4.00
   3  -7   6   23.90    3.50
   3  -7   6   27.10    3.90
   3  -7   6   29.60    4.40
   3  -7   6   46.90    5.90
   3   6  -6    2.30    2.70
   3   6  -6    3.30    3.00
   3   6  -6    2.30    2.90
   3   6  -6    4.10    3.00
  -3  -6   6    0.50    3.30
  -3  -6   6   -1.50    2.30
   2   6  -6    5.00    2.10
   2   6  -6    3.10    2.40
   2   6  -6    1.90    2.50
   2   6  -6    1.60    2.30
   2   6  -6    4.90    2.50
  -2  -6   6    2.60    2.80
  -2  -6   6    3.80    2.30
  -2  -6   6    3.00    2.30
  -2  -6   6    4.20    1.80
  -2  -6   6    3.50    2.70
   1   6  -6  150.08   13.70
   1   6  -6  140.69   13.70
   1   6  -6  154.48   14.20
   1   6  -6  165.38   13.80
   1   6  -6  159.38   14.20
  -1  -6   6  154.08   13.80
  -1  -6   6  145.39   13.20
  -1  -6   6  177.88   14.30
  -1  -6   6  126.19   14.10
  -1  -6   6  152.18   13.70
   0   6  -6   64.49    5.60
   0   6  -6   53.69    5.90
   0   6  -6   44.10    5.80
   0   6  -6   48.80    5.00
   0   6  -6   43.00    5.30
   0  -6   6   40.10    5.70
   0  -6   6   53.49    5.30
   0  -6   6   53.69    4.60
   0  -6   6   55.19    5.90
   0  -6   6   54.79    5.10
   0  -6   6   45.00    5.00
  -1   6  -6    7.10    2.10
  -1   6  -6    7.30    1.90
  -1   6  -6    8.20    1.70
  -1   6  -6    9.90    2.30
  -1   6  -6    3.90    2.00
   1  -6   6   12.20    2.50
   1  -6   6   10.80    2.30
   1  -6   6    8.80    1.50
   1  -6   6    5.10    1.50
   1  -6   6    8.10    2.00
  -2   6  -6  195.38   16.30
  -2   6  -6  216.08   16.80
  -2   6  -6  159.38   16.70
  -2   6  -6  146.49   16.50
   2  -6   6  179.38   16.80
   2  -6   6  178.28   16.50
   2  -6   6  207.28   16.60
   2  -6   6  180.78   16.70
   2  -6   6  192.58   15.80
  -3   6  -6   18.00    3.30
  -3   6  -6   31.40    4.90
   3  -6   6   26.50    2.90
   3  -6   6   23.10    2.90
   3  -6   6   23.90    3.50
   3  -6   6   24.90    4.10
   3  -6   6   26.80    3.80
   3   5  -6   19.60    4.10
   3   5  -6   19.50    3.70
   3   5  -6   26.30    4.00
  -3  -5   6   27.80    4.30
  -3  -5   6   18.00    3.80
  -3  -5   6   23.70    3.20
   2   5  -6   62.09    6.40
   2   5  -6   58.69    6.00
   2   5  -6   54.49    6.20
   2   5  -6   45.90    6.30
   2   5  -6   55.39    5.80
  -2  -5   6   64.79    6.50
  -2  -5   6   55.89    5.50
  -2  -5   6   54.39    6.30
  -2  -5   6   42.90    6.40
   1   5  -6  100.29    8.60
   1   5  -6  101.09    8.60
   1   5  -6   84.29    8.50
   1   5  -6   87.49    8.90
  -1  -5   6   91.09    8.10
  -1  -5   6  101.79    9.00
  -1  -5   6   91.79    8.60
  -1  -5   6   69.89    8.80
  -1  -5   6   91.89    8.50
   0   5  -6  458.35   48.00
   0   5  -6  585.34   46.80
   0  -5   6  590.24   46.30
   0  -5   6  503.95   46.80
   0  -5   6  538.35   46.10
   0  -5   6  534.65   46.60
   0  -5   6  566.44   46.60
   0  -5   6  587.24   46.90
  -1   5  -6  239.98   19.80
  -1   5  -6  243.88   19.80
  -1   5  -6  223.68   19.70
   1  -5   6  219.18   19.80
   1  -5   6  227.88   19.80
   1  -5   6  218.28   19.00
   1  -5   6  212.48   19.60
   1  -5   6  214.18   19.60
  -2   5  -6  245.38   22.00
  -2   5  -6  197.48   22.00
  -2   5  -6  276.67   21.90
   2  -5   6  254.37   22.00
   2  -5   6  279.07   22.90
   2  -5   6  244.58   21.90
   2  -5   6  259.17   22.00
  -3   5  -6   24.70    4.50
  -3   5  -6   20.30    3.00
   3  -5   6   23.10    2.90
   3  -5   6   22.10    2.90
   3  -5   6   25.20    3.60
   3  -5   6   25.50    3.40
   3  -5   6   28.40    4.00
   4   4  -6    1.90    3.30
   4   4  -6   -1.90    4.10
   4   4  -6    5.10    2.90
  -4  -4   6    4.90    2.40
  -4  -4   6   -2.90    4.50
   3   4  -6   70.39    7.50
   3   4  -6   59.49    8.30
   3   4  -6   58.59    7.80
   3   4  -6   76.89    7.60
  -3  -4   6   73.89    6.90
  -3  -4   6   82.19    8.20
   2   4  -6   47.70    5.00
   2   4  -6   45.20    4.80
   2   4  -6   40.20    5.10
   2   4  -6   42.90    5.10
   2   4  -6   41.40    5.00
   2   4  -6   45.90    4.90
  -2  -4   6   36.90    5.20
  -2  -4   6   29.10    5.10
  -2  -4   6   42.20    4.40
  -2  -4   6   53.39    5.10
  -2  -4   6   47.60    5.40
   1   4  -6   73.39    6.90
   1   4  -6   68.59    6.70
   1   4  -6   67.59    6.70
   1   4  -6   74.49    6.70
   1   4  -6   71.49    7.10
   1   4  -6   74.89    7.10
  -1  -4   6   68.59    6.30
  -1  -4   6   64.69    7.10
  -1  -4   6   67.89    6.90
   0   4  -6  512.95   40.60
   0   4  -6  435.46   40.40
   0   4  -6  522.05   40.40
   0   4  -6  478.05   40.40
   0  -4   6  480.35   40.50
   0  -4   6  449.66   40.20
   0  -4   6  466.35   40.40
   0  -4   6  432.56   40.20
  -1   4  -6   94.69    8.90
  -1   4  -6   99.49    9.00
   1  -4   6   90.79    9.00
   1  -4   6   92.59    8.80
   1  -4   6  100.49    9.10
  -2   4  -6   91.69    9.10
  -2   4  -6  101.99    8.80
   2  -4   6   90.69    9.10
   2  -4   6   93.79    9.30
   2  -4   6   98.39    8.90
   2  -4   6   93.69    9.10
  -3   4  -6   64.39    7.60
   3  -4   6   67.49    7.20
   3  -4   6   65.59    8.00
   3  -4   6   67.19    6.70
   3  -4   6   62.49    5.90
   3  -4   6   65.59    6.60
   4   3  -6    4.40    3.90
   4   3  -6    2.00    3.20
   4   3  -6    1.80    3.10
   4   3  -6    3.90    2.70
  -4  -3   6    6.60    2.40
  -4  -3   6    7.60    4.60
   3   3  -6  193.38   18.60
   3   3  -6  209.58   18.20
   3   3  -6  206.88   18.10
   3   3  -6  190.28   18.10
  -3  -3   6  219.88   18.60
  -3  -3   6  194.08   17.70
   2   3  -6    8.60    2.20
   2   3  -6    5.60    1.70
   2   3  -6   10.10    2.20
   2   3  -6   11.10    2.30
   2   3  -6    9.80    2.00
   2   3  -6    8.50    2.00
  -2  -3   6    8.30    1.70
  -2  -3   6   11.10    2.40
  -2  -3   6    6.20    2.00
  -2  -3   6    8.10    2.20
  -2  -3   6   12.90    2.20
   1   3  -6    9.10    1.70
   1   3  -6   11.70    2.20
   1   3  -6    8.80    1.70
   1   3  -6   11.70    2.10
   1   3  -6   11.50    2.00
   1   3  -6    9.00    1.80
  -1  -3   6    5.50    1.90
  -1  -3   6    9.00    1.80
  -1  -3   6   10.50    2.20
  -1  -3   6    7.00    1.90
  -1  -3   6    8.70    1.50
   0   3  -6  289.17   23.70
   0   3  -6  274.97   23.20
   0   3  -6  301.27   23.90
   0   3  -6  217.88   23.70
   0   3  -6  274.87   23.60
   0  -3   6  266.27   23.60
   0  -3   6  286.07   23.80
   0  -3   6  270.37   23.80
   0  -3   6  282.47   23.60
  -1   3  -6    0.90    0.90
  -1   3  -6    2.10    0.80
  -1   3  -6    1.30    1.30
  -1   3  -6    0.70    1.10
   1  -3   6    1.00    1.30
   1  -3   6    1.10    1.30
   1  -3   6    1.50    1.30
   1  -3   6   -0.10    1.40
  -2   3  -6  185.18   15.90
  -2   3  -6  181.58   15.80
  -2   3  -6  183.78   16.00
  -2   3  -6  179.58   15.10
   2  -3   6  174.88   15.80
   2  -3   6  166.88   15.80
   2  -3   6  169.18   15.80
  -3   3  -6    3.20    2.00
  -3   3  -6    5.60    2.50
  -3   3  -6    3.90    1.80
   3  -3   6    3.80    2.40
   3  -3   6    2.70    1.60
   3  -3   6    5.10    1.80
   3  -3   6    3.60    1.70
   3  -3   6    4.60    3.40
   3  -3   6    4.00    1.40
   4   2  -6    4.90    2.50
   4   2  -6    9.10    2.90
   4   2  -6    7.70    4.00
   4   2  -6    8.10    3.20
  -4  -2   6    2.60    4.30
  -4  -2   6    9.50    2.60
   3   2  -6   11.00    4.70
   3   2  -6    3.20    1.90
   3   2  -6    5.00    2.80
   3   2  -6    4.20    1.70
   3   2  -6    2.50    2.20
  -3  -2   6    9.30    3.00
  -3  -2   6    6.90    2.30
  -3  -2   6    7.00    1.90
   2   2  -6    7.80    1.90
   2   2  -6    7.80    1.90
   2   2  -6    6.40    1.90
   2   2  -6   10.00    2.20
   2   2  -6    6.90    2.00
   2   2  -6    4.70    1.40
  -2  -2   6    6.30    2.00
  -2  -2   6    6.20    1.40
  -2  -2   6    6.00    1.50
  -2  -2   6   10.60    1.80
  -2  -2   6    4.70    2.00
   1   2  -6  136.99   13.20
   1   2  -6  141.29   13.40
   1   2  -6  161.58   13.20
   1   2  -6  158.38   13.20
   1   2  -6  153.08   13.40
   1   2  -6  145.09   13.40
  -1  -2   6  141.99   13.20
  -1  -2   6  151.48   13.50
  -1  -2   6  153.48   13.20
   0   2  -6  141.99   11.50
   0   2  -6  150.58   12.20
   0   2  -6  132.49   11.90
   0   2  -6  118.39   11.50
   0   2  -6  133.59   11.80
   0  -2   6  138.99   12.10
   0  -2   6  137.79   12.10
   0  -2   6  123.49   11.80
   0  -2   6  127.39   11.80
  -1   2  -6    1.40    1.30
  -1   2  -6    5.00    1.30
  -1   2  -6    8.50    1.20
  -1   2  -6    8.90    1.80
   1  -2   6    6.00    1.60
   1  -2   6    5.90    1.60
   1  -2   6    6.60    1.70
   1  -2   6    6.50    1.60
  -2   2  -6   47.00    4.50
  -2   2  -6   45.20    4.20
  -2   2  -6   31.40    4.70
  -2   2  -6   46.00    4.80
   2  -2   6   39.70    4.80
   2  -2   6   40.10    4.90
   2  -2   6   47.60    4.80
  -3   2  -6   -1.60    2.10
  -3   2  -6   -0.50    1.70
  -3   2  -6   -0.60    1.60
   3  -2   6    2.50    2.50
   3  -2   6    0.50    1.40
   3  -2   6    1.20    1.60
   3  -2   6   -2.90    1.20
   3  -2   6    0.30    2.80
   3  -2   6    0.90    1.40
   4   1  -6   18.60    4.40
   4   1  -6   14.20    3.60
   4   1  -6   15.70    3.70
   4   1  -6   15.00    2.90
  -4  -1   6   19.50    3.20
  -4  -1   6   22.70    4.60
   3   1  -6    1.00    2.60
   3   1  -6    0.90    1.40
   3   1  -6    2.40    2.10
   3   1  -6    2.90    2.00
   3   1  -6   -0.50    2.20
  -3  -1   6    0.10    1.50
  -3  -1   6    0.10    1.90
  -3  -1   6   -0.50    2.30
   2   1  -6   18.00    2.70
   2   1  -6   17.60    2.70
   2   1  -6   18.10    2.70
   2   1  -6   19.40    3.00
   2   1  -6   22.00    3.10
  -2  -1   6   17.30    2.70
  -2  -1   6   11.40    2.60
  -2  -1   6   12.70    2.20
  -2  -1   6   22.90    3.00
  -2  -1   6   19.80    2.40
   1   1  -6    5.70    1.60
   1   1  -6    5.20    1.50
   1   1  -6    2.40    1.20
   1   1  -6    5.70    1.60
   1   1  -6    1.20    1.30
   1   1  -6    5.20    1.60
  -1  -1   6    6.50    1.40
  -1  -1   6    3.20    1.60
  -1  -1   6    3.10    1.40
  -1  -1   6    2.00    1.10
  -1  -1   6    2.80    1.30
   0   1  -6  218.78   18.50
   0   1  -6  218.58   17.90
   0   1  -6  215.78   18.20
   0   1  -6  210.78   18.20
   0  -1   6  207.48   18.20
   0  -1   6  199.78   18.10
   0  -1   6  202.08   18.40
   0  -1   6  207.48   18.40
   0  -1   6  205.38   17.90
  -1   1  -6  131.09   11.40
  -1   1  -6  129.49   11.80
  -1   1  -6  145.09   12.00
  -1   1  -6  135.99   11.80
   1  -1   6  127.79   11.90
   1  -1   6  137.29   12.00
   1  -1   6  137.79   11.90
   1  -1   6  117.19   11.20
  -2   1  -6  299.17   23.60
  -2   1  -6  284.87   23.90
  -2   1  -6  236.18   23.70
  -2   1  -6  291.27   23.20
  -2   1  -6  254.17   23.40
   2  -1   6  280.27   23.70
   2  -1   6  228.38   23.20
   2  -1   6  272.57   23.80
   2  -1   6  286.67   23.40
   2  -1   6  274.07   23.80
   2  -1   6  287.57   23.10
  -3   1  -6  106.09   11.20
  -3   1  -6  102.39   10.90
  -3   1  -6  111.09   11.10
   3  -1   6  134.19   11.90
   3  -1   6  141.79   11.30
   3  -1   6  115.29   11.30
   3  -1   6  136.99   10.90
   3  -1   6  129.19   11.40
   3  -1   6  119.69   10.80
   4   0  -6   15.30    3.70
   4   0  -6   19.60    4.20
   4   0  -6   20.50    3.20
   4   0  -6   17.60    4.80
   4   0  -6   18.90    3.70
  -4   0   6   18.20    4.50
  -4   0   6   24.40    3.50
   3   0  -6   78.49    7.90
   3   0  -6   63.89    7.70
   3   0  -6   81.29    7.40
   3   0  -6   66.49    7.90
  -3   0   6   93.49    8.10
  -3   0   6   71.69    7.30
   2   0  -6   40.20    5.30
   2   0  -6   55.29    5.40
   2   0  -6   50.39    5.60
   2   0  -6   49.60    5.40
   2   0  -6   45.90    5.20
  -2   0   6   52.49    5.40
  -2   0   6   58.29    5.50
  -2   0   6   58.79    5.40
  -2   0   6   36.70    5.20
  -2   0   6   53.59    5.30
   1   0  -6    1.40    1.30
   1   0  -6    0.10    1.10
   1   0  -6    0.30    1.30
   1   0  -6    1.50    1.30
   1   0  -6   -1.20    1.10
  -1   0   6    0.30    1.10
  -1   0   6    0.50    1.10
  -1   0   6   -1.50    1.20
  -1   0   6    0.40    1.30
   0   0  -6  138.49   11.30
   0   0  -6  127.59   11.60
   0   0  -6  134.89   12.00
   0   0  -6  110.89   11.80
   0   0  -6  144.49   11.60
   0   0   6  125.19   11.80
   0   0   6  129.29   11.50
   0   0   6  129.59   11.60
   0   0   6  129.29   11.90
   0   0   6  130.39   11.30
  -1   0  -6  206.58   16.50
  -1   0  -6  192.38   16.00
  -1   0  -6  194.38   16.30
  -1   0  -6  154.18   15.80
  -1   0  -6  155.18   16.00
   1   0   6  193.18   15.80
   1   0   6  193.18   16.40
   1   0   6  181.88   16.00
   1   0   6  191.98   16.50
   1   0   6  197.18   16.60
  -2   0  -6  122.59   10.50
  -2   0  -6  124.69   10.90
  -2   0  -6  111.89   11.10
  -2   0  -6  105.59   10.40
   2   0   6  125.69   10.50
   2   0   6  122.59   11.40
   2   0   6  110.29   10.90
   2   0   6  117.79   10.30
  -3   0  -6   52.99    6.00
  -3   0  -6   50.69    6.40
   3   0   6   55.19    6.20
   3   0   6   67.29    6.40
   3   0   6   65.99    7.10
   3   0   6   65.29    6.80
   3   0   6   53.99    6.40
   3   0   6   63.99    6.50
   4  -1  -6    5.00    3.20
   4  -1  -6   -0.30    2.80
   4  -1  -6    0.80    2.90
  -4   1   6    0.30    3.30
  -4   1   6    0.30    2.30
   3  -1  -6   42.60    5.30
   3  -1  -6   37.40    4.40
   3  -1  -6   38.70    5.10
   3  -1  -6   40.90    5.00
  -3   1   6   46.20    5.30
  -3   1   6   29.50    4.50
  -3   1   6   35.20    5.10
   2  -1  -6  158.78   17.60
   2  -1  -6  206.38   17.70
   2  -1  -6  186.88   17.70
   2  -1  -6  203.68   17.60
   2  -1  -6  200.98   17.20
  -2   1   6  212.88   17.60
  -2   1   6  192.28   17.50
  -2   1   6  223.18   17.70
  -2   1   6  196.78   17.40
   1  -1  -6  511.25   41.20
   1  -1  -6  469.95   40.70
   1  -1  -6  470.35   41.10
   1  -1  -6  462.45   40.80
   1  -1  -6  522.05   41.00
   1  -1  -6  477.85   40.60
  -1   1   6  481.05   41.10
  -1   1   6  461.85   40.80
  -1   1   6  456.35   40.90
   0  -1  -6  286.97   23.00
   0  -1  -6  222.08   22.80
   0  -1  -6  252.07   23.30
   0  -1  -6  286.27   23.00
   0  -1  -6  272.37   23.50
   0   1   6  273.67   22.80
   0   1   6  272.27   23.30
   0   1   6  264.07   22.90
  -1  -1  -6  437.06   35.00
  -1  -1  -6  380.16   34.50
  -1  -1  -6  361.66   34.40
  -1  -1  -6  425.26   34.80
  -1  -1  -6  415.46   34.40
   1   1   6  403.96   34.90
   1   1   6  413.26   35.00
   1   1   6  408.36   34.40
   1   1   6  395.16   34.80
   1   1   6  411.26   34.30
  -2  -1  -6  110.99   10.90
  -2  -1  -6  112.49   11.90
  -2  -1  -6  110.19   11.40
  -2  -1  -6  144.99   11.40
   2   1   6  133.19   11.80
   2   1   6  135.69   11.30
   2   1   6  144.89   11.90
   2   1   6  115.19   11.70
   2   1   6  134.89   11.00
  -3  -1  -6    7.00    2.90
  -3  -1  -6    7.40    2.30
   3   1   6    1.30    3.40
   3   1   6    6.00    2.50
   3   1   6    6.90    2.50
   3   1   6    3.00    2.60
   3   1   6    3.10    2.60
   4  -2  -6   21.60    4.40
   4  -2  -6   15.70    2.80
   4  -2  -6   12.10    3.70
  -4   2   6   13.80    3.60
   3  -2  -6   27.90    3.40
   3  -2  -6   24.00    3.90
   3  -2  -6   27.50    3.70
   3  -2  -6   26.00    4.10
   3  -2  -6   22.70    3.30
  -3   2   6   21.20    3.30
  -3   2   6   25.50    4.00
  -3   2   6   16.10    3.30
   2  -2  -6  239.78   21.70
   2  -2  -6  246.38   21.60
   2  -2  -6  228.08   22.60
   2  -2  -6  247.98   21.20
   2  -2  -6  254.17   21.70
   2  -2  -6  252.97   21.10
  -2   2   6  256.97   21.60
  -2   2   6  255.97   21.60
  -2   2   6  220.18   21.10
   1  -2  -6   16.30    3.20
   1  -2  -6   19.20    2.30
   1  -2  -6   20.50    2.80
   1  -2  -6   15.40    2.80
   1  -2  -6   19.50    2.40
   1  -2  -6   11.60    2.40
  -1   2   6   16.80    2.40
  -1   2   6   14.90    3.10
  -1   2   6   19.10    2.90
  -1   2   6   16.70    2.70
  -1   2   6   23.50    3.50
   0  -2  -6   64.89    8.00
   0  -2  -6   89.09    7.50
   0  -2  -6   79.59    7.70
   0  -2  -6   95.69    8.50
   0  -2  -6   88.79    7.80
   0  -2  -6   75.09    7.60
   0   2   6   83.19    7.70
   0   2   6   83.89    7.60
   0   2   6   70.19    8.10
   0   2   6   88.19    8.30
   0   2   6   87.89    7.70
  -1  -2  -6  269.57   21.80
  -1  -2  -6  238.98   22.00
  -1  -2  -6  285.47   22.60
  -1  -2  -6  220.58   21.50
  -1  -2  -6  207.48   22.30
   1   2   6  271.87   22.20
   1   2   6  268.67   22.40
   1   2   6  260.37   21.90
   1   2   6  249.18   21.50
   1   2   6  267.67   22.50
  -2  -2  -6   11.50    3.10
  -2  -2  -6   11.90    3.00
  -2  -2  -6   12.90    2.60
   2   2   6   13.90    2.50
   2   2   6   10.60    2.50
   2   2   6   10.50    2.70
   2   2   6   13.40    3.00
  -3  -2  -6    1.40    2.40
   3   2   6    7.10    2.90
   3   2   6    4.10    2.80
   3   2   6    4.80    2.70
   4  -3  -6    5.20    3.80
   4  -3  -6   -0.90    1.90
   4  -3  -6    0.60    2.20
  -4   3   6   -1.50    3.90
   3  -3  -6    6.20    2.70
   3  -3  -6   15.40    3.40
   3  -3  -6    9.00    2.10
   3  -3  -6    7.60    2.20
   3  -3  -6    9.10    2.10
  -3   3   6    7.50    2.70
  -3   3   6    6.40    1.90
  -3   3   6    4.20    2.80
   2  -3  -6   41.40    4.90
   2  -3  -6   38.80    4.00
   2  -3  -6   35.50    5.40
   2  -3  -6   50.19    5.10
   2  -3  -6   42.30    4.40
   2  -3  -6   31.10    4.70
  -2   3   6   31.30    4.10
  -2   3   6   42.20    5.10
  -2   3   6   40.00    5.00
   1  -3  -6   28.40    4.30
   1  -3  -6   34.70    3.90
   1  -3  -6   41.00    4.60
   1  -3  -6   37.80    4.70
   1  -3  -6   43.80    5.30
   1  -3  -6   44.60    4.10
  -1   3   6   32.10    4.10
  -1   3   6   40.60    4.50
  -1   3   6   38.70    5.10
   0  -3  -6   76.09    7.20
   0  -3  -6   62.29    7.40
   0  -3  -6   73.49    6.70
   0  -3  -6   71.19    8.00
   0  -3  -6   57.89    6.70
   0  -3  -6   77.09    7.10
   0   3   6   77.39    6.90
   0   3   6   72.39    7.00
   0   3   6   79.29    7.80
   0   3   6   73.79    7.80
  -1  -3  -6   49.60    6.60
  -1  -3  -6   46.80    4.90
  -1  -3  -6   62.09    5.70
  -1  -3  -6   61.09    6.60
  -1  -3  -6   49.20    4.90
   1   3   6   68.59    6.70
   1   3   6   59.89    6.10
   1   3   6   59.19    6.60
   1   3   6   66.19    6.00
   1   3   6   58.89    6.60
  -2  -3  -6    6.00    3.00
  -2  -3  -6    6.60    2.50
  -2  -3  -6    4.40    3.50
   2   3   6   11.40    3.30
   2   3   6   11.00    2.50
   2   3   6    4.50    3.00
   2   3   6    7.90    2.70
  -3  -3  -6   29.70    4.50
   3   3   6   37.70    5.20
   3   3   6   36.80    5.60
   3   3   6   35.20    5.40
   4  -4  -6   42.40    5.50
   4  -4  -6   30.70    4.70
   4  -4  -6   43.10    6.50
  -4   4   6   32.80    6.50
   3  -4  -6    4.90    2.30
   3  -4  -6    0.80    2.70
   3  -4  -6    1.20    1.10
   3  -4  -6    4.40    2.10
   3  -4  -6    4.50    2.80
  -3   4   6   -0.70    2.50
  -3   4   6    2.30    2.50
   2  -4  -6   14.00    3.30
   2  -4  -6   22.30    2.80
   2  -4  -6   16.60    3.10
   2  -4  -6   21.20    2.50
   2  -4  -6   16.80    3.40
   2  -4  -6   19.50    3.90
  -2   4   6   16.70    3.60
  -2   4   6   20.90    2.60
   1  -4  -6    0.90    2.40
   1  -4  -6    0.80    1.30
   1  -4  -6    1.90    1.90
   1  -4  -6    1.20    1.80
   1  -4  -6    0.60    2.50
   1  -4  -6    0.70    1.30
   1  -4  -6    3.60    2.10
  -1   4   6    2.00    2.50
  -1   4   6    0.60    2.00
  -1   4   6    0.70    1.40
  -1   4   6   -1.50    2.10
   0  -4  -6    1.20    1.20
   0  -4  -6    4.20    2.30
   0  -4  -6   -0.10    2.90
   0  -4  -6    1.50    1.80
   0  -4  -6   -0.10    1.30
   0   4   6    1.50    2.50
   0   4   6    0.80    1.50
   0   4   6    0.00    1.90
   0   4   6   -0.10    2.10
  -1  -4  -6   40.60    6.20
  -1  -4  -6   51.79    7.00
  -1  -4  -6   42.10    5.90
  -1  -4  -6   42.30    5.00
   1   4   6   40.60    5.40
   1   4   6   42.30    5.30
   1   4   6   50.49    6.40
   1   4   6   49.40    6.10
   1   4   6   43.00    6.00
  -2  -4  -6   59.39    7.60
  -2  -4  -6   50.99    6.40
   2   4   6   59.39    7.60
   2   4   6   45.10    7.60
   2   4   6   60.69    7.10
   2   4   6   64.09    7.10
   3  -5  -6    5.90    2.50
   3  -5  -6    4.70    3.10
   3  -5  -6   -4.00    3.20
   3  -5  -6    1.30    2.50
  -3   5   6    5.60    3.10
   2  -5  -6   79.19    7.80
   2  -5  -6   93.29    9.70
   2  -5  -6   90.99    9.10
  -2   5   6   85.99    8.70
  -2   5   6   64.49    9.00
   1  -5  -6  256.37   19.70
   1  -5  -6  171.18   18.80
   1  -5  -6  248.58   19.10
   1  -5  -6  228.88   19.30
   1  -5  -6  212.48   20.10
   1  -5  -6  214.98   18.60
  -1   5   6  175.68   19.50
  -1   5   6  232.98   19.20
  -1   5   6  193.88   18.50
   0  -5  -6   15.30    2.60
   0  -5  -6   18.90    3.80
   0  -5  -6   23.70    4.50
   0  -5  -6   21.00    2.80
   0  -5  -6   13.50    2.80
   0  -5  -6   19.30    3.70
   0   5   6   13.50    3.20
   0   5   6   19.10    3.90
   0   5   6   23.50    3.70
   0   5   6   20.30    4.10
   0   5   6   21.90    3.00
  -1  -5  -6  104.59   13.70
  -1  -5  -6  142.49   12.60
  -1  -5  -6  177.58   14.50
   1   5   6  140.59   13.20
   1   5   6  146.09   13.00
   1   5   6  145.89   14.10
   1   5   6  114.69   13.30
   1   5   6  148.39   14.00
  -2  -5  -6   16.60    3.50
   2   5   6   19.00    4.80
   2   5   6   12.40    4.00
   2   5   6   14.40    3.70
   3  -6  -6    0.60    2.60
   3  -6  -6    1.60    3.40
   3  -6  -6    1.20    2.20
  -3   6   6    2.40    3.40
   2  -6  -6  238.48   21.10
   2  -6  -6  233.08   20.70
   2  -6  -6  224.48   20.10
   2  -6  -6  202.88   21.30
  -2   6   6  251.57   21.10
   1  -6  -6   51.09    6.70
   1  -6  -6   45.20    6.60
   1  -6  -6   33.50    5.10
   1  -6  -6   47.70    4.70
   1  -6  -6   34.90    5.30
  -1   6   6   48.70    5.60
  -1   6   6   36.60    4.60
  -1   6   6   36.80    6.20
  -1   6   6   36.50    4.60
  -1   6   6   44.10    6.50
   0  -6  -6   55.79    7.60
   0  -6  -6   51.89    5.90
   0  -6  -6   89.49   11.10
   0  -6  -6   64.69    5.90
   0  -6  -6   53.69    5.80
   0   6   6   51.39    6.10
   0   6   6   50.89    7.40
   0   6   6   69.89    7.30
   0   6   6   44.60    6.40
   0   6   6   70.89    8.70
  -1  -6  -6  144.09   12.00
  -1  -6  -6   97.29   14.00
   1   6   6  135.69   13.70
   1   6   6  124.49   12.30
   1   6   6  127.49   12.50
   3  -7  -6   18.80    3.60
   3  -7  -6   19.10    4.50
   3  -7  -6   14.90    4.60
  -3   7   6   22.20    5.20
   2  -7  -6   11.20    4.20
   2  -7  -6    7.50    2.30
   2  -7  -6   12.10    3.40
  -2   7   6    3.00    3.60
   1  -7  -6   12.60    4.00
   1  -7  -6   17.20    3.50
   1  -7  -6   21.90    4.60
   1  -7  -6   16.70    2.70
   1  -7  -6   20.00    5.80
  -1   7   6   20.70    4.10
  -1   7   6   20.60    5.70
  -1   7   6   14.60    2.60
  -1   7   6   14.40    5.10
   0  -7  -6   21.20    3.20
   0  -7  -6   26.10    5.00
   0  -7  -6   26.30    3.40
   0  -7  -6   35.50    6.80
   0   7   6   20.40    5.50
   0   7   6   20.50    3.60
   0   7   6   19.10    4.10
   0   7   6   35.40    6.30
   0   7   6   24.90    4.70
  -1  -7  -6   89.99    9.10
   1   7   6   83.39   11.60
   1   7   6   88.19   10.60
   1   7   6   96.99   10.00
   2  -8  -6   41.80    6.80
   2  -8  -6   34.90    5.60
   2  -8  -6   34.00    4.60
  -2   8   6   29.50    5.60
   1  -8  -6   24.50    6.00
   1  -8  -6   24.10    4.60
   1  -8  -6   30.40    3.80
  -1   8   6   31.60    5.40
   0  -8  -6    9.10    2.20
   0   8   6   -1.80    4.70
   0   8   6    2.80    4.40
   0   8   6    3.90    2.80
   0  12  -7   21.40    5.50
   0  12  -7   26.40    5.40
   0 -12   7   29.70    5.90
   0 -12   7   18.50    3.60
  -1  12  -7   12.40    4.50
  -1  12  -7    2.80    5.20
   1 -12   7    9.40    5.40
   1 -12   7   11.10    4.10
   1  11  -7   21.10    5.50
   1  11  -7   31.20    5.10
   1  11  -7   27.90    5.30
  -1 -11   7   23.40    3.90
  -1 -11   7   27.00    5.60
   0  11  -7   59.49    8.60
   0  11  -7   40.30    7.50
   0  11  -7   56.99    7.50
   0  11  -7   60.99    7.80
   0 -11   7   46.30    5.90
   0 -11   7   78.69    8.30
   0 -11   7   43.50    7.80
   0 -11   7   63.19    8.90
  -1  11  -7   19.10    4.60
  -1  11  -7   10.90    4.30
   1 -11   7   18.30    5.30
   1 -11   7   14.90    3.90
   1 -11   7    4.30    5.30
  -2  11  -7   56.89    7.70
  -2  11  -7   89.79    9.30
   2 -11   7   61.29    8.60
   2 -11   7   62.49    7.90
   2  10  -7   -1.60    3.80
   2  10  -7    4.80    5.00
   2  10  -7    4.50    4.40
  -2 -10   7    1.50    4.30
  -2 -10   7    7.00    3.10
   1  10  -7   12.30    3.90
   1  10  -7   22.60    4.00
   1  10  -7   15.80    5.10
   1  10  -7   14.20    4.80
  -1 -10   7   17.60    4.40
  -1 -10   7   18.10    2.90
  -1 -10   7   13.70    5.40
   0  10  -7    7.50    3.30
   0  10  -7    6.20    3.20
   0  10  -7   13.80    3.30
   0 -10   7    4.10    3.80
   0 -10   7   12.90    3.20
   0 -10   7   14.40    4.20
   0 -10   7    8.20    2.40
   0 -10   7   12.00    4.20
  -1  10  -7    8.60    3.30
  -1  10  -7   10.00    3.30
  -1  10  -7    6.30    3.90
   1 -10   7   16.50    4.50
   1 -10   7   10.90    3.70
   1 -10   7   14.70    4.00
   1 -10   7   15.30    3.50
  -2  10  -7  105.09   10.60
  -2  10  -7   86.19    9.60
   2 -10   7  103.09   10.10
   2 -10   7   90.49   10.70
   2   9  -7    7.00    3.40
   2   9  -7   -1.30    3.90
   2   9  -7    2.10    3.20
  -2  -9   7    5.60    3.70
  -2  -9   7    1.80    2.30
   1   9  -7    0.40    2.80
   1   9  -7    3.70    2.70
   1   9  -7    2.10    3.90
   1   9  -7    2.40    3.90
  -1  -9   7    0.50    2.80
  -1  -9   7   -6.20    3.70
  -1  -9   7    1.40    3.40
  -1  -9   7    0.20    1.80
   0   9  -7   61.39    6.70
   0   9  -7   64.09    6.60
   0   9  -7   53.49    9.00
   0   9  -7   45.60    7.10
   0   9  -7   49.00    7.70
   0  -9   7   54.09    5.40
   0  -9   7   60.99    7.90
   0  -9   7   45.90    7.00
   0  -9   7   63.99    6.80
   0  -9   7   59.09    7.00
  -1   9  -7    4.60    3.20
  -1   9  -7   -2.80    3.00
  -1   9  -7   -6.90    3.60
  -1   9  -7    2.00    2.60
  -1   9  -7   -2.00    2.40
   1  -9   7    0.70    2.40
   1  -9   7   -0.10    3.10
   1  -9   7    2.90    3.10
  -2   9  -7   20.50    4.40
  -2   9  -7   22.10    6.60
  -2   9  -7   22.20    3.20
   2  -9   7   22.20    4.00
   2  -9   7   16.30    3.80
   2  -9   7   10.70    4.00
   2  -9   7   16.90    3.30
  -3   9  -7   22.10    4.80
   3  -9   7   11.10    3.40
   3  -9   7   16.70    4.10
   3   8  -7    5.50    4.30
   3   8  -7    9.00    4.10
   3   8  -7    7.00    3.80
  -3  -8   7    3.10    2.90
  -3  -8   7    2.50    4.30
   2   8  -7   -0.60    2.80
   2   8  -7    0.10    3.90
   2   8  -7   -0.50    3.50
   2   8  -7    4.40    3.00
  -2  -8   7    0.90    2.00
  -2  -8   7    0.30    2.90
  -2  -8   7    4.50    3.80
   1   8  -7  193.18   20.50
   1   8  -7  242.28   19.60
   1   8  -7  223.08   20.30
  -1  -8   7  225.18   18.90
  -1  -8   7  227.48   19.80
  -1  -8   7  194.08   19.70
  -1  -8   7  221.68   20.30
   0   8  -7  158.98   13.70
   0   8  -7  143.99   13.90
   0   8  -7  145.79   13.20
   0   8  -7  157.48   14.20
   0  -8   7  159.08   13.40
   0  -8   7  147.09   14.20
   0  -8   7  143.99   13.40
   0  -8   7  110.39   13.90
   0  -8   7  143.39   12.60
  -1   8  -7    3.30    3.10
  -1   8  -7    5.00    2.20
  -1   8  -7    5.30    2.70
  -1   8  -7    8.30    3.10
  -1   8  -7   11.90    2.80
   1  -8   7    5.90    2.00
   1  -8   7    5.40    3.00
   1  -8   7    6.90    2.30
   1  -8   7    3.90    2.60
  -2   8  -7   94.09   10.10
  -2   8  -7   79.39    8.70
  -2   8  -7   76.99    9.00
   2  -8   7   71.09    8.90
   2  -8   7   87.79    8.90
   2  -8   7   80.39    8.50
   2  -8   7   78.99    7.50
  -3   8  -7   39.10    6.20
   3  -8   7   26.50    4.40
   3  -8   7   37.20    5.20
   3   7  -7    5.30    3.80
   3   7  -7    6.80    3.40
   3   7  -7    4.70    3.30
  -3  -7   7    6.70    4.30
  -3  -7   7    1.80    2.40
   2   7  -7    4.60    3.00
   2   7  -7    8.40    2.60
   2   7  -7   10.00    2.80
   2   7  -7    7.60    3.30
  -2  -7   7    7.80    2.90
  -2  -7   7    8.30    2.20
  -2  -7   7    1.20    3.30
   1   7  -7   10.60    2.50
   1   7  -7   13.60    3.30
   1   7  -7   14.30    3.30
   1   7  -7   16.40    3.00
   1   7  -7   14.10    3.00
  -1  -7   7   21.70    3.40
  -1  -7   7   18.80    3.70
  -1  -7   7   16.50    3.10
  -1  -7   7   16.20    3.40
  -1  -7   7   14.10    4.80
  -1  -7   7   14.10    2.20
   0   7  -7   35.00    5.60
   0   7  -7   36.70    4.50
   0   7  -7   47.30    5.10
   0   7  -7   35.30    5.90
   0   7  -7   40.80    5.60
   0  -7   7   40.50    5.40
   0  -7   7   37.20    3.80
   0  -7   7   39.00    4.70
   0  -7   7   36.60    4.40
   0  -7   7   43.00    6.10
   0  -7   7   38.40    4.90
  -1   7  -7   33.50    4.60
  -1   7  -7   31.60    4.70
  -1   7  -7   28.00    4.40
  -1   7  -7   26.10    3.40
  -1   7  -7   23.90    4.40
   1  -7   7   24.90    3.80
   1  -7   7   36.00    4.70
   1  -7   7   30.10    3.60
   1  -7   7   36.00    5.10
  -2   7  -7  335.47   25.50
  -2   7  -7  233.78   25.00
  -2   7  -7  303.47   25.10
   2  -7   7  308.27   25.00
   2  -7   7  287.77   23.90
   2  -7   7  234.28   24.80
  -3   7  -7   86.29    9.60
   3  -7   7   82.29    8.20
   3  -7   7   86.29    9.20
   3  -7   7   60.39    8.00
   3   6  -7   27.50    4.60
   3   6  -7   22.90    4.30
   3   6  -7   28.50    4.90
  -3  -6   7   38.40    5.60
  -3  -6   7   26.20    3.90
   2   6  -7   19.10    4.00
   2   6  -7   24.50    3.90
  -2  -6   7   20.50    3.00
  -2  -6   7   21.00    3.90
  -2  -6   7   20.40    4.00
   1   6  -7   56.39    6.80
   1   6  -7   70.59    6.20
   1   6  -7   58.39    6.30
   1   6  -7   50.89    6.60
   1   6  -7   59.49    6.20
  -1  -6   7   55.99    6.10
  -1  -6   7   62.89    6.30
  -1  -6   7   44.70    6.70
  -1  -6   7   66.89    6.30
  -1  -6   7   51.19    5.40
  -1  -6   7   61.69    6.80
   0   6  -7   95.99    9.50
   0   6  -7  113.29   10.30
   0   6  -7  123.09   10.20
   0   6  -7   86.69   10.20
   0   6  -7   88.29    9.80
   0  -6   7  113.69    9.60
   0  -6   7  106.09   10.30
   0  -6   7  121.49   10.50
   0  -6   7  117.49    9.20
   0  -6   7  103.29    9.80
   0  -6   7   96.79    9.80
  -1   6  -7  107.39   12.20
  -1   6  -7  128.79   12.00
  -1   6  -7  116.49   11.40
  -1   6  -7  108.99   12.00
  -1   6  -7  153.78   12.40
   1  -6   7  145.69   12.30
   1  -6   7  136.89   11.20
   1  -6   7  133.89   12.20
   1  -6   7  127.39   11.90
   1  -6   7  141.79   12.00
  -2   6  -7   48.00    7.20
  -2   6  -7   69.29    7.10
  -2   6  -7   81.89    8.00
   2  -6   7   64.89    7.40
   2  -6   7   60.09    7.00
   2  -6   7   60.89    6.70
  -3   6  -7   50.79    6.10
  -3   6  -7   30.40    4.60
   3  -6   7   34.00    5.00
   3  -6   7   43.40    5.50
   3  -6   7   36.50    5.30
   3   5  -7   21.40    4.10
   3   5  -7   19.60    3.70
   3   5  -7   26.00    4.20
   3   5  -7   14.50    3.60
  -3  -5   7   24.80    4.50
  -3  -5   7   12.20    3.80
  -3  -5   7   21.60    3.10
   2   5  -7    5.50    2.50
   2   5  -7    8.60    2.30
   2   5  -7    5.50    2.70
   2   5  -7    7.00    2.40
   2   5  -7    7.40    2.50
  -2  -5   7    4.90    2.90
  -2  -5   7    9.50    3.20
  -2  -5   7    8.10    1.90
  -2  -5   7   14.60    2.80
   1   5  -7    1.30    2.10
   1   5  -7   -0.90    1.40
   1   5  -7    0.10    1.40
   1   5  -7    0.70    1.50
   1   5  -7    1.90    1.50
  -1  -5   7    1.00    1.50
  -1  -5   7    0.30    1.40
  -1  -5   7    0.70    1.80
  -1  -5   7    0.90    2.00
   0   5  -7  256.57   20.80
   0   5  -7  261.67   21.00
   0   5  -7  246.68   20.70
   0   5  -7  196.48   20.20
   0  -5   7  240.58   20.60
   0  -5   7  198.68   20.80
   0  -5   7  259.37   21.00
  -1   5  -7   27.40    3.90
  -1   5  -7   27.60    3.90
   1  -5   7   28.40    3.70
   1  -5   7   24.10    3.50
   1  -5   7   28.60    4.20
   1  -5   7   26.50    4.10
  -2   5  -7   47.90    5.60
  -2   5  -7   37.10    5.20
  -2   5  -7   55.09    6.40
   2  -5   7   44.70    5.50
   2  -5   7   39.20    5.20
   2  -5   7   41.40    5.20
   2  -5   7   41.80    5.90
  -3   5  -7   35.10    5.00
   3  -5   7   47.10    5.20
   3  -5   7   44.00    5.50
   3  -5   7   61.49    6.30
   3   4  -7   27.60    4.10
   3   4  -7   32.60    4.70
   3   4  -7   16.20    3.80
  -3  -4   7   37.90    3.90
  -3  -4   7   21.30    4.40
  -3  -4   7   46.00    5.60
   2   4  -7   24.50    3.60
   2   4  -7   23.30    3.70
   2   4  -7   22.10    3.60
   2   4  -7   25.00    3.80
   2   4  -7   24.10    3.50
  -2  -4   7   25.60    4.10
  -2  -4   7   22.80    3.60
  -2  -4   7   21.40    2.90
  -2  -4   7   19.70    3.40
   1   4  -7  309.77   26.50
   1   4  -7  299.67   26.30
   1   4  -7  297.57   26.70
   1   4  -7  352.86   26.40
   1   4  -7  277.77   26.60
   1   4  -7  334.97   26.60
  -1  -4   7  312.77   26.00
  -1  -4   7  316.87   26.80
  -1  -4   7  298.77   26.50
  -1  -4   7  256.87   26.30
   0   4  -7  262.17   22.30
   0   4  -7  276.47   22.60
   0   4  -7  216.28   21.80
   0   4  -7  263.47   21.70
   0   4  -7  273.07   22.40
   0   4  -7  230.68   22.50
   0  -4   7  268.37   22.50
   0  -4   7  262.37   22.30
   0  -4   7  258.47   22.20
  -1   4  -7   23.80    2.40
  -1   4  -7   17.60    3.00
  -1   4  -7   27.60    3.60
   1  -4   7   21.70    3.20
   1  -4   7   28.20    4.10
   1  -4   7   27.50    3.80
   1  -4   7   24.50    3.40
  -2   4  -7   12.60    2.90
  -2   4  -7   10.00    2.10
  -2   4  -7    9.30    2.70
   2  -4   7    6.50    3.70
   2  -4   7    8.20    2.20
   2  -4   7    9.10    2.10
   2  -4   7    5.30    2.70
  -3   4  -7   33.90    4.90
  -3   4  -7   20.90    3.60
   3  -4   7   27.00    4.00
   3  -4   7   24.70    3.70
   3  -4   7   26.10    5.30
   3  -4   7   29.50    4.20
   4   3  -7    1.20    2.70
   4   3  -7    5.60    3.70
   4   3  -7  -10.90    3.80
  -4  -3   7    0.00    2.30
  -4  -3   7   -4.20    4.60
   3   3  -7   -1.90    2.90
   3   3  -7    1.90    1.70
   3   3  -7   -1.90    2.40
   3   3  -7    0.60    2.10
  -3  -3   7    0.30    3.00
  -3  -3   7    1.00    2.60
  -3  -3   7    2.50    2.00
   2   3  -7   40.60    4.30
   2   3  -7   32.30    4.40
   2   3  -7   35.50    4.80
   2   3  -7   35.60    4.70
   2   3  -7   29.30    4.60
   2   3  -7   31.00    4.40
  -2  -3   7   44.70    5.10
  -2  -3   7   41.80    4.60
  -2  -3   7   32.00    4.50
  -2  -3   7   36.90    4.00
  -2  -3   7   25.10    4.50
   1   3  -7   25.60    3.10
   1   3  -7   28.50    3.90
   1   3  -7   25.70    3.60
   1   3  -7   30.40    3.70
   1   3  -7   26.80    3.80
   1   3  -7   23.90    3.40
  -1  -3   7   33.30    3.80
  -1  -3   7   19.20    3.40
  -1  -3   7   28.60    4.00
  -1  -3   7   20.80    3.30
  -1  -3   7   24.80    3.00
   0   3  -7   86.49    7.80
   0   3  -7   94.09    8.20
   0   3  -7   72.79    7.20
   0   3  -7   88.79    7.20
   0   3  -7   64.99    7.80
   0   3  -7   83.19    7.60
   0   3  -7   69.89    7.20
   0  -3   7   95.09    7.70
   0  -3   7   68.59    7.90
   0  -3   7   92.59    8.20
   0  -3   7   88.49    7.70
  -1   3  -7  141.89   12.10
  -1   3  -7  123.59   11.20
  -1   3  -7  129.19   11.90
  -1   3  -7  140.49   12.00
   1  -3   7  137.29   12.00
   1  -3   7  131.69   12.10
   1  -3   7  126.59   12.00
   1  -3   7  117.29   11.80
  -2   3  -7   75.89    7.30
  -2   3  -7   79.19    6.70
  -2   3  -7   89.89    7.80
  -2   3  -7   73.59    7.70
  -2   3  -7   58.29    7.60
   2  -3   7   70.49    7.50
   2  -3   7   71.59    8.10
   2  -3   7   74.39    7.70
   2  -3   7   80.09    7.80
  -3   3  -7  120.89   10.40
  -3   3  -7   97.49   10.70
  -3   3  -7  102.09   11.30
   3  -3   7  125.39   11.50
   3  -3   7  103.89   10.70
   3  -3   7  134.29   11.00
   3  -3   7  127.89   11.70
   4   2  -7   37.40    6.60
   4   2  -7   54.99    6.20
   4   2  -7   50.49    7.00
  -4  -2   7   51.89    7.30
  -4  -2   7   48.10    5.90
   3   2  -7   37.10    4.80
   3   2  -7   28.70    4.40
   3   2  -7   35.40    4.60
   3   2  -7   33.40    4.80
  -3  -2   7   21.90    4.20
  -3  -2   7   32.80    4.10
  -3  -2   7   38.30    5.00
   2   2  -7   35.40    4.50
   2   2  -7   33.10    4.60
   2   2  -7   34.10    4.70
   2   2  -7   28.70    4.30
   2   2  -7   36.10    4.10
   2   2  -7   26.50    4.30
  -2  -2   7   32.40    3.70
  -2  -2   7   35.30    4.20
  -2  -2   7   32.10    4.20
  -2  -2   7   38.00    4.70
   1   2  -7    1.70    1.90
   1   2  -7    1.70    1.40
   1   2  -7    1.30    1.30
   1   2  -7    1.50    1.80
   1   2  -7    1.40    1.50
   1   2  -7    0.70    1.20
  -1  -2   7   -1.30    1.30
  -1  -2   7    2.10    1.70
  -1  -2   7    0.20    1.40
  -1  -2   7    1.20    1.20
   0   2  -7   69.19    7.70
   0   2  -7   97.49    8.20
   0   2  -7   69.59    8.30
   0   2  -7   99.09    7.80
   0   2  -7  104.39    8.30
   0   2  -7   98.89    8.60
   0  -2   7   69.39    8.40
   0  -2   7   89.69    8.20
   0  -2   7   90.09    8.40
   0  -2   7   97.09    8.30
  -1   2  -7  349.77   28.80
  -1   2  -7  329.17   28.10
  -1   2  -7  325.07   28.60
  -1   2  -7  368.46   28.70
   1  -2   7  303.77   28.60
   1  -2   7  307.57   28.70
   1  -2   7  324.67   28.40
   1  -2   7  339.17   28.80
  -2   2  -7   -0.30    2.00
  -2   2  -7    2.90    1.50
  -2   2  -7    2.00    1.70
  -2   2  -7    1.50    2.10
  -2   2  -7    2.00    1.50
   2  -2   7    3.20    1.80
   2  -2   7    5.50    2.00
   2  -2   7    2.60    1.80
   2  -2   7    3.40    2.00
  -3   2  -7  133.19   13.90
  -3   2  -7  142.09   13.30
   3  -2   7  165.78   13.80
   3  -2   7  138.79   13.70
   3  -2   7  176.38   14.40
   3  -2   7  151.78   14.10
   4   1  -7    4.70    2.20
   4   1  -7    0.10    3.00
   4   1  -7    1.60    3.60
  -4  -1   7    1.70    4.10
  -4  -1   7    0.70    2.10
   3   1  -7   -0.60    1.90
   3   1  -7    0.60    2.40
   3   1  -7    5.30    3.10
   3   1  -7   -1.50    2.00
  -3  -1   7    3.10    2.70
  -3  -1   7    2.50    2.90
  -3  -1   7    0.90    1.80
   2   1  -7   81.69    8.20
   2   1  -7   75.99    8.30
   2   1  -7   78.59    8.30
   2   1  -7   79.69    8.30
   2   1  -7   81.29    8.20
  -2  -1   7   79.99    8.00
  -2  -1   7   99.29    8.40
  -2  -1   7   92.59    8.30
   1   1  -7  134.59   11.80
   1   1  -7  126.39   11.90
   1   1  -7  126.59   11.70
   1   1  -7  127.49   11.30
   1   1  -7  129.59   11.60
   1   1  -7  134.89   12.00
  -1  -1   7  124.49   11.90
  -1  -1   7  127.39   11.50
  -1  -1   7  128.69   11.70
  -1  -1   7  128.79   11.70
   0   1  -7  104.79   12.00
   0   1  -7  139.89   11.40
   0   1  -7  145.09   12.30
   0   1  -7  138.49   11.90
   0   1  -7  113.29   11.40
   0   1  -7  141.99   11.80
   0  -1   7  140.49   11.80
   0  -1   7  111.99   12.00
   0  -1   7  133.59   11.40
   0  -1   7  136.69   12.10
   0  -1   7  142.69   11.90
  -1   1  -7   37.40    4.60
  -1   1  -7   39.80    4.40
  -1   1  -7   34.40    3.60
  -1   1  -7   52.49    4.90
  -1   1  -7   41.60    4.10
   1  -1   7   42.00    4.60
   1  -1   7   38.40    3.50
   1  -1   7   35.90    4.80
   1  -1   7   35.20    4.70
   1  -1   7   43.30    4.40
  -2   1  -7   12.40    2.90
  -2   1  -7   10.50    2.30
  -2   1  -7   14.60    2.20
   2  -1   7    9.20    2.40
   2  -1   7    9.10    2.40
   2  -1   7    9.70    2.60
   2  -1   7   12.80    2.40
   2  -1   7   10.00    1.40
  -3   1  -7   51.09    5.60
  -3   1  -7   42.60    6.10
  -3   1  -7   40.70    5.10
   3  -1   7   45.40    4.70
   3  -1   7   49.20    5.70
   3  -1   7   38.20    5.80
   3  -1   7   53.59    6.50
   4   0  -7    0.20    3.80
   4   0  -7    6.40    2.20
   4   0  -7   -0.80    3.00
  -4   0   7    6.50    2.80
  -4   0   7    5.10    3.90
   3   0  -7   -0.20    2.90
   3   0  -7    2.60    2.70
   3   0  -7    4.50    1.60
   3   0  -7    4.00    2.50
  -3   0   7    1.20    2.80
  -3   0   7    1.10    2.30
   2   0  -7  148.59   13.20
   2   0  -7  153.78   13.80
   2   0  -7  150.48   13.80
   2   0  -7  139.99   14.00
   2   0  -7  152.18   13.60
  -2   0   7  143.69   13.60
  -2   0   7  154.48   13.80
  -2   0   7  155.18   13.70
  -2   0   7  147.99   13.70
   1   0  -7   60.39    6.30
   1   0  -7   62.79    6.50
   1   0  -7   57.99    5.70
   1   0  -7   56.29    6.50
   1   0  -7   58.39    6.10
   1   0  -7   56.59    6.00
  -1   0   7   63.39    5.90
  -1   0   7   59.79    6.10
  -1   0   7   61.49    6.60
  -1   0   7   62.69    6.10
   0   0  -7   62.49    6.00
   0   0  -7   62.49    6.00
   0   0  -7   51.99    6.20
   0   0  -7   55.29    5.80
   0   0  -7   47.20    5.50
   0   0  -7   62.89    6.50
   0   0   7   53.39    6.30
   0   0   7   61.29    6.00
   0   0   7   63.69    5.60
   0   0   7   61.99    6.50
   0   0   7   64.39    5.90
  -1   0  -7  692.63   62.49
  -1   0  -7  665.83   62.19
  -1   0  -7  785.22   62.69
  -1   0  -7  793.92   62.29
  -1   0  -7  789.82   62.89
   1   0   7  730.83   62.79
   1   0   7  767.32   62.89
   1   0   7  695.53   62.09
   1   0   7  727.83   62.29
   1   0   7  728.13   62.69
  -2   0  -7    6.90    2.10
  -2   0  -7   10.20    2.00
  -2   0  -7    7.30    2.90
  -2   0  -7    7.70    1.90
   2   0   7    7.10    2.30
   2   0   7   10.10    2.40
   2   0   7    9.00    1.70
   2   0   7   10.20    2.50
   2   0   7    5.30    2.30
  -3   0  -7   22.10    3.40
   3   0   7   24.10    4.10
   3   0   7   20.00    3.70
   3   0   7   28.70    4.40
   3   0   7   27.00    3.30
   4  -1  -7    7.10    2.50
   4  -1  -7    2.10    3.30
   4  -1  -7    6.90    3.80
  -4   1   7    7.20    4.00
   3  -1  -7   15.50    3.10
   3  -1  -7   10.70    2.40
   3  -1  -7   11.60    2.40
   3  -1  -7    9.90    3.20
   3  -1  -7    7.60    2.80
  -3   1   7   10.70    3.00
  -3   1   7   15.90    3.60
  -3   1   7    9.10    2.80
   2  -1  -7   58.99    6.90
   2  -1  -7   73.29    7.10
   2  -1  -7   65.89    6.30
   2  -1  -7   56.89    7.20
   2  -1  -7   65.39    7.00
   2  -1  -7   66.99    6.70
  -2   1   7   71.69    7.20
  -2   1   7   65.89    6.80
  -2   1   7   59.99    6.80
  -2   1   7   69.79    8.20
   1  -1  -7   -2.10    1.40
   1  -1  -7   -0.20    1.80
   1  -1  -7   -1.30    2.10
   1  -1  -7    0.70    1.60
   1  -1  -7    0.30    1.20
   1  -1  -7   -0.60    1.40
  -1   1   7    1.30    1.80
  -1   1   7    1.80    1.90
  -1   1   7    1.90    1.80
  -1   1   7    0.50    1.50
  -1   1   7    3.20    1.60
   0  -1  -7  110.59    9.60
   0  -1  -7   80.79    9.30
   0  -1  -7   93.89    9.30
   0  -1  -7  106.19    9.20
   0  -1  -7  111.39   10.10
   0   1   7   99.49    9.20
   0   1   7  102.39    9.50
   0   1   7  109.79   10.10
   0   1   7  102.89    9.30
   0   1   7  108.59   10.00
  -1  -1  -7  326.37   26.90
  -1  -1  -7  286.57   26.20
  -1  -1  -7  333.27   26.20
  -1  -1  -7  286.17   26.20
   1   1   7  315.67   26.90
   1   1   7  312.07   26.60
   1   1   7  287.97   26.70
   1   1   7  298.07   26.10
   1   1   7  304.47   26.10
  -2  -1  -7    3.10    2.20
  -2  -1  -7    1.70    2.80
  -2  -1  -7    1.60    2.00
  -2  -1  -7   -0.10    1.30
   2   1   7    0.50    1.90
   2   1   7    3.20    2.20
   2   1   7    2.20    1.30
   2   1   7   -0.20    2.20
   2   1   7    0.50    1.60
  -3  -1  -7   38.70    4.70
   3   1   7   42.80    5.50
   3   1   7   41.60    5.60
   3   1   7   34.50    5.10
   4  -2  -7   34.90    5.20
   4  -2  -7   29.40    4.50
   4  -2  -7   38.50    5.70
   3  -2  -7   31.30    3.90
   3  -2  -7   22.30    4.20
   3  -2  -7   25.20    4.10
   3  -2  -7   30.40    4.50
   3  -2  -7   27.10    3.50
  -3   2   7   25.90    4.10
  -3   2   7   24.50    3.60
  -3   2   7   21.90    4.00
   2  -2  -7  133.79   12.70
   2  -2  -7  131.09   12.80
   2  -2  -7  136.89   12.10
   2  -2  -7  130.79   12.90
   2  -2  -7  140.19   12.70
   2  -2  -7  141.29   12.10
  -2   2   7  133.99   12.90
  -2   2   7  141.99   12.90
  -2   2   7  120.99   12.20
  -2   2   7  138.49   12.60
   1  -2  -7   44.10    5.00
   1  -2  -7   42.30    5.90
   1  -2  -7   41.80    4.70
   1  -2  -7   53.99    5.80
   1  -2  -7   56.89    5.50
   1  -2  -7   37.20    5.30
  -1   2   7   32.00    5.70
  -1   2   7   51.79    5.70
  -1   2   7   54.19    5.40
  -1   2   7   55.79    5.20
  -1   2   7   45.10    6.10
   0  -2  -7  151.68   12.70
   0  -2  -7  148.19   13.40
   0  -2  -7  120.29   12.60
   0  -2  -7  142.39   12.40
   0  -2  -7  136.89   13.20
   0   2   7  135.49   12.50
   0   2   7  141.19   12.50
   0   2   7  145.49   13.30
   0   2   7  138.49   12.60
   0   2   7  140.89   13.20
  -1  -2  -7  135.49   12.60
  -1  -2  -7  114.59   13.50
  -1  -2  -7  133.09   13.20
  -1  -2  -7  164.98   13.80
  -1  -2  -7  156.58   12.80
   1   2   7  142.09   12.50
   1   2   7  140.19   13.50
   1   2   7  148.09   13.20
   1   2   7  147.29   12.80
   1   2   7  154.88   13.60
  -2  -2  -7    0.80    2.10
  -2  -2  -7   -0.70    3.40
  -2  -2  -7   -1.20    2.90
   2   2   7    4.00    2.40
   2   2   7    3.00    2.50
   2   2   7   -3.70    2.40
   2   2   7   -0.20    2.00
  -3  -2  -7   44.30    6.10
   3   2   7   57.89    7.70
   3   2   7   63.99    7.90
   3  -3  -7    1.90    2.70
   3  -3  -7    2.50    2.00
   3  -3  -7    2.30    2.00
   3  -3  -7   -1.80    2.40
   3  -3  -7    5.70    3.10
  -3   3   7   -0.30    2.70
  -3   3   7    3.10    3.00
  -3   3   7    1.00    2.10
   2  -3  -7   45.20    5.20
   2  -3  -7   31.00    4.50
   2  -3  -7   32.90    5.00
   2  -3  -7   29.50    3.90
   2  -3  -7   32.80    3.90
  -2   3   7   29.00    4.10
  -2   3   7   27.80    6.30
   1  -3  -7  132.59   11.50
   1  -3  -7  125.19   11.90
   1  -3  -7  117.09   11.00
   1  -3  -7  126.89   11.60
   1  -3  -7  133.69   12.30
   1  -3  -7  112.19   10.90
  -1   3   7  119.89   11.40
  -1   3   7  111.29   11.10
  -1   3   7  123.19   11.40
  -1   3   7  121.69   12.10
   0  -3  -7    3.10    1.60
   0  -3  -7    0.70    2.10
   0  -3  -7   -1.40    1.50
   0  -3  -7    1.20    1.90
   0  -3  -7   -1.30    2.30
   0  -3  -7    5.70    2.90
   0   3   7    2.70    1.80
   0   3   7    0.30    2.50
   0   3   7    0.20    1.80
   0   3   7    1.80    2.70
   0   3   7    1.50    1.80
  -1  -3  -7   19.60    4.00
  -1  -3  -7   19.00    2.50
  -1  -3  -7   24.00    4.60
  -1  -3  -7   21.30    3.10
  -1  -3  -7   15.20    3.70
   1   3   7   17.50    3.70
   1   3   7   16.00    4.00
   1   3   7   20.80    3.10
   1   3   7   25.60    4.30
  -2  -3  -7   10.90    4.50
  -2  -3  -7   10.50    2.80
   2   3   7   12.20    3.10
   2   3   7    9.10    3.50
   2   3   7   10.00    3.30
   3  -4  -7    1.10    3.20
   3  -4  -7    2.50    1.90
   3  -4  -7    4.10    2.50
  -3   4   7    3.90    3.10
   2  -4  -7  186.68   16.40
   2  -4  -7  193.38   16.70
   2  -4  -7  205.28   18.20
   2  -4  -7  207.28   17.70
   2  -4  -7  205.68   17.40
  -2   4   7  162.58   16.50
  -2   4   7  154.08   17.60
  -2   4   7  217.08   17.50
   1  -4  -7   44.20    5.90
   1  -4  -7   40.80    4.50
   1  -4  -7   35.50    5.40
   1  -4  -7   36.00    5.30
   1  -4  -7   47.10    5.40
   1  -4  -7   50.19    7.00
   1  -4  -7   42.70    4.80
  -1   4   7   51.59    6.70
  -1   4   7   43.00    5.30
  -1   4   7   33.40    4.70
   0  -4  -7    1.50    1.90
   0  -4  -7    8.60    3.80
   0  -4  -7    2.10    2.20
   0  -4  -7    3.70    2.00
   0  -4  -7    5.50    2.80
   0  -4  -7    2.00    1.60
   0   4   7    1.40    2.80
   0   4   7    2.70    1.90
   0   4   7    3.60    2.10
   0   4   7    3.10    2.80
  -1  -4  -7  212.38   18.20
   1   4   7  204.08   18.40
   1   4   7  198.88   19.40
   1   4   7  204.58   19.40
   1   4   7  208.38   18.70
  -2  -4  -7   39.10    5.00
   2   4   7   35.60    5.10
   2   4   7   36.30    5.60
   2   4   7   41.90    6.50
   3  -5  -7    4.30    3.60
   3  -5  -7    1.30    3.00
   3  -5  -7    0.70    2.10
  -3   5   7   -5.20    3.30
   2  -5  -7   -0.70    2.90
   2  -5  -7    1.90    3.80
   2  -5  -7   -0.10    2.40
   2  -5  -7   -2.30    1.50
  -2   5   7    1.80    1.60
  -2   5   7    1.00    3.00
  -2   5   7    1.50    2.90
  -2   5   7   -0.10    1.40
   1  -5  -7    3.10    2.30
   1  -5  -7    5.50    2.70
   1  -5  -7    5.50    2.90
   1  -5  -7    1.60    4.00
   1  -5  -7    3.20    1.80
  -1   5   7    3.50    2.80
  -1   5   7    2.70    4.70
  -1   5   7    2.00    2.90
  -1   5   7    2.90    1.90
  -1   5   7    5.80    2.10
   0  -5  -7   22.90    3.30
   0  -5  -7   22.80    4.20
   0  -5  -7   21.40    3.20
   0  -5  -7   23.30    3.20
   0   5   7   19.10    3.10
   0   5   7   16.80    4.10
   0   5   7   21.00    3.80
   0   5   7   31.50    5.50
  -1  -5  -7  146.19   18.90
  -1  -5  -7  185.08   15.70
   1   5   7  174.08   16.20
   1   5   7  178.38   17.30
   1   5   7  174.88   16.20
   3  -6  -7   14.70    4.10
   3  -6  -7   19.20    5.20
   3  -6  -7   15.90    3.30
  -3   6   7   17.20    4.90
   2  -6  -7   90.09   10.50
   2  -6  -7   89.09    9.40
   2  -6  -7  120.59   11.40
  -2   6   7  100.49   10.70
   1  -6  -7   89.89    8.90
   1  -6  -7  105.69   11.00
   1  -6  -7   85.89    9.50
   1  -6  -7  112.19   10.40
   1  -6  -7  116.59   12.20
  -1   6   7  107.29   10.10
  -1   6   7   94.09    9.00
  -1   6   7   82.19    9.00
  -1   6   7   90.99   11.50
  -1   6   7   69.39   11.10
   0  -6  -7   76.59   10.20
   0  -6  -7   56.59    5.90
   0  -6  -7   46.20    6.00
   0  -6  -7   53.89    7.50
   0   6   7   58.59    8.10
   0   6   7   65.29    7.10
   0   6   7   44.50    6.20
   0   6   7   66.59    9.70
  -1  -6  -7    3.40    2.80
   1   6   7   10.30    5.10
   1   6   7    5.40    3.30
   1   6   7   15.20    4.00
   2  -7  -7   17.30    4.80
   2  -7  -7   24.10    3.60
   2  -7  -7   23.50    4.80
  -2   7   7   17.00    5.00
   1  -7  -7   63.59    8.80
   1  -7  -7   82.49    7.90
   1  -7  -7   70.19   11.30
  -1   7   7   82.89   10.60
  -1   7   7   97.89    9.60
   0  -7  -7   11.00    2.30
   0   7   7   13.70    5.90
   0   7   7   10.70    3.10
   0   7   7   10.30    4.20
   1  11  -8    0.90    4.80
   1  11  -8    3.50    4.00
   1  11  -8    8.20    4.10
  -1 -11   8    2.30    2.80
  -1 -11   8    6.90    4.70
   0  11  -8   12.50    3.80
   0  11  -8   12.40    5.30
   0  11  -8    5.40    4.10
   0 -11   8   12.10    5.10
   0 -11   8   11.30    4.00
   0 -11   8    8.70    2.60
  -1  11  -8   49.20    7.30
  -1  11  -8   61.69    7.90
   1 -11   8   65.59    9.60
   1 -11   8   61.49    8.00
   2  10  -8   15.10    5.80
   2  10  -8   13.20    4.90
   2  10  -8   17.90    5.00
  -2 -10   8   16.60    3.70
  -2 -10   8   14.70    5.10
   1  10  -8  119.89   11.50
   1  10  -8   91.39   14.00
   1  10  -8  115.59   11.60
  -1 -10   8  118.19   11.80
  -1 -10   8  112.29   10.30
  -1 -10   8   91.19   13.00
   0  10  -8   51.99    6.70
   0  10  -8   49.40    6.50
   0  10  -8   35.70    6.70
   0  10  -8   51.89    7.50
   0 -10   8   59.99    7.40
   0 -10   8   40.20    5.00
   0 -10   8   50.69    6.40
   0 -10   8   39.40    6.60
   0 -10   8   31.70    6.50
  -1  10  -8   14.10    3.50
  -1  10  -8    7.20    4.30
  -1  10  -8    9.40    3.60
   1 -10   8    9.70    4.60
   1 -10   8    8.80    3.60
   1 -10   8    5.60    3.50
   1 -10   8    6.60    4.50
  -2  10  -8    4.80    3.80
   2 -10   8    5.70    3.60
   2 -10   8   -5.30    3.50
   2   9  -8    3.50    4.80
   2   9  -8    2.20    3.40
   2   9  -8    6.40    3.90
  -2  -9   8    3.10    2.50
  -2  -9   8   -3.90    4.00
   1   9  -8    6.90    3.30
   1   9  -8    0.30    3.90
   1   9  -8    2.90    3.80
   1   9  -8    5.20    3.10
  -1  -9   8    8.10    2.10
  -1  -9   8    3.70    3.10
  -1  -9   8    2.80    4.10
  -1  -9   8   -1.30    4.10
   0   9  -8    0.00    3.50
   0   9  -8    1.80    2.40
   0   9  -8    3.70    3.20
   0   9  -8    1.90    2.50
   0  -9   8   -0.30    2.50
   0  -9   8    2.80    3.10
   0  -9   8   -0.20    1.60
   0  -9   8    3.20    3.30
   0  -9   8    3.80    3.00
  -1   9  -8   24.80    5.40
  -1   9  -8   33.00    4.60
  -1   9  -8   41.50    5.70
   1  -9   8   39.10    5.90
   1  -9   8   36.40    4.90
   1  -9   8   32.40    4.40
   1  -9   8   37.90    6.00
  -2   9  -8   68.89    7.60
  -2   9  -8   45.90    5.70
   2  -9   8   50.29    7.20
   2  -9   8   70.39    7.90
   2   8  -8    3.60    3.10
   2   8  -8   -2.80    3.50
   2   8  -8    1.00    3.20
  -2  -8   8   -2.30    2.00
  -2  -8   8    2.00    3.20
   1   8  -8   35.70    5.70
   1   8  -8   43.70    5.80
   1   8  -8   47.50    5.90
   1   8  -8   51.99    6.80
  -1  -8   8   38.00    4.60
  -1  -8   8   32.60    5.20
  -1  -8   8   45.30    5.80
  -1  -8   8   31.70    6.00
  -1  -8   8   55.39    8.70
   0   8  -8    6.20    2.40
   0   8  -8    2.20    3.00
   0   8  -8    6.10    2.10
   0   8  -8    4.00    3.00
   0  -8   8    7.80    3.50
   0  -8   8    3.00    2.30
   0  -8   8    3.10    2.30
   0  -8   8    8.50    3.40
   0  -8   8    3.30    1.50
  -1   8  -8   93.99    9.90
  -1   8  -8   74.09    8.50
  -1   8  -8   92.69    9.40
   1  -8   8  107.59   10.20
   1  -8   8   93.89    9.80
   1  -8   8   84.59    8.90
  -2   8  -8   59.19    9.30
  -2   8  -8   49.30    6.40
   2  -8   8   36.50    3.90
   2  -8   8   36.90    5.70
   2  -8   8   44.60    6.40
   2  -8   8   43.10    5.60
  -3   8  -8    7.20    5.30
   3  -8   8   22.40    4.50
   3  -8   8   13.70    3.70
   3   7  -8    0.40    3.20
   3   7  -8   -1.90    3.50
   3   7  -8   -5.10    3.70
  -3  -7   8    7.30    4.60
  -3  -7   8    1.70    2.30
   2   7  -8   67.49    7.60
   2   7  -8   59.79    8.20
   2   7  -8   59.59    7.20
   2   7  -8   63.29    8.30
  -2  -7   8   43.80    7.40
  -2  -7   8   62.39    6.20
  -2  -7   8   65.59    7.50
   1   7  -8   43.40    5.30
   1   7  -8   43.90    6.50
   1   7  -8   43.50    5.30
   1   7  -8   28.80    5.00
  -1  -7   8   44.80    5.80
  -1  -7   8   35.20    4.20
  -1  -7   8   26.90    5.20
  -1  -7   8   42.90    5.20
   0   7  -8   13.50    3.60
   0   7  -8   12.70    3.20
   0   7  -8   11.40    2.40
   0   7  -8   20.50    3.80
   0   7  -8   15.40    3.60
   0  -7   8   12.70    3.20
   0  -7   8   18.10    2.10
   0  -7   8   10.90    3.10
   0  -7   8   19.70    2.70
  -1   7  -8  157.58   13.40
  -1   7  -8  160.48   13.20
  -1   7  -8  113.29   12.00
  -1   7  -8  134.39   13.10
   1  -7   8  136.89   11.90
   1  -7   8  133.19   12.70
   1  -7   8  140.29   13.30
   1  -7   8  136.99   13.30
  -2   7  -8   24.10    4.30
  -2   7  -8   21.70    4.10
   2  -7   8   17.20    3.70
   2  -7   8   16.10    3.40
   2  -7   8   17.60    3.90
  -3   7  -8   45.90    7.00
   3  -7   8   45.60    6.40
   3  -7   8   43.20    6.20
   3   6  -8   17.00    4.10
   3   6  -8   18.70    4.10
   3   6  -8   20.70    4.50
  -3  -6   8   12.60    4.80
  -3  -6   8   12.80    2.80
   2   6  -8    8.20    3.50
   2   6  -8    7.50    3.40
   2   6  -8    7.30    2.80
   2   6  -8    6.60    2.90
  -2  -6   8    7.00    1.90
  -2  -6   8   -0.30    3.00
  -2  -6   8    6.20    2.70
   1   6  -8  130.39   13.70
   1   6  -8  140.69   13.70
   1   6  -8  174.98   13.80
   1   6  -8  158.08   14.00
   1   6  -8  164.58   14.50
  -1  -6   8  170.98   13.20
  -1  -6   8  121.19   14.20
  -1  -6   8  146.19   13.80
  -1  -6   8  166.78   14.70
  -1  -6   8  135.09   14.20
   0   6  -8  113.19   10.30
   0   6  -8  103.99    9.50
   0   6  -8   82.59    9.00
   0   6  -8  118.49    9.80
   0  -6   8  104.29    9.50
   0  -6   8   86.59    9.90
   0  -6   8   98.99    9.40
  -1   6  -8  226.98   18.40
  -1   6  -8  224.58   18.20
  -1   6  -8  196.18   18.10
   1  -6   8  180.98   17.90
   1  -6   8  180.18   17.90
   1  -6   8  194.48   18.20
   1  -6   8  201.38   18.30
  -2   6  -8   65.89    8.40
  -2   6  -8   81.69    8.40
   2  -6   8   64.39    7.80
   2  -6   8   63.19    7.60
   2  -6   8   88.49    8.30
  -3   6  -8   74.49    9.60
   3  -6   8   68.29    8.60
   3  -6   8   61.59    7.20
   3   5  -8    6.30    3.10
   3   5  -8    8.60    3.20
   3   5  -8   10.90    3.60
  -3  -5   8    8.40    4.10
  -3  -5   8    5.70    2.60
   2   5  -8   33.20    5.40
   2   5  -8   27.60    4.40
   2   5  -8   34.50    4.70
   2   5  -8   31.90    4.80
  -2  -5   8   29.60    4.80
  -2  -5   8   28.80    3.70
  -2  -5   8   30.10    4.60
   1   5  -8  145.79   13.50
   1   5  -8  151.38   13.20
   1   5  -8  141.79   13.10
   1   5  -8  145.69   12.90
  -1  -5   8  111.09   13.40
  -1  -5   8  136.79   13.00
  -1  -5   8  153.58   13.20
  -1  -5   8  155.68   13.70
  -1  -5   8  147.79   12.50
   0   5  -8   47.60    4.10
   0   5  -8   52.19    5.00
   0   5  -8   32.00    5.20
   0   5  -8   37.50    4.30
   0   5  -8   47.10    5.80
   0   5  -8   46.80    5.30
   0   5  -8   33.60    4.40
   0  -5   8   46.80    5.80
   0  -5   8   35.90    4.70
   0  -5   8   49.50    5.50
   0  -5   8   41.00    4.70
  -1   5  -8   83.09    7.90
  -1   5  -8   79.79    7.60
  -1   5  -8   53.79    7.60
   1  -5   8   72.19    7.60
   1  -5   8   69.99    7.20
   1  -5   8   63.89    7.50
   1  -5   8   75.29    7.60
  -2   5  -8   25.40    4.30
  -2   5  -8   42.40    5.50
   2  -5   8   32.30    4.60
   2  -5   8   26.80    4.40
   2  -5   8   24.70    4.50
   2  -5   8   39.90    5.30
  -3   5  -8   11.70    4.10
   3  -5   8    8.80    3.10
   3  -5   8   21.70    4.30
   3  -5   8   10.90    2.70
   3   4  -8   -1.40    2.90
   3   4  -8    1.20    2.80
   3   4  -8    1.20    2.70
   3   4  -8    2.20    2.30
  -3  -4   8    1.60    2.20
  -3  -4   8   -0.20    3.70
   2   4  -8    0.70    2.40
   2   4  -8   -1.70    2.10
   2   4  -8    0.70    2.10
   2   4  -8    3.60    2.20
   2   4  -8    5.00    2.80
   2   4  -8   -4.30    2.00
  -2  -4   8    2.60    2.20
  -2  -4   8    1.30    1.60
  -2  -4   8    1.90    2.40
   1   4  -8   57.19    6.20
   1   4  -8   54.49    5.80
   1   4  -8   56.19    6.20
   1   4  -8   68.49    5.70
   1   4  -8   55.89    5.80
   1   4  -8   47.70    5.60
  -1  -4   8   47.60    5.80
  -1  -4   8   36.20    6.00
  -1  -4   8   49.10    5.60
  -1  -4   8   53.69    5.10
  -1  -4   8   43.70    6.50
   0   4  -8   -1.10    2.00
   0   4  -8    4.20    1.90
   0   4  -8    1.30    1.20
   0   4  -8    2.20    1.30
   0   4  -8    1.10    1.90
   0   4  -8    1.60    1.00
   0   4  -8    0.10    1.50
   0  -4   8    0.40    1.60
   0  -4   8    1.30    2.00
   0  -4   8    3.00    1.80
   0  -4   8   -2.20    1.70
  -1   4  -8  153.18   12.80
  -1   4  -8  124.79   12.30
  -1   4  -8  108.89   12.50
  -1   4  -8  142.39   11.40
  -1   4  -8  150.38   12.50
   1  -4   8  125.79   12.30
   1  -4   8  131.39   12.50
   1  -4   8  124.49   12.50
   1  -4   8  133.99   12.40
  -2   4  -8    4.90    2.80
  -2   4  -8    4.90    2.60
   2  -4   8    7.20    2.30
   2  -4   8   10.50    2.60
   2  -4   8    2.80    2.20
   2  -4   8    8.20    3.10
  -3   4  -8   71.79    7.90
   3  -4   8   57.39    7.70
   3  -4   8   54.79    6.90
   3  -4   8   54.69    6.40
   3   3  -8    2.00    2.10
   3   3  -8    1.80    2.90
   3   3  -8    2.20    2.80
   3   3  -8    0.10    3.10
  -3  -3   8    1.20    3.10
  -3  -3   8    3.00    3.50
  -3  -3   8   -0.60    2.10
   2   3  -8   52.29    7.10
   2   3  -8   61.89    7.40
   2   3  -8   60.59    7.30
   2   3  -8   69.19    6.70
   2   3  -8   63.49    7.10
  -2  -3   8   59.69    6.20
  -2  -3   8   62.89    7.00
  -2  -3   8   77.69    7.40
   1   3  -8   58.69    6.70
   1   3  -8   54.69    6.30
   1   3  -8   67.09    6.60
   1   3  -8   66.29    6.10
   1   3  -8   69.99    7.10
   1   3  -8   62.09    6.60
  -1  -3   8   61.09    6.40
  -1  -3   8   63.39    6.90
  -1  -3   8   45.00    6.70
   0   3  -8    6.20    1.60
   0   3  -8   10.60    1.50
   0   3  -8    4.20    1.40
   0   3  -8    4.50    2.10
   0   3  -8    9.60    1.60
   0   3  -8    7.70    2.20
   0   3  -8    7.10    2.10
   0  -3   8    7.20    1.90
   0  -3   8    9.50    2.60
   0  -3   8   12.70    2.90
   0  -3   8    8.00    2.20
  -1   3  -8   45.50    4.50
  -1   3  -8   57.19    5.90
  -1   3  -8   47.90    5.50
  -1   3  -8   47.00    5.10
   1  -3   8   45.30    5.40
   1  -3   8   40.10    5.30
   1  -3   8   48.50    5.60
   1  -3   8   34.70    5.40
  -2   3  -8    1.10    1.40
  -2   3  -8    0.60    2.50
  -2   3  -8    0.40    2.30
   2  -3   8    2.00    2.30
   2  -3   8    3.80    2.10
   2  -3   8   -0.50    2.40
   2  -3   8   -0.20    2.00
  -3   3  -8   45.60    6.50
   3  -3   8   64.49    6.60
   3  -3   8   51.69    6.80
   3  -3   8   51.19    7.00
   3  -3   8   60.79    7.30
   4   2  -8    0.10    2.40
   4   2  -8   -5.00    3.50
   4   2  -8   -0.70    4.20
  -4  -2   8    1.20    4.90
   3   2  -8    4.80    2.50
   3   2  -8    1.10    2.90
   3   2  -8    4.60    2.10
   3   2  -8    2.40    2.70
   3   2  -8    4.00    3.60
  -3  -2   8    3.80    2.10
  -3  -2   8    7.90    3.00
  -3  -2   8    0.80    3.50
   2   2  -8    6.00    2.60
   2   2  -8    6.80    3.00
   2   2  -8   10.90    3.00
   2   2  -8    5.80    2.60
   2   2  -8   10.20    2.50
   2   2  -8   10.50    2.30
  -2  -2   8    5.90    2.30
  -2  -2   8    6.30    2.90
  -2  -2   8   -0.20    2.20
   1   2  -8   66.89    8.00
   1   2  -8   89.39    7.90
   1   2  -8   87.89    8.40
   1   2  -8   81.29    7.60
   1   2  -8   82.69    8.30
   1   2  -8   84.79    8.50
   1   2  -8   85.89    8.70
  -1  -2   8   83.09    8.20
  -1  -2   8   85.99    8.10
  -1  -2   8   90.59    8.70
   0   2  -8   74.99    9.20
   0   2  -8   96.09    9.00
   0   2  -8   80.89    8.30
   0   2  -8  102.09    9.00
   0   2  -8  114.09    9.70
   0   2  -8  103.59    8.50
   0  -2   8   87.49    8.90
   0  -2   8   89.69    9.40
   0  -2   8  105.79    9.10
   0  -2   8   99.79    9.40
  -1   2  -8  422.66   34.20
  -1   2  -8  414.66   33.50
  -1   2  -8  429.06   34.40
   1  -2   8  395.66   34.30
   1  -2   8  365.66   33.90
   1  -2   8  360.56   34.20
   1  -2   8  377.36   34.10
  -2   2  -8  182.68   17.80
  -2   2  -8  179.78   18.80
  -2   2  -8  213.88   18.50
   2  -2   8  186.68   18.50
   2  -2   8  228.38   18.70
   2  -2   8  226.58   18.50
   2  -2   8  236.38   18.80
  -3   2  -8   27.10    4.50
  -3   2  -8   32.20    3.90
   3  -2   8   37.20    5.10
   3  -2   8   32.70    5.30
   4   1  -8   14.90    3.60
   4   1  -8   21.40    5.00
   4   1  -8   18.90    4.20
  -4  -1   8   24.70    5.70
   3   1  -8   11.70    3.70
   3   1  -8    7.50    3.00
   3   1  -8    6.60    3.20
   3   1  -8   12.90    2.80
   3   1  -8   12.60    3.30
  -3  -1   8   10.00    3.40
  -3  -1   8   15.10    4.00
   2   1  -8    5.30    2.00
   2   1  -8    6.70    3.00
   2   1  -8    8.70    2.70
   2   1  -8    7.40    2.60
   2   1  -8    5.10    1.70
   2   1  -8    7.10    2.60
  -2  -1   8    4.40    2.10
  -2  -1   8   -1.90    2.20
  -2  -1   8    7.20    2.70
   1   1  -8   40.30    4.70
   1   1  -8   35.70    4.50
   1   1  -8   35.00    4.60
   1   1  -8   37.80    5.00
   1   1  -8   40.90    4.00
   1   1  -8   37.10    5.40
  -1  -1   8   39.10    4.60
  -1  -1   8   32.50    5.20
  -1  -1   8   34.50    4.30
  -1  -1   8   29.80    4.80
  -1  -1   8   38.80    4.80
   0   1  -8  233.58   19.70
   0   1  -8  228.48   20.10
   0   1  -8  224.78   19.70
   0   1  -8  223.88   19.20
   0  -1   8  228.68   19.70
   0  -1   8  223.78   19.50
   0  -1   8  219.48   20.00
   0  -1   8  206.28   19.10
   0  -1   8  221.78   20.00
  -1   1  -8  138.49   14.80
  -1   1  -8  169.28   14.60
  -1   1  -8  161.28   14.50
  -1   1  -8  183.88   14.00
  -1   1  -8  137.19   13.60
   1  -1   8  176.38   14.60
   1  -1   8  178.08   14.30
   1  -1   8  162.68   14.70
   1  -1   8  152.68   14.60
   1  -1   8  149.09   13.60
  -2   1  -8   59.99    7.10
  -2   1  -8   62.59    6.90
   2  -1   8   57.29    7.60
   2  -1   8   80.79    7.90
   2  -1   8   82.79    7.70
   2  -1   8   89.39    7.60
  -3   1  -8   24.30    3.50
   3  -1   8   26.50    4.20
   3  -1   8   28.60    4.40
   4   0  -8    7.30    2.70
   4   0  -8    0.70    4.00
   4   0  -8    6.50    3.40
  -4   0   8    7.60    4.40
   3   0  -8   41.50    5.80
   3   0  -8   37.90    5.40
   3   0  -8   33.00    5.30
   3   0  -8   37.00    5.20
  -3   0   8   39.50    5.60
  -3   0   8   42.30    6.30
   2   0  -8  143.99   13.60
   2   0  -8  134.59   12.60
   2   0  -8  148.89   13.30
   2   0  -8  129.59   13.20
   2   0  -8  143.39   13.00
   2   0  -8  124.99   13.70
  -2   0   8  128.69   13.30
  -2   0   8  143.49   13.10
  -2   0   8  171.18   13.40
   1   0  -8  111.19   10.40
   1   0  -8  123.99   10.70
   1   0  -8  118.19   11.00
   1   0  -8  115.49   10.40
   1   0  -8  108.79   10.90
   1   0  -8  110.19   10.00
  -1   0   8  107.39   10.50
  -1   0   8  109.79   11.00
  -1   0   8   90.99   10.80
  -1   0   8  115.29   10.50
  -1   0   8  109.69   10.20
   0   0  -8  235.88   21.40
   0   0  -8  266.37   21.90
   0   0  -8  195.78   21.60
   0   0  -8  241.28   20.90
   0   0  -8  271.17   21.40
   0   0   8  236.08   21.20
   0   0   8  239.48   21.80
   0   0   8  249.38   21.40
   0   0   8  252.07   21.00
   0   0   8  244.48   21.70
  -1   0  -8  101.29    8.50
  -1   0  -8   83.49    8.80
  -1   0  -8   99.29    9.50
  -1   0  -8   82.29    8.40
  -1   0  -8   84.09    9.50
  -1   0  -8   94.69    9.10
   1   0   8   85.39    8.50
   1   0   8   92.79    9.40
   1   0   8   93.59    8.20
   1   0   8   99.19    9.30
  -2   0  -8    1.60    3.30
  -2   0  -8    1.60    2.00
  -2   0  -8    2.80    1.90
   2   0   8    5.20    2.60
   2   0   8    6.00    2.50
   2   0   8    4.50    2.00
   2   0   8    2.20    1.20
   2   0   8    3.00    2.40
  -3   0  -8   51.09    7.00
   3   0   8   73.59    7.90
   3   0   8   70.79    8.40
   3  -1  -8   42.80    5.70
   3  -1  -8   47.30    5.20
   3  -1  -8   37.00    6.10
   3  -1  -8   43.90    5.90
   3  -1  -8   42.30    5.70
  -3   1   8   50.29    7.00
  -3   1   8   46.10    6.40
  -3   1   8   39.20    5.50
   2  -1  -8    4.90    3.10
   2  -1  -8    6.90    2.40
   2  -1  -8    5.60    1.90
   2  -1  -8   11.10    3.10
   2  -1  -8    4.10    2.10
   2  -1  -8    9.90    3.40
  -2   1   8    8.60    2.60
  -2   1   8    6.10    2.70
  -2   1   8    7.00    2.70
  -2   1   8    5.00    2.60
   1  -1  -8   37.20    5.20
   1  -1  -8   40.80    5.00
   1  -1  -8   33.60    5.00
   1  -1  -8   31.20    4.00
   1  -1  -8   30.90    4.40
   1  -1  -8   34.50    4.80
  -1   1   8   36.60    5.20
  -1   1   8   35.30    4.90
  -1   1   8   36.80    4.80
  -1   1   8   39.70    4.50
   0  -1  -8  179.78   19.00
   0  -1  -8  229.28   19.40
   0  -1  -8  209.88   18.30
   0  -1  -8  223.98   18.80
   0  -1  -8  197.58   18.60
   0   1   8  217.68   18.70
   0   1   8  214.08   18.40
   0   1   8  212.78   18.50
  -1  -1  -8   13.50    2.60
  -1  -1  -8   12.00    2.60
  -1  -1  -8   14.90    3.30
  -1  -1  -8   11.90    3.20
  -1  -1  -8   13.10    2.80
  -1  -1  -8   10.50    3.40
   1   1   8   10.30    3.00
   1   1   8   13.60    2.30
   1   1   8   14.60    2.10
   1   1   8   16.10    3.60
   1   1   8   11.00    2.70
  -2  -1  -8   19.00    3.20
  -2  -1  -8   13.50    2.00
   2   1   8   13.40    2.30
   2   1   8   19.20    4.20
   2   1   8   11.30    2.50
   2   1   8   13.90    3.50
   2   1   8   18.00    3.40
   3  -2  -8   -0.70    1.90
   3  -2  -8    3.60    3.30
   3  -2  -8    1.40    2.30
   3  -2  -8    0.00    2.80
   3  -2  -8    2.30    2.90
  -3   2   8    1.10    2.80
  -3   2   8   -1.10    3.00
   2  -2  -8   16.60    3.30
   2  -2  -8   13.20    2.50
   2  -2  -8   14.70    2.80
   2  -2  -8   15.90    3.80
  -2   2   8   19.90    3.60
  -2   2   8   10.50    3.20
  -2   2   8   19.40    3.20
   1  -2  -8   38.90    5.60
   1  -2  -8   40.70    4.70
   1  -2  -8   38.00    4.70
   1  -2  -8   37.60    5.30
   1  -2  -8   38.10    3.90
   1  -2  -8   28.90    4.30
  -1   2   8   26.00    4.60
  -1   2   8   34.60    4.60
  -1   2   8   23.90    4.80
  -1   2   8   37.60    4.80
  -1   2   8   29.10    4.10
   0  -2  -8   22.90    3.50
   0  -2  -8   20.00    3.00
   0  -2  -8   16.60    3.30
   0  -2  -8   16.00    3.30
   0  -2  -8   28.70    3.70
   0  -2  -8   25.80    4.30
   0   2   8   23.70    3.30
   0   2   8   24.90    4.20
   0   2   8   25.30    3.40
   0   2   8   23.40    3.50
   0   2   8   25.70    4.40
  -1  -2  -8   24.30    3.30
  -1  -2  -8   23.20    4.10
  -1  -2  -8   14.40    3.80
  -1  -2  -8   22.20    3.00
   1   2   8   17.50    3.60
   1   2   8   21.20    4.50
   1   2   8   18.90    3.00
   1   2   8   20.70    2.80
   1   2   8   26.00    4.40
  -2  -2  -8   50.99    6.40
   2   2   8   62.79    8.10
   2   2   8   54.69    7.20
   2   2   8   58.59    6.40
   3  -3  -8   12.90    3.20
   3  -3  -8    5.70    3.70
   3  -3  -8   10.10    2.60
  -3   3   8   11.90    2.70
  -3   3   8   16.90    4.30
   2  -3  -8   11.80    3.50
   2  -3  -8   11.50    4.20
   2  -3  -8    4.20    2.30
   2  -3  -8    9.60    2.90
   2  -3  -8    7.70    2.10
  -2   3   8    5.10    3.10
  -2   3   8    7.30    2.50
  -2   3   8    9.90    3.00
   1  -3  -8   -0.90    1.70
   1  -3  -8    1.30    2.00
   1  -3  -8   -0.70    2.20
   1  -3  -8    3.40    3.20
   1  -3  -8    2.20    2.90
   1  -3  -8    3.20    2.50
  -1   3   8   -2.70    3.10
  -1   3   8   -0.50    3.10
  -1   3   8    2.10    2.00
  -1   3   8    2.30    3.00
  -1   3   8   -1.10    2.20
   0  -3  -8   80.59    8.00
   0  -3  -8   83.69    9.40
   0  -3  -8   70.59    7.40
   0  -3  -8   62.39    8.30
   0  -3  -8   70.39    7.30
   0  -3  -8   52.69    8.00
   0   3   8   76.69    7.60
   0   3   8   89.89    7.80
   0   3   8   78.39    8.70
   0   3   8   77.59    8.90
   0   3   8   73.69    7.60
  -1  -3  -8   83.79    9.20
  -1  -3  -8   60.79    7.10
  -1  -3  -8   65.39    6.60
  -1  -3  -8   66.89    6.50
   1   3   8   80.29    8.80
   1   3   8   75.09    8.00
   1   3   8   79.39    7.50
   1   3   8   60.29    8.80
  -2  -3  -8   48.80    6.60
   2   3   8   66.29    8.20
   2   3   8   74.09    8.80
   2   3   8   56.79    7.20
   3  -4  -8   21.10    3.70
   3  -4  -8   26.20    4.70
   3  -4  -8   22.10    4.80
  -3   4   8   28.20    5.20
   2  -4  -8   83.99    9.20
   2  -4  -8   85.59    8.20
   2  -4  -8   78.89   10.80
   2  -4  -8   92.99    9.70
   2  -4  -8   86.79    8.10
  -2   4   8  102.29    9.50
  -2   4   8   67.79    8.20
   1  -4  -8    7.00    2.80
   1  -4  -8   18.80    5.10
   1  -4  -8    4.90    3.10
   1  -4  -8   15.60    2.50
   1  -4  -8   12.10    2.80
   1  -4  -8   11.80    3.30
  -1   4   8   13.50    3.40
  -1   4   8   21.80    4.70
  -1   4   8    7.60    4.00
  -1   4   8   11.70    2.80
   0  -4  -8  107.09   10.70
   0  -4  -8   88.09    9.30
   0  -4  -8   81.59    9.30
   0  -4  -8  105.99    9.20
   0  -4  -8  118.09   12.10
   0  -4  -8   80.09   10.50
   0   4   8  114.19    9.70
   0   4   8   86.99    9.50
   0   4   8  126.49   11.40
   0   4   8   85.59   10.80
  -1  -4  -8   29.00    6.30
  -1  -4  -8   23.80    3.70
   1   4   8   27.40    4.40
   1   4   8   21.90    5.00
   1   4   8   21.60    4.10
   3  -5  -8   96.69   10.40
   3  -5  -8   68.79   10.10
  -3   5   8   84.89   10.50
   2  -5  -8   25.10    3.80
   2  -5  -8   36.80    5.50
   2  -5  -8   27.40    4.90
  -2   5   8   30.20    5.40
   1  -5  -8   55.19    5.30
   1  -5  -8   64.89    7.20
   1  -5  -8   60.99    8.50
   1  -5  -8   54.59    6.50
   1  -5  -8   45.20    6.70
  -1   5   8   49.99    6.60
  -1   5   8   37.20    5.80
  -1   5   8   29.40    5.90
  -1   5   8   48.20    7.40
  -1   5   8   36.30    5.20
   0  -5  -8   92.19   12.20
   0  -5  -8  132.39   15.60
   0  -5  -8  107.59   10.60
   0   5   8  121.19   11.70
   0   5   8  108.19   12.80
   0   5   8  120.59   11.40
   0   5   8  123.69   13.90
   0   5   8  110.19   11.00
  -1  -5  -8   36.60    5.00
   1   5   8   37.10    5.80
   1   5   8   47.40    6.00
   1   5   8   39.90    6.90
   2  -6  -8    6.00    3.90
   2  -6  -8    1.50    4.00
   2  -6  -8    1.80    2.40
  -2   6   8    5.80    4.20
   1  -6  -8    2.30    5.30
   1  -6  -8   12.50    3.60
   1  -6  -8   13.50    2.80
  -1   6   8   10.40    3.00
  -1   6   8   21.60    4.60
  -1   6   8    6.00    4.50
   0  -6  -8   58.89    6.30
   0   6   8   53.99    8.60
   0   6   8   75.19    8.20
   0   6   8   49.00    7.30
   0  11  -9    6.30    4.00
   0  11  -9   15.50    4.60
   0 -11   9    7.70    4.10
   0 -11   9   -5.10    7.00
  -1  11  -9   68.59    9.70
  -1  11  -9   77.29    9.60
   1 -11   9   67.89    9.70
   1 -11   9   82.89    9.40
   1  10  -9   19.30    4.70
   1  10  -9    7.50    5.70
   1  10  -9   14.40    4.20
  -1 -10   9   10.00    8.70
  -1 -10   9   15.30    2.90
  -1 -10   9   11.70    4.30
   0  10  -9    0.70    2.90
   0  10  -9    2.80    5.90
   0  10  -9   -3.00    4.80
   0  10  -9    8.10    3.50
   0 -10   9    1.10    3.80
   0 -10   9    6.60    4.00
   0 -10   9    5.00    3.50
   0 -10   9   -2.90    4.20
  -1  10  -9   11.30    3.90
  -1  10  -9   10.10    4.00
   1 -10   9   10.40    3.80
   1 -10   9   10.40    4.30
  -2  10  -9   20.60    5.10
   2 -10   9   21.50    4.90
   2 -10   9   25.20    5.70
   2   9  -9   93.49   12.60
   2   9  -9   83.19   10.60
   2   9  -9   78.59   10.50
  -2  -9   9   97.89   11.10
  -2  -9   9   93.19    9.00
   1   9  -9   67.29    9.70
   1   9  -9   69.09    7.70
   1   9  -9   54.89    7.50
   1   9  -9   50.59    7.70
  -1  -9   9   59.69    6.10
  -1  -9   9   44.70    7.70
  -1  -9   9   67.89    7.70
   0   9  -9    1.00    2.50
   0   9  -9    4.00    2.70
   0   9  -9   -7.30    3.80
   0   9  -9    0.10    3.40
   0  -9   9    3.20    2.10
   0  -9   9    3.90    3.00
   0  -9   9    6.40    4.00
   0  -9   9    3.60    4.40
   0  -9   9    4.80    2.80
  -1   9  -9   65.19    8.00
  -1   9  -9   57.89    6.90
  -1   9  -9   46.60    7.90
   1  -9   9   63.59    8.50
   1  -9   9   62.29    7.40
   1  -9   9   58.89    6.40
   1  -9   9   57.69    8.60
  -2   9  -9   32.00    5.90
   2  -9   9   31.40    5.30
   2  -9   9   33.30    5.70
   2   8  -9    0.20    3.30
   2   8  -9   -0.20    3.30
   2   8  -9   -0.60    4.40
  -2  -8   9   -1.30    2.10
  -2  -8   9    2.60    3.20
   1   8  -9    6.00    2.90
   1   8  -9    9.90    3.70
   1   8  -9    8.10    3.90
   1   8  -9    4.40    2.90
  -1  -8   9    4.80    3.90
  -1  -8   9    8.30    3.70
  -1  -8   9    7.50    2.00
  -1  -8   9    5.00    2.80
   0   8  -9   24.40    4.10
   0   8  -9   20.00    3.50
   0   8  -9   32.90    5.60
   0   8  -9   15.20    4.50
   0  -8   9   27.80    4.20
   0  -8   9   30.00    5.10
   0  -8   9   19.20    4.60
  -1   8  -9  156.98   18.40
  -1   8  -9  208.08   17.30
  -1   8  -9  169.98   16.00
   1  -8   9  182.98   16.70
   1  -8   9  181.18   17.40
   1  -8   9  199.58   17.60
  -2   8  -9   96.49   10.30
   2  -8   9   79.89    9.70
   2  -8   9   86.09    9.70
   2   7  -9   10.70    3.60
   2   7  -9    9.60    3.30
   2   7  -9   17.10    4.40
   2   7  -9   18.20    4.80
  -2  -7   9   11.20    2.80
  -2  -7   9   13.10    3.60
  -2  -7   9    2.50    4.20
   1   7  -9   32.90    4.70
   1   7  -9   40.00    5.40
   1   7  -9   39.50    5.80
   1   7  -9   44.00    6.00
  -1  -7   9   39.30    7.10
  -1  -7   9   37.40    4.40
  -1  -7   9   42.80    5.40
  -1  -7   9   25.20    5.40
   0   7  -9   57.89    6.30
   0   7  -9   43.80    6.90
   0   7  -9   48.80    5.50
   0   7  -9   52.69    6.10
   0   7  -9   80.59    8.20
   0  -7   9   67.59    6.70
   0  -7   9   73.69    8.20
   0  -7   9   72.19    7.60
  -1   7  -9   22.40    4.60
  -1   7  -9   31.00    3.00
  -1   7  -9   41.70    5.50
   1  -7   9   21.10    5.00
   1  -7   9   33.10    4.40
   1  -7   9   30.50    4.70
  -2   7  -9   55.69    7.20
   2  -7   9   42.50    6.10
   2  -7   9   54.59    6.80
   3   6  -9    2.20    4.10
   3   6  -9    3.70    3.90
   3   6  -9    4.10    3.60
  -3  -6   9    1.50    2.30
  -3  -6   9   -1.20    4.60
   2   6  -9    0.10    2.50
   2   6  -9   -3.30    2.60
   2   6  -9    1.10    3.10
  -2  -6   9    3.00    3.60
  -2  -6   9   -0.30    1.80
  -2  -6   9   -2.90    2.80
   1   6  -9   61.99    8.50
   1   6  -9   67.49    7.70
   1   6  -9   81.99    7.60
   1   6  -9   74.69    8.70
  -1  -6   9   83.99    9.10
  -1  -6   9   68.19    6.90
  -1  -6   9   80.99    7.80
   0   6  -9    8.40    1.80
   0   6  -9   10.70    3.30
   0   6  -9    9.10    2.60
   0   6  -9   10.00    1.90
   0   6  -9   13.30    3.60
   0   6  -9    9.60    3.10
   0  -6   9   11.40    3.10
   0  -6   9    8.50    3.20
   0  -6   9    9.10    2.20
  -1   6  -9   11.70    3.20
  -1   6  -9   18.70    3.60
   1  -6   9   11.10    2.90
   1  -6   9   18.60    3.30
   1  -6   9   14.00    3.20
  -2   6  -9   84.59    9.70
  -2   6  -9   71.19    8.40
   2  -6   9   61.49    7.70
   2  -6   9   68.49    8.20
   2  -6   9   46.10    8.00
  -3   6  -9    3.90    5.00
   3  -6   9   -1.60    4.50
   3  -6   9    2.90    2.50
   3   5  -9   -1.20    3.20
   3   5  -9    5.40    3.80
  -3  -5   9    9.60    2.90
  -3  -5   9    2.00    4.60
   2   5  -9   79.49    8.70
   2   5  -9   66.79    8.90
   2   5  -9   86.49    8.30
   2   5  -9   82.59    8.80
  -2  -5   9   88.89    8.70
  -2  -5   9   71.49    7.40
  -2  -5   9   55.09    8.70
   1   5  -9   70.79    6.90
   1   5  -9   69.69    8.00
   1   5  -9   78.49    7.50
   1   5  -9   77.29    8.10
   1   5  -9   69.19    7.70
   1   5  -9   54.09    7.10
  -1  -5   9   50.69    7.90
  -1  -5   9   69.79    7.50
  -1  -5   9   74.99    8.30
  -1  -5   9   69.69    6.50
   0   5  -9   45.40    5.10
   0   5  -9   34.00    3.70
   0   5  -9   42.60    6.00
   0   5  -9   27.00    4.10
   0   5  -9   32.90    4.00
   0   5  -9   30.70    3.70
   0   5  -9   27.20    4.60
   0  -5   9   39.20    4.80
   0  -5   9   35.90    4.60
   0  -5   9   28.40    4.70
   0  -5   9   39.90    5.80
  -1   5  -9    0.80    2.70
  -1   5  -9    0.30    2.60
  -1   5  -9   -1.60    2.40
   1  -5   9    3.30    2.10
   1  -5   9    1.50    2.80
   1  -5   9    2.40    2.30
   1  -5   9    0.30    2.80
  -2   5  -9   69.59    7.70
   2  -5   9   42.00    7.00
   2  -5   9   56.39    7.10
   2  -5   9   59.09    6.80
  -3   5  -9   48.10    7.00
   3  -5   9   42.80    5.60
   3  -5   9   33.90    6.10
   3   4  -9    7.60    3.00
   3   4  -9   20.50    4.10
   3   4  -9    9.60    3.70
  -3  -4   9   19.60    5.20
  -3  -4   9   13.80    3.10
   2   4  -9    4.90    3.00
   2   4  -9    9.20    3.90
   2   4  -9    9.00    3.20
   2   4  -9   10.40    3.00
   2   4  -9    7.90    3.00
  -2  -4   9    8.70    2.90
  -2  -4   9    6.00    3.20
  -2  -4   9   13.40    2.50
   1   4  -9   31.60    7.10
   1   4  -9   25.30    3.90
   1   4  -9   29.70    4.20
   1   4  -9   30.30    4.50
   1   4  -9   29.20    4.20
   1   4  -9   27.90    3.80
  -1  -4   9   28.70    4.50
  -1  -4   9   25.60    4.50
  -1  -4   9   40.50    5.30
   0   4  -9   57.89    6.20
   0   4  -9   83.69    7.50
   0   4  -9   64.99    7.70
   0   4  -9   79.79    6.40
   0   4  -9   72.89    7.00
   0   4  -9   51.69    6.30
   0   4  -9   92.09    8.60
   0  -4   9   63.09    7.90
   0  -4   9   75.99    7.40
   0  -4   9   63.19    7.10
  -1   4  -9   31.50    3.10
  -1   4  -9   22.80    4.10
  -1   4  -9   33.00    4.50
  -1   4  -9   34.30    4.50
   1  -4   9   30.70    4.40
   1  -4   9   22.00    3.70
   1  -4   9   35.20    4.70
   1  -4   9   25.00    3.90
  -2   4  -9  179.88   15.90
  -2   4  -9  192.38   15.90
   2  -4   9  137.39   15.60
   2  -4   9  157.98   15.50
   2  -4   9  163.48   15.50
  -3   4  -9   12.90    4.50
   3  -4   9    7.20    2.90
   3  -4   9   13.40    3.90
   3   3  -9    4.40    3.30
   3   3  -9    2.90    3.10
   3   3  -9    1.90    2.80
  -3  -3   9    2.00    4.50
  -3  -3   9    3.30    2.30
   2   3  -9    0.80    2.10
   2   3  -9   -0.70    2.70
   2   3  -9    1.30    3.20
   2   3  -9    0.90    2.20
   2   3  -9    2.90    3.20
  -2  -3   9    0.10    2.80
  -2  -3   9    1.00    2.90
  -2  -3   9   -2.40    3.80
   1   3  -9   27.70    3.20
   1   3  -9   35.90    4.70
   1   3  -9   35.80    4.50
   1   3  -9   33.00    4.80
   1   3  -9   25.10    3.50
   1   3  -9   29.40    4.00
   1   3  -9   33.70    4.90
  -1  -3   9   20.60    3.50
  -1  -3   9   24.70    4.00
  -1  -3   9   24.40    4.20
  -1  -3   9   26.50    3.90
   0   3  -9  173.08   17.80
   0   3  -9  180.88   17.80
   0   3  -9  243.48   18.80
   0   3  -9  213.78   18.60
   0   3  -9  232.08   19.20
   0   3  -9  198.48   19.10
   0   3  -9  231.98   17.90
   0  -3   9  225.88   20.10
   0  -3   9  218.98   18.50
   0  -3   9  220.88   18.70
   0  -3   9  173.18   18.80
  -1   3  -9   18.40    3.50
  -1   3  -9   12.50    2.20
  -1   3  -9   10.90    3.50
  -1   3  -9   10.10    3.20
   1  -3   9    9.30    2.80
   1  -3   9   12.20    2.90
   1  -3   9   13.60    3.30
   1  -3   9   15.40    3.40
  -2   3  -9  262.07   21.50
  -2   3  -9  204.08   20.90
   2  -3   9  244.48   21.00
   2  -3   9  236.48   21.00
   2  -3   9  219.08   20.90
  -3   3  -9   26.00    5.10
   3  -3   9   24.10    4.30
   3  -3   9   32.50    5.20
   3   2  -9   20.00    4.10
   3   2  -9   25.00    4.10
   3   2  -9   23.50    4.10
  -3  -2   9   30.70    5.70
   2   2  -9   47.80    5.10
   2   2  -9   39.80    5.70
   2   2  -9   42.10    6.50
   2   2  -9   35.40    5.20
   2   2  -9   37.00    5.40
   2   2  -9   39.40    5.50
   2   2  -9   37.20    4.50
  -2  -2   9   23.80    5.00
  -2  -2   9   26.80    5.30
  -2  -2   9   47.80    6.30
   1   2  -9   13.50    3.20
   1   2  -9   19.90    3.30
   1   2  -9   15.30    3.00
   1   2  -9   13.50    3.60
   1   2  -9   20.30    2.50
   1   2  -9   15.00    2.70
   1   2  -9   21.60    3.90
  -1  -2   9   15.70    3.50
  -1  -2   9   16.30    3.00
  -1  -2   9   20.00    3.80
  -1  -2   9   14.20    3.00
   0   2  -9   12.10    3.20
   0   2  -9   13.70    2.00
   0   2  -9   15.30    2.20
   0   2  -9   12.00    2.80
   0   2  -9   12.60    2.10
   0   2  -9   16.00    3.50
   0   2  -9   15.80    3.00
   0  -2   9   12.90    2.90
   0  -2   9   10.50    2.60
   0  -2   9   11.20    3.40
  -1   2  -9    4.80    2.50
  -1   2  -9    1.20    2.60
  -1   2  -9    0.90    2.50
   1  -2   9    0.20    2.40
   1  -2   9    3.90    2.20
   1  -2   9    3.70    2.50
   1  -2   9    5.20    2.50
  -2   2  -9   48.30    5.40
  -2   2  -9   60.09    7.90
  -2   2  -9   42.80    6.50
   2  -2   9   47.80    6.10
   2  -2   9   52.09    6.80
   2  -2   9   54.29    6.60
   2  -2   9   40.20    6.20
   3   1  -9   26.00    5.50
   3   1  -9   31.90    5.20
   3   1  -9   25.30    4.50
   3   1  -9   34.80    5.20
  -3  -1   9   41.60    6.30
   2   1  -9   16.60    4.20
   2   1  -9   18.00    2.80
   2   1  -9   15.30    3.20
   2   1  -9   13.90    3.90
   2   1  -9   21.30    4.40
  -2  -1   9   19.00    3.90
  -2  -1   9   11.80    3.90
   1   1  -9   20.00    3.70
   1   1  -9   28.10    3.40
   1   1  -9   26.50    4.10
   1   1  -9   32.30    4.70
   1   1  -9   31.10    4.20
   1   1  -9   39.20    7.50
  -1  -1   9   31.00    4.80
  -1  -1   9   27.50    4.60
  -1  -1   9   28.80    3.70
  -1  -1   9   21.90    4.10
  -1  -1   9   29.60    4.00
   0   1  -9  652.93   56.09
   0   1  -9  707.43   56.19
   0   1  -9  679.33   56.59
   0   1  -9  681.13   55.59
   0  -1   9  677.73   55.59
   0  -1   9  670.53   55.99
   0  -1   9  661.63   56.19
   0  -1   9  585.34   56.39
   0  -1   9  592.04   56.29
  -1   1  -9    7.30    3.10
  -1   1  -9   11.60    1.60
  -1   1  -9   13.00    2.50
  -1   1  -9   12.20    3.20
  -1   1  -9   12.30    4.00
   1  -1   9   14.20    3.20
   1  -1   9   11.60    1.50
   1  -1   9   15.00    2.90
   1  -1   9   15.00    3.60
   1  -1   9    9.70    3.00
  -2   1  -9   39.50    5.30
  -2   1  -9   37.20    4.60
   2  -1   9   43.70    5.90
   2  -1   9   27.10    5.00
   2  -1   9   44.20    6.10
   2  -1   9   50.99    5.50
   3   0  -9   10.20    2.90
   3   0  -9    5.30    2.30
   3   0  -9    8.30    3.10
   3   0  -9    7.10    4.30
  -3   0   9   10.50    4.40
   2   0  -9    0.50    2.80
   2   0  -9    2.30    2.40
   2   0  -9    0.80    2.70
   2   0  -9    1.20    2.70
   2   0  -9   -0.80    1.80
  -2   0   9    4.20    2.90
  -2   0   9   -1.40    2.90
   1   0  -9   59.89    7.30
   1   0  -9   59.29    6.00
   1   0  -9   52.29    6.60
   1   0  -9   60.49    7.00
   1   0  -9   67.69    7.90
   1   0  -9   73.79    7.10
  -1   0   9   48.10    7.40
  -1   0   9   70.69    6.90
  -1   0   9   61.79    7.10
  -1   0   9   54.59    7.70
  -1   0   9   60.49    6.40
   0   0  -9  182.58   16.10
   0   0  -9  182.18   15.30
   0   0  -9  189.88   15.20
   0   0  -9  135.09   15.40
   0   0  -9  146.29   14.70
   0   0  -9  165.98   14.60
   0   0   9  168.48   15.10
   0   0   9  159.08   15.60
   0   0   9  150.58   15.50
   0   0   9  170.88   15.00
   0   0   9  169.98   14.50
  -1   0  -9    1.60    2.10
  -1   0  -9    1.20    2.40
  -1   0  -9    0.80    2.00
  -1   0  -9    2.40    3.30
   1   0   9    4.00    2.30
   1   0   9    0.50    1.40
   1   0   9   -0.30    2.70
   1   0   9    1.50    2.20
   1   0   9    2.90    2.60
  -2   0  -9   50.79    6.00
  -2   0  -9   53.89    6.30
   2   0   9   56.59    6.70
   2   0   9   49.70    7.20
   3  -1  -9   35.60    4.60
   3  -1  -9   32.40    5.50
   3  -1  -9   42.60    5.80
   3  -1  -9   41.00    5.70
  -3   1   9   39.20    5.80
  -3   1   9   36.70    5.70
   2  -1  -9   49.50    6.40
   2  -1  -9   38.00    6.40
   2  -1  -9   52.59    6.40
   2  -1  -9   51.09    5.50
   2  -1  -9   46.00    6.60
  -2   1   9   45.80    6.30
  -2   1   9   49.60    6.20
   1  -1  -9   37.30    5.70
   1  -1  -9   50.19    7.80
   1  -1  -9   52.39    6.30
   1  -1  -9   55.39    5.40
   1  -1  -9   68.09    7.00
   1  -1  -9   45.20    6.30
  -1   1   9   48.40    6.50
  -1   1   9   52.19    5.80
  -1   1   9   48.50    7.20
  -1   1   9   36.80    6.30
  -1   1   9   52.79    6.10
   0  -1  -9   97.59   11.10
   0  -1  -9  122.39   10.50
   0  -1  -9  109.49   10.00
   0  -1  -9  125.69   11.80
   0  -1  -9   90.79   10.20
   0  -1  -9   96.09   10.60
   0   1   9  114.29   10.40
   0   1   9  110.79   11.20
   0   1   9  112.59   10.00
   0   1   9   93.69   11.20
   0   1   9  113.49   10.70
  -1  -1  -9    3.90    2.30
  -1  -1  -9    4.60    2.50
  -1  -1  -9    2.80    3.00
  -1  -1  -9    7.30    3.90
   1   1   9   -0.20    2.80
   1   1   9    1.60    2.10
   1   1   9    4.20    2.70
   1   1   9   -0.30    1.80
   1   1   9    3.50    3.10
  -2  -1  -9   70.29    8.40
   2   1   9   77.79    9.10
   2   1   9   85.19    9.60
   3  -2  -9   11.00    2.80
   3  -2  -9    9.10    3.20
   3  -2  -9    7.80    3.90
  -3   2   9   13.70    4.40
  -3   2   9    7.50    3.50
   2  -2  -9   28.10    5.60
   2  -2  -9   34.80    5.10
   2  -2  -9   43.50    5.80
   2  -2  -9   23.10    4.20
   2  -2  -9   24.40    3.80
  -2   2   9   35.50    4.60
  -2   2   9   35.70    4.90
   1  -2  -9   -3.00    3.30
   1  -2  -9   -1.20    2.30
   1  -2  -9   -4.40    2.70
   1  -2  -9    3.70    2.50
   1  -2  -9    1.00    3.70
   1  -2  -9   -0.60    1.80
  -1   2   9    0.50    2.30
  -1   2   9    2.70    3.40
  -1   2   9    1.70    2.80
  -1   2   9   -1.70    3.60
  -1   2   9    0.10    2.40
   0  -2  -9   16.50    3.60
   0  -2  -9   19.80    2.70
   0  -2  -9   15.00    3.20
   0  -2  -9    8.60    3.20
   0  -2  -9   13.60    3.50
   0   2   9   18.30    4.20
   0   2   9   14.70    3.40
   0   2   9   15.10    3.30
   0   2   9   16.60    3.00
   0   2   9   10.90    3.60
  -1  -2  -9   17.70    3.30
  -1  -2  -9   19.90    3.20
  -1  -2  -9   19.10    4.50
   1   2   9   21.10    4.50
   1   2   9   20.40    4.50
   1   2   9   20.60    3.20
   1   2   9   18.80    3.70
   1   2   9   23.20    3.30
  -2  -2  -9    8.60    3.60
   2   2   9   11.90    4.10
   2   2   9   11.10    4.70
   3  -3  -9   79.99    8.90
   3  -3  -9   54.89    7.10
   3  -3  -9   66.49    8.60
  -3   3   9   56.19    8.00
   2  -3  -9   13.50    4.10
   2  -3  -9   17.10    4.10
   2  -3  -9   19.30    3.30
   2  -3  -9   15.70    2.90
  -2   3   9   19.00    3.60
  -2   3   9    8.60    3.50
  -2   3   9    7.30    5.50
   1  -3  -9    5.60    2.10
   1  -3  -9    5.20    2.60
   1  -3  -9    6.00    4.50
   1  -3  -9    2.40    2.50
   1  -3  -9   -0.70    2.80
  -1   3   9   -5.50    3.80
  -1   3   9    1.60    2.20
  -1   3   9    1.00    3.20
  -1   3   9    1.50    2.80
   0  -3  -9  149.29   15.40
   0  -3  -9  177.58   15.20
   0  -3  -9  189.18   17.60
   0  -3  -9  135.39   16.10
   0  -3  -9  171.88   16.00
   0  -3  -9  191.68   16.10
   0   3   9  187.18   15.70
   0   3   9  178.88   16.80
   0   3   9  134.19   16.40
   0   3   9  184.18   15.60
  -1  -3  -9   45.50    5.50
   1   3   9   43.50    7.00
   1   3   9   43.70    5.90
   1   3   9   45.80    6.10
   2  -4  -9   -1.10    3.50
   2  -4  -9   -1.70    2.00
   2  -4  -9   -3.00    3.40
  -2   4   9   -2.80    3.50
  -2   4   9    2.00    2.90
   1  -4  -9   24.40    3.90
   1  -4  -9   29.10    5.20
   1  -4  -9   27.40    4.40
   1  -4  -9   49.99    7.70
   1  -4  -9   28.40    5.60
   1  -4  -9   26.30    4.70
  -1   4   9   31.30    4.30
  -1   4   9   34.00    5.00
  -1   4   9   27.60    6.50
  -1   4   9   20.30    5.30
   0  -4  -9   97.99   12.10
   0  -4  -9  117.69   11.00
   0  -4  -9  116.69   10.60
   0   4   9  117.29   11.30
   0   4   9  124.19   13.40
   0   4   9   84.59   12.30
   0   4   9  121.59   11.40
  -1  -4  -9   64.19    7.10
   1   4   9   62.29    7.90
   1   4   9   66.89    9.80
   1   4   9   49.99    7.30
   2  -5  -9   78.39    9.90
   2  -5  -9   60.49    7.20
   2  -5  -9   64.59    8.20
  -2   5   9   54.29    8.20
   1  -5  -9   38.50    4.50
   1  -5  -9   20.40    6.30
  -1   5   9   27.20    6.30
  -1   5   9   36.20    5.60
  -1   5   9   26.40    4.40
   0  -5  -9   12.10    2.70
   0   5   9   15.10    4.00
   0   5   9    6.60    5.30
   0   5   9   10.10    3.60
   1  10 -10    1.70    5.80
   1  10 -10    1.40    4.00
   1  10 -10    4.00    4.00
  -1 -10  10   -1.10    2.60
  -1 -10  10    5.80    4.40
   0  10 -10   25.70    7.20
   0  10 -10   19.30    4.40
   0  10 -10   20.30    4.30
   0 -10  10   12.70    7.30
   0 -10  10   21.80    4.50
  -1  10 -10   54.49    7.10
   1 -10  10   35.80    6.30
   1 -10  10   33.90    5.80
   1   9 -10    1.70    6.90
   1   9 -10   -0.60    3.40
   1   9 -10    0.10    3.20
  -1  -9  10    1.70    3.30
  -1  -9  10   -0.70    5.20
  -1  -9  10   -2.60    2.40
   0   9 -10   52.89    6.30
   0   9 -10   30.90    6.80
   0   9 -10   28.90    4.70
   0  -9  10   39.50    5.60
   0  -9  10   36.60    6.60
   0  -9  10   34.40    6.30
  -1   9 -10   29.60    5.30
   1  -9  10   32.70    5.20
   1  -9  10   24.60    5.70
  -2   9 -10   30.20    6.20
   2  -9  10   29.50    5.60
   2  -9  10   23.00    5.30
   2   8 -10   25.20    6.20
   2   8 -10   17.50    4.60
   2   8 -10   14.40    4.60
  -2  -8  10   17.90    3.40
  -2  -8  10   18.10    4.50
   1   8 -10    8.20    3.20
   1   8 -10    6.20    4.10
   1   8 -10   11.20    4.80
   1   8 -10    9.50    3.60
   1   8 -10    3.60    4.20
  -1  -8  10   13.70    3.20
  -1  -8  10    8.20    2.50
  -1  -8  10   11.60    6.20
  -1  -8  10    7.90    4.60
   0   8 -10   36.30    5.30
   0   8 -10   39.90    6.90
   0   8 -10   38.90    6.10
   0   8 -10   41.10    5.70
   0  -8  10   44.10    6.00
   0  -8  10   42.00    6.60
   0  -8  10   40.40    6.40
  -1   8 -10   11.50    3.30
  -1   8 -10   10.10    5.70
   1  -8  10    5.30    3.10
   1  -8  10    8.50    3.50
  -2   8 -10   57.49    7.80
   2  -8  10   49.80    7.80
   2  -8  10   51.89    7.00
   2   7 -10   35.40    5.40
   2   7 -10   24.80    5.70
   2   7 -10   28.90    4.90
  -2  -7  10   22.60    4.90
  -2  -7  10   31.80    4.20
   1   7 -10   28.80    4.40
   1   7 -10   39.60    5.00
   1   7 -10   23.40    4.40
   1   7 -10   26.20    5.00
  -1  -7  10   31.70    4.60
  -1  -7  10   36.40    3.90
  -1  -7  10   23.80    5.50
  -1  -7  10   39.10    6.10
   0   7 -10   87.09    8.30
   0   7 -10   92.69    8.70
   0   7 -10   87.39    8.80
   0   7 -10  100.99   10.90
   0  -7  10   72.39    9.90
   0  -7  10  107.79   10.80
   0  -7  10   95.59    9.20
  -1   7 -10   76.39    8.10
   1  -7  10   51.19    8.00
   1  -7  10   60.69    8.50
   1  -7  10   60.39    7.40
  -2   7 -10   64.99    8.90
   2  -7  10   46.20    7.40
   2  -7  10   53.99    7.30
   2   6 -10   33.60    5.20
   2   6 -10   35.00    5.70
   2   6 -10   26.20    4.80
  -2  -6  10   33.90    5.30
  -2  -6  10   30.80    4.20
   1   6 -10   13.80    3.60
   1   6 -10   15.80    3.10
   1   6 -10   17.40    4.40
   1   6 -10    9.50    3.40
   1   6 -10   16.70    3.50
  -1  -6  10   18.00    3.60
  -1  -6  10   11.10    4.20
  -1  -6  10   16.80    4.50
   0   6 -10   22.10    4.40
   0   6 -10   29.60    5.00
   0   6 -10   26.30    3.60
   0   6 -10   38.40    4.80
   0   6 -10   28.40    3.30
   0  -6  10   39.90    5.70
   0  -6  10   22.90    4.50
   0  -6  10   29.80    4.10
  -1   6 -10   11.50    3.70
  -1   6 -10    4.90    3.70
   1  -6  10    5.00    2.70
   1  -6  10    4.30    3.80
   1  -6  10    4.60    3.00
  -2   6 -10   24.80    5.20
   2  -6  10   10.70    4.20
   2  -6  10   12.00    3.70
   3   5 -10    7.00    3.70
   3   5 -10   -5.10    4.10
   3   5 -10    1.40    3.70
  -3  -5  10    3.80    6.00
  -3  -5  10    2.40    2.60
   2   5 -10    7.30    3.30
   2   5 -10   11.00    3.70
   2   5 -10   12.10    3.40
   2   5 -10    3.30    3.60
  -2  -5  10   12.70    2.60
  -2  -5  10   13.50    3.80
   1   5 -10    2.70    2.70
   1   5 -10    1.00    2.80
   1   5 -10    2.10    3.00
   1   5 -10    2.60    2.00
   1   5 -10    0.20    2.30
   1   5 -10    1.30    1.60
  -1  -5  10    0.10    2.60
  -1  -5  10   -2.60    3.20
  -1  -5  10    2.30    3.50
   0   5 -10   41.90    6.30
   0   5 -10   39.10    4.70
   0   5 -10   47.90    4.70
   0   5 -10   46.10    6.10
   0   5 -10   62.39    8.00
   0   5 -10   39.90    4.90
   0  -5  10   46.70    7.10
   0  -5  10   53.09    6.80
   0  -5  10   45.20    5.70
  -1   5 -10    9.60    3.70
  -1   5 -10    4.30    3.60
   1  -5  10    9.10    3.40
   1  -5  10    7.60    2.90
   1  -5  10   10.40    3.40
  -2   5 -10   81.99    9.30
   2  -5  10   60.59    8.00
   2  -5  10   63.79    8.40
   3   4 -10   23.80    4.70
   3   4 -10   28.60    5.40
   3   4 -10   11.70    4.60
  -3  -4  10   31.80    7.00
  -3  -4  10   19.30    3.50
   2   4 -10   15.50    4.10
   2   4 -10   17.40    4.30
   2   4 -10   14.70    3.50
   2   4 -10   15.10    3.70
  -2  -4  10   11.10    4.90
  -2  -4  10   16.40    4.30
   1   4 -10    8.40    2.40
   1   4 -10    3.50    2.40
   1   4 -10    3.10    1.70
   1   4 -10    5.20    2.70
   1   4 -10    2.80    3.70
   1   4 -10    7.80    3.10
  -1  -4  10    0.30    3.20
  -1  -4  10    4.20    2.70
  -1  -4  10    7.50    2.80
   0   4 -10   10.40    3.10
   0   4 -10    9.80    2.10
   0   4 -10   12.50    2.00
   0   4 -10   11.60    4.00
   0   4 -10   13.10    3.70
   0  -4  10   14.20    3.10
   0  -4  10   17.10    3.90
   0  -4  10   12.50    3.80
  -1   4 -10    8.20    2.10
  -1   4 -10    6.70    3.30
   1  -4  10    5.80    2.70
   1  -4  10   13.00    3.70
   1  -4  10    6.60    3.40
  -2   4 -10  123.59   11.80
   2  -4  10   92.09   11.10
   2  -4  10  108.29   11.10
   3   3 -10    2.70    3.20
   3   3 -10    3.90    3.50
   3   3 -10   -6.40    3.40
  -3  -3  10   -2.90    5.10
   2   3 -10   21.00    4.10
   2   3 -10   23.00    3.80
   2   3 -10   14.50    3.90
   2   3 -10   16.70    3.00
   2   3 -10   18.10    4.00
  -2  -3  10   22.30    4.30
  -2  -3  10   13.50    4.20
   1   3 -10   33.20    4.90
   1   3 -10   31.80    4.20
   1   3 -10   39.40    5.30
   1   3 -10   32.10    4.50
   1   3 -10   38.70    4.00
   1   3 -10   33.80    5.30
  -1  -3  10   25.10    5.10
  -1  -3  10   42.30    5.30
  -1  -3  10   27.90    5.00
   0   3 -10  266.97   22.90
   0   3 -10  250.57   21.30
   0   3 -10  291.77   22.40
   0   3 -10  197.28   22.40
   0   3 -10  224.98   21.20
   0  -3  10  246.08   22.40
   0  -3  10  230.98   22.00
   0  -3  10  267.97   22.70
   0  -3  10  261.07   22.10
  -1   3 -10  145.89   15.50
  -1   3 -10  168.48   17.00
   1  -3  10  183.68   16.90
   1  -3  10  214.88   16.70
   1  -3  10  182.58   16.90
   1  -3  10  179.38   16.50
  -2   3 -10   34.80    5.60
   2  -3  10   38.20    5.50
   2  -3  10   34.20    5.80
   2  -3  10   32.50    5.20
   3   2 -10    0.00    3.60
   3   2 -10    8.00    3.50
   3   2 -10    2.70    3.20
  -3  -2  10   -0.90    5.30
   2   2 -10    7.30    4.20
   2   2 -10    4.10    2.60
   2   2 -10    1.70    2.20
   2   2 -10    7.20    3.10
   2   2 -10    5.40    3.20
  -2  -2  10   -2.60    4.30
  -2  -2  10    8.40    3.70
   1   2 -10  141.79   13.30
   1   2 -10  140.29   12.20
   1   2 -10  152.48   12.70
   1   2 -10   99.39   11.60
   1   2 -10  106.79   11.30
   1   2 -10  113.49   12.00
   1   2 -10  137.29   11.20
  -1  -2  10  100.59   12.50
  -1  -2  10  123.39   12.80
  -1  -2  10  136.59   11.90
   0   2 -10  102.19   10.80
   0   2 -10  111.39   12.20
   0   2 -10  127.69   11.10
   0   2 -10  152.48   13.30
   0   2 -10  102.89   10.90
   0   2 -10  143.79   12.10
   0  -2  10  120.49   12.50
   0  -2  10  125.09   12.40
   0  -2  10  126.89   11.90
   0  -2  10  136.49   11.90
  -1   2 -10   43.60    5.40
  -1   2 -10   52.09    7.80
  -1   2 -10   57.09    7.00
   1  -2  10   46.10    7.20
   1  -2  10   43.00    7.00
   1  -2  10   45.60    6.60
   1  -2  10   52.49    6.80
  -2   2 -10   36.40    4.80
  -2   2 -10   39.70    6.00
   2  -2  10   56.79    6.70
   2  -2  10   46.80    6.40
   3   1 -10   23.50    5.10
   3   1 -10   26.70    4.00
   3   1 -10   19.90    4.70
   3   1 -10   25.70    4.80
  -3  -1  10   27.40    6.10
   2   1 -10   25.80    4.80
   2   1 -10   26.20    4.80
   2   1 -10   20.80    4.40
   2   1 -10   24.00    3.70
   2   1 -10   21.00    5.20
  -2  -1  10   29.90    5.20
   1   1 -10   49.99    6.70
   1   1 -10   54.39    5.60
   1   1 -10   53.59    8.00
   1   1 -10   54.99    7.20
   1   1 -10   65.49    7.00
   1   1 -10   53.49    7.40
  -1  -1  10   36.50    6.50
  -1  -1  10   60.09    7.90
  -1  -1  10   63.39    6.20
   0   1 -10   27.70    3.40
   0   1 -10   16.50    4.10
   0   1 -10   13.00    3.10
   0   1 -10   26.40    4.00
   0   1 -10   24.80    5.10
   0  -1  10   24.10    3.90
   0  -1  10   24.90    4.60
   0  -1  10   20.10    2.80
   0  -1  10   23.20    4.80
   0  -1  10   20.90    3.70
  -1   1 -10    0.30    2.20
  -1   1 -10    1.90    3.20
  -1   1 -10    5.90    3.20
   1  -1  10    1.10    3.40
   1  -1  10    1.20    3.00
   1  -1  10    2.40    2.90
   1  -1  10    2.60    3.00
  -2   1 -10   85.29    9.20
  -2   1 -10   88.59    8.90
   2  -1  10   87.49    9.60
   2  -1  10   88.69   10.20
   3   0 -10   -3.00    2.90
   3   0 -10    2.30    2.20
   3   0 -10    6.40    3.40
  -3   0  10   -2.20    4.70
   2   0 -10   10.70    3.90
   2   0 -10   11.30    4.30
   2   0 -10   10.10    4.50
   2   0 -10   14.10    2.90
   2   0 -10   10.90    3.50
  -2   0  10   13.20    3.60
  -2   0  10    3.40    4.00
  -2   0  10   22.70    4.10
   1   0 -10  105.49   10.30
   1   0 -10   73.59   10.20
   1   0 -10   98.99   10.30
   1   0 -10  118.99   11.70
   1   0 -10   95.29    9.20
   1   0 -10  105.99   10.20
  -1   0  10  110.59    9.70
  -1   0  10  102.09   12.50
  -1   0  10   77.89   10.70
  -1   0  10   99.99   10.00
   0   0 -10    7.70    4.50
   0   0 -10    2.10    3.00
   0   0 -10    5.40    2.30
   0   0 -10    3.10    2.60
   0   0 -10    1.50    2.50
   0   0  10    6.60    3.50
   0   0  10    6.50    3.10
   0   0  10    2.30    3.30
   0   0  10    2.90    1.90
   0   0  10    5.40    3.10
  -1   0 -10   34.40    4.80
  -1   0 -10   24.00    3.90
   1   0  10   32.70    4.90
   1   0  10   21.90    3.00
   1   0  10   24.00    4.10
   1   0  10   29.10    5.10
   1   0  10   31.90    5.70
  -2   0 -10    5.90    3.10
   2   0  10    3.40    3.30
   2   0  10    3.40    3.40
   3  -1 -10    1.90    3.80
   3  -1 -10    0.80    3.60
   3  -1 -10    2.00    2.50
  -3   1  10    1.60    4.60
   2  -1 -10    3.70    3.60
   2  -1 -10    7.00    3.70
   2  -1 -10    6.30    2.50
  -2   1  10    2.30    5.10
  -2   1  10   12.10    3.70
  -2   1  10   12.70    3.70
   1  -1 -10    3.80    3.50
   1  -1 -10   -0.50    2.40
   1  -1 -10    5.40    4.10
   1  -1 -10    0.80    3.10
   1  -1 -10    5.00    3.40
   1  -1 -10    1.70    2.10
  -1   1  10    5.90    2.60
  -1   1  10    4.50    2.80
  -1   1  10   11.20    4.50
  -1   1  10    1.20    3.20
   0  -1 -10   28.60    6.10
   0  -1 -10   24.40    3.60
   0  -1 -10   22.40    4.80
   0  -1 -10   18.60    4.00
   0  -1 -10   23.00    4.30
   0   1  10   22.20    4.90
   0   1  10   23.80    4.30
   0   1  10   28.40    3.70
   0   1  10   29.90    5.10
  -1  -1 -10   56.89    7.10
  -1  -1 -10   50.99    6.30
   1   1  10   61.59    8.40
   1   1  10   45.90    5.90
   1   1  10   67.89    7.60
   2  -2 -10   -1.20    2.10
   2  -2 -10   -1.10    3.20
   2  -2 -10    0.20    3.00
   2  -2 -10    0.10    3.50
  -2   2  10    1.60    3.60
  -2   2  10    2.50    3.50
   1  -2 -10   69.99    8.40
   1  -2 -10   69.09    7.10
   1  -2 -10   71.19   10.60
   1  -2 -10   66.29    8.10
  -1   2  10   54.99    8.60
  -1   2  10   74.49    8.10
  -1   2  10   75.19    9.50
   0  -2 -10   66.99    7.00
   0  -2 -10   56.09    8.80
   0  -2 -10   51.99    7.40
   0   2  10   65.49    7.30
   0   2  10   61.69    8.20
   0   2  10   72.99    9.70
   0   2  10   85.89    8.20
   0   2  10   61.39    8.40
  -1  -2 -10   64.49    7.00
   1   2  10   68.99    9.50
   1   2  10   79.79    8.50
   1   2  10   49.30    7.00
   2  -3 -10   10.80    4.40
   2  -3 -10    6.20    4.10
   2  -3 -10    5.40    2.40
  -2   3  10    9.50    4.20
  -2   3  10    5.70    3.80
   1  -3 -10   36.90    4.70
   1  -3 -10   43.50    5.70
   1  -3 -10   42.90    8.10
   1  -3 -10   51.59    6.10
   1  -3 -10   29.00    5.70
  -1   3  10   30.40    5.20
  -1   3  10   29.70    6.80
  -1   3  10   50.99    5.90
   0  -3 -10   11.20    4.00
   0  -3 -10   15.30    3.70
   0  -3 -10   19.90    3.10
   0   3  10   21.10    4.10
   0   3  10   16.70    4.30
   0   3  10   17.20    5.40
   1  -4 -10   40.10    7.30
   1  -4 -10   56.49    8.10
   1  -4 -10   61.09    6.20
  -1   4  10   49.60    6.50
  -1   4  10   66.19    8.10
   0  -4 -10   25.50    4.00
   0   4  10   26.70    4.90
   0   4  10   18.80    6.00
   0   4  10   23.40    5.10
   1   9 -11   11.20    4.10
   1   9 -11   10.70    4.50
   1   9 -11   15.60    6.30
  -1  -9  11    8.00    4.10
  -1  -9  11   13.60    3.20
   0   9 -11   66.99    8.60
   0   9 -11   70.79    7.60
   0  -9  11   59.99    7.80
   0  -9  11   55.89    8.60
  -1   9 -11   64.09    8.20
   1  -9  11   50.19    8.00
   1  -9  11   41.10    6.60
   1   8 -11   22.50    4.30
   1   8 -11   24.40    4.70
  -1  -8  11   24.00    4.60
  -1  -8  11   15.50    6.10
   0   8 -11   19.40    4.00
   0   8 -11   11.90    3.20
   0   8 -11   13.40    5.00
   0  -8  11   13.00    4.70
   0  -8  11   11.00    3.60
   0  -8  11   20.70    5.80
  -1   8 -11   35.00    5.50
   1  -8  11   19.60    4.70
   1  -8  11   24.00    4.60
   2   7 -11   12.40    4.60
   2   7 -11   15.30    4.40
   2   7 -11    6.50    5.60
  -2  -7  11   10.50    3.30
  -2  -7  11   20.00    4.90
   1   7 -11    3.10    2.90
   1   7 -11   12.30    4.70
   1   7 -11    6.50    4.00
   1   7 -11    1.50    2.90
  -1  -7  11    5.10    3.30
  -1  -7  11    2.70    4.00
   0   7 -11    0.40    5.00
   0   7 -11    1.30    2.20
   0   7 -11    6.70    3.50
   0   7 -11    0.80    3.80
   0  -7  11    8.10    4.70
   0  -7  11   -6.60    3.20
   0  -7  11    5.90    2.90
  -1   7 -11   47.20    6.50
   1  -7  11   33.50    5.30
   1  -7  11   32.80    5.80
   2   6 -11   16.80    4.20
   2   6 -11   20.20    4.50
   2   6 -11   14.40    4.60
  -2  -6  11   19.60    4.70
  -2  -6  11   12.70    3.20
   1   6 -11   18.50    4.50
   1   6 -11   16.20    3.00
   1   6 -11   25.10    4.00
   1   6 -11   27.00    5.50
   1   6 -11   29.90    5.50
   1   6 -11   30.40    4.70
  -1  -6  11   23.50    4.20
  -1  -6  11   16.60    5.00
  -1  -6  11   26.10    6.10
   0   6 -11    3.40    5.50
   0   6 -11    1.80    2.30
   0   6 -11    2.10    1.90
   0   6 -11   -0.80    1.90
   0   6 -11   -3.60    3.40
   0   6 -11    1.10    3.30
   0  -6  11   -0.90    2.30
   0  -6  11    1.30    4.40
   0  -6  11   -1.20    3.30
  -1   6 -11   65.89    8.50
   1  -6  11   52.79    8.20
   1  -6  11   50.29    6.70
  -2   6 -11   98.79   11.30
   2  -6  11   63.19    9.00
   2  -6  11   76.19    9.70
   2   5 -11    7.00    3.50
   2   5 -11   16.50    4.50
   2   5 -11    4.90    3.40
  -2  -5  11    5.10    4.20
   1   5 -11   22.80    5.40
   1   5 -11   15.30    4.60
   1   5 -11   18.30    2.90
   1   5 -11   26.80    4.40
   1   5 -11   19.00    3.50
   1   5 -11   17.80    4.20
  -1  -5  11   24.50    5.30
  -1  -5  11   23.30    4.30
  -1  -5  11   16.00    5.00
   0   5 -11    6.30    4.20
   0   5 -11    6.10    3.30
   0   5 -11    6.90    2.00
   0   5 -11   11.40    4.10
   0   5 -11    4.50    2.20
   0   5 -11    7.80    2.10
   0  -5  11    6.40    2.90
   0  -5  11    6.90    3.60
   0  -5  11    2.00    2.90
  -1   5 -11  105.79   11.70
   1  -5  11   99.79   10.90
   1  -5  11  113.19   11.80
  -2   5 -11    4.50    4.80
   2  -5  11   -1.60    4.10
   2  -5  11    4.10    3.90
   2   4 -11    2.80    3.40
   2   4 -11    3.10    2.10
   2   4 -11   -0.20    3.30
   2   4 -11    7.80    3.50
  -2  -4  11    4.30    4.00
   1   4 -11  101.59    9.20
   1   4 -11   92.19   10.90
   1   4 -11   80.89    8.40
   1   4 -11   69.99    8.90
   1   4 -11   80.49   10.00
   1   4 -11   63.49    7.70
  -1  -4  11   64.29   10.10
  -1  -4  11   94.39    9.10
  -1  -4  11   94.69   10.60
   0   4 -11   14.90    2.30
   0   4 -11   12.60    2.40
   0   4 -11   24.40    4.50
   0   4 -11   17.30    4.50
   0   4 -11   14.10    4.30
   0   4 -11   19.00    2.80
   0  -4  11   15.90    4.20
   0  -4  11    8.10    3.20
   0  -4  11    9.00    4.20
  -1   4 -11  184.08   16.10
   1  -4  11  141.09   16.00
   1  -4  11  165.28   15.40
  -2   4 -11   42.70    7.40
   2  -4  11   65.39    8.30
   2  -4  11   51.59    7.30
   2   3 -11    1.80    3.00
   2   3 -11    1.60    3.90
   2   3 -11    6.40    3.50
   2   3 -11    0.20    2.30
  -2  -3  11    4.90    4.00
   1   3 -11    0.40    1.90
   1   3 -11    2.10    3.10
   1   3 -11    0.10    2.00
   1   3 -11   -0.20    3.60
   1   3 -11    0.10    2.80
   1   3 -11   -5.00    3.20
  -1  -3  11    1.80    3.80
  -1  -3  11    5.40    3.00
  -1  -3  11   -0.90    3.90
   0   3 -11   -5.30    3.00
   0   3 -11    0.80    1.60
   0   3 -11    0.90    2.00
   0   3 -11    0.00    4.00
   0   3 -11   -1.70    2.00
   0   3 -11    0.70    3.40
   0  -3  11    2.10    3.30
   0  -3  11    0.30    3.50
   0  -3  11    0.50    2.60
  -1   3 -11   36.50    4.40
  -1   3 -11   41.60    6.00
   1  -3  11   31.60    5.30
   1  -3  11   37.20    5.50
  -2   3 -11   47.20    7.60
   2  -3  11   64.79    8.90
   2  -3  11   60.09    8.00
   2   2 -11    3.20    2.30
   2   2 -11    4.90    3.30
   2   2 -11    2.00    3.40
   2   2 -11   10.20    4.40
  -2  -2  11   10.20    4.20
   1   2 -11  240.98   22.70
   1   2 -11  221.38   22.90
   1   2 -11  214.38   23.70
   1   2 -11  277.77   22.50
   1   2 -11  309.97   23.70
  -1  -2  11  274.47   24.20
  -1  -2  11  286.07   23.30
   0   2 -11   14.50    3.80
   0   2 -11    8.30    3.10
   0   2 -11   11.10    2.70
   0   2 -11   11.60    2.30
   0   2 -11    8.90    4.10
   0   2 -11   13.10    4.20
   0  -2  11   11.60    4.30
   0  -2  11   15.10    3.40
   0  -2  11    6.70    3.80
  -1   2 -11   49.50    6.60
  -1   2 -11   32.60    4.90
   1  -2  11   38.90    6.60
   1  -2  11   46.80    6.10
   2   1 -11   36.20    6.00
   2   1 -11   32.20    4.40
   2   1 -11   29.40    5.50
  -2  -1  11   32.10    5.60
   1   1 -11   65.29    7.40
   1   1 -11   55.19    7.80
   1   1 -11   42.60    5.50
  -1  -1  11   44.70    7.50
  -1  -1  11   61.99    7.10
  -1  -1  11   44.30    7.10
   0   1 -11   -2.50    2.10
   0   1 -11    2.40    5.10
   0   1 -11   -2.10    3.50
   0   1 -11   -3.20    2.50
   0   1 -11   -0.20    3.30
   0  -1  11   -3.30    3.70
   0  -1  11    2.00    3.70
   0  -1  11    0.30    3.20
  -1   1 -11   55.59    8.00
  -1   1 -11   53.49    6.40
   1  -1  11   59.39    7.70
   1  -1  11   59.39    8.60
   1  -1  11   56.79    7.90
   2   0 -11    8.20    2.90
   2   0 -11    4.30    3.60
   2   0 -11   10.60    4.20
  -2   0  11    8.40    3.80
  -2   0  11   13.90    4.30
   1   0 -11   31.60    4.40
   1   0 -11   44.90    5.80
   1   0 -11   41.90    6.00
   1   0 -11   38.80    6.40
   1   0 -11   39.20    7.00
  -1   0  11   29.90    6.20
  -1   0  11   44.20    5.70
  -1   0  11   36.40    5.10
  -1   0  11   31.20    6.10
   0   0 -11    2.10    3.10
   0   0 -11    9.00    4.30
   0   0 -11    4.20    2.60
   0   0  11    8.80    4.30
   0   0  11    5.80    2.40
   0   0  11    8.30    3.50
   0   0  11    4.10    3.30
  -1   0 -11   73.29    9.20
  -1   0 -11   69.19    8.00
   1   0  11   77.19   10.30
   1   0  11   82.79    9.30
   2  -1 -11    1.50    3.40
   2  -1 -11   -2.00    3.90
   2  -1 -11    2.00    2.40
  -2   1  11   -3.80    3.70
  -2   1  11   -1.00    4.10
   1  -1 -11    9.40    2.60
   1  -1 -11    9.40    5.30
   1  -1 -11   10.90    3.70
   1  -1 -11    0.20    3.50
  -1   1  11    7.00    3.60
  -1   1  11    5.70    5.00
  -1   1  11    5.20    5.40
   0  -1 -11   19.00    4.30
   0  -1 -11   12.70    3.00
   0  -1 -11    4.60    3.50
   0   1  11   16.00    4.20
   0   1  11   14.20    3.10
   0   1  11    7.40    3.90
   0   1  11    9.30    4.40
  -1  -1 -11    0.30    2.80
   1   1  11   -0.30    4.10
   1   1  11    0.50    4.30
   2  -2 -11   -5.30    4.20
   2  -2 -11    1.70    2.90
  -2   2  11   -1.30    3.90
   1  -2 -11   73.19    9.90
   1  -2 -11   87.99    8.30
  -1   2  11   72.99    9.40
  -1   2  11   90.49    9.50
   0  -2 -11   23.80    3.90
   0  -2 -11   28.50    5.10
   0   2  11   26.90    4.40
   0   2  11   34.00    5.80
   0   2  11   20.80    5.50
   1   8 -12   23.80    5.70
   1   8 -12   39.50    6.20
   1   8 -12   19.80    7.10
   1   8 -12   31.50    4.20
  -1  -8  12   35.00    5.20
   0   8 -12   40.30    5.90
   0  -8  12   24.50    4.90
   0  -8  12   27.20    6.20
   1   7 -12    6.50    2.50
   1   7 -12    5.70    3.40
   1   7 -12    7.30    3.90
   1   7 -12   12.50    5.20
  -1  -7  12   16.40    3.90
   0   7 -12   -1.50    4.30
   0  -7  12    0.20    5.20
   0  -7  12    4.30    3.30
  -1   7 -12   25.50    6.20
   1  -7  12   16.80    4.60
   1  -7  12   27.50    6.10
   1   6 -12    6.60    2.50
   1   6 -12    7.70    4.70
   1   6 -12   10.20    3.80
   1   6 -12   11.60    3.40
  -1  -6  12    5.20    3.50
  -1  -6  12   12.70    5.30
   0   6 -12    3.40    4.20
   0   6 -12    3.80    4.10
   0  -6  12    3.80    3.10
   0  -6  12    2.70    5.00
  -1   6 -12   46.40    7.30
   1  -6  12   38.50    6.90
   1  -6  12   37.60    6.10
   2   5 -12   -8.30    4.00
   2   5 -12    2.20    2.70
   2   5 -12    9.90    5.10
   2   5 -12    1.00    3.90
  -2  -5  12    0.90    5.10
   1   5 -12    3.50    4.60
   1   5 -12   -0.70    2.20
   1   5 -12   -0.10    3.70
   1   5 -12    0.50    2.60
  -1  -5  12   -3.30    4.40
  -1  -5  12   -1.10    3.20
   0   5 -12    7.10    2.80
   0   5 -12    7.20    5.20
   0   5 -12   10.70    4.00
   0  -5  12    3.60    3.60
   0  -5  12    4.60    6.30
  -1   5 -12  108.49   12.20
   1  -5  12   88.99   10.60
   1  -5  12   92.99   11.90
   2   4 -12   12.70    4.10
   2   4 -12    1.70    4.50
   2   4 -12    4.00    4.00
   2   4 -12    4.40    2.60
  -2  -4  12    5.60    4.90
   1   4 -12   67.09    8.50
   1   4 -12  105.39   10.60
   1   4 -12  113.59   12.60
   1   4 -12   90.29    9.30
   1   4 -12   83.19   11.40
  -1  -4  12   92.89   10.00
  -1  -4  12   77.69   11.70
   0   4 -12   76.49   10.40
   0   4 -12   59.19    7.30
   0   4 -12   86.99    9.50
   0  -4  12   70.49    8.70
  -1   4 -12   16.60    5.20
   1  -4  12   14.60    5.20
   1  -4  12    9.00    4.30
   2   3 -12   70.39    8.90
   2   3 -12   44.60    6.30
   2   3 -12   62.79    8.10
   2   3 -12   85.09   10.80
  -2  -3  12   57.19    8.10
   1   3 -12   52.09    6.40
   1   3 -12   60.89    7.50
   1   3 -12   38.00    5.10
   1   3 -12   44.30    7.80
  -1  -3  12   58.39    7.70
  -1  -3  12   44.40    7.90
   0   3 -12   13.70    5.50
   0   3 -12   25.10    5.30
   0   3 -12   16.10    3.20
   0  -3  12   13.40    4.00
   0  -3  12   16.10    7.00
  -1   3 -12   44.70    5.50
  -1   3 -12   51.79    7.50
   1  -3  12   43.50    6.90
   1  -3  12   46.10    6.70
   2   2 -12   -4.20    3.40
   2   2 -12    6.90    4.40
   2   2 -12    4.40    2.60
   2   2 -12   -5.80    4.50
  -2  -2  12    1.20    4.80
   1   2 -12   -0.40    7.10
   1   2 -12   -0.20    2.80
   1   2 -12   -3.60    4.60
   1   2 -12   -4.10    3.60
   1   2 -12    1.50    2.10
  -1  -2  12   -4.00    3.20
  -1  -2  12    1.00    5.20
   0   2 -12   -0.50    4.10
   0   2 -12   -0.70    4.10
   0   2 -12   -0.40    2.50
   0  -2  12   -1.50    4.30
   0  -2  12    5.80    3.60
  -1   2 -12   59.59    7.60
  -1   2 -12   72.29   10.00
   1  -2  12   65.89    9.50
   1  -2  12   76.89   10.10
   2   1 -12   34.00    5.60
   2   1 -12   35.40    6.30
   2   1 -12   28.70    4.80
   2   1 -12   41.50    6.60
  -2  -1  12   44.70    6.80
   1   1 -12    1.10    2.20
   1   1 -12   -5.90    4.00
   1   1 -12    4.30    4.00
  -1  -1  12    0.70    3.60
  -1  -1  12   -4.20    4.80
   0   1 -12   17.40    5.00
   0   1 -12   14.30    3.20
   0  -1  12   19.70    4.50
   0  -1  12    9.30    5.50
   1   0 -12   20.50    5.00
   1   0 -12    0.40    6.90
   1   0 -12    7.00    2.90
  -1   0  12    9.10    4.20
  -1   0  12    8.60    4.00
   0   0 -12   21.50    4.00
   0   0 -12   26.00    5.70
   0   0  12   25.20    5.30
   0   0  12   21.80    6.10
   0   5 -13   59.89    7.50
   0  -5  13   36.80    6.30
   0  -5  13   37.70    7.50
   1   4 -13    0.70    5.30
   1   4 -13    3.90    2.40
   1   4 -13   -2.50    4.60
  -1  -4  13   -1.30    4.20
   0   4 -13   22.20    5.70
   0   4 -13   11.30    3.70
   0  -4  13   23.60    5.10
   0  -4  13   21.80    6.60
_computing_structure_solution     'SHELXT 2014/4 (Sheldrick, 2014)'
;
_shelx_hkl_checksum              2608
_shelx_res_file
;
    Cuoxbpa_a.res created by SHELXL-2014/7
TITL Cuoxbpa_a.res in P-1
CELL  0.71073   3.8486  10.2380  10.6080  109.382   95.641   97.930
ZERR    1.000   0.0001   0.0003   0.0004    0.002    0.002    0.002
LATT 1
SFAC C  H  N  O  Cu
UNIT 16  14  2  8  1
L.S. 40
ACTA
BOND $H
FMAP 2
PLAN 20
SIZE 0.03 0.04 0.90
TEMP -273.150
WGHT    0.042300    0.275200
FVAR       0.66916
CU1   5    0.000000    0.500000    0.000000    10.50000    0.03947    0.02102 =
         0.01814    0.00160   -0.00867    0.00929
O1    4    0.078261    0.681069    0.140092    11.00000    0.04415    0.02386 =
         0.02306    0.00271   -0.00904    0.01137
O2    4    0.359426    0.787298    0.352049    11.00000    0.04595    0.02687 =
         0.02382   -0.00227   -0.00949    0.00995
O3    4    0.327275    0.450207    0.120586    11.00000    0.04834    0.02447 =
         0.02139    0.00137   -0.01121    0.01204
O4    4    0.607590    0.543344    0.332622    11.00000    0.04757    0.03096 =
         0.02367    0.00689   -0.01124    0.01129
N1    3   -0.133180    0.766502    0.568899    11.00000    0.02879    0.03152 =
         0.01661    0.00185   -0.00208    0.00191
AFIX  43
H1    2   -0.250314    0.712679    0.488786    11.00000   -1.20000
AFIX   0
C1    1    0.277875    0.686477    0.246794    11.00000    0.02682    0.02310 =
         0.02047    0.00531   -0.00132    0.00369
C2    1    0.418681    0.549038    0.234954    11.00000    0.02931    0.02525 =
         0.02266    0.00816   -0.00125    0.00365
C3    1    0.022086    0.707158    0.647400    11.00000    0.03610    0.02097 =
         0.02933    0.00339    0.00228    0.00571
AFIX  43
H3    2    0.006021    0.607847    0.616494    11.00000   -1.20000
AFIX   0
C4    1    0.207163    0.788824    0.773900    11.00000    0.03171    0.03192 =
         0.02304    0.01156    0.00025    0.00818
AFIX  43
H4    2    0.316340    0.746023    0.830339    11.00000   -1.20000
AFIX   0
C5    1    0.231995    0.933721    0.817644    11.00000    0.02034    0.02779 =
         0.01971    0.00518    0.00356    0.00383
C6    1    0.065503    0.990913    0.731474    11.00000    0.02908    0.02388 =
         0.02793    0.00749    0.00278    0.00621
AFIX  43
H6    2    0.078630    1.089939    0.758666    11.00000   -1.20000
AFIX   0
C7    1   -0.116865    0.905379    0.607895    11.00000    0.02862    0.03625 =
         0.02344    0.01506   -0.00057    0.00605
AFIX  43
H7    2   -0.232113    0.944883    0.549719    11.00000   -1.20000
AFIX   0
C8    1    0.429230    1.034284    0.952168    11.00000    0.02790    0.02604 =
         0.02199    0.00623    0.00002    0.00608
AFIX  23
H8A   2    0.268279    1.096359    0.997057    11.00000   -1.20000
H8B   2    0.631006    1.094579    0.935750    11.00000   -1.20000
AFIX   0
HKLF 4
REM  Cuoxbpa_a.res in P-1
REM R1 =  0.0329 for    1370 Fo > 4sig(Fo)  and  0.0383 for all    1515 data
REM    124 parameters refined using      0 restraints
END
WGHT      0.0423      0.2752
REM Highest difference peak  0.411,  deepest hole -0.359,  1-sigma level  0.071
Q1    1   0.0938  0.9587  0.7872  11.00000  0.05    0.41
Q2    1   0.3759  0.6176  0.2469  11.00000  0.05    0.37
Q3    1   0.5601  1.0583  1.0372  11.00000  0.05    0.37
Q4    1   0.2139  0.8786  0.8109  11.00000  0.05    0.35
Q5    1   0.1787  0.4343  0.0213  11.00000  0.05    0.34
Q6    1   0.2750  0.9804  0.8800  11.00000  0.05    0.31
Q7    1   0.2844  0.5327  0.0766  11.00000  0.05    0.31
Q8    1   0.0188  0.7203  0.1205  11.00000  0.05    0.29
Q9    1   0.2017  0.4818  0.1427  11.00000  0.05    0.29
Q10   1  -0.0503  0.9447  0.6796  11.00000  0.05    0.28
Q11   1   0.0192  1.0210  0.7358  11.00000  0.05    0.28
Q12   1   0.1365  0.7374  0.7029  11.00000  0.05    0.26
Q13   1  -0.1448  0.8311  0.6032  11.00000  0.05    0.25
Q14   1  -0.0544  0.7647  0.6174  11.00000  0.05    0.24
Q15   1   0.3324  0.5221  0.2427  11.00000  0.05    0.22
Q16   1   0.0337  0.6805  0.1805  11.00000  0.05    0.22
Q17   1   0.4856  0.7626  0.3771  11.00000  0.05    0.22
Q18   1   0.2192  0.7122  0.1428  11.00000  0.05    0.21
Q19   1   0.2693  0.4265  0.0903  11.00000  0.05    0.21
Q20   1   0.3735  1.0887  0.9632  11.00000  0.05    0.21
;
_shelx_res_checksum              64574
loop_
_space_group_symop_operation_xyz
'x, y, z'
'-x, -y, -z'
loop_
_atom_site_type_symbol
_atom_site_label
_atom_site_fract_x
_atom_site_fract_y
_atom_site_fract_z
_atom_site_U_iso_or_equiv
_atom_site_adp_type
_atom_site_calc_flag
_atom_site_occupancy
Cu Cu1 0.0000 0.5000 0.0000 0.02811(17) Uani d 1
O O1 0.0783(5) 0.68107(18) 0.14009(17) 0.0323(4) Uani d 1
O O2 0.3594(5) 0.78730(19) 0.35205(18) 0.0358(4) Uani d 1
O O3 0.3273(5) 0.45021(18) 0.12059(17) 0.0338(4) Uani d 1
O O4 0.6076(5) 0.54334(19) 0.33262(18) 0.0355(4) Uani d 1
N N1 -0.1332(5) 0.7665(2) 0.5689(2) 0.0281(5) Uani d 1
H H1 -0.2503 0.7127 0.4888 0.034 Uiso calc 1
C C1 0.2779(6) 0.6865(2) 0.2468(2) 0.0245(5) Uani d 1
C C2 0.4187(6) 0.5490(3) 0.2350(2) 0.0263(5) Uani d 1
C C3 0.0221(7) 0.7072(3) 0.6474(3) 0.0303(6) Uani d 1
H H3 0.0060 0.6078 0.6165 0.036 Uiso calc 1
C C4 0.2072(7) 0.7888(3) 0.7739(3) 0.0284(5) Uani d 1
H H4 0.3163 0.7460 0.8303 0.034 Uiso calc 1
C C5 0.2320(6) 0.9337(3) 0.8176(2) 0.0234(5) Uani d 1
C C6 0.0655(6) 0.9909(3) 0.7315(3) 0.0273(5) Uani d 1
H H6 0.0786 1.0899 0.7587 0.033 Uiso calc 1
C C7 -0.1169(6) 0.9054(3) 0.6079(2) 0.0286(5) Uani d 1
H H7 -0.2321 0.9449 0.5497 0.034 Uiso calc 1
C C8 0.4292(6) 1.0343(3) 0.9522(2) 0.0260(5) Uani d 1
H H8A 0.2683 1.0964 0.9971 0.031 Uiso calc 1
H H8B 0.6310 1.0946 0.9358 0.031 Uiso calc 1
loop_
_atom_site_aniso_label
_atom_site_aniso_U_11
_atom_site_aniso_U_22
_atom_site_aniso_U_33
_atom_site_aniso_U_12
_atom_site_aniso_U_13
_atom_site_aniso_U_23
Cu1 0.0395(3) 0.0210(2) 0.0181(2) 0.00929(18) -0.00867(17) 0.00160(17)
O1 0.0441(10) 0.0239(9) 0.0231(9) 0.0114(8) -0.0090(8) 0.0027(7)
O2 0.0460(11) 0.0269(9) 0.0238(9) 0.0099(8) -0.0095(8) -0.0023(7)
O3 0.0483(11) 0.0245(9) 0.0214(9) 0.0120(8) -0.0112(8) 0.0014(7)
O4 0.0476(11) 0.0310(10) 0.0237(9) 0.0113(8) -0.0112(8) 0.0069(8)
N1 0.0288(11) 0.0315(12) 0.0166(10) 0.0019(9) -0.0021(8) 0.0018(9)
C1 0.0268(12) 0.0231(12) 0.0205(12) 0.0037(9) -0.0013(9) 0.0053(10)
C2 0.0293(12) 0.0252(12) 0.0227(12) 0.0036(10) -0.0012(10) 0.0082(10)
C3 0.0361(14) 0.0210(12) 0.0293(13) 0.0057(10) 0.0023(11) 0.0034(10)
C4 0.0317(13) 0.0319(13) 0.0230(12) 0.0082(10) 0.0002(10) 0.0116(10)
C5 0.0203(11) 0.0278(12) 0.0197(12) 0.0038(9) 0.0036(9) 0.0052(10)
C6 0.0291(12) 0.0239(12) 0.0279(13) 0.0062(10) 0.0028(10) 0.0075(10)
C7 0.0286(12) 0.0362(14) 0.0234(12) 0.0060(10) -0.0006(10) 0.0151(11)
C8 0.0279(12) 0.0260(12) 0.0220(12) 0.0061(10) 0.0000(10) 0.0062(10)
loop_
_atom_type_symbol
_atom_type_description
_atom_type_scat_dispersion_real
_atom_type_scat_dispersion_imag
_atom_type_scat_source
C C 0.0033 0.0016 'International Tables Vol C Tables 4.2.6.8 and 6.1.1.4'
H H 0.0000 0.0000 'International Tables Vol C Tables 4.2.6.8 and 6.1.1.4'
N N 0.0061 0.0033 'International Tables Vol C Tables 4.2.6.8 and 6.1.1.4'
O O 0.0106 0.0060 'International Tables Vol C Tables 4.2.6.8 and 6.1.1.4'
Cu Cu 0.3201 1.2651 'International Tables Vol C Tables 4.2.6.8 and 6.1.1.4'
loop_
_geom_angle_atom_site_label_1
_geom_angle_atom_site_label_2
_geom_angle_atom_site_label_3
_geom_angle_site_symmetry_1
_geom_angle_site_symmetry_3
_geom_angle
_geom_angle_publ_flag
O1 Cu1 O1 2_565 . 180.00(11) yes
O1 Cu1 O3 2_565 2_565 85.73(7) yes
O1 Cu1 O3 . 2_565 94.27(7) yes
O1 Cu1 O3 2_565 . 94.27(7) yes
O1 Cu1 O3 . . 85.73(7) yes
O3 Cu1 O3 2_565 . 180.0 yes
C1 O1 Cu1 . . 112.67(15) no
C2 O3 Cu1 . . 111.56(15) no
C3 N1 C7 . . 121.9(2) no
C3 N1 H1 . . 119.1 no
C7 N1 H1 . . 119.1 no
O2 C1 O1 . . 126.1(2) no
O2 C1 C2 . . 119.5(2) no
O1 C1 C2 . . 114.4(2) no
O4 C2 O3 . . 125.5(2) no
O4 C2 C1 . . 119.2(2) no
O3 C2 C1 . . 115.4(2) no
N1 C3 C4 . . 120.4(2) no
N1 C3 H3 . . 119.8 no
C4 C3 H3 . . 119.8 no
C3 C4 C5 . . 119.4(2) no
C3 C4 H4 . . 120.3 no
C5 C4 H4 . . 120.3 no
C4 C5 C6 . . 118.0(2) no
C4 C5 C8 . . 124.6(2) no
C6 C5 C8 . . 117.4(2) no
C7 C6 C5 . . 120.3(2) no
C7 C6 H6 . . 119.8 no
C5 C6 H6 . . 119.8 no
N1 C7 C6 . . 120.0(2) no
N1 C7 H7 . . 120.0 no
C6 C7 H7 . . 120.0 no
C5 C8 C8 . 2_677 115.2(3) no
C5 C8 H8A . . 108.5 no
C8 C8 H8A 2_677 . 108.5 no
C5 C8 H8B . . 108.5 no
C8 C8 H8B 2_677 . 108.5 no
H8A C8 H8B . . 107.5 no
loop_
_geom_bond_atom_site_label_1
_geom_bond_atom_site_label_2
_geom_bond_site_symmetry_2
_geom_bond_distance
_geom_bond_publ_flag
Cu1 O1 2_565 1.9145(16) yes
Cu1 O1 . 1.9145(16) yes
Cu1 O3 2_565 1.9431(17) yes
Cu1 O3 . 1.9432(17) yes
O1 C1 . 1.285(3) no
O2 C1 . 1.220(3) no
O3 C2 . 1.274(3) no
O4 C2 . 1.228(3) no
N1 C3 . 1.326(3) no
N1 C7 . 1.333(3) no
N1 H1 . 0.8800 no
C1 C2 . 1.548(3) no
C3 C4 . 1.382(4) no
C3 H3 . 0.9500 no
C4 C5 . 1.386(4) no
C4 H4 . 0.9500 no
C5 C6 . 1.390(3) no
C5 C8 . 1.506(3) no
C6 C7 . 1.366(4) no
C6 H6 . 0.9500 no
C7 H7 . 0.9500 no
C8 C8 2_677 1.513(5) no
C8 H8A . 0.9900 no
C8 H8B . 0.9900 no
loop_
_geom_hbond_atom_site_label_D
_geom_hbond_atom_site_label_H
_geom_hbond_atom_site_label_A
_geom_hbond_site_symmetry_A
_geom_hbond_distance_DH
_geom_hbond_distance_HA
_geom_hbond_distance_DA
_geom_hbond_angle_DHA
_geom_hbond_publ_flag
N1 H1 O2 1_455 0.88 2.36 2.951(3) 125 yes
N1 H1 O4 1_455 0.88 1.92 2.753(3) 156 yes
C3 H3 O4 2_666 0.95 2.43 3.157(4) 133 yes
C6 H6 O1 2_576 0.95 2.42 3.326(4) 159 yes

_cod_database_fobs_code 2021003
