#------------------------------------------------------------------------------
#$Date: 2020-01-31 07:51:43 +0200 (Fri, 31 Jan 2020) $
#$Revision: 247406 $
#$URL: file:///home/coder/svn-repositories/cod/cif/2/02/19/2021966.cif $
#------------------------------------------------------------------------------
#
# This file is available in the Crystallography Open Database (COD),
# http://www.crystallography.net/. The original data for this entry
# were provided by IUCr Journals, http://journals.iucr.org/.
#
# The file may be used within the scientific community so long as
# proper attribution is given to the journal article from which the
# data were obtained.
#
data_2021966
loop_
_publ_author_name
'Zheng, Wenxu'
'Wu, Kechen'
_publ_section_title
;
 Anion-directed assemblies of europium(III) coordination polymers based on
 1<i>H</i>-benzimidazole-5,6-dicarboxylate: structures and luminescence
 properties
;
_journal_coeditor_code           JX3052
_journal_issue                   2
_journal_name_full               'Acta Crystallographica Section C'
_journal_page_first
;
;
_journal_paper_doi               10.1107/S2053229620000637
_journal_volume                  76
_journal_year                    2020
_chemical_formula_iupac          '[Eu2 (C9 H4 N2 O4)2 (C2 O4) (H2 O)2], 2H2 O'
_chemical_formula_moiety         'C20 H12 Eu2 N4 O14, 2(H2 O)'
_chemical_formula_sum            'C20 H16 Eu2 N4 O16'
_chemical_formula_weight         872.28
_chemical_name_systematic
'Poly[[diaquabis(\m~4~-1<i>H</i>-benzimidazole-5,6-dicarboxylato-\k^6^<i>N</i>^3^:<i>O</i>^5^,<i>O</i>^5'^:<i>O</i>^5^,<i>O</i>^6^:<i>O</i>^6'^)(\m~2~-oxalato-\k^4^<i>O</i>^1^,<i>O</i>^2^:<i>O</i>^1'^,<i>O</i>^2'^)dieuropium(III)] dihydrate]'
_space_group_crystal_system      triclinic
_space_group_IT_number           2
_space_group_name_Hall           '-P 1'
_space_group_name_H-M_alt        'P -1'
_atom_sites_solution_hydrogens   mixed
_atom_sites_solution_primary     iterative
_audit_creation_method
;
Olex2 1.2
(compiled 2018.05.29 svn.r3508 for OlexSys, GUI svn.r5506)
;
_cell_angle_alpha                117.97(3)
_cell_angle_beta                 93.19(3)
_cell_angle_gamma                99.12(3)
_cell_formula_units_Z            1
_cell_length_a                   7.4900(15)
_cell_length_b                   9.4200(19)
_cell_length_c                   9.6533(19)
_cell_measurement_reflns_used    696
_cell_measurement_temperature    293(2)
_cell_measurement_theta_max      27.4449
_cell_measurement_theta_min      2.4185
_cell_volume                     587.3(3)
_computing_cell_refinement
;
CrystalClear (Rigaku OD, 2005)
;
_computing_data_collection
;
CrystalClear (Rigaku OD, 2005)
;
_computing_data_reduction
;
CrystalClear (Rigaku OD, 2005)
;
_computing_molecular_graphics
;
OLEX2 (Dolomanov <i>et al.</i>,  2009)
;
_computing_publication_material
;
OLEX2 (Dolomanov <i>et al.</i>,  2009)
;
_computing_structure_refinement
;
SHELXL2013 (Sheldrick, 2015)
;
_computing_structure_solution
;
olex2.solve (Bourhis <i>et al.</i>,  2015)
;
_diffrn_ambient_temperature      293.15
_diffrn_measured_fraction_theta_full 0.996
_diffrn_measured_fraction_theta_max 0.991
_diffrn_measurement_device_type  'Mercury2 (2x2 bin mode)'
_diffrn_measurement_method       '\w scans'
_diffrn_radiation_monochromator  graphite
_diffrn_radiation_type           MoK\a
_diffrn_radiation_wavelength     0.71073
_diffrn_reflns_av_R_equivalents  0.0364
_diffrn_reflns_av_unetI/netI     0.0624
_diffrn_reflns_limit_h_max       8
_diffrn_reflns_limit_h_min       -9
_diffrn_reflns_limit_k_max       12
_diffrn_reflns_limit_k_min       -10
_diffrn_reflns_limit_l_max       12
_diffrn_reflns_limit_l_min       -12
_diffrn_reflns_number            4544
_diffrn_reflns_theta_full        25.242
_diffrn_reflns_theta_max         27.427
_diffrn_reflns_theta_min         2.504
_diffrn_source                   'Sealed Tube'
_diffrn_standards_number         0
_exptl_absorpt_coefficient_mu    5.387
_exptl_absorpt_correction_T_max  1.0000
_exptl_absorpt_correction_T_min  0.6504
_exptl_absorpt_correction_type   multi-scan
_exptl_absorpt_process_details
;
(CrystalClear; Rigaku OD, 2005)
;
_exptl_crystal_colour            'clear yellow'
_exptl_crystal_density_diffrn    2.466
_exptl_crystal_description       block
_exptl_crystal_F_000             418
_exptl_crystal_size_max          0.2
_exptl_crystal_size_mid          0.2
_exptl_crystal_size_min          0.15
_refine_diff_density_max         2.173
_refine_diff_density_min         -1.977
_refine_ls_extinction_method     none
_refine_ls_goodness_of_fit_ref   1.104
_refine_ls_hydrogen_treatment    mixed
_refine_ls_matrix_type           full
_refine_ls_number_parameters     205
_refine_ls_number_reflns         2669
_refine_ls_number_restraints     6
_refine_ls_restrained_S_all      1.103
_refine_ls_R_factor_all          0.0452
_refine_ls_R_factor_gt           0.0387
_refine_ls_shift/su_max          0.000
_refine_ls_shift/su_mean         0.000
_refine_ls_structure_factor_coef Fsqd
_refine_ls_weighting_details
;
 w=1/[\s^2^(Fo^2^)+(0.0284P)^2^+1.6056P]
 where P=(Fo^2^+2Fc^2^)/3
;
_refine_ls_weighting_scheme      calc
_refine_ls_wR_factor_gt          0.0747
_refine_ls_wR_factor_ref         0.0795
_reflns_number_gt                2403
_reflns_number_total             2669
_reflns_threshold_expression     'I > 2\s(I)'
_cod_data_source_file            jx3052sup1.cif
_cod_data_source_block           1
_cod_database_code               2021966
_shelx_space_group_comment
;
The symmetry employed for this shelxl refinement is uniquely defined
by the following loop, which should always be used as a source of
symmetry information in preference to the above space-group names.
They are only intended as comments.
;
_shelx_estimated_absorpt_t_min   0.412
_shelx_estimated_absorpt_t_max   0.499
_shelx_hkl_file
;
   0   0   1   31.70    1.51
   0   0  -2   97.78    3.92
   0   0  -2   86.60    2.97
   0   0  -3  567.55   12.80
   0   0  -3  516.99   11.06
   0   0  -4    5.82    1.44
   0   0  -5  148.36    7.63
   0   0  -6   56.11    4.30
   0   0  -7   19.73    3.92
   0   0  -8  266.63   20.06
   0   0  -9  119.74   16.67
   0   0 -10   41.32    9.82
   0   1 -11   29.03    9.05
   0   1 -10   14.29    3.87
   0   1  -9  244.34   11.57
   0   1  -8    8.38    1.76
   0   1  -7  134.08    5.21
   0   1  -6  136.24    4.50
   0   1  -6  132.02    6.92
   0   1  -5   16.44    2.77
   0   1  -5   14.57    1.67
   0   1  -5   15.56    3.16
   0   1  -4  408.58    9.82
   0   1  -4  448.38   10.75
   0   1  -4  408.36    9.52
   0   1  -3  163.43    5.66
   0   1  -3  163.26    5.69
   0   1  -3  155.25    5.47
   0   1  -2    0.23    0.43
   0   1  -2    1.01    0.54
   0   1  -2    0.90    0.68
   0  -1   1  562.74   11.19
   0  -1   0  524.83   10.59
   0   1   0  575.60   11.57
   0   1   0  575.61   11.72
   0  -1  -1   40.53    2.33
   0  -1  -2  986.11   23.65
   0  -1  -3  193.02    7.30
   0  -1  -4  280.55   10.27
   0  -1  -5  428.10    8.71
   0  -1  -6   29.09    6.28
   0  -1  -7  203.82   10.74
   0  -1  -8   75.97    8.30
   0  -1  -9    3.61    2.47
   0  -1 -10   84.15   21.23
   0   2 -11    6.05    2.53
   0   2 -10  191.29   23.25
   0   2  -9    1.82    1.31
   0   2  -8   95.05   13.55
   0   2  -8   74.63    7.77
   0   2  -7  320.46   12.71
   0   2  -7  342.36    7.22
   0   2  -7  331.63   11.72
   0   2  -6   51.17    7.10
   0   2  -6   47.65    7.44
   0   2  -6   46.41    4.95
   0   2  -5  805.28   19.99
   0   2  -5  838.98   20.82
   0   2  -5  825.11   20.16
   0   2  -4  336.17    8.18
   0   2  -4  319.91    8.25
   0   2  -4  309.57    8.10
   0   2  -3   38.05    2.90
   0   2  -3   35.13    3.53
   0  -2   2  305.11    6.54
   0   2  -2  324.59    7.32
   0   2  -2  314.52    7.30
   0  -2   1  175.10    5.41
   0   2  -1  172.29    5.49
   0   2  -1  192.75    6.38
   0   2  -1  181.09    5.88
   0  -2   0  329.38    7.27
   0   2   0  325.73    7.62
   0   2   0  336.31    7.37
   0  -2  -1    8.28    1.54
   0  -2  -2  286.11    7.43
   0  -2  -3  327.13   10.29
   0  -2  -4  411.80   12.90
   0  -2  -5    3.71    1.27
   0  -2  -6  150.57    8.32
   0  -2  -7  143.13    8.54
   0  -2  -8    4.01    2.17
   0  -2  -9  106.58   24.07
   0  -3  12    3.64    2.94
   0   3 -10   28.06    5.83
   0   3 -10   16.20    4.54
   0   3  -9  128.21   10.01
   0   3  -9  114.59    6.64
   0   3  -8  378.62    8.99
   0   3  -8  391.36    9.08
   0   3  -8  399.12   15.44
   0   3  -7  104.10    7.95
   0   3  -7  101.49    7.25
   0   3  -7  113.85   10.16
   0   3  -6  329.44    9.26
   0   3  -6  344.14    9.59
   0   3  -6  349.57   13.50
   0  -3   5  933.78    9.79
   0   3  -5  919.59    9.59
   0   3  -5  891.08   22.14
   0  -3   4   42.94    2.15
   0   3  -4   47.94    5.65
   0   3  -4   42.08    3.84
   0  -3   3   29.66    1.49
   0   3  -3   29.91    1.83
   0   3  -3   34.53    5.38
   0  -3   2  128.98    4.20
   0   3  -2  127.27    4.70
   0   3  -2  128.30    7.01
   0  -3   1  196.55    6.30
   0   3  -1  210.18    7.23
   0   3  -1  201.97    6.85
   0  -3   0  849.81   17.81
   0   3   0  814.07   17.56
   0   3   0  851.09   17.62
   0  -3  -1    8.73    1.17
   0   3   1    8.03    1.03
   0  -3  -2  247.23    8.14
   0   3   2  247.14    6.28
   0  -3  -3  427.57   11.93
   0  -3  -4   14.30    2.78
   0  -3  -5  107.57   11.09
   0  -3  -6  117.08   15.37
   0  -3  -7    0.95    2.18
   0  -3  -8  131.58   12.78
   0  -3  -9   49.19   17.71
   0  -4  12  105.04   10.95
   0  -4  11   53.42    8.15
   0   4 -11   40.42   11.72
   0  -4  10   35.37    3.10
   0   4 -10   36.98    7.44
   0  -4   9  253.89    9.83
   0   4  -9  272.00   14.04
   0   4  -9  284.42   17.88
   0  -4   8   69.52    5.49
   0   4  -8   73.61    8.16
   0   4  -8   84.27    5.83
   0  -4   7  116.65    3.86
   0   4  -7  119.16    4.95
   0   4  -7  114.67    7.83
   0  -4   6  544.80   13.89
   0   4  -6  537.25   14.24
   0   4  -6  518.74   19.93
   0  -4   5   18.09    1.51
   0   4  -5   19.55    3.34
   0   4  -5   22.80    4.32
   0  -4   4   86.26    3.34
   0   4  -4   90.09    3.94
   0   4  -4   90.14    5.58
   0  -4   3  643.81   13.37
   0   4  -3  651.40   14.67
   0   4  -3  626.46   15.58
   0  -4   2    1.11    0.47
   0   4  -2    0.05    0.92
   0   4  -2    0.71    0.30
   0  -4   1  543.47   11.81
   0   4  -1  538.69   12.68
   0   4  -1  540.99   12.09
   0  -4   0   19.07    4.17
   0   4   0   17.26    1.94
   0   4   0   19.28    1.45
   0  -4  -1   41.50    6.29
   0   4   1   42.58    2.72
   0   4   1   46.80    2.06
   0  -4  -2  498.17   16.54
   0   4   2  476.49   11.30
   0  -4  -3   10.18    2.07
   0  -4  -4   83.43   10.04
   0  -4  -5  271.37   20.79
   0  -4  -6    1.53    0.65
   0  -4  -7   90.76   13.45
   0  -4  -8   61.81   18.02
   0  -5  12  112.18   11.30
   0   5 -12   86.80   14.89
   0  -5  11    5.70    2.13
   0   5 -11    9.12    3.69
   0  -5  10  205.06   12.15
   0   5 -10  213.05   13.84
   0   5 -10  224.07   19.39
   0  -5   9   35.78    2.84
   0   5  -9   31.16    7.47
   0   5  -9   36.77    7.26
   0  -5   8   40.65    4.70
   0   5  -8   40.91    8.01
   0   5  -8   52.66    9.13
   0  -5   7  298.24   10.54
   0   5  -7  290.37   10.69
   0   5  -7  305.15   22.71
   0  -5   6   14.91    1.57
   0   5  -6   18.64    2.99
   0   5  -6   15.43    3.15
   0  -5   5  131.77    4.17
   0   5  -5  132.28    4.85
   0   5  -5  152.55   12.95
   0  -5   4  382.04    9.34
   0   5  -4  385.90   10.60
   0   5  -4  370.41   10.44
   0  -5   3    2.94    0.57
   0   5  -3    2.36    1.51
   0   5  -3    4.78    1.50
   0  -5   2  555.30   13.21
   0   5  -2  578.28   15.00
   0   5  -2  546.53   14.42
   0  -5   1  170.93    6.59
   0   5  -1  171.37    6.18
   0   5  -1  171.48    7.53
   0  -5   0   22.68    5.50
   0   5   0   21.64    2.39
   0   5   0   23.59    1.65
   0  -5  -1  293.25    7.13
   0   5   1  290.42    7.23
   0   5   1  286.23    4.47
   0  -5  -2   78.15    7.23
   0   5   2   78.90    8.97
   0   5   2   72.65    2.25
   0  -5  -3   84.74   11.21
   0   5   3   84.89    4.94
   0  -5  -4  247.33   17.43
   0   5   4  254.69   11.25
   0  -5  -5    2.05    1.39
   0  -5  -6   44.94    9.33
   0   5   6   50.96    6.85
   0  -5  -7   58.09   17.84
   0   5   7   88.84    9.97
   0   6 -12    0.88    1.28
   0  -6  11   82.11   14.69
   0   6 -11  121.49   12.39
   0  -6  10   39.94    3.86
   0   6 -10   32.39    6.67
   0   6 -10   47.86    8.10
   0  -6   9    4.64    1.46
   0   6  -9    3.47    1.22
   0   6  -9    7.67    1.94
   0  -6   8  220.80    5.97
   0   6  -8  221.76    6.48
   0   6  -8  229.07   13.10
   0  -6   7    7.85    1.38
   0   6  -7   11.82    2.34
   0   6  -7   11.59    2.07
   0  -6   6  247.36    4.13
   0   6  -6  268.66    6.06
   0   6  -6  264.37   10.15
   0   6  -5  342.71   10.96
   0  -6   4    8.74    0.87
   0   6  -4   10.53    1.99
   0   6  -4    6.58    1.65
   0  -6   3  211.86    6.05
   0   6  -3  214.36    5.75
   0   6  -3  194.51    6.80
   0  -6   2  222.07    4.72
   0   6  -2  224.91    5.97
   0   6  -2  221.13    7.33
   0  -6   1    0.65    0.73
   0   6  -1    2.83    1.87
   0   6  -1    1.52    0.83
   0  -6   0  290.27    9.17
   0   6   0  300.45    7.48
   0   6   0  285.00   13.76
   0  -6  -1  145.28    8.05
   0   6   1  142.40    7.10
   0   6   1  122.66    7.66
   0  -6  -2   71.91    8.25
   0   6   2   78.83    4.88
   0  -6  -3  267.97   12.80
   0   6   3  266.00    9.17
   0  -6  -4   26.58    3.73
   0   6   4   20.12    3.32
   0  -6  -5   30.88    6.89
   0   6   5   37.55    5.65
   0  -6  -6   50.58   12.48
   0   6   6   60.88   11.63
   0   7 -12   89.18   13.41
   0   7 -11   47.71   11.03
   0   7 -10    1.47    1.08
   0   7 -10    1.57    0.64
   0   7  -9  174.92    5.57
   0   7  -9  195.59   12.07
   0   7  -8   21.50    4.28
   0   7  -8   31.86    4.93
   0   7  -7   72.74    7.33
   0   7  -7   84.12    6.23
   0   7  -6  206.99    8.54
   0   7  -6  210.57   13.77
   0  -7   5    2.02    0.69
   0   7  -5    2.65    1.37
   0   7  -5    0.52    0.92
   0  -7   4  183.67    6.57
   0   7  -4  212.62    8.92
   0   7  -4  191.67    8.53
   0  -7   3  300.27    9.98
   0   7  -3  283.01   10.93
   0   7  -3  304.71   11.91
   0  -7   2    2.11    0.84
   0   7  -2    5.29    2.09
   0   7  -2    1.86    0.85
   0  -7   1  192.69    8.56
   0   7  -1  171.80    7.91
   0   7  -1  179.72   13.07
   0  -7   0  150.47    8.54
   0   7   0  141.31    6.15
   0   7   0  135.25   10.08
   0  -7  -1    7.50    1.35
   0   7   1   10.09    2.37
   0   7   1   10.09    1.64
   0  -7  -2  137.83    8.64
   0   7   2  159.82    7.31
   0  -7  -3   36.66    7.15
   0   7   3   57.08    5.42
   0  -7  -4   25.66    6.16
   0   7   4   27.82    4.90
   0  -7  -5   73.31   17.90
   0   7   5  116.56   12.76
   0   8 -12  113.37   14.51
   0   8 -11    6.15    2.83
   0   8 -10  120.70    9.01
   0   8  -9   50.39   10.44
   0   8  -9   74.58   12.76
   0   8  -8   51.40    8.77
   0   8  -8   58.80   10.60
   0   8  -7  180.11    7.89
   0   8  -7  183.10   11.80
   0   8  -6    8.01    2.15
   0   8  -6    7.38    1.59
   0   8  -5   87.84    4.69
   0   8  -5   80.14   11.16
   0   8  -4  289.41    8.62
   0   8  -4  267.52   15.22
   0  -8   3    1.75    0.87
   0   8  -3    3.75    2.97
   0   8  -3    0.67    0.49
   0  -8   2  150.63    7.55
   0   8  -2  150.01    7.44
   0   8  -2  151.21   10.35
   0  -8   1   86.56    9.53
   0   8  -1   86.53    5.47
   0   8  -1   91.48   10.00
   0  -8   0    9.57    2.28
   0   8   0    6.58    2.47
   0   8   0    7.10    1.44
   0  -8  -1   77.92   15.24
   0   8   1   93.60    7.69
   0  -8  -2   37.04    8.32
   0   8   2   49.80    7.94
   0  -8  -3   13.58    4.69
   0   8   3   26.57    5.03
   0  -8  -4   56.54   14.19
   0   8   4   93.61   10.75
   0   9 -11   77.76   15.06
   0   9 -10  111.68    9.01
   0   9  -9    6.05    1.73
   0   9  -9    4.32    1.71
   0   9  -8   84.78    6.21
   0   9  -8   99.19    9.41
   0   9  -7  101.05    5.30
   0   9  -7  125.22    9.38
   0   9  -6   65.30    4.50
   0   9  -6   70.96   10.42
   0   9  -5  253.36    8.07
   0   9  -5  238.18   20.23
   0   9  -4   10.50    3.79
   0   9  -4    2.90    1.04
   0   9  -3  101.34    5.81
   0   9  -3  108.96    7.38
   0  -9   2  101.87    9.97
   0   9  -2  124.53    6.52
   0   9  -2  122.06    8.29
   0  -9   1    0.77    0.97
   0   9  -1    4.77    2.56
   0   9  -1    0.03    0.42
   0  -9   0   50.06   14.86
   0   9   0   73.06   10.73
   0  -9  -1   28.41    9.21
   0   9   1   42.05    5.98
   0   9   2   16.93    5.87
   0  10 -11   52.82   16.43
   0  10 -10    2.94    1.86
   0  10  -9  117.97   15.47
   0  10  -8   41.06    6.48
   0  10  -8   57.72    9.67
   0  10  -7   -0.27    1.18
   0  10  -7    0.28    1.27
   0  10  -6   99.04    5.61
   0  10  -6   91.48   12.94
   0  10  -5   23.91    3.53
   0  10  -5   21.79    2.79
   0  10  -4   33.82    5.68
   0  10  -4   38.75    7.39
   0  10  -3  129.96    6.43
   0  10  -3  120.70    9.10
   0  10  -2   10.14    3.71
   0  10  -2    0.58    1.05
   0  10  -1   84.57    5.79
   0  10   0   64.56    7.95
   0  10   1    5.75    3.33
   0  11  -9   37.87    9.21
   0  11  -8    3.99    1.92
   0  11  -7  108.65    6.11
   0  11  -7  120.33    9.40
   0  11  -6    2.90    2.40
   0  11  -6    1.39    1.65
   0  11  -5    0.53    1.66
   0  11  -5   -0.07    1.10
   0  11  -4   78.29    5.54
   0  11  -4   59.68   11.32
   0  11  -3    3.31    2.81
   0  11  -3    5.98    2.08
   0  11  -2   23.25    4.33
   0  12  -7   43.54   11.17
   0  12  -6   24.57    6.22
   0  12  -5   68.52    8.56
   0  12  -5   49.58   12.38
   1  11  -2    1.23    1.87
   1  11  -3   64.19    7.68
   1  11  -3   49.43   10.10
   1  11  -4   36.85    7.51
   1  11  -4   38.46    9.10
   1  11  -5    7.10    2.97
   1  11  -5    9.81    3.67
   1  11  -6   91.46   14.45
   1  11  -7   40.72    9.12
   1  11  -8   12.08    4.30
   1  11  -9   92.32   17.30
   1  10   0   60.80   11.74
  -1 -10   1    5.12    2.10
   1  10  -1    2.86    2.69
   1  10  -2   69.39    8.38
   1  10  -2   49.88    8.98
   1  10  -3  108.53    5.95
   1  10  -3  100.76   11.96
   1  10  -4    8.18    2.98
   1  10  -4    6.59    2.37
   1  10  -5   92.42    5.67
   1  10  -5  102.24   12.81
   1  10  -6  136.19    6.26
   1  10  -6  141.03    9.84
   1  10  -7    3.99    1.53
   1  10  -8  104.96   13.87
   1  10  -9   25.53    5.65
   1  10 -10   17.09    6.25
  -1  -9  -2    3.23    2.10
   1   9   2   11.58    4.71
  -1  -9  -1   34.12   11.70
   1   9   1   64.29    8.14
  -1  -9   0    0.00    1.12
   1   9   0    2.74    2.61
  -1  -9   1   22.99    6.25
   1   9  -1   24.45    7.44
   1   9  -1   22.02    3.67
  -1  -9   2  118.32    9.69
   1   9  -2  121.90    8.62
   1   9  -2  126.88   13.70
  -1  -9   3    1.95    0.98
   1   9  -3    5.68    2.60
   1   9  -3    0.68    0.59
   1   9  -4  137.67    6.74
   1   9  -4  130.64   10.36
   1   9  -5  206.38    7.05
   1   9  -5  198.03   13.30
   1   9  -6    3.61    1.66
   1   9  -6    2.58    1.20
   1   9  -7  114.47    7.72
   1   9  -7  121.08    9.68
   1   9  -8   28.67    4.68
   1   9  -9   21.71    4.36
   1   9 -10   68.44    9.91
   1   9 -11   16.87    5.99
  -1  -8  -3    2.68    1.55
   1   8   3    8.18    3.69
  -1  -8  -2  143.33   10.53
   1   8   2  171.46   45.37
  -1  -8  -1   10.85    2.59
   1   8   1   20.23    4.73
  -1  -8   0   18.70    4.58
   1   8   0   27.49    3.64
   1   8   0   15.94    3.35
  -1  -8   1  187.90    8.93
   1   8  -1  188.89    7.20
   1   8  -1  188.92    9.38
  -1  -8   2   20.67    5.39
   1   8  -2   32.09    3.38
   1   8  -2   25.74    2.97
  -1  -8   3   92.94    4.50
   1   8  -3   78.69    4.91
   1   8  -3   82.52   11.15
  -1  -8   4  114.92    3.64
   1   8  -4  104.42    5.81
   1   8  -4  117.81    8.64
  -1  -8   5    0.25    0.54
   1   8  -5    3.02    2.20
   1   8  -5    2.10    1.46
   1   8  -6  166.64    7.42
   1   8  -6  160.04   11.97
   1   8  -7   85.48    4.82
   1   8  -7   87.62    7.79
   1   8  -8   30.06    5.78
   1   8  -9  140.79   14.90
   1   8 -10   37.30    7.04
   1   8 -11   54.47   10.75
   1   8 -12   70.07   16.53
  -1  -7  -5   33.49   10.51
   1   7   5   50.49   10.16
  -1  -7  -4   12.45    5.05
   1   7   4   13.52    5.42
  -1  -7  -3  149.25   13.53
   1   7   3  183.36    8.30
  -1  -7  -2   82.40    9.65
   1   7   2   58.92    4.70
  -1  -7  -1    3.88    1.37
   1   7   1    0.91    1.82
   1   7   1    4.86    1.51
  -1  -7   0  218.86   12.05
   1   7   0  225.64   10.02
   1   7   0  228.60    8.64
  -1  -7   1   67.61    4.32
   1   7  -1   65.58    4.27
   1   7  -1   70.48    3.39
  -1  -7   2  105.71    3.84
   1   7  -2   96.83    4.58
   1   7  -2   95.56    4.10
  -1  -7   3  100.07    5.32
   1   7  -3   97.27    4.45
   1   7  -3  106.98    4.29
  -1  -7   4    5.87    1.10
   1   7  -4    5.57    2.55
   1   7  -4   10.66    2.15
  -1  -7   5  115.78    7.09
   1   7  -5  124.47    4.59
   1   7  -5  123.02    9.81
  -1  -7   6  138.71    4.83
   1   7  -6  133.36    4.57
   1   7  -6  162.32   11.51
  -1  -7   7   10.71    1.39
   1   7  -7   10.02    2.06
   1   7  -7   13.29    2.49
  -1  -7   8  143.66    6.01
   1   7  -8  140.75    8.75
   1   7  -8  161.29   12.46
  -1  -7   9   63.15    3.75
   1   7  -9   66.60   11.96
  -1  -7  10   51.07    8.28
   1   7 -10   61.38   13.95
   1   7 -11  138.42   11.86
   1   7 -12    6.33    3.12
  -1  -6  -6   58.22   13.91
   1   6   6   64.54    8.10
  -1  -6  -5    1.61    1.16
   1   6   5    0.71    1.68
  -1  -6  -4  137.22    7.96
   1   6   4  132.96    7.01
  -1  -6  -3  224.78   21.50
   1   6   3  209.31   26.46
  -1  -6  -2   99.24    7.84
   1   6   2   84.98    5.55
   1   6   2   83.77    6.29
  -1  -6  -1  196.69   11.20
   1   6   1  214.43    7.47
   1   6   1  208.24    7.70
  -1  -6   0  208.37   10.25
   1   6   0  213.69    9.04
   1   6   0  206.97    8.50
  -1  -6   1   94.33    3.58
   1   6  -1   90.42    4.17
   1   6  -1  101.59    3.76
  -1  -6   2  101.13    3.42
   1   6  -2  107.00    4.27
   1   6  -2   99.79    3.88
  -1  -6   3    1.78    0.98
   1   6  -3    2.15    1.71
   1   6  -3    0.08    0.90
  -1  -6   4   86.98    5.55
   1   6  -4   82.05    3.50
   1   6  -4   89.82    4.19
  -1  -6   5  254.66    6.15
   1   6  -5  261.14    5.47
   1   6  -5  252.36   12.44
  -1  -6   6    3.73    1.14
   1   6  -6    9.60    1.69
  -1  -6   7  271.11    9.80
   1   6  -7  279.99    9.84
   1   6  -7  293.99   15.09
  -1  -6   8   95.36    4.23
   1   6  -8   76.51   11.39
   1   6  -8   93.56    6.46
  -1  -6   9   17.15    3.17
   1   6  -9   18.22    4.31
  -1  -6  10  126.70    8.34
   1   6 -10  136.12   15.64
  -1  -6  11   21.45    6.23
   1   6 -11   24.02    6.12
   1   6 -12   48.95   13.82
  -1  -5  -7   44.93   12.33
  -1  -5  -6    3.89    1.88
  -1  -5  -5   62.00    7.28
  -1  -5  -4  178.83   11.47
  -1  -5  -3    5.25    1.80
  -1  -5  -2  225.51   11.65
   1   5   2  216.82    8.61
  -1  -5  -1  274.65    9.91
   1   5   1  269.26    9.21
  -1  -5   0  135.74    4.31
   1   5   0  138.98    9.77
   1   5   0  145.33    7.79
  -1  -5   1  481.12   13.07
   1   5  -1  467.82   12.67
   1   5  -1  499.53   13.04
  -1  -5   2   86.27    3.47
   1   5  -2   89.40    4.01
   1   5  -2   92.66    4.01
  -1  -5   3  206.18    7.85
   1   5  -3  214.38    6.73
   1   5  -3  213.58    6.91
  -1  -5   4  350.38    9.42
   1   5  -4  354.16    9.62
   1   5  -4  351.78   10.15
  -1  -5   5   12.86    1.38
   1   5  -5   12.75    1.38
   1   5  -5   18.77    3.53
  -1  -5   6  220.32    5.12
   1   5  -6  220.57    5.55
   1   5  -6  219.37    9.12
  -1  -5   7  195.54    7.81
   1   5  -7  191.25    7.88
   1   5  -7  202.23   16.18
  -1  -5   8    4.99    1.85
   1   5  -8    5.35    1.62
   1   5  -8    4.63    1.04
  -1  -5   9  211.84    8.79
   1   5  -9  191.67   11.49
   1   5  -9  215.01   14.99
  -1  -5  10   98.60    6.82
   1   5 -10  118.72   13.25
  -1  -5  11   33.02    5.43
   1   5 -11   36.20    8.18
  -1  -5  12   76.81   12.92
   1   5 -12   78.94   13.19
  -1  -4  -8   92.31   17.66
  -1  -4  -7    4.82    2.12
  -1  -4  -6   42.91    7.74
  -1  -4  -5  149.11   13.46
  -1  -4  -4   13.26    2.05
  -1  -4  -3  109.53    9.24
  -1  -4  -2   27.81    5.05
  -1  -4  -1   45.22    3.01
  -1  -4   0  700.78   17.25
   1   4   0  675.35   16.90
  -1  -4   1  103.12    4.23
   1   4  -1  103.48    4.43
   1   4  -1  110.29    4.51
  -1  -4   2  194.59    6.78
   1   4  -2  187.50    6.74
   1   4  -2  190.05    7.01
  -1  -4   3  936.45   20.04
   1   4  -3  942.50   20.00
   1   4  -3  957.75   23.73
  -1  -4   4   26.91    1.83
   1   4  -4   27.25    1.69
   1   4  -4   26.70    2.23
  -1  -4   5  436.93   11.51
   1   4  -5  411.19   10.92
   1   4  -5  424.60   11.65
   1   4  -6  370.58    8.96
   1   4  -6  385.90    7.47
  -1  -4   7    4.77    2.17
   1   4  -7    1.73    0.71
   1   4  -7   -0.70    0.95
  -1  -4   8  114.84    4.51
   1   4  -8  107.05    4.51
   1   4  -8  117.28    9.37
  -1  -4   9  209.77    8.74
   1   4  -9  242.06   15.67
  -1  -4  10   27.32    2.90
   1   4 -10   20.19    3.86
  -1  -4  11  114.71    5.34
   1   4 -11   94.16   13.87
  -1  -4  12   26.36    5.61
  -1  -3  -8   22.11    8.18
  -1  -3  -7   48.71   13.17
  -1  -3  -6  257.20   10.95
  -1  -3  -5    0.59    1.16
  -1  -3  -4  119.97   10.96
  -1  -3  -3   50.83    8.94
  -1  -3  -2  160.39   10.49
  -1  -3  -1  511.75   12.21
  -1  -3   0   52.55    2.74
  -1  -3   1  126.87    4.71
   1   3  -1  127.09    5.20
   1   3  -1  130.13    4.86
  -1  -3   2  416.76    9.51
   1   3  -2  449.45    9.99
   1   3  -2  434.02   11.01
  -1  -3   3  144.62    5.30
   1   3  -3  152.48    5.16
   1   3  -3  161.26    6.04
  -1  -3   4   34.33    2.16
   1   3  -4   35.19    3.09
   1   3  -4   37.41    2.47
  -1  -3   5  673.01   16.86
   1   3  -5  635.89   15.47
   1   3  -5  627.52   15.87
  -1  -3   6    2.38    1.52
   1   3  -6    1.11    0.49
   1   3  -6    1.16    1.18
  -1  -3   7  408.79    7.64
   1   3  -7  411.34    9.21
   1   3  -7  419.26   22.09
  -1  -3   8  184.83    5.97
   1   3  -8  186.85    9.25
  -1  -3   9    5.97    1.59
   1   3  -9    1.47    1.12
  -1  -3  10  101.48    7.15
   1   3 -10   90.98   10.84
  -1  -3  11   49.99    6.31
  -1  -3  12    4.68    2.55
  -1  -2  -9   18.38    6.71
  -1  -2  -8   29.37    7.06
  -1  -2  -7  151.85    8.33
  -1  -2  -6   88.83   16.72
  -1  -2  -5  128.44    7.38
  -1  -2  -4  313.56    7.55
  -1  -2  -3    2.72    1.18
  -1  -2  -2  617.60   14.48
  -1  -2  -1  543.36   12.34
  -1  -2   0 1387.74   32.57
  -1  -2   1  249.72    6.04
  -1  -2   2  299.87    7.12
   1   2  -2  299.72    6.40
   1   2  -2  314.48    7.47
  -1  -2   3  233.45    6.62
   1   2  -3  228.69    6.20
   1   2  -3  248.56    6.41
  -1  -2   4  346.26    8.64
   1   2  -4  331.60    7.49
   1   2  -4  330.12    8.42
  -1  -2   5   21.57    1.89
   1   2  -5   24.08    2.05
   1   2  -5   22.52    4.20
  -1  -2   6  300.10    9.02
   1   2  -6  307.45   15.54
   1   2  -7  166.08    9.97
   1   2  -8    0.73    1.08
   1   2  -9  323.36    7.13
  -1  -2  10   58.17   10.62
  -1  -2  11   14.49    4.69
  -1  -1 -10   31.30   11.92
  -1  -1  -9   26.90    6.76
  -1  -1  -8   94.33   12.71
  -1  -1  -7   40.96    8.81
  -1  -1  -6  129.70    6.31
  -1  -1  -5  378.11    8.63
  -1  -1  -4   10.86    2.22
  -1  -1  -3  362.27   10.16
  -1  -1  -2  834.56   18.08
  -1  -1  -1   65.59    2.89
  -1  -1   0  633.31   13.26
  -1  -1   2  354.76    8.19
   1   1  -2  364.08    8.30
  -1  -1   3  487.82   11.20
   1   1  -3  496.26   10.91
   1   1  -4   69.85    3.44
   1   1  -4   70.49    5.09
   1   1  -5  549.73   15.44
   1   1  -5  529.58   13.25
   1   1  -6  140.61    4.98
   1   1  -6  140.02    6.41
   1   1  -7   15.32    2.97
   1   1  -7   10.64    2.16
   1   1  -8  163.27    6.31
   1   1  -8  158.65   11.69
   1   1  -9  179.37   13.04
   1   1 -10   40.57    8.78
  -1   0 -10   17.70    7.50
  -1   0  -9   90.88   18.29
  -1   0  -8   38.18    9.49
  -1   0  -7  202.34   12.11
  -1   0  -6  494.02   10.80
  -1   0  -5   16.75    3.61
  -1   0  -4   96.15    5.30
  -1   0  -4   95.62    4.27
  -1   0  -3  480.07   12.09
  -1   0  -3  500.87   12.31
  -1   0  -2   35.20    2.06
  -1   0  -2   33.94    2.07
  -1   0  -1  532.48   11.21
  -1   0  -1  567.67   12.15
  -1   0   0  356.24    7.61
  -1   0   0  355.40    7.37
   1   0   0  344.81    7.18
  -1   0   1   38.24    1.70
  -1   0   1   42.85    1.54
   1   0  -1   43.38    1.58
   1   0  -2  970.32   22.56
   1   0  -3  278.18    7.58
   1   0  -3  263.78    6.14
   1   0  -4   28.50    2.18
   1   0  -4   23.88    2.33
   1   0  -5  244.75    7.84
   1   0  -5  239.15    6.89
   1   0  -6    0.63    0.89
   1   0  -6    1.57    0.83
   1   0  -7  139.15    6.70
   1   0  -8  192.92    9.11
   1   0  -9   50.45    7.88
   1   0 -10  117.62   19.45
   1   0 -11   84.17   19.86
  -1   1 -11    3.11    1.95
  -1   1 -10   95.76   16.79
  -1   1  -9   65.84   15.72
  -1   1  -8  119.67    9.44
  -1   1  -7  393.40   16.32
  -1   1  -6   44.20    7.54
  -1   1  -6   50.56    8.87
  -1   1  -5  223.54    7.05
  -1   1  -5  244.52    7.95
  -1   1  -4  537.68   12.44
  -1   1  -4  573.98   14.08
  -1   1  -3   60.08    2.73
  -1   1  -3   55.49    2.84
  -1   1  -2  394.09    8.58
  -1   1  -2  364.85    9.42
  -1   1  -1  562.86   11.40
   1  -1   1  555.81   11.26
  -1   1  -1  545.95   11.49
  -1   1   0  267.25    5.74
   1  -1   0  280.47    6.01
  -1   1   0  275.17    6.13
   1  -1  -1  484.47   10.64
  -1   1   1  460.18    9.99
   1  -1  -2  507.85   12.20
   1  -1  -3   35.89    2.75
   1  -1  -3   35.10    2.08
   1  -1  -4  531.52   14.77
   1  -1  -5    8.82    1.93
   1  -1  -6   90.91    9.82
   1  -1  -7  177.96    8.59
   1  -1  -8    6.01    2.39
   1  -1  -9  165.90   10.20
   1  -1 -10   69.40   14.89
  -1   2 -11  114.58   20.06
  -1   2 -10   90.83   16.17
  -1   2  -9    5.95    2.28
  -1   2  -8  211.48    9.12
  -1   2  -8  215.25    7.25
  -1   2  -7  129.81    5.70
  -1   2  -7  126.69    5.70
  -1   2  -6  103.92    6.45
  -1   2  -6  111.33    7.04
  -1   2  -6  103.67    8.10
  -1   2  -5  487.61   12.87
  -1   2  -5  515.41   13.68
  -1   2  -5  469.30   12.54
  -1   2  -4    0.16    0.39
  -1   2  -4    0.18    0.51
  -1   2  -4   -0.04    0.72
  -1   2  -3  756.97   15.80
  -1   2  -3  737.03   16.46
  -1   2  -3  723.11   15.60
  -1   2  -2  573.28   11.61
  -1   2  -2  540.58   11.94
  -1   2  -2  523.77   11.77
  -1   2  -1   15.10    2.57
  -1   2  -1   12.27    1.77
   1  -2   0  270.32    6.22
  -1   2   0  264.81    6.67
   1  -2  -1  471.80   10.56
  -1   2   1  489.81   11.11
   1  -2  -2   15.09    2.75
  -1   2   2   12.28    1.45
   1  -2  -3  571.19   13.34
   1  -2  -4   68.92    4.11
   1  -2  -5  245.77    7.49
   1  -2  -6  201.73    8.90
   1  -2  -7   40.29    7.48
   1  -2  -8  134.38   23.06
   1  -2  -9   54.33   11.94
  -1   3 -11   76.89   15.44
  -1   3 -10   -0.28    0.89
  -1   3  -9  141.49   11.99
  -1   3  -9  149.03   16.22
  -1   3  -8   64.79   10.23
  -1   3  -8   72.16   11.57
  -1   3  -8   70.14    6.63
  -1   3  -7   66.36    7.35
  -1   3  -7   71.94    7.86
  -1   3  -7   59.57    5.89
  -1   3  -6  504.55   13.41
  -1   3  -6  528.84   15.50
  -1   3  -6  498.11   13.86
  -1   3  -5   62.52    4.42
  -1   3  -5   64.99    4.53
  -1   3  -5   73.34    6.63
  -1   3  -4  257.04    6.22
  -1   3  -4  257.49    7.29
  -1   3  -4  269.73    7.45
  -1   3  -3  411.44    9.84
  -1   3  -3  410.98   10.00
  -1   3  -2    8.39    1.41
  -1   3  -2    9.16    1.50
   1  -3   1  396.06    8.29
  -1   3  -1  371.41    9.03
  -1   3  -1  371.68    8.91
   1  -3   0   76.05    3.27
  -1   3   0   75.86    3.56
  -1   3   0   77.21    3.38
   1  -3  -1  212.64    7.36
  -1   3   1  214.69    7.79
  -1   3   1  223.74    6.34
   1  -3  -2  723.41   18.76
  -1   3   2  726.65   18.08
   1  -3  -3  156.50    7.20
   1  -3  -4  122.41    8.79
   1  -3  -5  229.84   12.23
   1  -3  -6  149.08    8.19
   1  -3  -7   76.33   13.57
   1  -3  -8   66.17   14.39
   1  -3  -9    1.92    1.87
  -1   4 -11    1.23    1.03
  -1   4 -10   98.31   12.99
  -1   4 -10  109.27    9.53
  -1   4  -9  179.67   12.30
  -1   4  -9  178.71   11.96
  -1   4  -9  167.19    9.68
  -1   4  -8   32.18    5.50
  -1   4  -8   33.58    5.97
  -1   4  -8   36.09    7.28
  -1   4  -7  269.99    9.60
  -1   4  -7  296.30   13.37
  -1   4  -7  301.12   19.41
  -1   4  -6   66.80    5.66
  -1   4  -6   76.80    7.80
  -1   4  -6   72.93    6.36
  -1   4  -5  121.61   11.14
  -1   4  -5  128.61    8.04
   1  -4   4  372.60    7.98
  -1   4  -4  378.00    9.63
  -1   4  -4  387.59    9.88
  -1   4  -3  160.34    6.26
  -1   4  -3  167.38    9.71
   1  -4   2  436.46    8.81
  -1   4  -2  426.68   10.60
  -1   4  -2  414.36    9.84
   1  -4   1  252.28    6.51
  -1   4  -1  274.55    7.70
  -1   4  -1  259.27    6.75
   1  -4   0  103.96    4.47
  -1   4   0  105.82    4.81
  -1   4   0  108.50    5.08
   1  -4  -1  509.38   13.41
  -1   4   1  495.41   13.36
  -1   4   1  466.91   11.47
   1  -4  -2  201.42    5.21
  -1   4   2  197.85    5.54
   1  -4  -3  154.37    9.97
  -1   4   3  153.18    6.98
   1  -4  -4  249.96   10.37
  -1   4   4  257.15   10.56
   1  -4  -5  131.87   10.20
  -1   4   5  139.50    7.32
   1  -4  -6   48.47    9.58
  -1   4   6   56.91    4.56
   1  -4  -7   90.97   18.14
  -1   4   7  119.66    6.55
   1  -4  -8    1.49    1.43
  -1   4   8    1.07    1.62
   1  -5  11   85.80    4.59
  -1   5 -11   64.74   18.64
  -1   5 -11   71.36   12.85
   1  -5  10  159.28    9.75
  -1   5 -10  184.78   15.71
  -1   5 -10  165.15   13.53
   1  -5   9   34.54    2.63
  -1   5  -9   43.18    6.24
  -1   5  -9   38.44    6.38
   1  -5   8   80.61    3.31
  -1   5  -8   91.99   11.39
  -1   5  -8   89.84    8.08
   1  -5   7  243.52    8.61
  -1   5  -7  249.14    9.73
  -1   5  -7  287.41   19.21
   1  -5   6   45.92    4.32
  -1   5  -6   46.16    6.81
  -1   5  -6   51.19    6.67
   1  -5   5  124.03    5.51
  -1   5  -5  134.20    5.42
  -1   5  -5  145.83   11.15
  -1   5  -4  101.89    4.46
  -1   5  -4   97.64    7.42
  -1   5  -3  323.54    9.57
  -1   5  -3  305.00    9.44
   1  -5   2  480.28   11.10
  -1   5  -2  534.97   14.33
  -1   5  -2  496.90   13.86
   1  -5   1    1.01    0.57
  -1   5  -1   -0.19    1.23
  -1   5  -1   -0.09    0.49
   1  -5   0  254.93    7.49
  -1   5   0  247.46    8.09
  -1   5   0  248.93    9.35
   1  -5  -1  349.81    6.82
  -1   5   1  334.67    7.26
  -1   5   1  350.40    7.76
   1  -5  -2    3.39    1.64
  -1   5   2    2.84    2.05
   1  -5  -3  220.89    9.67
  -1   5   3  232.14    7.77
   1  -5  -4   72.43    8.73
  -1   5   4   57.49    4.56
   1  -5  -5   56.73   10.13
  -1   5   5   77.48    6.72
   1  -5  -6  138.67    8.67
  -1   5   6  150.92    7.23
   1  -5  -7    3.76    3.83
  -1   5   7   13.37    4.64
  -1   6 -12   79.29   14.01
  -1   6 -11  143.52    6.94
  -1   6 -11  133.09   10.20
   1  -6  10    0.51    1.06
  -1   6 -10    3.03    1.59
  -1   6 -10    0.86    1.29
   1  -6   9  148.03    6.85
  -1   6  -9  175.89   19.10
  -1   6  -9  166.31   10.36
   1  -6   8   56.63    6.03
  -1   6  -8   84.45   12.38
  -1   6  -8   84.90    6.48
   1  -6   7   77.59    2.63
  -1   6  -7   89.38    7.84
  -1   6  -7   99.82    8.19
  -1   6  -6  219.24    5.99
  -1   6  -6  241.11   16.32
  -1   6  -5   36.82    2.80
  -1   6  -5   40.27    6.23
  -1   6  -4  232.78    6.12
  -1   6  -4  215.30    6.19
  -1   6  -3  381.13   11.49
  -1   6  -3  340.82   11.77
   1  -6   2   88.99    2.70
  -1   6  -2   86.49    4.05
  -1   6  -2   87.44    7.67
   1  -6   1   41.86    5.15
  -1   6  -1   40.54    3.20
  -1   6  -1   46.13    4.29
   1  -6   0  292.56    6.03
  -1   6   0  265.37    6.89
  -1   6   0  290.08    8.57
   1  -6  -1    0.76    0.94
  -1   6   1    0.82    1.67
   1  -6  -2  168.91    7.70
  -1   6   2  175.28    7.02
   1  -6  -3   28.08    4.26
  -1   6   3   20.11    3.46
   1  -6  -4   24.51    5.00
  -1   6   4   22.69    3.60
   1  -6  -5  136.53   12.25
  -1   6   5  153.43    7.56
   1  -6  -6    9.62    4.26
  -1   6   6   19.46    6.45
  -1   7 -12   61.57   20.14
  -1   7 -11    3.44    1.58
  -1   7 -11    3.44    2.32
  -1   7 -10  125.76    6.76
  -1   7 -10  129.66   14.03
  -1   7  -9  151.39    5.73
  -1   7  -9  165.35   11.48
  -1   7  -8    1.38    1.07
  -1   7  -8    0.09    0.90
  -1   7  -7  526.19   11.41
  -1   7  -7  571.74   24.39
  -1   7  -6   14.49    2.38
  -1   7  -6   21.11    3.36
  -1   7  -5  116.41    4.82
  -1   7  -5  135.77   12.73
  -1   7  -4  456.86   16.38
  -1   7  -4  427.33   14.92
  -1   7  -3   34.48    3.29
  -1   7  -3   33.83    4.58
   1  -7   2  113.50    4.98
  -1   7  -2  115.11    5.17
  -1   7  -2  123.74    7.99
   1  -7   1  185.07    7.59
  -1   7  -1  163.26    7.69
  -1   7  -1  180.19   11.75
   1  -7   0   16.27    2.57
  -1   7   0   10.88    3.27
  -1   7   0   12.43    1.48
   1  -7  -1   98.09    6.13
  -1   7   1   93.01    5.71
   1  -7  -2   57.67    9.49
  -1   7   2   53.38    4.50
   1  -7  -3   22.73    3.77
  -1   7   3   18.90    3.67
   1  -7  -4   98.22   11.74
  -1   7   4  119.47    6.80
   1  -7  -5   16.28    7.40
  -1   7   5   35.02    7.45
  -1   8 -12    2.51    1.61
  -1   8 -11   71.49   11.13
  -1   8 -10   93.70    7.75
  -1   8  -9    2.28    1.49
  -1   8  -9    1.90    1.78
  -1   8  -8  123.67   14.30
  -1   8  -8  131.73   11.40
  -1   8  -7  203.40    8.82
  -1   8  -7  218.91   19.61
  -1   8  -6    4.32    2.56
  -1   8  -6    3.36    1.03
  -1   8  -5  322.12    9.20
  -1   8  -5  307.95   19.11
  -1   8  -4  103.61    5.35
  -1   8  -4  115.77    9.10
  -1   8  -3  143.91    6.35
  -1   8  -3  142.24   10.49
   1  -8   2  234.63    8.29
  -1   8  -2  221.62    7.59
  -1   8  -2  253.34   13.86
   1  -8   1    1.10    0.92
  -1   8  -1    1.32    1.60
  -1   8  -1    0.36    0.52
   1  -8   0  161.52    6.95
  -1   8   0  143.31    6.95
  -1   8   0  131.31   11.02
   1  -8  -1   73.33    7.30
  -1   8   1   65.23    4.99
   1  -8  -2    2.30    1.08
  -1   8   2    2.61    2.01
   1  -8  -3   56.55   17.52
  -1   8   3   94.77    6.36
   1  -8  -4   34.61   13.76
  -1   8   4   58.07   11.37
  -1   9 -11   79.89   11.70
  -1   9 -10    1.14    0.93
  -1   9 -10    1.94    1.55
  -1   9  -9   60.89   14.66
  -1   9  -9   74.41   15.50
  -1   9  -8   84.15    6.49
  -1   9  -8   97.51   13.44
  -1   9  -7   12.48    3.68
  -1   9  -7    7.84    2.95
  -1   9  -6   30.59    5.01
  -1   9  -6   35.14    6.27
  -1   9  -5  127.48    7.05
  -1   9  -5  123.93    8.94
  -1   9  -4   72.85    4.69
  -1   9  -4   74.96    8.89
  -1   9  -3  120.32    6.42
  -1   9  -3  116.83    7.72
  -1   9  -2   42.02    6.54
  -1   9  -2   36.62    6.75
   1  -9   1  100.81   10.45
  -1   9  -1   93.76    7.26
  -1   9  -1   82.78   11.23
   1  -9   0  126.63   11.49
  -1   9   0  131.64    6.68
   1  -9  -1   -0.23    1.05
  -1   9   1    3.03    2.57
   1  -9  -2   64.45   11.54
  -1   9   2   98.53   10.81
   1  -9  -3   17.90    8.31
  -1   9   3   43.10    8.93
  -1  10 -11    5.41    2.38
  -1  10 -10   67.39   13.70
  -1  10  -9  105.58   13.20
  -1  10  -9  113.88    8.89
  -1  10  -8    4.93    2.53
  -1  10  -8   -0.02    0.72
  -1  10  -7  132.84    6.45
  -1  10  -7  148.10    9.42
  -1  10  -6   24.28    3.41
  -1  10  -6   20.63    3.28
  -1  10  -5   21.24    3.48
  -1  10  -5   26.91    3.99
  -1  10  -4   47.47    4.28
  -1  10  -4   46.05    5.74
  -1  10  -3   12.31    3.59
  -1  10  -3   10.14    2.75
  -1  10  -2   66.37    9.73
  -1  10  -2   45.12    9.61
  -1  10  -1  100.00    6.14
  -1  10   0    4.51    2.20
  -1  10   1   69.96    8.46
  -1  11 -10   79.20   16.10
  -1  11  -9    0.07    1.05
  -1  11  -8   74.53    8.49
  -1  11  -8   89.06   10.21
  -1  11  -7   52.51    7.01
  -1  11  -7   54.73   10.07
  -1  11  -6    7.69    3.82
  -1  11  -6    2.27    2.07
  -1  11  -5  108.57    6.60
  -1  11  -5   97.83   12.23
  -1  11  -4    8.17    3.52
  -1  11  -3   22.91    4.26
  -1  11  -3   19.40    6.27
  -1  11  -2  104.62   11.26
  -1  11  -1    2.57    2.91
  -1  12  -7    1.49    2.36
  -1  12  -7    1.36    1.11
  -1  12  -6   60.85   11.74
  -1  12  -6   46.94   11.79
  -1  12  -5   50.43   10.14
  -1  12  -5   43.20    9.87
  -1  12  -4    6.68    3.20
   2  11  -4    1.67    1.45
   2  11  -5   41.82   10.11
   2  11  -6   40.14    8.83
   2  11  -7    1.39    1.50
   2  11  -8   60.32   14.70
   2  10  -1   11.70    4.16
   2  10  -2   89.21    9.81
   2  10  -2   58.54   14.19
   2  10  -3   16.60    5.50
   2  10  -3    9.85    3.38
   2  10  -4   38.34    5.19
   2  10  -4   35.62    7.05
   2  10  -5   65.84   11.09
   2  10  -6    6.30    3.46
   2  10  -7  125.06    9.71
   2  10  -8   46.43    8.54
   2  10  -9    2.31    1.31
   2  10 -10   57.07   14.54
  -2  -9  -1   40.27   13.22
   2   9   1   69.03    8.25
  -2  -9   0    8.04    3.08
   2   9   0    5.03    3.06
  -2  -9   1   46.84   14.21
   2   9  -1   70.66    8.35
   2   9  -1   63.17    7.18
  -2  -9   2   25.38    7.77
   2   9  -2   29.93    5.20
   2   9  -2   29.28    5.08
  -2  -9   3   53.20    3.60
   2   9  -3   52.64    4.17
   2   9  -3   54.56    3.81
  -2  -9   4  133.43   10.06
   2   9  -4  145.30    9.57
   2   9  -4  161.34   13.06
  -2  -9   5    7.97    1.94
   2   9  -5    4.41    1.90
   2   9  -5    5.33    1.79
   2   9  -6  136.48   10.68
   2   9  -7   97.57   12.48
   2   9  -8    2.61    1.33
   2   9  -9   47.86    8.49
   2   9 -10   32.90    7.51
   2   9 -11    5.54    2.69
  -2  -8  -3   61.61   21.92
   2   8   3  107.16   11.73
  -2  -8  -2    6.43    3.39
   2   8   2   13.71    5.66
  -2  -8  -1    2.52    1.73
   2   8   1    1.70    1.80
  -2  -8   0   93.26   11.57
   2   8   0  117.09    8.68
   2   8   0  114.26    7.66
  -2  -8   1   32.01    3.30
   2   8  -1   35.26    3.98
   2   8  -1   36.30    3.14
  -2  -8   2   24.14    3.99
   2   8  -2   22.61    4.17
   2   8  -2   24.89    4.18
  -2  -8   3  140.59    6.48
   2   8  -3  136.44    6.77
   2   8  -3  138.97    6.80
  -2  -8   4   33.49    2.75
   2   8  -4   28.85    2.89
   2   8  -4   33.09    3.20
  -2  -8   5   97.14    4.87
   2   8  -5   94.37    5.26
   2   8  -5   94.22    5.55
  -2  -8   6  148.76    5.26
   2   8  -6  141.55    9.85
  -2  -8   7    5.48    1.65
   2   8  -7    4.69    1.84
  -2  -8   8   52.17    8.42
   2   8  -8   72.94   12.06
   2   8  -9  105.01    8.28
   2   8 -10    3.28    1.42
   2   8 -11  101.42   13.43
  -2  -7  -4   31.65   10.97
   2   7   4   58.39   11.29
  -2  -7  -3   75.83   15.64
   2   7   3  102.65    6.43
  -2  -7  -2    1.17    1.19
   2   7   2    1.70    1.82
  -2  -7  -1  203.10   17.40
   2   7   1  224.48    8.20
   2   7   1  168.23   16.53
  -2  -7   0   70.84    4.48
   2   7   0   71.95    4.66
   2   7   0   73.59    8.22
  -2  -7   1   35.22    3.31
   2   7  -1   42.40    3.67
   2   7  -1   39.69    3.09
  -2  -7   2  242.31    6.89
   2   7  -2  233.56    7.29
   2   7  -2  248.17   13.10
  -2  -7   3    4.99    1.57
   2   7  -3    2.33    1.91
   2   7  -3    4.94    1.83
  -2  -7   4   34.28    3.00
   2   7  -4   21.97    2.22
   2   7  -4   31.06    3.18
  -2  -7   5  152.04    5.04
   2   7  -5  141.55    4.89
   2   7  -5  150.66    6.10
  -2  -7   6    0.59    1.49
   2   7  -6    1.75    1.08
   2   7  -6    1.71    1.35
  -2  -7   7  193.23    7.76
   2   7  -7  211.02   18.30
  -2  -7   8  164.22    5.41
   2   7  -8  161.81   14.48
  -2  -7   9    5.09    1.59
   2   7  -9    4.19    1.38
  -2  -7  10  211.30    7.10
   2   7 -10  216.07   12.72
  -2  -7  11   30.41    4.42
   2   7 -11   36.80    7.29
  -2  -6  -5   24.15    8.02
  -2  -6  -4   68.20   11.79
  -2  -6  -3   12.10    2.89
  -2  -6  -2   96.75   13.53
   2   6   2   88.14    4.15
  -2  -6  -1  338.77   19.43
   2   6   1  337.03   12.07
  -2  -6   0    9.43    2.31
   2   6   0   10.16    2.95
   2   6   0    5.04    1.46
  -2  -6   1  247.18    9.59
   2   6  -1  247.85    9.83
   2   6  -1  253.78    9.80
  -2  -6   2   82.68    3.79
   2   6  -2   72.73    3.74
   2   6  -2   70.92    3.70
  -2  -6   3   56.57    3.09
   2   6  -3   50.88    2.94
   2   6  -3   47.86    3.12
  -2  -6   4  201.24    5.34
   2   6  -4  197.58    5.07
   2   6  -4  204.76    6.03
  -2  -6   5   -0.25    1.03
   2   6  -5    1.80    1.11
   2   6  -5    0.66    1.06
  -2  -6   6  317.57   11.43
   2   6  -6  332.40   12.43
  -2  -6   7  163.64    5.52
   2   6  -7  179.59   11.84
  -2  -6   8   36.57    3.12
   2   6  -8   36.97    8.58
  -2  -6   9  367.39    8.78
   2   6  -9  315.25   20.01
  -2  -6  10   97.80    7.15
   2   6 -10  103.27   10.58
   2   6 -11    2.45    1.46
  -2  -6  12  105.17   10.91
   2   6 -12   87.97   20.50
  -2  -5  -6   37.85   11.41
  -2  -5  -5  103.27   10.31
  -2  -5  -4   14.46    4.07
  -2  -5  -3  138.51   15.16
  -2  -5  -2   51.21    9.26
  -2  -5  -1    9.28    2.64
  -2  -5   0  214.46    5.98
  -2  -5   1  168.34    4.94
   2   5  -1  165.66    4.90
   2   5  -1  167.28    4.85
  -2  -5   2   10.32    1.81
   2   5  -2    9.52    1.62
   2   5  -2    9.09    1.85
  -2  -5   3  327.29    9.62
   2   5  -3  343.77    9.50
   2   5  -3  312.51    9.52
  -2  -5   4  237.58    5.44
   2   5  -4  227.05    4.38
   2   5  -4  237.39    6.22
  -2  -5   5  269.22    5.95
   2   5  -5  259.87    3.93
   2   5  -5  286.64    6.75
  -2  -5   6  129.71    4.53
   2   5  -6  132.10    5.03
  -2  -5   7    4.43    1.47
   2   5  -7    4.18    1.40
  -2  -5   8  144.63    5.69
   2   5  -8  140.97   11.65
  -2  -5   9  166.99    6.26
   2   5  -9  175.70   12.51
  -2  -5  10    3.06    2.02
   2   5 -10    2.68    1.08
  -2  -5  11  125.87    5.89
   2   5 -11  120.69   14.97
  -2  -5  12   48.97    9.29
  -2  -4  -7   24.91    7.01
  -2  -4  -6  174.55   16.96
  -2  -4  -5   23.71    4.35
  -2  -4  -4  158.53    8.54
  -2  -4  -3  126.57   10.60
  -2  -4  -2    3.36    1.94
  -2  -4  -1  401.64    7.85
  -2  -4   0  107.49    4.67
  -2  -4   1   20.54    2.09
  -2  -4   2  587.64   14.90
   2   4  -2  575.84   14.14
   2   4  -2  558.29   14.41
  -2  -4   3  220.01    6.87
   2   4  -3  233.70    6.47
   2   4  -3  221.41    7.09
  -2  -4   4   54.98    2.97
   2   4  -4   55.79    2.13
   2   4  -4   66.26    3.50
  -2  -4   5  302.00    9.11
   2   4  -5  291.34    7.18
   2   4  -5  307.26    9.30
  -2  -4   6   36.45    5.74
   2   4  -6   43.15    3.06
  -2  -4   7   43.64    3.16
   2   4  -7   47.90    8.01
  -2  -4   8  236.11    7.36
   2   4  -8  223.65   13.92
  -2  -4   9   19.93    2.64
   2   4  -9   22.94    4.24
  -2  -4  10   96.44    6.95
   2   4 -10   90.41    7.72
  -2  -4  11   57.74    6.80
   2   4 -11   47.00   10.09
  -2  -4  12    5.01    2.93
  -2  -3  -8    4.97    3.59
  -2  -3  -7  111.20   16.39
  -2  -3  -6   52.94   10.15
  -2  -3  -5   75.27   13.61
  -2  -3  -4  180.75    8.97
  -2  -3  -3    7.55    1.74
  -2  -3  -2  310.36    9.59
  -2  -3  -1  573.10   15.03
  -2  -3   0  132.51    5.49
  -2  -3   1  718.02   16.35
  -2  -3   2  457.91   12.18
   2   3  -2  459.76   11.13
  -2  -3   3    4.40    1.28
   2   3  -3    1.41    0.56
   2   3  -3    2.73    1.12
  -2  -3   4  584.11   15.01
   2   3  -4  591.18   16.00
  -2  -3   5   38.56    2.69
   2   3  -5   39.45    2.65
  -2  -3   6   30.18    2.59
   2   3  -6   27.76    2.39
  -2  -3   7  306.93   11.55
   2   3  -7  315.78   16.18
  -2  -3   8    1.15    1.26
   2   3  -8    1.82    1.28
  -2  -3   9  182.38    6.38
   2   3  -9  179.90   14.73
  -2  -3  10   62.78    4.75
   2   3 -10   50.38    9.94
  -2  -3  11    4.34    2.86
  -2  -3  12   69.73   10.96
  -2  -2  -9    2.63    1.81
  -2  -2  -8   74.79   26.50
  -2  -2  -7   31.49    7.30
  -2  -2  -6   34.40    7.16
  -2  -2  -5  288.90    9.06
  -2  -2  -4   72.91    8.09
  -2  -2  -3  150.62    6.40
  -2  -2  -2  500.72   13.40
  -2  -2  -1   43.56    2.75
  -2  -2   0  568.81   13.09
  -2  -2   1  222.95    6.68
  -2  -2   2    0.32    0.90
  -2  -2   3  858.60   18.84
   2   2  -3  838.07   18.14
  -2  -2   4  339.22    8.99
   2   2  -4  339.96    8.75
  -2  -2   5   36.82    3.33
   2   2  -5   33.74    2.32
  -2  -2   6  253.09    6.31
   2   2  -6  262.62    9.50
  -2  -2   7   18.74    2.40
   2   2  -7   23.63    4.99
  -2  -2   8  222.02    7.13
   2   2  -8  211.06   11.01
  -2  -2   9  102.87   14.64
   2   2  -9   90.61    8.62
  -2  -2  10    2.12    1.54
  -2  -2  11  177.40   46.79
  -2  -1  -9  132.63   14.65
  -2  -1  -8   40.44   10.50
  -2  -1  -7   14.16    3.45
  -2  -1  -6  318.21    9.59
  -2  -1  -5   40.43    9.53
  -2  -1  -4  110.39    4.53
  -2  -1  -3  474.19   12.86
  -2  -1  -2   81.17    3.89
  -2  -1  -2   86.46    4.09
  -2  -1  -1  389.85    9.42
  -2  -1  -1  414.23   10.07
  -2  -1   0  208.69    7.25
  -2  -1   0  229.15    6.53
  -2  -1   1   21.56    1.83
  -2  -1   1   22.13    1.79
  -2  -1   2  938.32   20.06
  -2  -1   2  923.78   18.13
  -2  -1   3   57.56    3.12
  -2  -1   4  297.83    8.29
   2   1  -4  287.07    7.46
  -2  -1   5  339.28   10.08
   2   1  -5  347.79    9.35
  -2  -1   6   96.86    4.08
   2   1  -6   92.84    4.63
  -2  -1   7  129.74    4.93
   2   1  -7  122.31    8.10
  -2  -1   8  269.57   10.92
   2   1  -8  243.25   12.59
  -2  -1   9    9.24    2.56
  -2  -1  10  132.75    6.50
  -2  -1  11   88.92    9.78
  -2   0 -10   68.61   14.04
  -2   0  -9   69.94   16.62
  -2   0  -8    1.89    1.17
  -2   0  -7  374.07   14.68
  -2   0  -6   88.06    9.13
  -2   0  -5  109.56    7.26
  -2   0  -5  110.93    4.70
  -2   0  -4  314.16    9.60
  -2   0  -4  329.90   10.93
  -2   0  -3  300.48    8.11
  -2   0  -3  315.06    9.58
  -2   0  -2   98.73    4.12
  -2   0  -2   94.45    4.08
  -2   0  -1  147.72    5.34
  -2   0  -1  150.61    5.40
  -2   0   0   41.62    2.24
  -2   0   0   44.81    2.40
  -2   0   1  610.93   13.43
  -2   0   1  610.05   12.61
  -2   0   2  209.59    7.28
  -2   0   2  217.02    6.86
  -2   0   3  296.13    7.87
  -2   0   3  304.19    7.04
  -2   0   4  614.73   14.57
   2   0  -4  643.67   13.97
  -2   0   5  150.34    5.82
   2   0  -5  135.70    6.99
  -2   0   6   85.60    4.11
   2   0  -6   79.43    5.56
   2   0  -7  394.66    8.01
  -2   0   9   69.80    8.76
  -2   0  10  143.63    7.03
  -2   0  11    5.12    3.46
  -2   1 -10  122.37   17.21
  -2   1  -9    7.28    1.98
  -2   1  -8  146.60    7.61
  -2   1  -7  119.16   11.44
  -2   1  -7  126.84    6.01
  -2   1  -6  134.26    5.93
  -2   1  -6  134.46    6.50
  -2   1  -5  383.20   10.94
  -2   1  -5  396.88   11.91
  -2   1  -4  362.44   10.45
  -2   1  -4  367.50   10.55
  -2   1  -3   93.44    3.98
  -2   1  -3   86.25    3.98
  -2   1  -2  369.03    8.54
  -2   1  -2  338.65    8.61
  -2   1  -1   22.07    1.50
  -2   1  -1   21.45    3.08
  -2   1   0  131.09    4.75
  -2   1   0  135.62    4.85
  -2   1   1   28.79    1.85
  -2   1   1   27.51    1.69
  -2   1   2  114.41    4.62
  -2   1   2  119.85    4.58
  -2   1   3  783.05   17.62
  -2   1   3  785.06   16.98
   2  -1  -3  748.89   15.55
   2  -1  -4  333.84   10.56
  -2   1   4  320.72    8.81
   2  -1  -4  324.97    7.96
   2  -1  -5   39.53    4.62
   2  -1  -5   26.30    2.03
   2  -1  -6  349.82   13.50
   2  -1  -7   47.59    8.08
   2  -1  -8   49.84    8.49
   2  -1  -9  103.90   17.44
  -2   1  10    0.94    2.06
  -2   2 -11   69.77   21.72
  -2   2 -10    3.27    2.00
  -2   2  -9  183.37   16.52
  -2   2  -8  224.09   12.04
  -2   2  -8  222.83    9.86
  -2   2  -7   16.38    4.26
  -2   2  -7   22.04    4.27
  -2   2  -6  308.53    7.10
  -2   2  -6  309.10    7.59
  -2   2  -5  196.63    7.77
  -2   2  -5  191.39    7.24
  -2   2  -4  292.05    7.96
  -2   2  -4  297.82    8.44
  -2   2  -3  668.65   14.36
  -2   2  -3  616.90   14.32
  -2   2  -2   14.55    1.13
  -2   2  -2   15.94    1.69
  -2   2  -1  274.53    6.34
  -2   2  -1  288.55    7.32
  -2   2   0  741.06   15.52
  -2   2   0  757.76   16.36
  -2   2   1   26.65    3.35
  -2   2   1   25.01    1.94
  -2   2   2  516.66   12.15
   2  -2  -3  228.91    9.48
  -2   2   3  221.38    6.80
   2  -2  -3  207.65    4.89
   2  -2  -4   15.77    3.55
  -2   2   4   13.74    1.72
   2  -2  -5  342.95    9.55
  -2   2   5  348.17    7.28
   2  -2  -6   19.66    3.09
  -2   2   6   15.64    2.19
   2  -2  -7   50.97    9.79
   2  -2  -8  113.72   19.95
  -2   2   8  115.12    8.08
   2  -2  -9    5.70    2.92
  -2   2   9    4.04    2.25
  -2   3 -11    1.11    1.16
  -2   3 -10   68.29   14.71
  -2   3 -10   76.68   10.99
  -2   3  -9   80.18   13.97
  -2   3  -9   93.72   17.19
  -2   3  -8   61.89    5.70
  -2   3  -8   71.13   13.02
  -2   3  -7  321.18   11.81
  -2   3  -7  321.67   12.44
  -2   3  -6   68.76    3.57
  -2   3  -6   66.36    7.81
  -2   3  -5   50.43    4.07
  -2   3  -5   50.55    6.38
  -2   3  -4 1007.94   26.54
  -2   3  -3   28.81    1.47
  -2   3  -3   26.06    2.20
  -2   3  -3   31.49    4.71
  -2   3  -2  415.21    8.76
  -2   3  -2  421.59   10.36
  -2   3  -2  395.85    9.43
  -2   3  -1 1086.26   25.35
  -2   3  -1 1186.78   28.71
  -2   3   0   71.97    5.75
  -2   3   0   67.34    3.58
   2  -3  -1  296.80    8.63
  -2   3   1  289.32    7.99
   2  -3  -2  426.56   12.49
  -2   3   2  429.39   11.74
   2  -3  -3    0.75    0.66
  -2   3   3   -0.26    1.13
   2  -3  -4  228.88    9.01
  -2   3   4  240.27    6.43
   2  -3  -5  109.59   15.33
  -2   3   5  105.93    5.01
   2  -3  -6   31.33    5.56
  -2   3   6   36.23    4.97
   2  -3  -7  274.95   23.71
  -2   3   7  318.47   41.00
   2  -3  -8   -0.11    1.58
  -2   3   8    0.26    1.29
   2  -3  -9   41.90    9.94
  -2   3   9   45.60    8.88
  -2   4 -11   51.75   13.66
  -2   4 -11   78.20    5.85
  -2   4 -10  132.87   12.62
  -2   4 -10  157.43    8.58
  -2   4  -9   -0.45    1.06
  -2   4  -9    1.05    1.52
  -2   4  -8   85.60    9.14
  -2   4  -8  101.21   13.99
  -2   4  -7    5.35    1.43
  -2   4  -7   11.66    2.37
  -2   4  -7   10.33    1.81
  -2   4  -6   18.42    3.02
  -2   4  -6   17.26    3.69
  -2   4  -6   18.48    3.74
  -2   4  -5  424.47   11.20
  -2   4  -5  407.62   12.15
  -2   4  -5  404.00   11.68
  -2   4  -4   75.90    2.84
  -2   4  -4   78.56    3.87
  -2   4  -4   91.03    7.11
  -2   4  -3   50.59    3.12
  -2   4  -3   54.88    5.18
  -2   4  -1  286.43    6.84
  -2   4  -1  286.05    8.17
  -2   4  -1  290.77    7.70
   2  -4   0  293.15    7.97
  -2   4   0  273.48    7.98
   2  -4  -1  143.99    7.84
  -2   4   1  139.23    5.60
   2  -4  -2    0.76    0.80
  -2   4   2    0.18    1.25
   2  -4  -3  179.09    7.96
  -2   4   3  179.74    5.76
   2  -4  -4  143.25    7.92
  -2   4   4  149.63    7.23
   2  -4  -5    9.29    1.97
  -2   4   5    3.78    2.08
   2  -4  -6  202.82   16.20
  -2   4   6  215.04   13.36
   2  -4  -7   84.39   26.32
  -2   4   7  107.04    6.38
   2  -4  -8   19.58    6.58
  -2   4   8   23.16    4.01
  -2   5 -12   39.08    8.07
  -2   5 -11  128.97   17.09
  -2   5 -10    2.72    1.37
  -2   5 -10    1.85    1.29
  -2   5  -9  234.79    9.97
  -2   5  -9  246.54   14.05
  -2   5  -8  182.16    7.53
  -2   5  -8  199.29    7.12
  -2   5  -8  178.06   12.06
  -2   5  -7   57.48    5.87
  -2   5  -7   70.92   10.48
  -2   5  -7   70.90    5.47
  -2   5  -6  192.60    6.18
  -2   5  -6  222.08    7.21
  -2   5  -6  219.02   11.32
  -2   5  -5  161.66    5.28
  -2   5  -5  176.94   13.73
  -2   5  -4   66.61    3.79
  -2   5  -4   81.41    6.41
  -2   5  -3  197.85    5.44
  -2   5  -3  214.17    7.25
  -2   5  -2   44.52    1.56
  -2   5  -2   52.31    3.43
  -2   5  -2   59.84    5.11
  -2   5  -1  169.63    6.60
  -2   5  -1  183.05    7.80
   2  -5   0  283.40    8.22
  -2   5   0  281.32    9.16
  -2   5   0  291.39    9.08
   2  -5  -1   41.61    7.50
  -2   5   1   36.38    3.14
   2  -5  -2  333.76   15.27
  -2   5   2  331.34   12.48
   2  -5  -3  128.85    6.43
  -2   5   3  132.30    5.93
   2  -5  -4    1.99    1.00
  -2   5   4    2.91    1.64
   2  -5  -5  157.33   12.70
  -2   5   5  174.44   11.57
   2  -5  -6   21.84    4.66
  -2   5   6   17.03    3.97
   2  -5  -7    9.47    4.79
  -2   5   7    6.14    2.97
  -2   6 -12   25.52   11.32
  -2   6 -11   43.13    5.53
  -2   6 -10  112.94   21.36
  -2   6 -10  112.12    8.70
  -2   6  -9  214.33   11.23
  -2   6  -9  203.66   12.35
  -2   6  -8   59.28   10.65
  -2   6  -8   51.54    5.07
  -2   6  -7  369.95    9.65
  -2   6  -7  387.18   18.98
  -2   6  -6  311.52   11.95
  -2   6  -6  321.33   21.39
  -2   6  -5   34.42    2.93
  -2   6  -5   40.37    6.03
  -2   6  -4  213.94    6.25
  -2   6  -4  223.32   10.29
  -2   6  -3   40.35    3.14
  -2   6  -3   50.24    7.19
  -2   6  -2  179.20    3.66
  -2   6  -2  200.62    6.10
  -2   6  -2  209.41    9.89
   2  -6   1  173.26    4.87
  -2   6  -1  161.38    5.62
  -2   6  -1  174.88    6.28
   2  -6   0   22.04    4.68
  -2   6   0   26.90    2.90
  -2   6   0   28.93    3.41
   2  -6  -1  124.81    4.34
  -2   6   1  109.71    5.09
   2  -6  -2  296.26   10.55
  -2   6   2  274.35    8.53
   2  -6  -3    4.95    1.61
  -2   6   3    4.17    2.31
   2  -6  -4  171.35   15.95
  -2   6   4  161.85   10.76
   2  -6  -5   38.36    9.56
  -2   6   5   45.88    7.39
   2  -6  -6   11.18    4.57
  -2   6   6   26.16    5.95
  -2   7 -11   52.41   12.94
  -2   7 -11   54.13    9.23
  -2   7 -10  179.53   10.17
  -2   7 -10  178.59   18.34
  -2   7  -9   39.90    8.20
  -2   7  -9   27.85    5.32
  -2   7  -8  104.60   18.01
  -2   7  -8  114.47   12.63
  -2   7  -7  188.15    6.90
  -2   7  -7  214.49   11.64
  -2   7  -6    8.06    2.13
  -2   7  -6   16.08    2.69
  -2   7  -5  188.59    8.37
  -2   7  -5  198.43   16.07
  -2   7  -4   59.15    4.41
  -2   7  -4   59.76    5.73
  -2   7  -3   32.37    3.50
  -2   7  -3   34.77    4.62
  -2   7  -2  471.17   16.97
  -2   7  -2  509.81   11.75
   2  -7   1   20.27    2.54
  -2   7  -1   23.12    2.91
  -2   7  -1   33.53    5.07
   2  -7   0   63.82    7.18
  -2   7   0   60.64    4.09
  -2   7   0   65.81    8.82
   2  -7  -1  201.13    9.28
  -2   7   1  178.88    8.47
   2  -7  -2    1.91    0.96
  -2   7   2    5.04    2.55
   2  -7  -3   46.73   11.09
  -2   7   3   52.97    4.69
   2  -7  -4   87.60   18.22
  -2   7   4   93.56    6.15
   2  -7  -5    8.99    3.96
  -2   7   5    9.17    4.37
  -2   8 -11   81.63   21.40
  -2   8 -11  103.75   15.85
  -2   8 -10    6.59    2.27
  -2   8 -10    3.03    1.89
  -2   8  -9   74.97   15.23
  -2   8  -9   82.14    8.11
  -2   8  -8  172.20   14.64
  -2   8  -8  172.21   11.52
  -2   8  -7    4.95    2.30
  -2   8  -7    3.00    1.40
  -2   8  -6  103.46    6.02
  -2   8  -6   98.77    8.60
  -2   8  -5  153.85    6.32
  -2   8  -5  157.12   12.51
  -2   8  -4    2.51    1.77
  -2   8  -4   -0.53    0.72
  -2   8  -3  308.69    9.43
  -2   8  -3  315.00   16.36
  -2   8  -2   10.52    2.79
  -2   8  -2   13.83    1.63
   2  -8   1   15.27    4.56
  -2   8  -1   23.83    3.09
  -2   8  -1   22.77    3.26
   2  -8   0  209.66    5.89
  -2   8   0  180.14    6.87
   2  -8  -1    3.93    1.46
  -2   8   1    3.62    2.85
   2  -8  -2   69.60   14.63
  -2   8   2   86.08    5.61
   2  -8  -3   77.50   16.64
  -2   8   3   97.96    6.13
   2  -8  -4    0.93    1.00
  -2   8   4    2.36    1.88
  -2   9 -11    6.17    2.75
  -2   9 -11    4.46    2.63
  -2   9 -10    7.80    4.25
  -2   9 -10   32.80    8.80
  -2   9  -9   98.65    9.05
  -2   9  -9  105.23   10.61
  -2   9  -8    2.24    2.29
  -2   9  -8    2.77    1.70
  -2   9  -7  126.35    9.05
  -2   9  -7  137.54   14.45
  -2   9  -6  131.87    7.04
  -2   9  -6  139.09   10.38
  -2   9  -5    5.27    2.85
  -2   9  -5   -0.21    1.04
  -2   9  -4  207.57    7.64
  -2   9  -4  196.40   20.55
  -2   9  -3   53.27    4.66
  -2   9  -3   53.67    8.37
  -2   9  -2   28.00    5.05
  -2   9  -2   33.51    7.09
  -2   9  -1  112.70    8.29
  -2   9  -1  109.08   12.41
   2  -9   0   17.61    7.21
  -2   9   0   29.62    5.42
   2  -9  -1   29.30   11.81
  -2   9   1   51.62    6.74
   2  -9  -2   75.47   16.03
  -2   9   2  102.00   10.98
   2  -9  -3    0.25    1.38
  -2   9   3    5.93    2.65
  -2  10 -10   72.92   17.77
  -2  10 -10   98.58   15.38
  -2  10  -9    0.71    1.33
  -2  10  -9    6.04    2.48
  -2  10  -8  117.97    8.11
  -2  10  -8  111.60   11.94
  -2  10  -7   80.41   22.34
  -2  10  -7   91.03    8.59
  -2  10  -6   -0.49    1.57
  -2  10  -6    1.04    0.98
  -2  10  -5  120.92    8.82
  -2  10  -5  119.93    9.85
  -2  10  -4   45.02    4.34
  -2  10  -4   47.86    6.46
  -2  10  -3   18.73    4.47
  -2  10  -3   13.39    2.47
  -2  10  -2  113.68    6.33
  -2  10  -2   98.28    9.61
  -2  10  -1   54.46    6.90
  -2  10   0   34.27    5.42
  -2  10   1  103.38   11.27
  -2  11  -9   30.96    9.94
  -2  11  -9   44.27   12.37
  -2  11  -8   80.40    9.13
  -2  11  -8   72.43   16.37
  -2  11  -7    0.16    1.56
  -2  11  -7    1.55    1.43
  -2  11  -6   99.48    6.83
  -2  11  -6   93.03    9.27
  -2  11  -5  103.82    6.40
  -2  11  -5   87.70   12.58
  -2  11  -4    3.54    2.54
  -2  11  -4    7.40    2.95
  -2  11  -3   86.29    6.02
  -2  11  -2   31.39    6.68
  -2  11  -1    6.53    2.88
  -2  12  -7   30.47    6.80
  -2  12  -7   23.07    5.31
  -2  12  -6  123.13   13.10
  -2  12  -6   91.59   14.05
  -2  12  -5    5.01    3.23
  -2  12  -5    0.21    0.61
  -2  12  -4   73.89    8.72
   3  10  -2   24.69    5.65
  -3 -10   3    3.29    1.96
   3  10  -3    4.92    2.38
   3  10  -4   84.48    9.16
   3  10  -5    5.97    2.52
   3  10  -6   22.07    7.98
   3  10  -7   23.00    4.17
   3  10  -8    2.00    1.27
   3  10  -9   71.84   13.31
  -3  -9   0   53.16   20.63
   3   9   0   86.47    9.64
  -3  -9   1   37.66   11.16
   3   9  -1   47.37    9.30
   3   9  -1   42.78    8.20
  -3  -9   2    1.15    1.32
   3   9  -2    2.36    2.46
   3   9  -2    1.79    1.67
  -3  -9   3   34.98    5.98
   3   9  -3   18.08    3.31
   3   9  -3   42.15    6.66
  -3  -9   4   44.39    6.75
   3   9  -4   48.12    7.54
  -3  -9   5   48.04    7.23
   3   9  -5   45.19    7.02
  -3  -9   6   95.50    4.87
   3   9  -6  106.56    5.66
  -3  -9   7    1.28    1.07
   3   9  -7   -0.13    1.07
   3   9  -8   74.66   23.20
   3   9  -9   71.87   12.97
   3   9 -10    0.12    1.12
  -3  -8  -2    8.37    3.22
   3   8   2   11.06    4.21
  -3  -8  -1   82.75   19.67
   3   8   1  118.21    6.98
  -3  -8   0   76.01   13.14
   3   8   0   72.24    8.43
   3   8   0   66.75   10.84
  -3  -8   1    1.95    1.34
   3   8  -1    3.30    2.19
   3   8  -1    0.86    1.13
  -3  -8   2  131.39    8.76
   3   8  -2  118.97    8.29
   3   8  -2  117.79    8.19
  -3  -8   3   65.34    4.33
   3   8  -3   70.81    5.49
   3   8  -3   66.55    7.38
  -3  -8   4   50.85    3.75
   3   8  -4   29.18    4.53
   3   8  -4   43.29    6.52
  -3  -8   5  155.83    5.50
   3   8  -5  158.16    6.50
  -3  -8   6   14.08    2.31
   3   8  -6    9.72    2.51
  -3  -8   7   38.75    3.18
   3   8  -7   39.30    3.89
  -3  -8   8  225.80    6.68
   3   8  -8  237.93   66.29
  -3  -8   9   -0.83    1.29
   3   8  -9    4.94    2.17
   3   8 -10   50.81   11.19
   3   8 -11   48.21   12.57
  -3  -7  -2    6.10    2.96
   3   7   2    6.70    3.18
  -3  -7  -1  129.05    9.07
   3   7   1  117.26    6.21
   3   7   1  114.94    6.92
   3   7   0    3.19    1.78
   3   7   0    0.77    1.23
  -3  -7   1  154.19    6.08
   3   7  -1  143.96    6.55
   3   7  -1  147.21   10.57
  -3  -7   2  122.79    6.42
   3   7  -2  110.69    5.83
   3   7  -2  121.65    6.69
  -3  -7   3   36.14    3.57
   3   7  -3   27.45    2.97
   3   7  -3   33.00    3.30
  -3  -7   4  337.19   12.40
   3   7  -4  320.42   11.65
   3   7  -4  356.20   13.64
   3   7  -5   77.07   10.54
  -3  -7   6    5.26    1.87
   3   7  -6    6.08    2.53
  -3  -7   7  178.41    5.84
   3   7  -7  178.34    6.53
  -3  -7   8   21.63    2.75
   3   7  -8   21.12    3.63
  -3  -7   9   81.25   22.44
   3   7  -9   77.11   11.61
  -3  -7  10  113.48    5.70
   3   7 -10  105.15    8.35
  -3  -7  11    2.82    2.45
   3   7 -11    3.22    1.73
  -3  -6  -4    3.49    2.77
  -3  -6  -3    2.97    1.96
  -3  -6  -2  130.79   12.03
  -3  -6  -1   12.21    3.09
  -3  -6   0  162.70    7.84
  -3  -6   1  187.42    6.70
   3   6  -1  176.47    6.14
   3   6  -1  194.39    6.60
  -3  -6   2   17.48    2.62
   3   6  -2    9.10    1.80
   3   6  -2   14.81    3.15
  -3  -6   3  234.19    9.28
   3   6  -3  217.97    8.38
   3   6  -3  255.85   10.37
  -3  -6   4  139.18    6.49
   3   6  -4  143.33    5.96
   3   6  -4  144.71    7.08
  -3  -6   5   25.47    2.62
   3   6  -5   21.75    2.70
  -3  -6   6  160.15    5.68
   3   6  -6  171.46    6.44
  -3  -6   7   32.56    3.22
   3   6  -7   29.54    3.71
  -3  -6   8   98.77    5.19
   3   6  -8  109.05    8.96
  -3  -6   9  138.31    9.36
   3   6  -9  134.98   14.76
  -3  -6  10    4.41    1.98
   3   6 -10    3.55    1.10
  -3  -6  11   66.50    8.74
   3   6 -11   54.65   12.32
  -3  -6  12   65.53    7.71
   3   6 -12   55.10   15.56
  -3  -5  -6   71.32   18.10
  -3  -5  -5   20.73    7.91
  -3  -5  -4   16.31    4.18
  -3  -5  -3  184.66   13.25
  -3  -5  -2    6.37    2.27
  -3  -5  -1  142.50    6.30
  -3  -5   0  161.74    7.67
  -3  -5   1    6.63    1.80
  -3  -5   2  291.54    7.10
   3   5  -2  287.40    6.41
  -3  -5   3  278.51    6.85
   3   5  -3  278.15    5.29
   3   5  -3  276.89    7.52
  -3  -5   4   37.62    5.85
   3   5  -4   36.55    1.93
   3   5  -4   39.90    3.37
  -3  -5   5  211.94    8.62
   3   5  -5  222.29    9.18
  -3  -5   6   26.73    2.97
   3   5  -6   29.60    3.14
  -3  -5   7   96.44    4.76
   3   5  -7   81.79    4.26
  -3  -5   8  212.63    9.54
   3   5  -8  198.53   15.65
  -3  -5   9   10.42    2.81
   3   5  -9    7.02    2.44
  -3  -5  10   84.30   23.34
   3   5 -10   75.39   15.56
  -3  -5  11  108.21    5.78
   3   5 -11  101.76   14.35
  -3  -5  12    0.93    1.76
  -3  -4  -6   31.38    8.29
  -3  -4  -5   41.76    9.62
  -3  -4  -4  270.80   11.92
  -3  -4  -3   59.82    9.52
  -3  -4  -2   96.68    5.12
  -3  -4  -1  221.82    9.26
  -3  -4   0   35.85    2.99
  -3  -4   1   96.28    4.28
  -3  -4   2  206.77    7.29
  -3  -4   3   36.23    5.60
   3   4  -3   34.92    1.90
  -3  -4   4  368.07    7.53
   3   4  -4  361.79    7.41
  -3  -4   5  108.22    4.47
   3   4  -5  109.10    4.41
  -3  -4   6   23.98    2.65
   3   4  -6   23.62    2.62
  -3  -4   7  307.54    8.81
   3   4  -7  298.71    8.22
  -3  -4   8   13.27    2.60
   3   4  -8   15.98    2.76
  -3  -4   9  104.27    5.66
   3   4  -9   91.39   13.12
  -3  -4  10  134.59    6.12
   3   4 -10  108.18    8.72
  -3  -4  11    1.66    2.69
   3   4 -11    0.22    0.76
  -3  -4  12   91.13    9.70
  -3  -3  -7   53.27   16.49
  -3  -3  -6   33.45    8.58
  -3  -3  -5  206.86   10.64
  -3  -3  -4  130.60   16.65
  -3  -3  -3   63.91    4.39
  -3  -3  -2  369.99    8.46
  -3  -3  -1   68.50    3.67
  -3  -3   0  222.59    7.48
  -3  -3   1  251.42    7.99
  -3  -3   2   11.50    1.84
  -3  -3   3  190.51    6.86
   3   3  -3  204.83    2.58
  -3  -3   4  175.96    6.52
   3   3  -4  188.51    6.67
  -3  -3   5   15.35    2.20
   3   3  -5   20.53    4.06
  -3  -3   6  250.88    6.96
   3   3  -6  253.93    6.41
  -3  -3   7   69.73    4.29
   3   3  -7   70.42    3.90
  -3  -3   8  152.50    7.47
   3   3  -8  163.65    7.77
  -3  -3   9  154.24    6.33
   3   3  -9  136.31   11.06
  -3  -3  10   -0.11    1.51
   3   3 -10    0.89    1.20
  -3  -3  11   70.49   10.96
  -3  -2  -8   66.12   21.34
  -3  -2  -7   14.07    4.51
  -3  -2  -6  129.41    7.92
  -3  -2  -5  189.83   23.57
  -3  -2  -4   53.23    8.59
  -3  -2  -3  497.41    9.68
  -3  -2  -2   98.55    4.93
  -3  -2  -1   85.76    4.11
  -3  -2   0  388.52   10.87
  -3  -2   1    0.40    1.18
  -3  -2   2  310.65    8.69
  -3  -2   3  449.40   12.38
  -3  -2   4   14.73    2.27
   3   2  -4    8.58    1.48
  -3  -2   5  356.01   10.74
   3   2  -5  347.19   11.14
  -3  -2   6  192.10    5.99
   3   2  -6  198.39    5.63
  -3  -2   7  100.26    4.87
  -3  -2   7   87.97    2.72
   3   2  -7  107.79    4.31
  -3  -2   8  155.28    7.44
   3   2  -8  160.16   13.26
  -3  -2   9   18.11    3.83
   3   2  -9   14.66    4.15
  -3  -2  10   78.34   11.14
  -3  -2  11  125.23   12.78
  -3  -1  -9   34.11   13.04
  -3  -1  -8    2.17    1.38
  -3  -1  -7   93.09    8.24
  -3  -1  -6   82.86   12.96
  -3  -1  -5   14.87    3.67
  -3  -1  -4  314.67    7.64
  -3  -1  -3   76.40    3.89
  -3  -1  -3   83.04    7.85
  -3  -1  -2   87.62    4.22
  -3  -1  -2   94.24    4.34
  -3  -1  -1  677.63   15.73
  -3  -1  -1  687.69   16.40
  -3  -1   0   14.46    1.85
  -3  -1   0   19.86    3.14
  -3  -1   1   61.12    3.43
  -3  -1   1   69.92    3.09
  -3  -1   2  618.72   14.58
  -3  -1   2  592.23   12.19
  -3  -1   3   66.01    3.65
  -3  -1   3   61.35    2.17
  -3  -1   4  311.76    9.49
  -3  -1   4  293.99    7.05
  -3  -1   5  258.24    8.62
  -3  -1   5  266.60    6.91
   3   1  -5  258.56   12.02
  -3  -1   6    2.23    0.95
  -3  -1   6    1.25    0.70
   3   1  -6    1.67    0.81
  -3  -1   7  340.86    9.19
  -3  -1   7  313.90   12.50
   3   1  -7  314.56   14.11
  -3  -1   8   94.23    5.65
  -3  -1   8  103.61    4.86
   3   1  -8   79.11    9.64
  -3  -1   9   21.88    3.02
  -3  -1   9   25.92    2.75
  -3  -1  10  171.26   45.19
  -3  -1  11    5.91    3.12
  -3   0  -9    1.34    1.78
  -3   0  -8  125.28   10.80
  -3   0  -7  114.84   14.38
  -3   0  -6    8.56    2.25
  -3   0  -5  271.52   11.29
  -3   0  -5  273.29   16.05
  -3   0  -4    2.44    1.28
  -3   0  -4    5.64    2.04
  -3   0  -3   25.22    2.46
  -3   0  -3   24.97    4.05
  -3   0  -2  424.71   10.68
  -3   0  -2  414.03   10.50
  -3   0  -1   69.23    3.56
  -3   0  -1   69.81    3.38
  -3   0   0  398.18    9.88
  -3   0   0  391.18    9.44
  -3   0   1  724.84   16.34
  -3   0   1  722.33   15.19
  -3   0   2   21.66    1.87
  -3   0   2   25.18    1.57
  -3   0   3  419.72   10.82
  -3   0   3  409.56    9.12
  -3   0   4  284.98    9.08
  -3   0   4  298.77    7.90
  -3   0   5   18.90    2.27
  -3   0   5   18.09    1.73
   3   0  -5   15.09    1.57
  -3   0   6  200.75    8.54
  -3   0   6  209.11    7.71
   3   0  -6  200.39    7.46
  -3   0   7  116.43    5.37
  -3   0   7  133.98    4.67
   3   0  -7  108.84    6.30
  -3   0   8    7.14    2.38
  -3   0   8    6.12    1.86
  -3   0   9  124.31    6.09
  -3   0   9  120.73    9.05
  -3   0  10   27.47    4.59
  -3   1 -10   18.76    8.92
  -3   1  -9   24.54    7.29
  -3   1  -8  320.89   38.14
  -3   1  -7    2.41    1.26
  -3   1  -7    2.14    1.34
  -3   1  -6  173.70    7.71
  -3   1  -6  189.82    8.93
  -3   1  -5  171.76   11.56
  -3   1  -5  165.02    6.19
  -3   1  -4  148.10    5.63
  -3   1  -4  129.70    5.80
  -3   1  -3  661.18   16.56
  -3   1  -3  619.06   16.43
  -3   1  -2  120.24    4.91
  -3   1  -2  120.49    5.07
  -3   1  -1  252.11    6.83
  -3   1  -1  237.34    7.50
  -3   1   0  213.29    7.63
  -3   1   0  221.79    6.49
  -3   1   1   93.71    4.10
  -3   1   1  103.25    4.10
  -3   1   2  528.54   12.58
  -3   1   2  532.04   11.91
  -3   1   3  319.92    9.36
  -3   1   3  334.59    8.98
  -3   1   4    0.03    1.13
  -3   1   4    0.53    0.71
   3  -1  -4    0.19    0.42
  -3   1   5  651.65   14.39
  -3   1   5  660.34    8.57
   3  -1  -5  662.77    6.46
  -3   1   6  188.27    8.37
  -3   1   6  207.83    8.17
  -3   1   7   77.90   10.66
  -3   1   7   77.22   13.74
  -3   1   8   68.85    9.23
  -3   1   8   65.10    5.93
  -3   1   9   35.76    5.07
  -3   1   9   28.89    6.15
  -3   1  10   28.15    5.93
  -3   2 -10   35.02   13.55
  -3   2  -9   45.50   11.08
  -3   2  -9   59.60    9.18
  -3   2  -8   40.14    8.75
  -3   2  -8   33.08    8.86
  -3   2  -7   77.78    8.93
  -3   2  -7   87.62   15.89
  -3   2  -6  306.84   13.51
  -3   2  -6  302.22   12.27
  -3   2  -5    3.28    1.27
  -3   2  -5    2.84    1.26
  -3   2  -4  378.72   10.35
  -3   2  -4  345.32   11.36
  -3   2  -3  483.33   12.21
  -3   2  -3  476.20   12.94
  -3   2  -2  478.59   11.02
  -3   2  -2  487.51   12.22
  -3   2  -1  384.38    9.19
  -3   2  -1  387.98    9.66
  -3   2   0  110.84    4.46
  -3   2   0  113.48    4.67
  -3   2   1   61.71    3.18
  -3   2   1   63.29    3.27
  -3   2   2  384.07   10.88
  -3   2   2  395.20   10.71
  -3   2   3   26.19    2.53
  -3   2   3   20.12    1.92
  -3   2   4  286.24    6.70
  -3   2   4  280.68    6.24
   3  -2  -4  266.91    3.55
  -3   2   5  230.25    9.47
  -3   2   5  238.58    9.24
  -3   2   6    9.57    2.17
  -3   2   6    8.96    1.71
  -3   2   7  293.56    8.73
  -3   2   7  297.40    7.75
  -3   2   8   74.53   10.78
  -3   2   8   74.03   10.58
  -3   2   9   61.51    8.05
  -3   2   9   52.99    6.62
  -3   3 -11   33.84   12.25
  -3   3 -10   59.14   18.84
  -3   3 -10   88.12   20.67
  -3   3  -9    2.09    0.86
  -3   3  -9    2.02    1.26
  -3   3  -8  189.95    8.39
  -3   3  -8  176.51    8.63
  -3   3  -7  203.39    6.39
  -3   3  -7  200.29    7.29
  -3   3  -6    0.94    0.67
  -3   3  -6   -0.06    0.88
  -3   3  -5  244.88    5.28
  -3   3  -5  232.03    8.48
  -3   3  -4  246.66    7.01
  -3   3  -4  249.95    8.42
  -3   3  -3    1.96    0.74
  -3   3  -3    7.73    1.69
  -3   3  -2  364.14    8.50
  -3   3  -2  376.81    9.93
  -3   3  -1  204.78    7.05
  -3   3  -1  220.54    7.08
  -3   3   0  111.22    4.52
  -3   3   0  115.99    5.24
  -3   3   1  696.87   17.18
  -3   3   1  696.95   17.63
  -3   3   2    2.46    1.44
  -3   3   2    0.75    1.10
  -3   3   3   36.73    2.70
  -3   3   3   35.34    2.94
  -3   3   4  175.82    7.54
  -3   3   4  179.36    7.76
  -3   3   5   15.21    2.55
  -3   3   5   10.06    1.96
  -3   3   6   75.99    4.97
  -3   3   6   76.22   10.43
  -3   3   7  115.20    8.45
  -3   3   7  123.81    8.64
  -3   3   8   22.19    6.79
  -3   3   8   17.67    5.62
  -3   3   9  228.94   22.33
  -3   3   9  210.77   20.30
  -3   4 -11   84.83   25.65
  -3   4 -10   17.37    6.92
  -3   4  -9   88.85   10.68
  -3   4  -9   97.58   16.45
  -3   4  -8  507.30   64.29
  -3   4  -8  473.43   17.31
  -3   4  -7    0.99    0.80
  -3   4  -7    8.08    2.00
  -3   4  -6  144.83    6.96
  -3   4  -6  150.04    7.28
  -3   4  -5  170.46    6.45
  -3   4  -5  179.64    5.97
  -3   4  -4   18.76    1.39
  -3   4  -4   15.57    2.39
  -3   4  -3  525.11   12.32
  -3   4  -3  547.25   14.69
  -3   4  -2  174.23    5.02
  -3   4  -2  181.51    6.54
  -3   4  -1   25.20    1.67
  -3   4  -1   23.99    2.38
  -3   4   0  647.84   15.81
  -3   4   0  661.11   17.31
  -3   4   1   95.66    4.03
  -3   4   1   96.08    4.66
  -3   4   2   68.48    6.93
  -3   4   2   76.39    3.99
  -3   4   3  124.89   10.99
  -3   4   3  127.55    5.17
  -3   4   4   12.55    2.69
  -3   4   5  129.81    6.75
  -3   4   6  107.78    7.84
  -3   4   7   46.16    6.07
  -3   4   8   90.08   10.08
  -3   4   8   76.83    8.84
  -3   5 -11   24.71    8.24
  -3   5 -10   34.66    8.59
  -3   5  -9  245.23   18.58
  -3   5  -9  244.91   18.25
  -3   5  -8    4.60    0.98
  -3   5  -8    5.08    2.28
  -3   5  -7  127.48    4.81
  -3   5  -7  126.60   12.93
  -3   5  -6  284.92   10.90
  -3   5  -6  279.42   11.47
  -3   5  -5    0.37    0.29
  -3   5  -5    3.47    1.87
  -3   5  -4  286.27    6.87
  -3   5  -3  248.09    8.34
  -3   5  -2   83.81    2.90
  -3   5  -2   90.66    4.70
  -3   5  -1  300.49    7.96
  -3   5  -1  301.09    9.80
  -3   5   0  127.06    3.81
  -3   5   0  131.89    5.10
  -3   5   1   88.60    3.49
  -3   5   1   84.50    4.33
  -3   5   2  230.92    8.97
  -3   5   2  224.84    9.38
   3  -5  -3   33.12    6.54
  -3   5   3   28.01    3.13
   3  -5  -4  220.16   14.85
  -3   5   4  211.19    9.46
   3  -5  -5   99.12    9.50
  -3   5   5  102.93    7.89
   3  -5  -6    0.31    0.88
  -3   5   6    3.29    2.34
  -3   5   7  124.57   13.07
  -3   6 -11    2.21    1.46
  -3   6 -10  125.44   16.22
  -3   6  -9   39.96    8.98
  -3   6  -8  128.18   12.34
  -3   6  -7  213.29    9.87
  -3   6  -6   14.10    2.97
  -3   6  -6   16.51    3.17
  -3   6  -5  272.52   10.94
  -3   6  -5  281.91   11.01
  -3   6  -4  191.63    6.15
  -3   6  -4  205.67   11.73
  -3   6  -3   19.23    2.68
  -3   6  -3   20.48    3.49
  -3   6  -2   99.09    4.84
  -3   6  -1   85.34    5.74
  -3   6  -1   84.73    4.78
  -3   6   0  126.14    3.93
  -3   6   0  121.14    5.47
  -3   6   1  326.58   12.18
  -3   6   1  344.82   13.28
  -3   6   2   41.38    3.83
   3  -6  -3  150.74    6.21
  -3   6   3  149.83    6.46
   3  -6  -4  166.51   10.95
  -3   6   4  180.15   11.82
   3  -6  -5    9.63    2.48
  -3   6   5   12.46    3.48
   3  -6  -6   48.06   12.31
  -3   6   6   58.12   11.26
  -3   7 -11   47.60   14.91
  -3   7 -10   52.46   11.69
  -3   7  -9   62.80   10.73
  -3   7  -8  223.53   17.72
  -3   7  -8  198.40   17.89
  -3   7  -7   44.21    8.72
  -3   7  -7   34.39    6.16
  -3   7  -6   73.58    6.69
  -3   7  -6   77.46    5.38
  -3   7  -5  185.24    6.91
  -3   7  -5  186.79   11.41
  -3   7  -4    3.35    2.16
  -3   7  -4    1.03    0.84
  -3   7  -3  169.95    8.23
  -3   7  -3  167.48   12.35
  -3   7  -2   76.15    5.01
  -3   7  -2   69.58    6.47
  -3   7  -1  102.21    3.28
  -3   7  -1  113.43    5.57
  -3   7   0  363.81    8.83
  -3   7   0  356.76   10.07
  -3   7   1   70.55    4.67
   3  -7  -2   71.11   11.67
  -3   7   2   63.87    4.96
   3  -7  -3  159.57   14.01
  -3   7   3  151.96   10.27
   3  -7  -4   19.81    7.41
  -3   7   4   17.18    5.68
   3  -7  -5   31.26    8.27
  -3   7   5   34.07    7.21
  -3   8 -11   64.04   16.41
  -3   8 -10   28.24    7.82
  -3   8  -9  133.91   16.88
  -3   8  -9  115.00   10.73
  -3   8  -8    9.80    2.34
  -3   8  -8    9.17    2.78
  -3   8  -7   43.87    7.77
  -3   8  -7   36.60    8.60
  -3   8  -6  129.08    6.91
  -3   8  -6  133.06   13.26
  -3   8  -5    8.82    2.45
  -3   8  -5    3.31    1.42
  -3   8  -4  134.17    7.29
  -3   8  -4  140.14   13.39
  -3   8  -3  174.43    8.61
  -3   8  -3  161.07   16.47
  -3   8  -2   24.36    3.86
  -3   8  -2   21.63    3.74
  -3   8  -1  181.78    8.79
  -3   8   0   68.49    3.56
  -3   8   0   88.17    5.70
  -3   8   1   43.82    4.37
   3  -8  -2  107.34    8.40
  -3   8   2   99.15    5.74
   3  -8  -3   22.65    8.45
  -3   8   3   23.63    4.54
   3  -8  -4   34.12    9.49
  -3   8   4   35.40    7.41
  -3   9 -11   11.34    3.91
  -3   9 -10   73.36   17.36
  -3   9 -10   83.11   15.51
  -3   9  -9    5.20    1.85
  -3   9  -9   12.77    4.73
  -3   9  -8   39.41    7.20
  -3   9  -8   38.37    9.70
  -3   9  -7  127.65    9.27
  -3   9  -7  121.59   12.10
  -3   9  -6    1.88    1.62
  -3   9  -6    2.74    1.44
  -3   9  -5  191.70    7.67
  -3   9  -5  171.84   14.16
  -3   9  -4  171.76    7.34
  -3   9  -4  163.87   14.02
  -3   9  -3    3.87    2.56
  -3   9  -3    2.54    0.92
  -3   9  -2   73.94    5.31
  -3   9  -2   65.72    7.12
  -3   9  -1   74.21    6.40
  -3   9   0    5.98    2.66
  -3   9   1   59.82    7.52
  -3   9   2   13.74    4.93
  -3   9   3   34.66    7.48
  -3  10 -10   14.23    4.63
  -3  10 -10   22.14    9.22
  -3  10  -9   43.27   12.84
  -3  10  -9   41.11   13.04
  -3  10  -8  153.49    7.55
  -3  10  -8  146.19   15.39
  -3  10  -7   21.46    4.79
  -3  10  -7   11.37    4.23
  -3  10  -6  103.99    6.68
  -3  10  -6   96.02    9.19
  -3  10  -5  222.59    8.75
  -3  10  -5  200.02   15.47
  -3  10  -4    5.65    3.05
  -3  10  -4    2.30    1.69
  -3  10  -3   36.27    6.71
  -3  10  -3   27.94    7.87
  -3  10  -2   79.06   11.47
  -3  10  -2   43.68   11.61
  -3  10  -1    3.25    2.39
  -3  10   0  111.04   11.89
  -3  10   1    7.16    4.00
  -3  11  -9  105.92   13.32
  -3  11  -9   92.15   16.68
  -3  11  -8   33.74    7.29
  -3  11  -8   31.49    9.79
  -3  11  -7   48.96    9.56
  -3  11  -7   40.76   12.04
  -3  11  -6  116.88    6.94
  -3  11  -6  103.71   12.35
  -3  11  -5   12.99    4.87
  -3  11  -5    6.82    3.09
  -3  11  -4   55.01    7.33
  -3  11  -4   37.26    9.16
  -3  11  -3   91.78   11.43
  -3  11  -2    2.78    1.88
  -3  11  -1   55.90   10.74
  -3  12  -6    5.84    2.60
  -3  12  -6   11.08    5.10
  -3  12  -5   78.12    9.12
  -3  12  -5   45.44   13.48
   4  10  -4   35.39    7.38
   4  10  -5   16.05    5.49
   4  10  -6   54.16   10.36
   4  10  -7   23.28    4.70
  -4  -9   1    6.83    3.53
   4   9  -1    2.88    2.15
  -4  -9   2   58.58   11.42
   4   9  -2   56.32   11.91
  -4  -9   3   79.70    8.94
   4   9  -3   72.82    8.26
  -4  -9   4    1.55    1.76
   4   9  -4    2.97    2.08
  -4  -9   5   91.67    5.34
   4   9  -5  104.10    6.22
  -4  -9   6   39.10    5.33
   4   9  -6   44.09    6.49
   4   9  -7   24.60    4.18
   4   9  -8   85.40   16.16
   4   9  -9    2.69    1.93
  -4  -8  -1   39.65   14.44
   4   8   1   60.44   11.45
  -4  -8   0   11.98    4.59
   4   8   0    8.11    4.06
   4   8   0    0.65    1.26
  -4  -8   1   78.59    5.98
   4   8  -1   63.16    7.55
   4   8  -1   71.44    8.48
  -4  -8   2  107.57    6.45
   4   8  -2   99.84    5.38
   4   8  -2  100.09   11.36
  -4  -8   3    4.36    2.38
   4   8  -3    1.56    1.47
  -4  -8   4   98.46    5.18
   4   8  -4  106.11    5.83
  -4  -8   5   31.85    5.37
   4   8  -5   17.59    3.22
  -4  -8   6    4.87    2.42
   4   8  -6    5.74    2.65
  -4  -8   7  115.73    5.55
   4   8  -7  129.24    6.34
  -4  -8   8   20.12    6.22
   4   8  -8   18.16    5.99
  -4  -8   9   43.83    5.85
   4   8  -9   37.86    8.44
   4   8 -10   89.20   16.24
  -4  -7  -2   52.73   17.72
  -4  -7  -1   37.94    6.06
   4   7   1   35.46    4.84
  -4  -7   0   63.93    9.95
   4   7   0   50.08    7.49
   4   7   0   58.15    8.56
  -4  -7   1  117.70    8.63
   4   7  -1  118.56    8.16
   4   7  -1  106.65   13.37
  -4  -7   2    1.50    1.31
   4   7  -2    5.09    2.17
   4   7  -2    4.64    2.37
  -4  -7   3  167.25    6.45
   4   7  -3  154.38    5.38
   4   7  -3  161.16    6.62
  -4  -7   4   78.54    4.69
   4   7  -4   91.91   11.52
  -4  -7   5    3.36    2.21
   4   7  -5    3.43    2.05
  -4  -7   6   94.67    5.04
   4   7  -6  104.94   14.96
  -4  -7   7   93.48    7.04
   4   7  -7   96.99    7.43
  -4  -7   8   17.93    3.37
   4   7  -8   25.98    6.22
  -4  -7   9   69.12    8.18
   4   7  -9   56.02   12.35
  -4  -7  10    8.13    3.80
   4   7 -10    8.04    2.98
  -4  -7  11   49.61    9.58
   4   7 -11   45.60   11.80
  -4  -6  -3   70.44   17.87
  -4  -6  -2   54.33    8.69
  -4  -6  -1   56.07    5.08
  -4  -6   0  101.28    6.11
  -4  -6   1    8.73    2.45
  -4  -6   2  167.30    8.09
   4   6  -2  137.57    8.00
   4   6  -2  153.79    8.50
  -4  -6   3  166.23    7.72
   4   6  -3  149.06    6.38
   4   6  -3  164.76    8.17
  -4  -6   4   -0.31    1.26
   4   6  -4    2.57    1.78
  -4  -6   5  136.41    6.82
   4   6  -5  143.82    7.86
  -4  -6   6  195.61    8.83
   4   6  -6  204.31    9.41
  -4  -6   7   24.82    4.41
   4   6  -7   19.57    4.13
  -4  -6   8   58.42    4.11
   4   6  -8   54.72    4.25
  -4  -6   9   19.43    4.09
   4   6  -9   14.43    3.64
  -4  -6  10   48.18    6.43
   4   6 -10   51.01   10.28
  -4  -6  11  106.82   11.40
   4   6 -11   93.29   14.53
  -4  -5  -5    1.43    1.20
  -4  -5  -4   76.98   16.78
  -4  -5  -3   60.91   15.63
  -4  -5  -2   44.65    4.64
  -4  -5  -1  157.75    6.66
  -4  -5   0   -0.77    1.46
  -4  -5   1  109.22    5.37
  -4  -5   2  314.30    8.83
  -4  -5   3    1.71    1.57
   4   5  -3    3.09    1.48
  -4  -5   4  184.29    7.43
   4   5  -4  187.29    6.69
  -4  -5   5  128.73    5.81
   4   5  -5  118.83    5.53
  -4  -5   6    1.75    1.63
   4   5  -6    0.48    1.22
  -4  -5   7  131.39    6.91
   4   5  -7  136.97    7.14
  -4  -5   8   22.87    4.42
   4   5  -8   20.26    3.97
  -4  -5   9   30.54    3.67
   4   5  -9   25.88    6.50
  -4  -5  10  159.22    7.57
   4   5 -10  123.14   11.16
  -4  -5  11   27.60    6.02
   4   5 -11   21.10    7.17
  -4  -4  -6   -0.01    1.82
  -4  -4  -5  125.41   14.16
  -4  -4  -4   44.59   10.96
  -4  -4  -3   31.94    5.79
  -4  -4  -2  199.47    9.34
  -4  -4  -1   94.89    5.23
  -4  -4   0   40.94    3.86
  -4  -4   1  308.38   11.87
  -4  -4   2    1.99    1.67
  -4  -4   3  213.24    9.19
   4   4  -3  198.21    6.89
  -4  -4   4  171.57    7.81
  -4  -4   5   33.25    3.46
   4   4  -5   38.87    3.63
  -4  -4   6  408.65   10.57
   4   4  -6  422.54   10.30
  -4  -4   7   78.95    5.46
   4   4  -7   83.53    5.14
  -4  -4   8   17.98    3.79
   4   4  -8    9.28    2.16
  -4  -4   9  226.02   14.11
   4   4  -9  193.01   15.51
  -4  -4  10   24.81    4.40
   4   4 -10   23.15    5.31
  -4  -4  11   25.50    5.54
  -4  -3  -7    3.09    2.15
  -4  -3  -6   45.45   13.85
  -4  -3  -5   73.71   20.04
  -4  -3  -4    1.25    1.55
  -4  -3  -3  286.14   11.98
  -4  -3  -2  160.61    6.59
  -4  -3  -1   35.36    3.43
  -4  -3   0  134.62    5.34
  -4  -3   1   60.89    3.57
  -4  -3   2  180.98    5.75
  -4  -3   3   52.84    3.66
  -4  -3   4   15.50    2.52
  -4  -3   5  470.90   16.81
   4   3  -5  483.15   17.57
  -4  -3   6  392.89   14.75
   4   3  -6  397.29   15.11
  -4  -3   7   23.84    2.98
   4   3  -7   18.39    2.61
  -4  -3   8  310.04    9.03
   4   3  -8  314.21    8.28
  -4  -3   9   86.24    6.90
   4   3  -9   75.61    7.98
  -4  -3  10   43.96    5.72
   4   3 -10   26.16    6.61
  -4  -3  11   84.42    9.35
  -4  -2  -7   57.13   17.96
  -4  -2  -6   61.50   17.87
  -4  -2  -5    0.17    0.92
  -4  -2  -4  133.73    7.37
  -4  -2  -3  284.72    8.78
  -4  -2  -2   21.04    2.91
  -4  -2  -1  225.20    6.35
  -4  -2   0   30.44    2.95
  -4  -2   1  202.52    5.86
  -4  -2   2   90.55    4.65
  -4  -2   3   13.84    2.44
  -4  -2   4  349.18    7.79
  -4  -2   5  172.17    5.88
   4   2  -5  176.48    5.49
  -4  -2   6   21.62    2.85
   4   2  -6   25.47    5.02
  -4  -2   7  191.68    7.24
   4   2  -7  198.76    6.52
  -4  -2   8  149.82    6.48
   4   2  -8  145.55    5.33
   4   2  -9    7.83    1.68
  -4  -2  10  149.19    7.05
  -4  -2  11   39.64    7.97
  -4  -1  -8   76.73   22.45
  -4  -1  -7  106.95   17.06
  -4  -1  -6    4.94    1.68
  -4  -1  -5  209.44   12.01
  -4  -1  -4   95.62    5.43
  -4  -1  -3   54.79    3.87
  -4  -1  -3   56.91   11.06
  -4  -1  -2  283.38    7.04
  -4  -1  -2  291.70    8.23
  -4  -1  -1  172.67    6.57
  -4  -1  -1  184.52    6.53
  -4  -1   0   58.14    3.50
  -4  -1   0   63.57    4.83
  -4  -1   1  751.13   19.70
  -4  -1   1  729.13   17.38
  -4  -1   2   62.43    3.84
  -4  -1   2   54.00    2.57
  -4  -1   3  174.92    6.70
  -4  -1   3  168.12    4.88
  -4  -1   4  269.65    7.03
  -4  -1   5   37.40    3.76
   4   1  -5   39.75    6.21
  -4  -1   6  129.33    5.63
   4   1  -6  129.74    4.61
  -4  -1   7   57.98    4.20
   4   1  -7   56.34    3.20
  -4  -1   8    0.94    1.82
   4   1  -8    1.40    0.89
  -4  -1   9  115.54    5.98
  -4  -1  10   32.83    4.85
  -4  -1  11   17.09    5.42
  -4   0  -9    3.04    1.98
  -4   0  -8  192.03   52.34
  -4   0  -7   15.60    5.64
  -4   0  -6  130.86    9.42
  -4   0  -6  133.70    7.35
  -4   0  -5  150.93    6.37
  -4   0  -5  146.38    6.35
  -4   0  -4   15.50    2.61
  -4   0  -4   12.08    2.87
  -4   0  -3  450.57    8.60
  -4   0  -3  441.35    9.64
  -4   0  -2  138.97    5.70
  -4   0  -2  140.11    5.83
  -4   0  -1   58.73    3.33
  -4   0  -1   70.05    3.88
  -4   0   0  729.81   18.55
  -4   0   0  717.01   17.89
  -4   0   1  399.90   11.38
  -4   0   1  391.75   10.41
  -4   0   2   60.35    3.43
  -4   0   2   68.32    3.47
  -4   0   3  433.67   12.32
  -4   0   3  461.62   11.30
  -4   0   4   10.29    2.13
  -4   0   4   12.88    1.20
  -4   0   5  125.72    5.35
  -4   0   5  123.76    3.29
   4   0  -5  130.25    4.27
  -4   0   6  244.20    8.03
  -4   0   6  232.85    5.45
   4   0  -6  259.07    6.40
  -4   0   7   44.99    3.58
  -4   0   7   44.58    2.56
   4   0  -7   50.40    2.62
  -4   0   8  152.78   23.72
  -4   0   9   34.51    5.86
  -4   0  10   16.32    5.21
  -4   1  -9   85.05   15.30
  -4   1  -7   44.83   12.21
  -4   1  -7   56.88   11.16
  -4   1  -6  140.01   10.13
  -4   1  -6  150.07    7.79
  -4   1  -5   -0.53    1.22
  -4   1  -5    0.78    0.46
  -4   1  -4  261.90    6.75
  -4   1  -4  249.15    6.68
  -4   1  -3  349.57    7.19
  -4   1  -3  321.65    7.38
  -4   1  -2   51.59    3.18
  -4   1  -2   53.66    8.51
  -4   1  -1  602.18   15.52
  -4   1  -1  621.85   16.17
  -4   1   0  212.50    7.02
  -4   1   0  211.14    7.84
  -4   1   1   30.52    2.54
  -4   1   1   31.20    2.22
  -4   1   2  204.41    5.26
  -4   1   2  221.85    6.44
  -4   1   3  140.01    5.76
  -4   1   3  132.36    4.60
  -4   1   4  164.39    5.63
  -4   1   4  165.04    4.28
  -4   1   5  198.84    8.65
  -4   1   5  193.28    7.42
   4  -1  -5  189.59    7.12
  -4   1   6   10.88    2.51
  -4   1   6   13.97    1.74
   4  -1  -6   12.94    1.50
  -4   1   7  265.66    8.12
  -4   1   7  267.59    6.46
  -4   1   8   69.34   12.57
  -4   1   8   74.14    5.73
  -4   1   9    5.27    2.23
  -4   1  10  103.25   17.47
  -4   2 -10   71.35   15.82
  -4   2  -9   15.10    7.29
  -4   2  -8   83.51   12.19
  -4   2  -8   89.50   18.22
  -4   2  -7  157.61   13.18
  -4   2  -7  143.77    9.76
  -4   2  -6   51.10   12.44
  -4   2  -6   55.21    9.39
  -4   2  -5  189.42    8.07
  -4   2  -5  184.87   10.21
  -4   2  -4  270.77    6.22
  -4   2  -4  257.20    6.64
  -4   2  -3   15.79    1.86
  -4   2  -3   18.27    3.99
  -4   2  -2  410.70   11.38
  -4   2  -2  416.20   12.54
  -4   2  -1   97.94    4.14
  -4   2  -1   94.57    4.17
  -4   2   0   32.18    2.51
  -4   2   0   37.51    2.75
  -4   2   1  469.59   12.56
  -4   2   1  482.52   12.59
  -4   2   2   94.56    4.40
  -4   2   2   98.44    4.18
  -4   2   3  123.65    4.71
  -4   2   3  130.37    4.34
  -4   2   4  181.18    7.99
  -4   2   4  177.17    7.20
  -4   2   5   19.15    2.87
  -4   2   5   16.85    1.95
  -4   2   6  244.95   10.42
  -4   2   6  245.05    9.60
  -4   2   7   66.77    4.52
  -4   2   7   68.78    8.94
  -4   2   8    1.53    2.10
  -4   2   8    1.49    1.44
  -4   2   9  163.96   16.35
  -4   3 -10   22.58   10.61
  -4   3 -10   30.28    9.32
  -4   3  -9   31.90   10.86
  -4   3  -9   53.04   15.05
  -4   3  -8  183.88   15.10
  -4   3  -8  202.31   13.95
  -4   3  -7   42.80    8.67
  -4   3  -7   55.71   10.45
  -4   3  -6  152.52    6.79
  -4   3  -6  146.13    6.24
  -4   3  -5  267.60    9.85
  -4   3  -5  265.94   11.68
  -4   3  -4   59.09    2.80
  -4   3  -4   70.48   11.60
  -4   3  -3  211.56    6.50
  -4   3  -3  227.02    9.26
  -4   3  -2   71.56    3.41
  -4   3  -2   73.24    4.06
  -4   3  -1    1.72    1.23
  -4   3  -1    3.36    1.43
  -4   3   0  449.53   11.97
  -4   3   0  455.76   12.43
  -4   3   1   69.88    8.78
  -4   3   1   62.99    3.50
  -4   3   2  251.04    6.11
  -4   3   2  267.71    6.41
  -4   3   3  301.60    7.28
  -4   3   3  304.38    6.96
  -4   3   4   23.83    2.40
  -4   3   4   25.53    2.94
  -4   3   5  102.35    5.75
  -4   3   5  102.05    5.50
  -4   3   6  207.45    7.29
  -4   3   6  214.67    6.80
  -4   3   7    4.29    2.43
  -4   3   7    3.58    1.93
  -4   3   8  105.67    6.20
  -4   3   8  102.22    5.78
  -4   4 -10    3.25    2.33
  -4   4 -10   13.29    5.14
  -4   4  -9  220.69   11.96
  -4   4  -9  233.35   64.75
  -4   4  -8   41.31    9.72
  -4   4  -8   62.33   12.52
  -4   4  -7  143.94    9.34
  -4   4  -7  129.79   14.61
  -4   4  -6  199.34    6.92
  -4   4  -6  198.41   10.07
  -4   4  -5   54.92    2.78
  -4   4  -5   63.16    9.61
  -4   4  -4  100.32    3.96
  -4   4  -4  108.19    5.59
  -4   4  -3  116.78    3.25
  -4   4  -3  119.82    4.86
  -4   4  -2    1.04    0.83
  -4   4  -2    1.40    1.11
  -4   4  -1  262.64    7.65
  -4   4  -1  264.22    8.53
  -4   4   0  146.92    4.05
  -4   4   0  157.07    5.07
  -4   4   1  175.09    4.97
  -4   4   1  190.93    6.03
  -4   4   2  288.08   10.79
  -4   4   2  287.80   11.07
  -4   4   3   48.65    3.33
  -4   4   3   44.23    3.78
  -4   4   4   60.14    3.76
  -4   4   4   63.40    3.82
  -4   4   5  205.63    6.91
  -4   4   5  192.45    6.45
  -4   4   6    0.35    1.24
  -4   4   6    2.00    1.37
  -4   4   7   58.32   11.90
  -4   4   7   59.84    7.27
  -4   4   8  108.42   11.58
  -4   4   8   81.68    9.19
  -4   5 -11    2.44    1.61
  -4   5 -10  162.56   12.57
  -4   5  -9   55.17   14.74
  -4   5  -8   30.27    6.71
  -4   5  -8   61.81   12.81
  -4   5  -7  229.70    9.00
  -4   5  -7  229.48   11.12
  -4   5  -6   89.26    5.13
  -4   5  -6  100.60   15.86
  -4   5  -5  131.21    5.87
  -4   5  -5  129.58   12.35
  -4   5  -4  233.16    7.79
  -4   5  -4  254.88   10.36
  -4   5  -3    6.64    1.17
  -4   5  -3    6.58    2.48
  -4   5  -2  201.43    4.17
  -4   5  -2  205.58    6.19
  -4   5  -1  158.30    4.07
  -4   5  -1  161.01    5.64
  -4   5   0   44.16    2.44
  -4   5   0   48.81    3.67
  -4   5   1  327.64   12.03
  -4   5   1  357.39   13.52
  -4   5   2  112.45    8.91
  -4   5   2  105.90    5.06
  -4   5   3   30.38    2.93
  -4   5   3   30.12    3.09
  -4   5   4  218.90    9.08
  -4   5   4  218.13    7.45
  -4   5   5    2.28    1.54
  -4   5   5    2.08    1.37
  -4   5   6   83.17    5.33
  -4   5   6   85.02    5.38
  -4   5   7   43.06    8.91
  -4   5   7   32.40    6.75
  -4   6 -11   82.05   20.47
  -4   6 -10   65.85   16.30
  -4   6  -9    1.74    1.80
  -4   6  -8  128.64   16.26
  -4   6  -7   31.48    6.08
  -4   6  -6   74.10   14.20
  -4   6  -5  440.91   11.44
  -4   6  -4    3.57    2.67
  -4   6  -3  180.87    8.20
  -4   6  -2  243.06    8.35
  -4   6  -2  247.36   10.28
  -4   6  -1   18.93    1.73
  -4   6  -1   23.80    3.41
  -4   6   0  324.79   11.44
  -4   6   0  369.82   14.33
  -4   6   1   72.16    3.55
  -4   6   1   76.22    4.63
  -4   6   2    7.09    1.65
  -4   6   2    9.04    2.35
  -4   6   3  237.89    6.99
  -4   6   3  228.71    7.72
  -4   6   4   28.13    2.94
  -4   6   4   23.83    3.25
  -4   6   5   65.65    7.82
  -4   6   5   69.32    8.23
  -4   6   6   66.49    7.67
  -4   6   6   69.01    8.19
  -4   7 -11   21.82    7.75
  -4   7 -10    2.72    2.20
  -4   7  -9   93.67   20.33
  -4   7  -8   20.85    3.98
  -4   7  -7   69.65   12.95
  -4   7  -6  252.88   11.14
  -4   7  -5    5.80    2.27
  -4   7  -4  134.41    5.98
  -4   7  -3  191.64    7.18
  -4   7  -2   21.58    3.55
  -4   7  -1  161.07    4.56
  -4   7  -1  178.26    7.39
  -4   7   0   76.52   11.16
  -4   7   0   82.53    5.86
  -4   7   1    2.50    1.45
  -4   7   1    2.35    1.70
  -4   7   2  144.30    9.07
  -4   7   2  142.21    9.79
  -4   7   3   54.62   12.11
  -4   7   3   61.20    9.28
  -4   7   4   13.13    4.35
  -4   7   4   10.30    3.91
  -4   7   5  119.50   12.26
  -4   7   5  111.60   11.91
  -4   8 -10  116.20   21.74
  -4   8  -9    9.59    3.54
  -4   8  -8   33.18    7.41
  -4   8  -7  164.54   11.59
  -4   8  -6   78.47    5.43
  -4   8  -5  141.48    7.19
  -4   8  -4  138.56    7.58
  -4   8  -3   49.62    4.55
  -4   8  -2  236.84   10.78
  -4   8  -1   69.22    5.12
  -4   8   0   28.79    3.94
  -4   8   1   72.41    5.29
  -4   8   1   80.23    6.66
  -4   8   2   40.30    9.89
  -4   8   2   66.46    9.91
  -4   8   3    5.04    2.85
  -4   8   3    6.29    2.99
  -4   8   4   72.36    8.03
  -4   8   4   73.24    8.69
  -4   9 -10   89.88   23.47
  -4   9  -9    2.35    1.78
  -4   9  -8   97.84   10.55
  -4   9  -7   68.96   10.21
  -4   9  -6   37.58    4.00
  -4   9  -5  114.24    8.68
  -4   9  -4   11.75    3.12
  -4   9  -3   97.99    7.76
  -4   9  -2  177.37   11.87
  -4   9  -1    5.43    3.32
  -4   9   0  143.52    7.04
  -4   9   1   48.95    6.49
  -4   9   2    9.43    4.08
  -4  10  -9   54.95   15.67
  -4  10  -8   82.83   21.06
  -4  10  -7   12.81    4.79
  -4  10  -6  149.31    7.47
  -4  10  -5    5.97    3.15
  -4  10  -4   14.34    3.77
  -4  10  -3  135.79    7.07
  -4  10  -2    4.17    2.90
  -4  10  -1   29.26    5.11
  -4  10   0   64.13    7.81
  -4  10   1   -0.28    1.57
  -4  11  -8    3.49    2.13
  -4  11  -7  136.03   14.25
  -4  11  -6   23.75    4.80
  -4  11  -5   16.43    5.39
  -4  11  -4  103.63   10.99
  -4  11  -3    3.28    2.74
  -4  11  -2   34.83    8.16
  -5  -9   4   71.81    8.88
   5   9  -4   68.63    8.14
  -5  -9   5   71.76    8.25
   5   9  -5   82.48    9.39
  -5  -9   6    0.57    1.32
   5   9  -6    1.21    1.75
  -5  -9   7   78.54    8.75
   5   9  -7   85.25    9.64
   5   8  -1   80.95   10.51
  -5  -8   2    6.43    3.38
   5   8  -2    5.23    2.99
   5   8  -3   34.73    5.17
  -5  -8   4  135.08    6.66
   5   8  -4  149.90    7.34
  -5  -8   5    2.12    1.59
   5   8  -5    4.01    2.71
  -5  -8   6   68.73    8.22
   5   8  -6   71.35   12.23
  -5  -8   7   29.09    4.33
   5   8  -7   29.50    4.82
  -5  -8   8    2.24    1.80
   5   8  -8    6.44    3.96
  -5  -8   9  104.81   11.14
   5   8  -9  127.30   13.18
  -5  -7   0  107.96   11.86
  -5  -7   1   25.90    4.88
   5   7  -1   12.79    4.73
   5   7  -1    9.46    3.51
  -5  -7   2   46.37    7.75
   5   7  -2   32.92    5.53
  -5  -7   3   59.50    9.09
   5   7  -3   48.33    9.23
  -5  -7   4    2.07    1.94
   5   7  -4    0.53    1.37
  -5  -7   5   28.57    4.94
   5   7  -5   39.34    7.49
  -5  -7   6   75.90   10.98
   5   7  -6   81.92   24.70
  -5  -7   7    0.55    1.65
   5   7  -7    2.01    0.59
  -5  -7   8  103.52    6.25
   5   7  -8  111.94    6.32
  -5  -7   9   43.24    8.53
   5   7  -9   48.90    9.42
  -5  -7  10    5.56    2.73
   5   7 -10   10.74    4.83
  -5  -6  -3   48.65   14.91
  -5  -6  -2    3.98    3.06
  -5  -6  -1  194.05   51.26
  -5  -6   0   81.51   22.84
  -5  -6   1   30.91    4.56
  -5  -6   2  100.96    7.88
   5   6  -2   64.03    5.70
  -5  -6   3    7.80    2.71
   5   6  -3    6.36    3.17
  -5  -6   4  151.55    6.53
   5   6  -4  145.10    7.54
  -5  -6   5   40.29    6.23
   5   6  -5   41.44    8.63
  -5  -6   6   16.50    2.96
   5   6  -6    9.05    2.35
  -5  -6   7  118.23    8.44
   5   6  -7  154.30   10.58
  -5  -6   8   65.91    9.71
   5   6  -8   61.87    9.26
  -5  -6   9    6.97    4.06
   5   6  -9    3.17    2.24
  -5  -6  10   58.38   11.12
   5   6 -10   43.27   12.85
  -5  -5  -4   62.49   19.42
  -5  -5  -3    1.93    1.96
  -5  -5  -2  145.61    7.87
  -5  -5  -1   61.09    5.25
  -5  -5   0    4.18    2.39
  -5  -5   1  148.83    6.50
  -5  -5   2   29.03    3.82
  -5  -5   3   57.68    4.15
  -5  -5   4  384.66   14.81
  -5  -5   5    0.86    1.85
   5   5  -5    2.05    1.61
  -5  -5   6  236.01    8.22
   5   5  -6  243.46    8.13
  -5  -5   7  106.29    8.14
   5   5  -7  116.17    8.50
  -5  -5   8    8.33    3.24
   5   5  -8    2.32    1.50
  -5  -5   9   76.82    5.63
   5   5  -9   89.07    5.46
  -5  -5  10   25.37    6.06
   5   5 -10    8.30    4.24
  -5  -4  -5   39.80   19.15
  -5  -4  -4    3.23    2.19
  -5  -4  -3  101.57    6.64
  -5  -4  -2   81.31    7.36
  -5  -4  -1   26.87    4.99
  -5  -4   0  137.86    7.46
  -5  -4   1   61.19    4.72
  -5  -4   2   40.38    3.81
  -5  -4   3  313.07    9.39
  -5  -4   4   19.35    4.12
  -5  -4   5   23.89    3.32
   5   4  -5   26.66    4.44
  -5  -4   6  379.28   14.81
   5   4  -6  396.10   15.07
  -5  -4   7    3.97    2.26
   5   4  -7    1.13    1.33
  -5  -4   8  131.89    9.53
   5   4  -8  134.18    9.22
  -5  -4   9  119.96    6.91
   5   4  -9  126.33    6.18
  -5  -4  10   25.13    5.72
   5   4 -10   16.20    6.23
  -5  -4  11  108.07   11.60
  -5  -3  -6   57.83   20.70
  -5  -3  -5    4.64    2.05
  -5  -3  -4   27.53    5.58
  -5  -3  -3   86.80    7.30
  -5  -3  -2   25.20    3.39
  -5  -3  -1  304.13    9.31
  -5  -3   0  118.56    5.78
  -5  -3   1   81.38    4.57
  -5  -3   2  273.71   11.16
  -5  -3   3   45.54    9.82
  -5  -3   4   41.49    3.91
  -5  -3   5  119.00    5.79
  -5  -3   6    8.24    3.09
   5   3  -6    7.72    2.28
  -5  -3   7  117.43    6.77
   5   3  -7  119.55    5.98
  -5  -3   8  207.65   13.29
   5   3  -8  191.28   11.98
  -5  -3   9    0.40    1.91
   5   3  -9    2.03    1.94
  -5  -3  10   82.12    9.08
  -5  -2  -7   58.76   22.42
  -5  -2  -6    4.42    2.18
  -5  -2  -5   36.93   10.47
  -5  -2  -4  177.26    7.62
  -5  -2  -3    8.56    2.96
  -5  -2  -2  283.82    9.13
  -5  -2  -1  147.22    7.34
  -5  -2   0    4.01    2.31
  -5  -2   0    2.23    1.14
  -5  -2   1  382.24   14.25
  -5  -2   1  320.55   11.06
  -5  -2   2   55.99    4.08
  -5  -2   2   35.42    4.71
  -5  -2   3   83.70    4.68
  -5  -2   4  255.24   10.55
  -5  -2   5   13.55    2.59
  -5  -2   6  248.06    8.37
   5   2  -6  256.38   17.34
  -5  -2   7  112.61    6.40
   5   2  -7  114.68    5.91
  -5  -2   8    5.43    2.27
   5   2  -8   10.74    2.14
  -5  -2   9   89.72    5.58
   5   2  -9   70.05   12.95
  -5  -2  10   54.61   10.42
  -5  -1  -6   52.03   13.14
  -5  -1  -5  183.46   12.21
  -5  -1  -4   11.57    2.58
  -5  -1  -4   11.94    2.44
  -5  -1  -3  198.66    7.61
  -5  -1  -3  201.85    8.82
  -5  -1  -2  100.02    5.14
  -5  -1  -2   98.46    8.60
  -5  -1  -1    1.62    1.58
  -5  -1  -1    2.87    1.04
  -5  -1   0  257.64    7.03
  -5  -1   0  275.66    6.73
  -5  -1   1  160.88    6.67
  -5  -1   1  155.31    4.41
  -5  -1   2   41.80    3.52
  -5  -1   2   33.01    4.56
  -5  -1   3  351.56    8.35
  -5  -1   3  331.03    4.44
  -5  -1   4   17.33    3.02
  -5  -1   5   89.40    5.14
  -5  -1   6  222.93    9.95
   5   1  -6  215.51   16.26
  -5  -1   7    2.06    2.32
   5   1  -7    4.37    1.83
  -5  -1   8  106.27    8.11
   5   1  -8  101.58    6.89
  -5  -1   9  103.30    5.75
  -5  -1  10    7.96    3.57
  -5   0  -8   23.75    8.26
  -5   0  -7   43.62   14.59
  -5   0  -6  262.71   16.21
  -5   0  -6  258.49   15.84
  -5   0  -5   42.46    6.52
  -5   0  -5   51.49   10.53
  -5   0  -4  121.21    5.96
  -5   0  -4  118.44   11.98
  -5   0  -3  147.51    7.45
  -5   0  -3  145.16    6.97
  -5   0  -2    2.19    1.38
  -5   0  -2    2.22    0.91
  -5   0  -1  137.47    5.19
  -5   0  -1  146.81    7.06
  -5   0   0  270.87    7.07
  -5   0   0  278.40    7.07
  -5   0   1   63.75    3.93
  -5   0   1   63.22    6.52
  -5   0   2  312.22    7.59
  -5   0   2  314.10    7.33
  -5   0   3  113.92    4.85
  -5   0   3  116.85    4.45
  -5   0   4   26.55    3.29
  -5   0   4   25.37    1.70
  -5   0   5  200.12    7.32
  -5   0   5  188.62    4.49
  -5   0   6    8.53    2.11
   5   0  -6    0.82    1.00
  -5   0   7  106.71    6.21
   5   0  -7   86.52    9.58
  -5   0   8  170.24    7.51
  -5   0   9   19.32    6.13
  -5   0  10   70.86   11.79
  -5   1  -8   22.01    9.57
  -5   1  -7  132.68    7.16
  -5   1  -7  119.19   12.79
  -5   1  -6   68.47   11.39
  -5   1  -6   63.44   12.72
  -5   1  -5   52.26    4.03
  -5   1  -5   49.34    9.89
  -5   1  -4  347.94    9.54
  -5   1  -4  318.88   12.89
  -5   1  -3    4.09    1.91
  -5   1  -3    3.82    1.26
  -5   1  -2  159.26    5.47
  -5   1  -2  159.95    5.70
  -5   1  -1  422.42    8.21
  -5   1  -1  432.64   10.88
  -5   1   0   36.64    5.37
  -5   1   0   35.74    7.21
  -5   1   1  169.50    5.48
  -5   1   1  181.85    6.24
  -5   1   2  129.04    4.97
  -5   1   2  142.70    4.05
  -5   1   3    6.15    2.28
  -5   1   3    7.96    1.44
  -5   1   4  241.63   10.12
  -5   1   4  243.57    8.71
  -5   1   5   31.11    3.36
  -5   1   5   33.22    2.41
   5  -1  -6  145.66   10.77
  -5   1   7  158.45   20.42
  -5   1   8    7.52    3.30
  -5   1   9  140.35   14.07
  -5   2  -9    6.20    2.87
  -5   2  -9   12.71    4.58
  -5   2  -8  104.61   12.56
  -5   2  -8  116.80   25.85
  -5   2  -7   11.08    3.56
  -5   2  -7   25.23    5.27
  -5   2  -6   10.08    2.82
  -5   2  -6   10.24    2.38
  -5   2  -5  398.06    9.95
  -5   2  -5  362.10   13.64
  -5   2  -4    4.15    2.26
  -5   2  -4    4.91    1.66
  -5   2  -3   79.82    4.01
  -5   2  -3   88.74   13.40
  -5   2  -2  243.88    6.15
  -5   2  -2  260.57    7.15
  -5   2  -1    1.50    1.34
  -5   2  -1    1.15    0.69
  -5   2   0  281.13    6.57
  -5   2   0  287.56    6.28
  -5   2   1  125.84    4.66
  -5   2   1  139.60    4.39
  -5   2   2    9.05    1.99
  -5   2   2    7.63    1.40
  -5   2   3  291.92   11.37
  -5   2   3  288.00   10.39
  -5   2   4  100.22    5.00
  -5   2   4   99.58    4.07
  -5   2   5   56.96    4.18
  -5   2   5   50.89    3.16
  -5   2   6  158.04    6.52
  -5   2   6  152.14    5.30
  -5   2   7   19.73    4.19
  -5   2   7   15.05    3.00
  -5   2   8   54.79    6.91
  -5   2   9  107.49   11.52
  -5   3  -9   66.75   14.98
  -5   3  -9  102.89   20.07
  -5   3  -8   28.10   10.58
  -5   3  -8   36.36   10.44
  -5   3  -7   19.39    4.56
  -5   3  -6  367.73   13.51
  -5   3  -6  385.76   14.98
  -5   3  -5    9.70    1.81
  -5   3  -5   16.49    3.13
  -5   3  -4   91.08    4.16
  -5   3  -4   95.94   13.29
  -5   3  -3  226.71    8.92
  -5   3  -3  241.20   10.93
  -5   3  -2   -0.49    0.94
  -5   3  -2    4.16    1.85
  -5   3  -1  221.90    5.84
  -5   3  -1  224.18    6.35
  -5   3   0  127.77    4.51
  -5   3   0  135.89    4.80
  -5   3   1   53.07    3.27
  -5   3   1   59.71    3.49
  -5   3   2  426.14   15.04
  -5   3   2  443.71   15.26
  -5   3   3  102.59    4.84
  -5   3   3  100.71    4.36
  -5   3   4   24.66    3.21
  -5   3   4   24.79    2.63
  -5   3   5  185.55    7.09
  -5   3   5  187.56    6.05
  -5   3   6   26.11    3.27
  -5   3   6   32.16    3.13
  -5   3   7   14.18    5.10
  -5   3   7   11.92    3.94
  -5   3   8   73.11   12.41
  -5   4 -10   70.37   21.56
  -5   4  -9   59.54   16.06
  -5   4  -8    2.45    1.39
  -5   4  -8    5.76    2.67
  -5   4  -7  131.69    8.26
  -5   4  -7  149.52   16.45
  -5   4  -6   69.69    8.75
  -5   4  -6   86.17   13.73
  -5   4  -5   99.35    3.97
  -5   4  -5  109.31   11.43
  -5   4  -4  128.59    4.18
  -5   4  -4  144.86    8.42
  -5   4  -3   74.54    3.38
  -5   4  -3   76.89    8.99
  -5   4  -2  221.13    8.46
  -5   4  -2  207.54    8.67
  -5   4  -1  389.22    7.11
  -5   4  -1  365.72    7.79
  -5   4   0   30.51    2.72
  -5   4   0   35.77    2.97
  -5   4   1  295.09   11.44
  -5   4   1  325.94   12.20
  -5   4   2  168.51    6.17
  -5   4   2  172.26    6.32
  -5   4   3   35.05    3.07
  -5   4   3   36.62    3.41
  -5   4   4  276.78    7.79
  -5   4   4  274.56    7.62
  -5   4   5   38.97    3.61
  -5   4   5   45.60    3.81
  -5   4   6   26.26    4.54
  -5   4   6   24.50    7.33
  -5   4   7   89.40    9.73
  -5   4   7   89.31    9.43
  -5   5 -10   80.50   22.33
  -5   5  -9    4.74    2.90
  -5   5  -8   92.76   20.33
  -5   5  -7   70.95   16.02
  -5   5  -6   32.71    6.57
  -5   5  -6   56.77    8.77
  -5   5  -5  185.67    5.01
  -5   5  -5  198.64    7.45
  -5   5  -4   47.78    2.51
  -5   5  -4   56.63    8.73
  -5   5  -3   68.70    5.58
  -5   5  -3   74.34    4.20
  -5   5  -2  185.53    7.28
  -5   5  -2  161.99    7.42
  -5   5  -1   15.77    1.87
  -5   5  -1   15.97    2.41
  -5   5   0  139.27    6.24
  -5   5   0  142.23    7.04
  -5   5   1  222.69   19.59
  -5   5   1  247.68   18.52
  -5   5   2    1.34    1.21
  -5   5   2    1.86    2.07
  -5   5   3  245.04    7.23
  -5   5   3  271.05    7.94
  -5   5   4  126.16    8.52
  -5   5   4  130.65    8.75
  -5   5   5   63.98    9.26
  -5   5   5   66.23    9.69
  -5   5   6   85.58    9.16
  -5   5   6   85.62    9.08
  -5   6 -10    3.85    1.71
  -5   6  -9   24.16    6.64
  -5   6  -8  110.81   21.72
  -5   6  -7    5.95    2.03
  -5   6  -6  320.21    9.79
  -5   6  -5   21.04    4.06
  -5   6  -4   60.70    4.91
  -5   6  -3  310.60    8.86
  -5   6  -2    2.13    1.43
  -5   6  -2    3.36    2.12
  -5   6  -1   30.00    2.24
  -5   6  -1   36.08    3.60
  -5   6   0   90.41    4.70
  -5   6   0  105.73    6.38
  -5   6   1    3.48    1.69
  -5   6   1    2.24    1.64
  -5   6   2   81.37    6.24
  -5   6   2   80.80    5.24
  -5   6   3   83.40    6.13
  -5   6   3   85.43    6.88
  -5   6   4   16.06    2.98
  -5   6   4   20.29    3.90
  -5   6   5   91.45    9.58
  -5   6   5   94.08    9.99
  -5   6   6   23.02    5.96
  -5   6   6   37.39    7.91
  -5   7 -10   80.52   22.85
  -5   7  -9   81.95   17.40
  -5   7  -8    4.01    2.27
  -5   7  -7  160.86   16.79
  -5   7  -6   70.31   13.97
  -5   7  -5   30.91    5.23
  -5   7  -4  261.02   11.10
  -5   7  -3   59.64    4.31
  -5   7  -2   72.64    4.82
  -5   7  -1  348.41   14.09
  -5   7   0    3.27    1.30
  -5   7   0   13.55    3.14
  -5   7   1   37.90    2.97
  -5   7   1   38.67    4.08
  -5   7   2   41.73    6.34
  -5   7   2   44.97    7.21
  -5   7   3   10.76    4.09
  -5   7   3   17.91    5.71
  -5   7   4   62.82   11.54
  -5   7   4   59.86   11.24
  -5   8 -10  133.24   18.49
  -5   8  -9    0.94    1.91
  -5   8  -8  113.77   23.34
  -5   8  -7   53.73   13.73
  -5   8  -6   22.14    4.19
  -5   8  -5  120.91    8.60
  -5   8  -4  123.26    6.66
  -5   8  -3   51.67    4.76
  -5   8  -2  178.52    7.63
  -5   8  -1   32.33    4.25
  -5   8   0   80.83    6.87
  -5   8   1   96.98    5.91
  -5   8   2    1.50    1.72
  -5   8   3  108.69   11.54
  -5   9  -9   43.44   13.61
  -5   9  -8  116.15   19.34
  -5   9  -7    2.93    2.26
  -5   9  -6  120.22    6.73
  -5   9  -5   49.52    7.99
  -5   9  -4   27.42    5.45
  -5   9  -3  121.72    6.74
  -5   9  -2    7.86    3.33
  -5   9  -1   62.28    9.56
  -5   9   0   78.36    5.92
  -5   9   1    9.76    3.99
  -5   9   2  103.98   11.33
  -5  10  -8    3.45    2.34
  -5  10  -7   68.84    8.05
  -5  10  -6   53.16    6.95
  -5  10  -5    3.94    2.77
  -5  10  -4   91.24    6.46
  -5  10  -3    1.39    1.88
  -5  10  -2   56.84    7.74
  -5  10  -1  138.30   14.16
  -5  10   0    3.51    2.54
  -5  11  -7   42.62    8.89
  -5  11  -6    5.58    2.90
  -5  11  -5   69.69    8.42
  -5  11  -4   40.40    8.72
  -5  11  -3   43.65    9.10
  -6  -8   4    3.09    2.03
   6   8  -4   -0.20    1.51
   6   8  -5   14.37    5.23
  -6  -8   6   64.44    7.63
   6   8  -6   62.21   11.88
  -6  -8   7   -0.12    1.62
   6   8  -7    2.40    2.02
  -6  -7   1    9.59    3.90
  -6  -7   2   88.56   10.34
   6   7  -2   71.22   13.73
  -6  -7   3   26.43    6.06
   6   7  -3   22.14    6.85
  -6  -7   4   94.78    6.23
   6   7  -4   78.99    5.65
  -6  -7   5   83.99    8.35
   6   7  -5   75.97   11.02
  -6  -7   6    4.59    2.24
   6   7  -6    2.86    2.23
  -6  -7   7   45.34    8.87
   6   7  -7   59.77   11.58
  -6  -7   8   84.68    9.85
   6   7  -8   90.49   10.14
  -6  -6  -1   65.32    8.80
  -6  -6   0    2.01    3.34
  -6  -6   1   90.53    6.31
  -6  -6   2   51.31    6.69
  -6  -6   3    8.07    2.44
  -6  -6   4   90.66    5.89
   6   6  -4   80.77   24.49
  -6  -6   5   41.83    6.93
   6   6  -5   44.00    7.11
  -6  -6   6  159.64    7.84
   6   6  -6  158.37    7.35
  -6  -6   7   97.20   21.31
   6   6  -7  117.05    6.61
  -6  -6   8    3.31    2.31
   6   6  -8    0.27    1.29
  -6  -6   9  114.92   12.33
   6   6  -9  109.62   11.65
  -6  -5  -2   62.80   12.22
  -6  -5  -1    1.72    1.86
  -6  -5   0   88.20    6.15
  -6  -5   1   62.58    9.48
  -6  -5   2    2.97    1.82
  -6  -5   3  126.52    9.37
  -6  -5   4   32.15    4.14
  -6  -5   5   45.91    4.85
   6   5  -5   50.06    4.53
  -6  -5   6  156.42    7.23
   6   5  -6  161.20    7.41
  -6  -5   7   14.01    3.15
   6   5  -7    8.81    3.10
  -6  -5   8   87.75    5.84
   6   5  -8  103.41    6.32
  -6  -5   9   96.72   10.73
   6   5  -9  114.02   11.98
  -6  -5  10    5.92    3.59
   6   5 -10    1.14    2.56
  -6  -4  -4   70.56    9.14
  -6  -4  -3   86.93   10.13
  -6  -4  -2    5.62    3.66
  -6  -4  -1  108.06    6.75
  -6  -4   0  146.48   10.25
  -6  -4   1    3.10    1.66
  -6  -4   2  124.45    6.78
  -6  -4   3   76.98    5.59
  -6  -4   4   33.25    5.87
  -6  -4   5  136.31    7.15
  -6  -4   6   14.20    3.22
   6   4  -6   26.96    3.63
  -6  -4   7   42.25    6.88
   6   4  -7   49.39    7.79
  -6  -4   8  118.35    6.71
   6   4  -8  121.20    6.43
  -6  -4   9    3.66    2.50
   6   4  -9    2.12    2.22
  -6  -4  10   66.19    8.01
   6   4 -10   67.17    7.91
  -6  -3  -5   16.51    8.89
  -6  -3  -4   97.79    7.10
  -6  -3  -3    7.78    2.94
  -6  -3  -2   61.51    5.30
  -6  -3  -1  170.87    7.43
  -6  -3   0   10.82    3.18
  -6  -3   1  229.72   10.29
  -6  -3   2  164.02    8.39
  -6  -3   3   15.60    3.13
  -6  -3   4   76.94   11.06
  -6  -3   5  107.01    6.16
  -6  -3   6   36.17    6.01
   6   3  -6   41.94    6.53
  -6  -3   7   59.12    4.97
   6   3  -7   60.57   13.02
  -6  -3   8    4.20    2.34
   6   3  -8    2.64    1.94
  -6  -3   9  122.50    7.24
   6   3  -9  133.59    6.71
  -6  -3  10   75.42    8.81
  -6  -2  -6    4.87    2.43
  -6  -2  -5  125.06   13.31
  -6  -2  -3   85.21    7.39
  -6  -2  -2  134.36    7.29
  -6  -2  -1    3.49    2.35
  -6  -2   0  212.96    9.63
  -6  -2   1  213.45    7.68
  -6  -2   1  173.49    6.61
  -6  -2   2    0.91    2.00
  -6  -2   2    2.23    0.67
  -6  -2   3  142.27    6.47
  -6  -2   4  128.24    7.15
  -6  -2   5   44.70    4.15
  -6  -2   6   94.10    6.50
   6   2  -6   86.40   10.17
  -6  -2   7    3.02    2.13
   6   2  -7    2.22    1.76
  -6  -2   8   67.17   10.34
   6   2  -8   79.98   22.17
  -6  -2   9  114.36    7.12
  -6  -2  10    5.80    3.69
  -6  -1  -6  104.47   20.43
  -6  -1  -5   47.47    7.06
  -6  -1  -4   55.96    4.66
  -6  -1  -3  196.58    7.55
  -6  -1  -3  173.14   17.47
  -6  -1  -2   13.01    2.69
  -6  -1  -2   10.30    3.56
  -6  -1  -1  132.57    6.22
  -6  -1  -1  122.45    5.19
  -6  -1   0  191.48    7.31
  -6  -1   0  195.85    6.40
  -6  -1   1    3.61    1.97
  -6  -1   1    2.05    0.69
  -6  -1   2  189.97    4.93
  -6  -1   3  108.28    5.91
  -6  -1   4   43.71    3.89
  -6  -1   5  274.67   11.87
  -6  -1   6   22.85    4.66
   6   1  -6   16.60    3.44
  -6  -1   7   67.20    5.15
   6   1  -7   72.35    5.94
  -6  -1   8  169.64   44.86
   6   1  -8  166.30    6.56
  -6  -1   9   11.83    4.35
  -6   0  -7   58.70   23.03
  -6   0  -6   66.33   14.98
  -6   0  -6   77.84    5.84
  -6   0  -5   62.09    9.40
  -6   0  -5   51.74   16.36
  -6   0  -4  122.45    6.77
  -6   0  -4  105.33   13.06
  -6   0  -3   83.04    5.66
  -6   0  -3   79.92   15.47
  -6   0  -2    8.29    2.33
  -6   0  -2    4.65    1.59
  -6   0  -1  132.18    9.97
  -6   0  -1  142.47    8.27
  -6   0   0    0.13    1.63
  -6   0   0    1.94    0.96
  -6   0   1  211.57    9.41
  -6   0   1  214.80    9.23
  -6   0   2   96.49    5.01
  -6   0   2   92.27    6.73
  -6   0   3   15.35    2.96
  -6   0   3    5.60    0.94
  -6   0   4  419.71   10.97
  -6   0   5  107.29    6.33
  -6   0   6   22.07    4.21
   6   0  -6   22.35    3.67
  -6   0   7  163.88   11.28
   6   0  -7  150.18   13.22
  -6   0   8   35.10    8.15
  -6   0   9   84.54    9.55
  -6   1  -8   41.18   20.20
  -6   1  -7   49.23   20.03
  -6   1  -7   66.72   17.61
  -6   1  -6   34.66    5.98
  -6   1  -6   28.67    6.89
  -6   1  -5  153.42   10.32
  -6   1  -5  155.84   10.41
  -6   1  -4  102.72    5.96
  -6   1  -4   85.30   13.39
  -6   1  -3   72.57    4.64
  -6   1  -3   71.39   11.77
  -6   1  -2   67.01    4.43
  -6   1  -2   68.38   10.14
  -6   1  -1    4.73    2.36
  -6   1  -1    6.25    1.90
  -6   1   0  185.91    8.31
  -6   1   0  212.85    8.83
  -6   1   1   51.89    3.94
  -6   1   1   57.52    9.42
  -6   1   2    3.62    2.28
  -6   1   2    1.31    0.63
  -6   1   3  196.21    7.25
  -6   1   3  196.55    5.33
  -6   1   4  232.09   10.17
  -6   1   4  220.95    8.11
  -6   1   5   29.81    5.31
  -6   1   6  128.45    9.03
   6  -1  -6  117.02   12.27
  -6   1   7   42.45    6.90
  -6   1   8   47.50    6.49
  -6   1   9   75.23    8.90
  -6   2  -8   33.52   15.93
  -6   2  -8   53.85   19.22
  -6   2  -7    1.39    1.88
  -6   2  -7    2.88    1.87
  -6   2  -6  173.57   11.61
  -6   2  -6  158.27   18.38
  -6   2  -5   88.36    5.39
  -6   2  -5   82.60   16.43
  -6   2  -4   34.68    3.33
  -6   2  -4   36.88    9.68
  -6   2  -3  313.99    8.88
  -6   2  -3  328.77    9.65
  -6   2  -2   19.25    2.74
  -6   2  -2   26.65    6.45
  -6   2  -1  314.07   12.02
  -6   2  -1  332.72   13.64
  -6   2   0  151.45    7.16
  -6   2   0  162.98    8.17
  -6   2   1    2.93    2.20
  -6   2   1   -0.26    0.89
  -6   2   2  148.76    6.07
  -6   2   2  140.42    4.84
  -6   2   3  151.16    6.30
  -6   2   3  156.91    5.06
  -6   2   4   26.45    3.45
  -6   2   4   25.38    2.46
  -6   2   5   80.81    5.33
  -6   2   5   68.54    3.87
  -6   2   6   64.74    4.84
  -6   2   7   30.57    4.73
  -6   2   8  119.88   12.58
  -6   3  -8    2.98    1.27
  -6   3  -8    2.46    1.76
  -6   3  -7   51.06   12.16
  -6   3  -7   69.92   17.84
  -6   3  -6   52.56    4.10
  -6   3  -6   57.40    9.65
  -6   3  -5   57.90    4.51
  -6   3  -5   62.93    9.62
  -6   3  -4  213.08    9.05
  -6   3  -4  212.61   11.15
  -6   3  -3  114.70    4.83
  -6   3  -3  118.32    6.09
  -6   3  -2   17.28    2.64
  -6   3  -2   29.65    6.82
  -6   3  -1  575.87   12.02
  -6   3  -1  581.22   10.61
  -6   3   0   29.17    2.94
  -6   3   0   29.44    2.91
  -6   3   1  121.07    5.51
  -6   3   1  111.64    4.50
  -6   3   2  236.83    7.55
  -6   3   2  237.86    6.94
  -6   3   3   25.84    3.26
  -6   3   3   21.36    2.45
  -6   3   4  199.12    7.17
  -6   3   4  203.47    6.19
  -6   3   5   31.84    3.95
  -6   3   5   26.39    2.74
  -6   3   6    3.73    2.03
  -6   3   6   -0.11    1.03
  -6   3   7  103.22   10.89
  -6   4  -9    2.81    2.20
  -6   4  -8   78.65   13.63
  -6   4  -7   48.72   12.17
  -6   4  -7   84.17   27.03
  -6   4  -6   55.29    3.65
  -6   4  -6   62.43   14.58
  -6   4  -5  124.40    6.81
  -6   4  -5  150.46   15.87
  -6   4  -4   85.10    4.69
  -6   4  -4   92.02   13.82
  -6   4  -3   48.05    3.22
  -6   4  -3   61.71    9.68
  -6   4  -2  215.60    6.61
  -6   4  -2  203.54    8.51
  -6   4  -1   83.02    4.18
  -6   4  -1   92.99    4.93
  -6   4   0   32.70    2.89
  -6   4   0   42.80    3.46
  -6   4   1  202.86    6.67
  -6   4   1  210.32    6.87
  -6   4   2   16.25    2.66
  -6   4   2   13.53    2.64
  -6   4   3  193.49    6.98
  -6   4   3  192.70    6.46
  -6   4   4   92.37    7.01
  -6   4   4   90.77    6.64
  -6   4   5    4.50    2.95
  -6   4   5    1.56    1.52
  -6   4   6  154.01    7.03
  -6   4   6  139.95    5.92
  -6   4   7   14.01    4.84
  -6   5  -9   50.41   16.02
  -6   5  -8   94.97   14.95
  -6   5  -7    3.49    1.38
  -6   5  -6  199.22   13.17
  -6   5  -5   79.02    3.88
  -6   5  -5   92.99   14.16
  -6   5  -4   17.62    2.08
  -6   5  -4   11.00    3.01
  -6   5  -3  255.21    9.67
  -6   5  -3  270.27   12.43
  -6   5  -2   39.72    2.88
  -6   5  -2   43.36    3.68
  -6   5  -1  154.25    6.84
  -6   5  -1  144.90    7.06
  -6   5   0   39.19    3.09
  -6   5   0   45.18    3.68
  -6   5   1   57.54    3.78
  -6   5   1   56.89    4.00
  -6   5   2  141.99    6.58
  -6   5   2  138.99    6.66
  -6   5   3   73.99    6.09
  -6   5   3   72.15    5.78
  -6   5   4    2.27    2.07
  -6   5   4    2.15    1.39
  -6   5   5   94.33    5.52
  -6   5   5   92.98    5.13
  -6   5   6   47.01   10.30
  -6   5   6   53.73   10.11
  -6   6  -9   59.30   16.55
  -6   6  -8    7.17    3.37
  -6   6  -7  109.87   17.27
  -6   6  -6   89.33   13.82
  -6   6  -5    1.89    0.90
  -6   6  -4  205.04    7.27
  -6   6  -3   50.70    4.29
  -6   6  -2   45.23    4.90
  -6   6  -2   52.64    4.01
  -6   6  -1  176.53    5.25
  -6   6  -1  183.11    6.79
  -6   6   0   23.82    3.88
  -6   6   0   29.18    5.05
  -6   6   1  103.05    5.27
  -6   6   1  109.12    6.21
  -6   6   2  101.83    7.41
  -6   6   2  115.11    8.40
  -6   6   3    5.00    2.23
  -6   6   3    0.93    1.40
  -6   6   4   99.44    5.66
  -6   6   4   96.15    5.76
  -6   6   5   38.71    9.68
  -6   6   5   37.15    7.37
  -6   7  -9   20.46    7.59
  -6   7  -8   88.81   22.52
  -6   7  -7  102.55   14.42
  -6   7  -6    1.56    1.78
  -6   7  -5   66.46    6.73
  -6   7  -4   69.78    8.32
  -6   7  -3   25.24    4.88
  -6   7  -2  131.24    6.66
  -6   7  -1   25.95    3.84
  -6   7   0   64.94    5.18
  -6   7   1  171.34    6.01
  -6   7   1  193.81    7.96
  -6   7   2    4.71    2.50
  -6   7   2    0.94    1.47
  -6   7   3   44.47    8.52
  -6   7   3   47.51    9.22
  -6   7   4   67.14    7.71
  -6   7   4   72.78    8.36
  -6   8  -8  110.56   18.96
  -6   8  -7    0.52    1.19
  -6   8  -6   44.33   12.53
  -6   8  -5   88.90    5.83
  -6   8  -4    2.23    2.21
  -6   8  -3  143.15    6.98
  -6   8  -2   55.97    8.61
  -6   8  -1   64.32    9.76
  -6   8   0  137.08    7.09
  -6   8   1   10.31    4.02
  -6   8   2   59.94   11.54
  -6   9  -8    5.32    2.24
  -6   9  -7   51.36   14.07
  -6   9  -6   71.80   14.00
  -6   9  -5    2.37    1.77
  -6   9  -4  133.01    7.12
  -6   9  -3   37.07    5.54
  -6   9  -2    6.56    3.25
  -6   9  -1  126.66    7.27
  -6   9   0   43.14    8.79
  -6   9   1   35.75    7.50
  -6  10  -7   85.38    9.72
  -6  10  -6    2.51    1.90
  -6  10  -5  105.91   11.44
  -6  10  -4   37.33    8.05
  -6  10  -3    0.67    1.71
  -6  10  -2   88.45   10.02
  -6  10  -1   23.01    4.66
  -7  -6   1   71.41    9.10
  -7  -6   2    2.27    2.17
  -7  -6   3   75.21    8.70
  -7  -6   4   79.03    9.02
   7   6  -4   73.79    8.43
  -7  -6   5    3.02    2.23
   7   6  -5   10.50    4.63
  -7  -6   6   90.04   10.16
   7   6  -6  106.84   12.56
  -7  -6   7    9.21    3.72
   7   6  -7   11.03    4.70
  -7  -5  -1   39.73    8.55
  -7  -5   0   64.97    8.22
  -7  -5   1    4.90    2.90
  -7  -5   2   94.81    6.80
  -7  -5   3   92.66    7.06
  -7  -5   4   -0.11    1.97
  -7  -5   5  128.49    7.27
   7   5  -5  140.29    7.06
  -7  -5   6   19.42    6.55
   7   5  -6   17.51    6.54
  -7  -5   7   10.74    4.35
   7   5  -7    9.75    3.84
  -7  -5   8  131.53   13.69
   7   5  -8  110.69   20.28
  -7  -4  -1  112.23   12.33
  -7  -4   0    5.42    2.96
  -7  -4   1   86.47    5.91
  -7  -4   2   65.88   10.24
  -7  -4   3    0.33    1.80
  -7  -4   4  136.46    7.41
  -7  -4   5   17.11    4.39
  -7  -4   6   18.56    6.65
   7   4  -6    9.69    4.10
  -7  -4   7   99.68    6.88
   7   4  -7  101.55   10.42
  -7  -4   8   15.60    5.45
   7   4  -8   30.16    6.77
  -7  -3  -3   17.28    5.83
  -7  -3  -2  120.38    7.71
  -7  -3  -1   29.94    5.14
  -7  -3   0   96.33    6.18
  -7  -3   1   61.69    5.05
  -7  -3   2    3.14    2.78
  -7  -3   3   99.01    7.86
  -7  -3   4   69.53    9.63
  -7  -3   5   15.62    3.95
  -7  -3   6  117.21    6.58
   7   3  -6  122.14    6.36
  -7  -3   7   26.68    4.90
   7   3  -7   27.39    4.62
  -7  -3   8   47.47    9.64
   7   3  -8   47.48    9.53
  -7  -3   9  107.20   12.14
   7   3  -9  101.22   11.23
  -7  -2  -4   -1.32    1.79
  -7  -2  -3  129.41    7.34
  -7  -2  -2  102.73    6.65
  -7  -2  -1   49.04    4.60
  -7  -2   0   99.28    7.62
  -7  -2   1    7.79    3.32
  -7  -2   2  122.93    6.67
  -7  -2   3  195.28    7.64
  -7  -2   4   14.71    3.48
  -7  -2   5  122.67    9.01
  -7  -2   6   63.30    9.58
  -7  -2   7    6.04    3.00
   7   2  -7   13.16    4.99
  -7  -2   8  134.30   13.83
   7   2  -8  131.29   13.40
  -7  -2   9    4.73    3.76
  -7  -1  -5    6.51    3.56
  -7  -1  -4   99.68    7.13
  -7  -1  -3    5.43    2.70
  -7  -1  -3    8.86    2.85
  -7  -1  -2    3.57    2.34
  -7  -1  -2    4.13    1.31
  -7  -1  -1  136.85    9.71
  -7  -1  -1  118.82   14.74
  -7  -1   0   11.91    3.17
  -7  -1   0    3.14    1.06
  -7  -1   1   34.41    5.84
  -7  -1   1   23.11    5.81
  -7  -1   2  238.13    7.97
  -7  -1   3    5.28    2.82
  -7  -1   4  171.08    7.06
  -7  -1   5   77.66    6.83
  -7  -1   6    3.25    2.24
  -7  -1   7   91.20    6.42
   7   1  -7   83.60    5.52
  -7  -1   8   37.41    8.11
  -7   0  -6    7.62    3.61
  -7   0  -5   98.02    6.86
  -7   0  -5   72.43   16.58
  -7   0  -4   47.22    7.52
  -7   0  -4   22.93    7.36
  -7   0  -3   63.70    5.18
  -7   0  -3   52.86    8.94
  -7   0  -2  217.10   13.58
  -7   0  -2  213.97   12.91
  -7   0  -1    3.89    2.40
  -7   0  -1    2.04    1.25
  -7   0   0   36.58    3.90
  -7   0   0   32.72    5.52
  -7   0   1  171.03    8.55
  -7   0   1  148.30    7.13
  -7   0   2    5.85    2.90
  -7   0   2    0.24    0.54
  -7   0   3  106.43    6.32
  -7   0   4  104.11    6.32
  -7   0   5    3.59    2.80
  -7   0   6  213.21    8.55
  -7   0   7   70.36    8.67
  -7   0   8   18.02    6.65
  -7   1  -6   84.79    9.88
  -7   1  -6   69.04   13.76
  -7   1  -5   52.32    7.01
  -7   1  -5   33.66   11.36
  -7   1  -4    1.86    1.59
  -7   1  -4    2.50    1.10
  -7   1  -3  299.49   17.63
  -7   1  -3  322.55   39.10
  -7   1  -2  120.73    6.49
  -7   1  -2  128.14   14.13
  -7   1  -1  105.67    6.17
  -7   1  -1  107.49   14.87
  -7   1   0  144.22    7.55
  -7   1   0  157.28    8.69
  -7   1   1    5.05    2.44
  -7   1   1    3.28    1.07
  -7   1   2  141.50    7.42
  -7   1   2  152.75    8.07
  -7   1   3   94.86    5.56
  -7   1   3   98.49    7.75
  -7   1   4    2.00    1.81
  -7   1   5  131.74    9.41
  -7   1   6  145.83    7.20
  -7   1   7    6.69    3.67
  -7   1   8  114.75   12.24
  -7   2  -7   50.35   16.41
  -7   2  -7   62.28   16.36
  -7   2  -6   54.23    7.20
  -7   2  -6   46.54   15.06
  -7   2  -5    0.96    1.38
  -7   2  -5    3.29    1.71
  -7   2  -4  186.04   12.42
  -7   2  -4  184.24   12.42
  -7   2  -3   62.62    4.85
  -7   2  -3   62.87    8.20
  -7   2  -2    2.78    2.22
  -7   2  -2    2.36    1.19
  -7   2  -1  194.47    9.03
  -7   2  -1  197.00    9.25
  -7   2   0   38.83    8.38
  -7   2   0   45.88    8.29
  -7   2   1   87.60    5.61
  -7   2   1   81.48   10.98
  -7   2   2  235.53    7.57
  -7   2   2  222.12    7.75
  -7   2   3    0.12    1.56
  -7   2   3   -0.46    0.79
  -7   2   4  139.69    9.73
  -7   2   4  120.05    7.58
  -7   2   5  113.35    6.52
  -7   2   6    4.51    3.04
  -7   2   7   65.89    7.76
  -7   3  -7   76.33   16.82
  -7   3  -7   95.51   21.44
  -7   3  -6    1.22    1.88
  -7   3  -6    0.54    1.38
  -7   3  -5   92.87    5.31
  -7   3  -5   93.74   15.63
  -7   3  -4   78.18    6.29
  -7   3  -4   95.28   18.77
  -7   3  -3   19.20    3.94
  -7   3  -3    6.37    1.91
  -7   3  -2  180.27    6.53
  -7   3  -2  190.55    7.79
  -7   3  -1   57.01    3.96
  -7   3  -1   62.03    8.05
  -7   3   0    3.69    1.61
  -7   3   0    1.70    1.30
  -7   3   1  271.55    7.98
  -7   3   1  280.21    7.10
  -7   3   2    6.40    2.70
  -7   3   2    3.97    1.48
  -7   3   3   26.75    2.75
  -7   3   4   94.62    7.48
  -7   3   4   83.41    6.12
  -7   3   5    3.53    2.26
  -7   3   6  110.02   11.82
  -7   3   7   57.69   15.37
  -7   4  -7   -1.27    1.48
  -7   4  -6   47.86    5.93
  -7   4  -6   62.55   16.46
  -7   4  -5   95.27    5.01
  -7   4  -5  101.27   14.99
  -7   4  -4   13.55    2.60
  -7   4  -4    9.88    2.94
  -7   4  -3  136.69    6.13
  -7   4  -3  153.76    6.71
  -7   4  -2  150.82    6.04
  -7   4  -2  150.38    7.35
  -7   4  -1   19.22    3.71
  -7   4  -1   16.48    4.79
  -7   4   0  163.15    6.29
  -7   4   0  152.27    6.32
  -7   4   1   44.14    6.54
  -7   4   1   44.78    6.63
  -7   4   2   35.44    3.83
  -7   4   2   30.31    3.16
  -7   4   3   87.80    7.11
  -7   4   3   80.13    6.14
  -7   4   4    4.58    2.79
  -7   4   4    0.39    0.98
  -7   4   5  105.20    6.61
  -7   4   5   91.49    4.99
  -7   4   6   79.81   12.51
  -7   5  -8    1.74    1.28
  -7   5  -7   39.14   15.15
  -7   5  -6  150.99   15.68
  -7   5  -5    2.85    1.85
  -7   5  -4  123.73    8.01
  -7   5  -4  142.91   13.64
  -7   5  -3   90.01    6.28
  -7   5  -3   95.62   13.35
  -7   5  -2   14.57    3.34
  -7   5  -2    9.66    3.02
  -7   5  -1  111.39   10.39
  -7   5  -1  116.26    5.92
  -7   5   0   30.66    3.19
  -7   5   0   28.79    3.18
  -7   5   1   19.70    3.00
  -7   5   1   23.75    3.13
  -7   5   2  110.67    5.50
  -7   5   2  120.19    5.64
  -7   5   3   13.69    2.93
  -7   5   3   17.39    3.47
  -7   5   4   73.57    8.68
  -7   5   4   61.22    7.47
  -7   5   5   80.97   18.47
  -7   5   5   85.66    8.99
  -7   6  -8   14.09    4.77
  -7   6  -7  130.82   17.66
  -7   6  -6    7.66    2.69
  -7   6  -5   85.44   26.10
  -7   6  -4   72.75   16.46
  -7   6  -3    3.79    1.80
  -7   6  -2  175.98   11.31
  -7   6  -1   24.09    2.48
  -7   6  -1   14.28    2.83
  -7   6   0   26.92    2.92
  -7   6   0   25.37    3.63
  -7   6   1  220.30    7.22
  -7   6   1  220.09    7.96
  -7   6   2    9.18    3.31
  -7   6   2   11.89    4.20
  -7   6   3   25.80    4.21
  -7   6   3   21.28    6.75
  -7   6   4   76.26    8.54
  -7   6   4   83.12    9.17
  -7   7  -7   11.87    3.85
  -7   7  -6   31.57    7.95
  -7   7  -5   66.67   13.09
  -7   7  -4    4.27    1.86
  -7   7  -3  128.09    6.58
  -7   7  -2   71.39   10.42
  -7   7  -1   18.07    4.18
  -7   7   0  261.83   68.75
  -7   7   1   54.01    7.06
  -7   7   2   34.25    7.05
  -7   7   3   56.64   10.71
  -7   8  -7   18.68    6.22
  -7   8  -6   59.74   16.33
  -7   8  -5    3.03    2.44
  -7   8  -4   48.36   10.62
  -7   8  -3  112.63    6.50
  -7   8  -2    3.99    2.56
  -7   8  -1  107.37    6.40
  -7   8   0   56.46   11.04
  -7   8   1   10.48    4.01
  -7   9  -6    2.24    1.78
  -7   9  -5   44.74    8.97
  -7   9  -4   77.45    8.84
  -7   9  -3    0.22    1.54
  -7   9  -2   35.42    7.57
  -7   9  -1   55.83   10.75
  -8  -5   3    1.56    2.15
  -8  -5   4   62.20   12.13
  -8  -5   5   75.97    9.17
  -8  -4   0   18.61    6.40
  -8  -4   1  105.73   11.83
  -8  -4   2    2.97    2.23
  -8  -4   3   78.00    9.20
  -8  -4   4   59.34   11.40
  -8  -4   5   -0.25    1.76
  -8  -4   6   54.49   10.64
   8   4  -6   57.84   13.74
  -8  -3  -1    5.24    2.82
  -8  -3   0   76.18    9.05
  -8  -3   1   20.50    6.93
  -8  -3   2   78.75    6.37
  -8  -3   3  121.95    7.07
  -8  -3   4    3.40    2.25
  -8  -3   5   69.93   17.99
  -8  -3   6   79.93    9.19
  -8  -3   7    3.67    2.60
   8   3  -7    5.51    3.37
  -8  -2  -1   61.24   11.62
  -8  -2   0   23.83    4.25
  -8  -2   1   11.29    4.30
  -8  -2   2   91.98    5.86
  -8  -2   3    7.44    3.65
  -8  -2   4   87.74   16.02
  -8  -2   5  120.71    6.95
  -8  -2   6    2.69    3.43
  -8  -2   7   92.56   10.35
   8   2  -7   82.73    9.43
  -8  -1  -3    4.05    2.74
  -8  -1  -2  123.18    6.79
  -8  -1  -2  116.31    6.15
  -8  -1  -1   20.56    6.55
  -8  -1  -1    9.68    3.44
  -8  -1   0    7.19    2.84
  -8  -1   0    3.59    1.45
  -8  -1   1  118.22    6.55
  -8  -1   2   18.18    4.08
  -8  -1   3   61.56    9.27
  -8  -1   4   89.57    5.62
  -8  -1   5    7.97    3.69
  -8  -1   6   75.19    8.84
  -8  -1   7  102.58   11.35
   8   1  -7   91.51   10.05
  -8   0  -4    3.19    2.62
  -8   0  -4    2.44    1.50
  -8   0  -3   75.03   20.41
  -8   0  -3   33.30   12.42
  -8   0  -2  110.62    6.60
  -8   0  -2   96.40   15.69
  -8   0  -1   31.37    5.67
  -8   0  -1   16.53    4.19
  -8   0   0  123.74    6.81
  -8   0   1   92.54    5.76
  -8   0   1   57.78   12.04
  -8   0   2   50.57   10.52
  -8   0   3   98.24    6.44
  -8   0   4    8.97    3.11
  -8   0   5   32.19    5.02
  -8   0   6   85.11    9.80
  -8   0   7    5.71    4.23
  -8   1  -5    5.89    3.07
  -8   1  -5   -0.30    1.60
  -8   1  -4   70.11    8.48
  -8   1  -4   47.19   12.31
  -8   1  -3  118.28    6.97
  -8   1  -3  103.01   18.84
  -8   1  -2   16.55    3.61
  -8   1  -2    9.87    3.83
  -8   1  -1  170.67    7.45
  -8   1  -1  173.53    6.70
  -8   1   0  139.20    9.73
  -8   1   1   18.06    2.80
  -8   1   1   15.31    2.57
  -8   1   2   67.72    5.38
  -8   1   3   18.83    4.21
  -8   1   4   33.45    6.08
  -8   1   5   78.72    5.72
  -8   1   6    2.66    2.27
  -8   1   7  105.80   11.63
  -8   2  -5   50.42    9.91
  -8   2  -5   28.63    8.02
  -8   2  -4   96.44    6.07
  -8   2  -4   91.22   14.88
  -8   2  -3    2.35    2.09
  -8   2  -3    0.21    1.20
  -8   2  -2  137.39    6.59
  -8   2  -2  149.79   17.76
  -8   2  -1  112.34    6.12
  -8   2  -1  103.59   13.87
  -8   2   0    2.93    1.78
  -8   2   0    1.46    1.32
  -8   2   1  183.63   11.78
  -8   2   1  171.69   10.98
  -8   2   2   20.72    4.11
  -8   2   2   10.43    2.89
  -8   2   3   48.29    7.63
  -8   2   4  131.98    6.88
  -8   2   5    5.57    3.89
  -8   2   6   92.43   10.21
  -8   3  -6   19.02    7.24
  -8   3  -5  104.08   11.23
  -8   3  -5   46.47   15.79
  -8   3  -4    3.46    1.87
  -8   3  -3   61.61    9.31
  -8   3  -3   64.41   17.27
  -8   3  -2   37.00    6.07
  -8   3  -2   42.99    8.31
  -8   3  -1    3.33    1.67
  -8   3  -1    1.70    0.93
  -8   3   0  123.64    8.70
  -8   3   0  125.50   17.76
  -8   3   1   62.11    9.22
  -8   3   1   46.44   11.38
  -8   3   2   43.09    6.86
  -8   3   2   16.76    6.83
  -8   3   3  166.01    7.46
  -8   3   4   36.00    5.27
  -8   3   5   54.00   10.51
  -8   4  -6   52.85   13.98
  -8   4  -5   12.59    4.09
  -8   4  -4   28.45    4.49
  -8   4  -4   13.13    5.18
  -8   4  -3   50.87    6.30
  -8   4  -3   56.94   13.18
  -8   4  -2    9.09    2.71
  -8   4  -2    3.47    1.57
  -8   4  -1  128.64    6.00
  -8   4  -1  129.47   15.28
  -8   4   0   56.98    8.31
  -8   4   0   57.31   11.83
  -8   4   1   41.61    6.73
  -8   4   1   38.76    6.23
  -8   4   2   83.68    5.09
  -8   4   2   63.05    7.16
  -8   4   3   70.62    8.35
  -8   4   3   45.99    5.72
  -8   4   4   32.38    7.18
  -8   4   5   55.18   10.70
  -8   5  -6   36.48   11.32
  -8   5  -5   41.34    9.25
  -8   5  -4  108.70   16.47
  -8   5  -3    3.72    2.17
  -8   5  -3    3.00    1.36
  -8   5  -2   85.88    6.88
  -8   5  -2   92.12   13.79
  -8   5  -1  112.48   10.61
  -8   5  -1  120.76    6.38
  -8   5   0   11.81    4.20
  -8   5   0    3.35    1.64
  -8   5   1  100.58    5.68
  -8   5   1   84.20    5.06
  -8   5   2   54.72    6.73
  -8   5   2   49.66    6.39
  -8   5   3   21.42    6.54
  -8   5   4   87.36    9.78
  -8   6  -6    4.78    2.15
  -8   6  -5  168.49   24.90
  -8   6  -4   10.34    3.94
  -8   6  -3   79.83   12.24
  -8   6  -2  100.11   10.20
  -8   6  -1    1.01    1.38
  -8   6   0   63.96    7.71
  -8   6   1   88.51    9.55
  -8   6   2   14.44    4.78
  -8   6   2    2.31    2.01
  -8   6   3   81.52    8.99
  -8   7  -5   12.09    4.16
  -8   7  -4   13.20    4.50
  -8   7  -3   87.98    9.42
  -8   7  -2    9.40    3.95
  -8   7  -1   93.09   10.00
  -8   7   0   48.35    9.35
  -8   7   1    4.57    2.57
  -8   8  -4   53.03   13.83
  -8   8  -3    2.15    2.23
  -8   8  -2   50.92    9.98
  -8   8  -1   52.46   10.28
  -9  -2   1  100.82   11.12
  -9  -2   2   28.27    6.53
  -9  -2   3    3.70    2.56
  -9  -2   4  110.17   12.32
  -9  -1  -1    0.31    1.81
  -9  -1   0  111.13   12.16
  -9  -1   1   26.12    5.87
  -9  -1   2   -0.26    1.85
  -9  -1   3   83.03    9.44
  -9  -1   4    8.35    3.99
  -9  -1   5   23.07    4.49
  -9   0  -2    4.94    3.43
  -9   0  -2    3.00    1.81
  -9   0  -1  103.95   11.82
  -9   0   0   68.98    8.28
  -9   0   1    9.86    4.26
  -9   0   2   67.94    7.97
  -9   0   3    7.91    3.16
  -9   0   4   42.53    8.73
  -9   0   5   60.25   11.60
  -9   1  -2   43.94    8.83
  -9   1  -2   22.82    7.20
  -9   1  -1   82.76    9.37
  -9   1  -1   27.76   10.78
  -9   1   0    2.61    1.89
  -9   1   0    2.62    1.46
  -9   1   1   90.17    9.88
  -9   1   2   43.08   14.11
  -9   1   3    5.10    3.23
  -9   1   4   92.53   10.39
  -9   1   5   23.10    4.84
  -9   2  -3   19.59    6.97
  -9   2  -2   79.96    9.19
  -9   2  -2   27.57    9.64
  -9   2  -1    0.63    1.66
  -9   2  -1    0.92    1.57
  -9   2   0   65.05    8.17
  -9   2   0   32.84    7.49
  -9   2   1   80.05   10.60
  -9   2   2    3.56    2.35
  -9   2   3   80.17    9.07
  -9   2   4   14.21    5.15
  -9   3  -3   66.96    7.96
  -9   3  -3   29.02   10.28
  -9   3  -2    5.62    2.75
  -9   3  -2    1.52    1.05
  -9   3  -1   64.73    7.46
  -9   3  -1   45.43   12.00
  -9   3   0   83.30    9.37
  -9   3   0   48.81   14.96
  -9   3   1    3.31    2.71
  -9   3   1    3.86    1.61
  -9   3   2  122.43   12.61
  -9   3   3   33.61    7.38
  -9   4  -4  110.25   19.06
  -9   4  -3    2.49    2.32
  -9   4  -2   30.75    6.10
  -9   4  -2   25.39    6.61
  -9   4  -1   53.06   10.19
  -9   4  -1   30.04    9.85
  -9   4   0    4.53    2.61
  -9   4   0    0.25    1.40
  -9   4   1  140.78   14.98
  -9   4   1   66.73   16.97
  -9   4   2   50.25    9.93
  -9   4   3    5.93    3.15
  -9   5  -3   30.33    9.12
  -9   5  -2   54.16   13.41
  -9   5  -1    0.00    0.68
  -9   5   0   62.01   16.84
  -9   5   1   61.27   11.79
  -9   5   1   26.00    6.44
  -9   6  -2    7.49    2.85
  -9   6  -1   27.58    8.38
   0   0   0    0.00    0.00
;
_shelx_hkl_checksum              30540
_shelx_res_file
;
TITL 1 in P1 New: P-1
CELL 0.71073 7.49 9.42 9.6533 117.97 93.19 99.12
ZERR 2 0.0015 0.0019 0.0019 0.03 0.03 0.03
LATT 1
SFAC C H Eu N O
UNIT 20 16 2 4 16
EQIV $1 -1+X,+Y,1+Z
EQIV $2 -1+X,+Y,+Z
EQIV $3 1+X,+Y,+Z
EQIV $4 1+X,+Y,1+Z
EQIV $5 1-X,-Y,-Z
DFIX 0.85 0.01 H1Wa O1W H1Wb O1W
DFIX 0.85 0.01 H2Wa O2W H2Wb O2W
DANG 1.35 0.01 H1Wa H1Wb
DANG 1.35 0.01 H2Wa H2Wb
L.S. 20
PLAN  10
SIZE 0.15 0.2 0.2
TEMP 20
HTAB O1W O6_$1
HTAB O1W O2W_$2
HTAB N2 O1_$3
HTAB O2W O5_$5
HTAB O2W O2_$4
GRID
BOND $H
CONF
HTAB
BOND
HTAB
fmap 2
acta
MERG 2
OMIT 0 -1 1
OMIT 0 0 1
REM <olex2.extras>
REM <HklSrc "%.\\1.hkl">
REM </olex2.extras>
WGHT    0.028400    1.605600
FVAR       0.24150
EU1   3    0.122246    0.340010    0.317363    11.00000    0.01403    0.01565 =
         0.00958    0.00573    0.00171    0.00388
O1    5   -0.076660    0.183698    0.059719    11.00000    0.01994    0.01845 =
         0.01697    0.00638   -0.00109    0.00931
C7    1    0.408390    0.347137   -0.289275    11.00000    0.01245    0.01659 =
         0.01139    0.00704    0.00145    0.00269
C2    1   -0.054920    0.040339   -0.035497    11.00000    0.01234    0.01968 =
         0.00959    0.00772    0.00250    0.00382
O3    5   -0.041428    0.468324   -0.226122    11.00000    0.01879    0.02618 =
         0.01677    0.01167    0.00325    0.00875
O2    5   -0.113593   -0.038243   -0.180066    11.00000    0.02506    0.01607 =
         0.01551    0.00669   -0.00589    0.00077
O1W   5   -0.151708    0.201265    0.376996    11.00000    0.03119    0.02356 =
         0.03078    0.01446    0.01574    0.00842
H1WA  2   -0.221575    0.266037    0.423057    11.00000   -1.50000
H1WB  2   -0.162637    0.133236    0.411660    11.00000   -1.50000
O4    5    0.135449    0.494159   -0.389446    11.00000    0.01888    0.02405 =
         0.01587    0.01241    0.00474    0.00724
O6    5    0.622037    0.418982   -0.431646    11.00000    0.01509    0.02314 =
         0.02169    0.01181    0.00649    0.00285
O5    5    0.346254    0.269050   -0.562118    11.00000    0.01465    0.02171 =
         0.01157    0.00851    0.00101    0.00217
N2    4    0.584016    0.228952    0.001048    11.00000    0.01831    0.02707 =
         0.01962    0.01527    0.00597    0.01048
H2    2    0.692014    0.201807   -0.010569    11.00000   -1.50000
C9    1    0.462782    0.351341   -0.436278    11.00000    0.01868    0.01436 =
         0.01260    0.00643    0.00398    0.00904
C1    1    0.479469    0.233328    0.113352    11.00000    0.02524    0.02216 =
         0.01564    0.01173    0.00633    0.00739
AFIX  43
H1    2    0.514695    0.207867    0.191563    11.00000   -1.20000
AFIX   0
C3    1    0.198385    0.353422   -0.100109    11.00000    0.01261    0.01826 =
         0.01784    0.00865    0.00657    0.00244
AFIX  43
H3    2    0.088469    0.371238   -0.061384    11.00000   -1.20000
AFIX   0
N1    4    0.323392    0.277187    0.100409    11.00000    0.01801    0.02358 =
         0.01117    0.01094    0.00207    0.00586
C6    1    0.324250    0.303874   -0.031571    11.00000    0.01579    0.01789 =
         0.01125    0.00860    0.00446    0.00669
C10   1    0.103320    0.446724   -0.286346    11.00000    0.01165    0.01242 =
         0.00950    0.00321   -0.00407   -0.00129
C4    1    0.534704    0.297487   -0.219545    11.00000    0.01609    0.02014 =
         0.01500    0.00852    0.00489    0.00486
AFIX  43
H4    2    0.645992    0.280961   -0.255942    11.00000   -1.20000
AFIX   0
C5    1    0.488899    0.273495   -0.093885    11.00000    0.01645    0.01747 =
         0.00853    0.00673   -0.00132    0.00414
C8    1    0.239120    0.376486   -0.229356    11.00000    0.01305    0.01625 =
         0.00820    0.00370    0.00159    0.00156
O2W   5    0.821698    0.041843    0.556475    11.00000    0.09222    0.04154 =
         0.05113    0.03022    0.00203    0.00000
H2WA  2    0.872047    0.090588    0.652426    11.00000   -1.50000
H2WB  2    0.750455   -0.044397    0.543148    11.00000   -1.50000
HKLF 4
REM  1 in P1 New: P-1
REM R1 =  0.0387 for    2403 Fo > 4sig(Fo)  and  0.0452 for all    2669 data
REM    205 parameters refined using      6 restraints
END
WGHT      0.0284      1.6056
REM Instructions for potential hydrogen bonds
HTAB O1W O6_$1
HTAB O1W O2W_$2
HTAB N2 O1_$3
EQIV $6 x, y, z+1
HTAB C1 O5_$6
EQIV $7 -x, -y+1, -z
HTAB C3 O3_$7
HTAB C4 O3_$3
HTAB O2W O2_$4
HTAB O2W O5_$5
REM Highest difference peak  2.173,  deepest hole -1.977,  1-sigma level  0.227
Q1    1   0.3646  0.0255 -0.0480  11.00000  0.05    2.17
Q2    1   0.2329  0.4166  0.4583  11.00000  0.05    1.43
Q3    1  -0.0025  0.2401  0.1955  11.00000  0.05    1.18
Q4    1  -0.0833 -0.1606 -0.2048  11.00000  0.05    1.14
Q5    1   0.0003  0.3704  0.2443  11.00000  0.05    0.91
Q6    1   0.1577  0.4236  0.2357  11.00000  0.05    0.90
Q7    1  -0.0292  0.5219 -0.3505  11.00000  0.05    0.90
Q8    1   0.0735  0.2830  0.4191  11.00000  0.05    0.86
Q9    1   0.0217  0.3983 -0.5373  11.00000  0.05    0.86
Q10   1   0.2645  0.3186 -0.5981  11.00000  0.05    0.85
;
_shelx_res_checksum              63588
_shelxl_version_number           20.13
loop_
_space_group_symop_operation_xyz
'x, y, z'
'-x, -y, -z'
loop_
_atom_site_type_symbol
_atom_site_label
_atom_site_fract_x
_atom_site_fract_y
_atom_site_fract_z
_atom_site_U_iso_or_equiv
_atom_site_adp_type
_atom_site_calc_flag
_atom_site_occupancy
Eu Eu1 0.12225(4) 0.34001(3) 0.31736(3) 0.01315(11) Uani d 1
O O1 -0.0767(5) 0.1837(5) 0.0597(5) 0.0189(9) Uani d 1
C C7 0.4084(7) 0.3471(7) -0.2893(7) 0.0134(11) Uani d 1
C C2 -0.0549(7) 0.0403(7) -0.0355(7) 0.0135(11) Uani d 1
O O3 -0.0414(6) 0.4683(5) -0.2261(5) 0.0195(9) Uani d 1
O O2 -0.1136(6) -0.0382(5) -0.1801(5) 0.0201(9) Uani d 1
O O1W -0.1517(7) 0.2013(5) 0.3770(6) 0.0272(11) Uani d 1
H H1WA -0.222(8) 0.266(7) 0.423(8) 0.041 Uiso d 1
H H1WB -0.163(10) 0.133(7) 0.412(8) 0.041 Uiso d 1
O O4 0.1354(5) 0.4942(5) -0.3894(5) 0.0180(9) Uani d 1
O O6 0.6220(5) 0.4190(5) -0.4316(5) 0.0196(9) Uani d 1
O O5 0.3463(5) 0.2691(5) -0.5621(5) 0.0160(8) Uani d 1
N N2 0.5840(7) 0.2290(6) 0.0010(6) 0.0192(11) Uani d 1
H H2 0.692(10) 0.202(8) -0.011(8) 0.029 Uiso d 1
C C9 0.4628(8) 0.3513(7) -0.4363(7) 0.0145(12) Uani d 1
C C1 0.4795(8) 0.2333(7) 0.1134(7) 0.0195(13) Uani d 1
H H1 0.5147 0.2079 0.1916 0.023 Uiso calc 1
C C3 0.1984(8) 0.3534(7) -0.1001(7) 0.0162(12) Uani d 1
H H3 0.0885 0.3712 -0.0614 0.019 Uiso calc 1
N N1 0.3234(7) 0.2772(6) 0.1004(6) 0.0164(10) Uani d 1
C C6 0.3242(8) 0.3039(7) -0.0316(7) 0.0138(11) Uani d 1
C C10 0.1033(7) 0.4467(6) -0.2863(7) 0.0128(11) Uani d 1
C C4 0.5347(8) 0.2975(7) -0.2195(7) 0.0168(12) Uani d 1
H H4 0.6460 0.2810 -0.2559 0.020 Uiso calc 1
C C5 0.4889(8) 0.2735(7) -0.0939(7) 0.0140(11) Uani d 1
C C8 0.2391(8) 0.3765(7) -0.2294(7) 0.0136(11) Uani d 1
O O2W 0.8217(11) 0.0418(8) 0.5565(8) 0.0605(18) Uani d 1
H H2WA 0.872(13) 0.091(11) 0.652(4) 0.091 Uiso d 1
H H2WB 0.750(12) -0.044(7) 0.543(11) 0.091 Uiso d 1
loop_
_atom_site_aniso_label
_atom_site_aniso_U_11
_atom_site_aniso_U_22
_atom_site_aniso_U_33
_atom_site_aniso_U_12
_atom_site_aniso_U_13
_atom_site_aniso_U_23
Eu1 0.01403(16) 0.01565(16) 0.00958(17) 0.00388(11) 0.00171(11) 0.00573(13)
O1 0.020(2) 0.018(2) 0.017(2) 0.0093(17) -0.0011(18) 0.0064(19)
C7 0.012(3) 0.017(3) 0.011(3) 0.003(2) 0.001(2) 0.007(2)
C2 0.012(3) 0.020(3) 0.010(3) 0.004(2) 0.002(2) 0.008(2)
O3 0.019(2) 0.026(2) 0.017(2) 0.0088(18) 0.0033(18) 0.012(2)
O2 0.025(2) 0.016(2) 0.016(2) 0.0008(17) -0.0059(18) 0.0067(19)
O1W 0.031(3) 0.024(2) 0.031(3) 0.008(2) 0.016(2) 0.014(2)
O4 0.019(2) 0.024(2) 0.016(2) 0.0072(18) 0.0047(17) 0.0124(19)
O6 0.015(2) 0.023(2) 0.022(2) 0.0029(17) 0.0065(18) 0.012(2)
O5 0.015(2) 0.022(2) 0.012(2) 0.0022(17) 0.0010(16) 0.0085(18)
N2 0.018(3) 0.027(3) 0.020(3) 0.010(2) 0.006(2) 0.015(2)
C9 0.019(3) 0.014(3) 0.013(3) 0.009(2) 0.004(2) 0.006(2)
C1 0.025(3) 0.022(3) 0.016(3) 0.007(3) 0.006(3) 0.012(3)
C3 0.013(3) 0.018(3) 0.018(3) 0.002(2) 0.007(2) 0.009(3)
N1 0.018(3) 0.024(3) 0.011(3) 0.006(2) 0.002(2) 0.011(2)
C6 0.016(3) 0.018(3) 0.011(3) 0.007(2) 0.004(2) 0.009(2)
C10 0.012(3) 0.012(3) 0.009(3) -0.001(2) -0.004(2) 0.003(2)
C4 0.016(3) 0.020(3) 0.015(3) 0.005(2) 0.005(2) 0.009(3)
C5 0.016(3) 0.017(3) 0.009(3) 0.004(2) -0.001(2) 0.007(2)
C8 0.013(3) 0.016(3) 0.008(3) 0.002(2) 0.002(2) 0.004(2)
O2W 0.092(6) 0.042(4) 0.051(4) 0.000(3) 0.002(4) 0.030(3)
loop_
_atom_type_symbol
_atom_type_description
_atom_type_scat_dispersion_real
_atom_type_scat_dispersion_imag
_atom_type_scat_source
C C 0.0033 0.0016 'International Tables Vol C Tables 4.2.6.8 and 6.1.1.4'
H H 0.0000 0.0000 'International Tables Vol C Tables 4.2.6.8 and 6.1.1.4'
Eu Eu -0.1578 3.6682 'International Tables Vol C Tables 4.2.6.8 and 6.1.1.4'
N N 0.0061 0.0033 'International Tables Vol C Tables 4.2.6.8 and 6.1.1.4'
O O 0.0106 0.0060 'International Tables Vol C Tables 4.2.6.8 and 6.1.1.4'
loop_
_geom_angle_atom_site_label_1
_geom_angle_atom_site_label_2
_geom_angle_atom_site_label_3
_geom_angle_site_symmetry_1
_geom_angle_site_symmetry_3
_geom_angle
O1 Eu1 C2 . . 20.06(13)
O1 Eu1 C2 . 2 46.83(13)
O1 Eu1 O3 . 2_565 70.28(13)
O1 Eu1 O2 . 2 65.52(13)
O1 Eu1 O1W . . 76.81(15)
O1 Eu1 O4 . 1_556 145.90(13)
O1 Eu1 O4 . 2_565 82.28(13)
O1 Eu1 O6 . 2_665 133.81(14)
O1 Eu1 N1 . . 71.86(15)
O1 Eu1 C10 . 2_565 71.66(14)
C2 Eu1 C2 . 2 27.19(19)
O3 Eu1 C2 2_565 . 87.50(14)
O3 Eu1 C2 2_565 2 113.71(14)
O3 Eu1 O2 2_565 2 133.56(14)
O3 Eu1 O1W 2_565 . 111.46(15)
O3 Eu1 O4 2_565 1_556 104.18(13)
O3 Eu1 O4 2_565 2_565 50.97(12)
O3 Eu1 N1 2_565 . 81.74(14)
O3 Eu1 C10 2_565 2_565 25.25(14)
O2 Eu1 C2 2 . 46.62(13)
O2 Eu1 C2 2 2 19.86(13)
O2 Eu1 O4 2 2_565 131.93(14)
O2 Eu1 N1 2 . 71.89(15)
O2 Eu1 C10 2 2_565 135.58(15)
O1W Eu1 C2 . . 78.76(15)
O1W Eu1 C2 . 2 76.60(14)
O1W Eu1 O2 . 2 71.75(14)
O1W Eu1 O4 . 2_565 66.60(14)
O1W Eu1 N1 . . 139.25(16)
O1W Eu1 C10 . 2_565 87.91(15)
O4 Eu1 C2 2_565 2 122.92(14)
O4 Eu1 C2 1_556 . 152.96(13)
O4 Eu1 C2 2_565 . 101.26(14)
O4 Eu1 C2 1_556 2 138.51(13)
O4 Eu1 O2 1_556 2 120.25(13)
O4 Eu1 O1W 1_556 . 74.28(15)
O4 Eu1 O4 1_556 2_565 69.91(15)
O4 Eu1 N1 1_556 . 141.95(15)
O4 Eu1 C10 1_556 2_565 89.49(14)
O4 Eu1 C10 2_565 2_565 26.10(13)
O6 Eu1 C2 2_665 2 135.80(13)
O6 Eu1 C2 2_665 . 136.64(13)
O6 Eu1 O3 2_665 2_565 73.19(14)
O6 Eu1 O2 2_665 2 132.08(14)
O6 Eu1 O1W 2_665 . 144.30(14)
O6 Eu1 O4 2_665 2_565 95.99(13)
O6 Eu1 O4 2_665 1_556 70.39(14)
O6 Eu1 N1 2_665 . 75.83(15)
O6 Eu1 C10 2_665 2_565 86.76(14)
O5 Eu1 O1 1_556 . 131.67(13)
O5 Eu1 C2 1_556 2 84.95(14)
O5 Eu1 C2 1_556 . 111.65(14)
O5 Eu1 O3 1_556 2_565 147.90(14)
O5 Eu1 O2 1_556 2 67.25(14)
O5 Eu1 O1W 1_556 . 97.83(15)
O5 Eu1 O4 1_556 2_565 140.17(13)
O5 Eu1 O4 1_556 1_556 70.60(13)
O5 Eu1 O6 1_556 2_665 75.36(14)
O5 Eu1 N1 1_556 . 84.53(14)
O5 Eu1 C10 1_556 2_565 156.66(15)
N1 Eu1 C2 . . 62.99(15)
N1 Eu1 C2 . 2 63.03(15)
N1 Eu1 O4 . 2_565 131.76(13)
N1 Eu1 C10 . 2_565 105.79(15)
C10 Eu1 C2 2_565 2 118.38(15)
C10 Eu1 C2 2_565 . 91.63(15)
C2 O1 Eu1 . . 118.4(4)
C4 C7 C9 . . 113.2(5)
C4 C7 C8 . . 120.7(5)
C8 C7 C9 . . 125.9(5)
Eu1 C2 Eu1 . 2 152.81(19)
O1 C2 Eu1 . . 41.5(3)
O1 C2 Eu1 . 2 163.4(4)
O1 C2 C2 . 2 116.5(6)
C2 C2 Eu1 2 . 76.4(4)
C2 C2 Eu1 2 2 76.4(4)
O2 C2 Eu1 . 2 43.0(3)
O2 C2 Eu1 . . 162.0(4)
O2 C2 O1 . . 125.7(5)
O2 C2 C2 . 2 117.8(6)
C10 O3 Eu1 . 2_565 97.3(3)
C2 O2 Eu1 . 2 117.2(3)
Eu1 O1W H1WA . . 112(4)
Eu1 O1W H1WB . . 131(5)
H1WA O1W H1WB . . 105.8(17)
Eu1 O4 Eu1 1_554 2_565 110.09(15)
C10 O4 Eu1 . 1_554 132.2(4)
C10 O4 Eu1 . 2_565 91.5(3)
C9 O6 Eu1 . 2_665 151.5(4)
C9 O5 Eu1 . 1_554 133.0(3)
C1 N2 H2 . . 127(5)
C1 N2 C5 . . 107.1(5)
C5 N2 H2 . . 126(5)
O6 C9 C7 . . 119.0(5)
O6 C9 O5 . . 124.2(5)
O5 C9 C7 . . 116.4(5)
N2 C1 H1 . . 123.3
N1 C1 N2 . . 113.4(5)
N1 C1 H1 . . 123.3
C6 C3 H3 . . 120.6
C6 C3 C8 . . 118.9(5)
C8 C3 H3 . . 120.6
C1 N1 Eu1 . . 120.6(4)
C1 N1 C6 . . 105.0(5)
C6 N1 Eu1 . . 133.5(3)
C3 C6 N1 . . 131.2(5)
C3 C6 C5 . . 120.0(5)
N1 C6 C5 . . 108.8(5)
O3 C10 Eu1 . 2_565 57.4(3)
O3 C10 O4 . . 118.5(5)
O3 C10 C8 . . 119.6(5)
O4 C10 Eu1 . 2_565 62.4(3)
O4 C10 C8 . . 121.8(5)
C8 C10 Eu1 . 2_565 165.0(4)
C7 C4 H4 . . 121.2
C5 C4 C7 . . 117.6(5)
C5 C4 H4 . . 121.2
N2 C5 C6 . . 105.7(5)
N2 C5 C4 . . 131.6(5)
C4 C5 C6 . . 122.6(5)
C7 C8 C10 . . 124.3(5)
C3 C8 C7 . . 120.2(5)
C3 C8 C10 . . 115.3(5)
H2WA O2W H2WB . . 105.8(17)
loop_
_geom_bond_atom_site_label_1
_geom_bond_atom_site_label_2
_geom_bond_site_symmetry_2
_geom_bond_distance
Eu1 O1 . 2.456(4)
Eu1 C2 . 3.259(6)
Eu1 C2 2 3.260(6)
Eu1 O3 2_565 2.486(4)
Eu1 O2 2 2.498(4)
Eu1 O1W . 2.497(4)
Eu1 O4 2_565 2.595(4)
Eu1 O4 1_556 2.489(4)
Eu1 O6 2_665 2.465(4)
Eu1 O5 1_556 2.342(4)
Eu1 N1 . 2.545(5)
Eu1 C10 2_565 2.926(5)
O1 C2 . 1.272(7)
C7 C9 . 1.514(7)
C7 C4 . 1.390(8)
C7 C8 . 1.436(7)
C2 Eu1 2 3.260(6)
C2 C2 2 1.532(11)
C2 O2 . 1.244(7)
O3 Eu1 2_565 2.486(4)
O3 C10 . 1.259(7)
O2 Eu1 2 2.498(4)
O1W H1WA . 0.846(10)
O1W H1WB . 0.847(10)
O4 Eu1 2_565 2.595(4)
O4 Eu1 1_554 2.489(4)
O4 C10 . 1.288(7)
O6 Eu1 2_665 2.465(4)
O6 C9 . 1.248(7)
O5 Eu1 1_554 2.342(4)
O5 C9 . 1.274(7)
N2 H2 . 0.88(7)
N2 C1 . 1.361(7)
N2 C5 . 1.381(7)
C1 H1 . 0.9300
C1 N1 . 1.318(8)
C3 H3 . 0.9300
C3 C6 . 1.380(8)
C3 C8 . 1.404(8)
N1 C6 . 1.410(7)
C6 C5 . 1.413(8)
C10 Eu1 2_565 2.926(5)
C10 C8 . 1.506(8)
C4 H4 . 0.9300
C4 C5 . 1.385(8)
O2W H2WA . 0.848(10)
O2W H2WB . 0.847(10)
loop_
_geom_hbond_atom_site_label_D
_geom_hbond_atom_site_label_H
_geom_hbond_atom_site_label_A
_geom_hbond_site_symmetry_A
_geom_hbond_distance_DH
_geom_hbond_distance_HA
_geom_hbond_distance_DA
_geom_hbond_angle_DHA
O1W H1WA O6 1_456 0.846(10) 2.058(17) 2.896(6) 170(6)
O1W H1WB O2W 1_455 0.847(10) 1.96(3) 2.771(7) 161(7)
N2 H2 O1 1_655 0.88(7) 1.89(7) 2.715(6) 155(7)
O2W H2WA O2 1_656 0.848(10) 2.44(8) 3.008(7) 125(8)
O2W H2WB O5 2_655 0.847(10) 2.22(4) 3.025(7) 159(9)
loop_
_geom_torsion_atom_site_label_1
_geom_torsion_atom_site_label_2
_geom_torsion_atom_site_label_3
_geom_torsion_atom_site_label_4
_geom_torsion_site_symmetry_1
_geom_torsion_site_symmetry_4
_geom_torsion
Eu1 O1 C2 Eu1 . 2 155.2(11)
Eu1 O1 C2 C2 . 2 16.5(7)
Eu1 O1 C2 O2 . . -162.9(4)
Eu1 C2 O2 Eu1 . 2 157.0(10)
Eu1 O3 C10 O4 2_565 . -13.4(5)
Eu1 O3 C10 C8 2_565 . 162.8(4)
Eu1 O4 C10 Eu1 1_554 2_565 -119.2(4)
Eu1 O4 C10 O3 2_565 . 12.8(5)
Eu1 O4 C10 O3 1_554 . -106.4(5)
Eu1 O4 C10 C8 2_565 . -163.4(5)
Eu1 O4 C10 C8 1_554 . 77.5(7)
Eu1 O6 C9 C7 2_665 . -58.0(10)
Eu1 O6 C9 O5 2_665 . 129.9(7)
Eu1 O5 C9 C7 1_554 . 96.1(5)
Eu1 O5 C9 O6 1_554 . -91.6(6)
Eu1 N1 C6 C3 . . -10.5(10)
Eu1 N1 C6 C5 . . 168.5(4)
Eu1 C10 C8 C7 2_565 . -105.7(14)
Eu1 C10 C8 C3 2_565 . 68.8(15)
O1 C2 O2 Eu1 . 2 -163.8(4)
C7 C4 C5 N2 . . -178.3(6)
C7 C4 C5 C6 . . -2.6(9)
C2 C2 O2 Eu1 2 2 16.8(7)
O3 C10 C8 C7 . . -179.8(5)
O3 C10 C8 C3 . . -5.4(8)
O4 C10 C8 C7 . . -3.7(9)
O4 C10 C8 C3 . . 170.7(5)
N2 C1 N1 Eu1 . . -170.3(4)
N2 C1 N1 C6 . . 0.1(7)
C9 C7 C4 C5 . . -173.6(5)
C9 C7 C8 C3 . . 173.9(5)
C9 C7 C8 C10 . . -11.9(9)
C1 N2 C5 C6 . . 0.0(6)
C1 N2 C5 C4 . . 176.2(6)
C1 N1 C6 C3 . . -179.1(6)
C1 N1 C6 C5 . . -0.1(6)
C3 C6 C5 N2 . . 179.2(5)
C3 C6 C5 C4 . . 2.6(9)
N1 C6 C5 N2 . . 0.1(6)
N1 C6 C5 C4 . . -176.6(5)
C6 C3 C8 C7 . . 0.6(8)
C6 C3 C8 C10 . . -174.1(5)
C4 C7 C9 O6 . . -47.3(7)
C4 C7 C9 O5 . . 125.4(5)
C4 C7 C8 C3 . . -0.7(8)
C4 C7 C8 C10 . . 173.5(5)
C5 N2 C1 N1 . . -0.1(7)
C8 C7 C9 O6 . . 137.7(6)
C8 C7 C9 O5 . . -49.6(8)
C8 C7 C4 C5 . . 1.7(8)
C8 C3 C6 N1 . . 177.4(6)
C8 C3 C6 C5 . . -1.5(9)

_cod_database_fobs_code 2021966
