#------------------------------------------------------------------------------
#$Date: 2018-03-08 09:33:56 +0200 (Thu, 08 Mar 2018) $
#$Revision: 206838 $
#$URL: file:///home/coder/svn-repositories/cod/cif/2/02/10/2021051.cif $
#------------------------------------------------------------------------------
#
# This file is available in the Crystallography Open Database (COD),
# http://www.crystallography.net/. The original data for this entry
# were provided by IUCr Journals, http://journals.iucr.org/.
#
# The file may be used within the scientific community so long as
# proper attribution is given to the journal article from which the
# data were obtained.
#
data_2021051
loop_
_publ_author_name
'Strey, Mark'
'Jones, Peter G.'
_publ_section_title
;
 Pyridine 1:1 adducts of urea (Z&#x2032; = 1) and thiourea (Z&#x2032; = 8)
;
_journal_coeditor_code           OV3109
_journal_issue                   4
_journal_name_full
'Acta Crystallographica Section C Structural Chemistry'
_journal_paper_doi               10.1107/S2053229618002632
_journal_volume                  74
_journal_year                    2018
_chemical_formula_iupac          'C5 H5 N, C H4 N2 O'
_chemical_formula_moiety         'C5 H5 N, C H4 N2 O'
_chemical_formula_sum            'C6 H9 N3 O'
_chemical_formula_weight         139.16
_chemical_name_systematic
;
Pyridine--urea (1/1)
;
_space_group_crystal_system      monoclinic
_space_group_IT_number           14
_space_group_name_Hall           '-P 2ybc'
_space_group_name_H-M_alt        'P 1 21/c 1'
_symmetry_space_group_name_Hall  '-P 2ybc'
_symmetry_space_group_name_H-M   'P 1 21/c 1'
_atom_sites_solution_hydrogens   mixed
_atom_sites_solution_primary     direct
_atom_sites_solution_secondary   difmap
_audit_creation_method           SHELXL-2017/1
_cell_angle_alpha                90
_cell_angle_beta                 108.605(3)
_cell_angle_gamma                90
_cell_formula_units_Z            4
_cell_length_a                   9.6552(3)
_cell_length_b                   10.7203(2)
_cell_length_c                   7.4480(2)
_cell_measurement_reflns_used    8800
_cell_measurement_temperature    102(2)
_cell_measurement_theta_max      75.1010
_cell_measurement_theta_min      4.8200
_cell_volume                     730.63(4)
_computing_cell_refinement
;
CrysAlis PRO (Rigaku OD, 2015)
;
_computing_data_collection
;
CrysAlis PRO (Rigaku OD, 2015)
;
_computing_data_reduction
;
CrysAlis PRO (Rigaku OD, 2015)
;
_computing_molecular_graphics
;
XP (Siemens, 1994)
;
_computing_publication_material
;
SHELXL2017 (Sheldrick, 2015) and publCIF (Westrip, 2010)
;
_computing_structure_refinement
;
SHELXL2017 (Sheldrick, 2015)
;
_computing_structure_solution
;
SHELXS97 (Sheldrick, 2008)
;
_diffrn_ambient_temperature      102(2)
_diffrn_detector_area_resol_mean 10.3543
_diffrn_measured_fraction_theta_full 1.000
_diffrn_measured_fraction_theta_max 0.998
_diffrn_measurement_device_type
'Oxford Diffraction Xcalibur Nova source diffractometer with an Atlas detector'
_diffrn_measurement_method       '\w scan'
_diffrn_radiation_type           CuK\a
_diffrn_radiation_wavelength     1.54184
_diffrn_reflns_av_R_equivalents  0.0368
_diffrn_reflns_limit_h_max       12
_diffrn_reflns_limit_h_min       -12
_diffrn_reflns_limit_k_max       13
_diffrn_reflns_limit_k_min       -13
_diffrn_reflns_limit_l_max       8
_diffrn_reflns_limit_l_min       -9
_diffrn_reflns_number            15672
_diffrn_reflns_theta_full        75.000
_diffrn_reflns_theta_max         76.165
_diffrn_reflns_theta_min         4.833
_exptl_absorpt_coefficient_mu    0.749
_exptl_absorpt_correction_T_max  1.00000
_exptl_absorpt_correction_T_min  0.43106
_exptl_absorpt_correction_type   multi-scan
_exptl_absorpt_process_details
;
<b>(Reference</b>)
;
_exptl_crystal_colour            colourless
_exptl_crystal_density_diffrn    1.265
_exptl_crystal_description       lath
_exptl_crystal_F_000             296
_exptl_crystal_size_max          0.280
_exptl_crystal_size_mid          0.130
_exptl_crystal_size_min          0.060
_refine_diff_density_max         0.197
_refine_diff_density_min         -0.206
_refine_ls_extinction_method     none
_refine_ls_goodness_of_fit_ref   1.065
_refine_ls_hydrogen_treatment    mixed
_refine_ls_matrix_type           full
_refine_ls_number_parameters     107
_refine_ls_number_reflns         1530
_refine_ls_number_restraints     6
_refine_ls_restrained_S_all      1.063
_refine_ls_R_factor_all          0.0358
_refine_ls_R_factor_gt           0.0339
_refine_ls_shift/su_max          0.000
_refine_ls_shift/su_mean         0.000
_refine_ls_structure_factor_coef Fsqd
_refine_ls_weighting_details
'w=1/[\s^2^(Fo^2^)+(0.0427P)^2^+0.1589P] where P=(Fo^2^+2Fc^2^)/3'
_refine_ls_weighting_scheme      calc
_refine_ls_wR_factor_gt          0.0865
_refine_ls_wR_factor_ref         0.0882
_reflns_number_gt                1431
_reflns_number_total             1530
_reflns_threshold_expression     'I > 2\s(I)'
_cod_data_source_file            ov3109sup1.cif
_cod_data_source_block           1
_cod_database_code               2021051
_shelx_space_group_comment
;
The symmetry employed for this shelxl refinement is uniquely defined
by the following loop, which should always be used as a source of
symmetry information in preference to the above space-group names.
They are only intended as comments.
;
_shelx_estimated_absorpt_t_min   0.818
_shelx_estimated_absorpt_t_max   0.956
_shelx_hkl_file
;
   1   0   0 4466.26 164.870  18
  -1   0   0 4849.28 186.228  35
   1   0   0 3968.69 140.163  34
   1   0   0 4433.64 148.148  36
  -1   0   0 4267.09 180.791  33
  -1   0   0 4520.13 171.329   2
   2   0   0 956366. 3145.79  36
  -2   0   0 962117. 3526.70   2
   2   0   0 951387. 3399.44  18
   3   0   0 596903. 3127.02  36
   3   0   0 566946. 3111.97  34
   3   0   0 573617. 3322.51  18
  -3   0   0 571599. 3831.80  35
  -3   0   0 598560. 4079.00  33
  -3   0   0 588135. 3449.10   2
  -4   0   0 762.664 190.895  35
  -4   0   0 997.394 174.435   2
  -4   0   0 900.454 212.296  33
   4   0   0 872.814 155.947  34
   4   0   0 1172.80 172.326  36
   4   0   0 1077.80 177.050  18
   5   0   0 379596. 3693.67  18
   5   0   0 377831. 3482.76  36
  -5   0   0 378799. 4653.24  33
  -5   0   0 366747. 3813.86   2
   6   0   0 18609.7 907.699  34
   6   0   0 16176.7 865.648  18
  -6   0   0 16894.9 1168.44  33
  -6   0   0 14684.1 1021.75  35
   6   0   0 15896.2 824.465  36
  -6   0   0 15049.8 899.487   2
   7   0   0 24953.3 669.575  27
  -7   0   0 26650.1 681.115  22
  -7   0   0 26039.5 721.429  15
  -7   0   0 25279.4 663.325   4
  -7   0   0 26659.0 854.801  29
  -7   0   0 25777.8 635.877  31
   7   0   0 25802.9 622.663  42
   7   0   0 26160.0 680.462  37
   7   0   0 25331.2 1224.99  18
  -7   0   0 26133.7 1635.40  33
  -7   0   0 24077.3 1277.18   2
   7   0   0 26793.2 704.056  23
  -7   0   0 25832.0 1516.31  35
   7   0   0 25380.8 1183.18  36
   7   0   0 26650.0 675.304  24
   8   0   0 28288.6 754.625  37
   8   0   0 27977.8 740.495  27
  -8   0   0 30377.9 968.066  29
  -8   0   0 30671.3 768.228   4
  -8   0   0 28930.5 707.417  31
  -8   0   0 29559.0 756.165  22
   8   0   0 27765.9 760.560  23
   8   0   0 28240.0 680.653  42
  -8   0   0 28001.3 1491.16   2
   8   0   0 29551.5 746.334  24
  -8   0   0 29247.9 823.748  15
   9   0   0 528.812 111.712  23
  -9   0   0 581.253 153.716  29
   9   0   0 274.298 81.5298  24
   9   0   0 369.022 99.1303  37
   9   0   0 430.152 96.1130  27
  -9   0   0 478.082 95.7411  31
  -9   0   0 465.576 103.519   4
  -9   0   0 456.422 94.3970  22
  -9   0   0 381.147 103.673  15
   9   0   0 490.729 98.8927  42
 -10   0   0 2399.22 239.111  29
  10   0   0 2219.38 192.345  23
  10   0   0 2105.43 154.529  42
 -10   0   0 2036.84 158.613  31
  10   0   0 2272.40 192.041  37
 -10   0   0 2042.59 198.490  15
 -10   0   0 2410.58 184.367   8
  11   0   0 2483.64 157.000  23
  11   0   0 2431.63 152.294  37
 -11   0   0 2789.10 191.894  29
 -11   0   0 2556.96 167.469  15
   0   1   0 14.3001 10.7341   3
   0  -1   0 16.1785 29.9537  17
   0   1   0 24.4049 25.0682  20
   0   1   0 8.82931 15.8609   2
   0  -1   0 28.8635 19.3223  19
   0   1   0-0.27847 12.1990  34
  -1  -1   0 3967.20 165.003  35
   1   1   0 3379.81 174.260  18
  -1   1   0 3476.63 182.315   2
  -1   1   0 3357.77 174.309  35
   1  -1   0 3259.82 167.202  36
  -1   1   0 3201.41 173.040  33
   1   1   0 2944.01 166.700  34
   1  -1   0 3409.04 158.059  18
   1   1   0 3503.96 154.501  20
  -1  -1   0 3541.01 84.3450   1
  -1  -1   0 3527.75 170.492  19
  -1  -1   0 3267.82 195.367  33
   2   1   0 246625. 1849.47  18
  -2   1   0 230760. 1965.70  33
   2  -1   0 239496. 1298.52  34
  -2  -1   0 227113. 2153.43  33
   2   1   0 227377. 1835.01  34
  -2   1   0 238370. 1910.40   2
  -2   1   0 224208. 1946.88  35
   2  -1   0 245537. 1763.17  18
   2   1   0 241496. 1544.62  20
   2  -1   0 235299. 1717.58  36
  -2  -1   0 233209. 1746.68   2
   2   1   0 247804. 1639.64  36
   3  -1   0 144835. 1671.26  18
  -3  -1   0 137310. 1661.12   2
   3  -1   0 136967. 1345.11  34
  -3  -1   0 136656. 2045.80  33
   3   1   0 142309. 1691.55  18
  -3   1   0 140830. 1786.36   2
  -3   1   0 145714. 1977.45  33
  -3  -1   0 142732. 1864.94  35
   3   1   0 143137. 1534.40  36
   3  -1   0 137034. 1600.02  36
   3   1   0 137062. 1727.87  34
  -3   1   0 130987. 1884.20  35
  -4  -1   0 36358.3 1272.62  33
  -4   1   0 32591.1 1024.84   2
   4   1   0 34269.8 895.544  36
   4   1   0 33743.5 968.506  18
  -4   1   0 35909.9 1200.09  33
   4  -1   0 34731.2 936.171  36
   4   1   0 34939.1 1021.85  34
   4  -1   0 36999.8 859.005  34
   4  -1   0 33203.3 957.450  18
  -4  -1   0 32238.3 962.894   2
  -4  -1   0 31405.6 1089.69  35
  -4   1   0 30873.4 1103.41  35
   5  -1   0 2550.16 311.790  18
  -5   1   0 2824.66 358.338   2
  -5   1   0 2522.29 376.502  35
   5   1   0 2527.82 308.217  18
   5   1   0 2787.42 302.527  36
  -5   1   0 2997.42 426.213  33
  -5  -1   0 2480.36 397.126  33
  -5  -1   0 2634.05 324.764   2
  -5  -1   0 2223.80 369.293  35
   5  -1   0 2902.52 322.719  36
   5  -1   0 3049.42 297.611  34
   5   1   0 3354.39 371.161  34
  -6   1   0 26962.0 1398.77  35
  -6  -1   0 28727.6 1215.23   2
   6  -1   0 29907.2 1197.02  18
  -6   1   0 30667.1 1554.18  33
  -6  -1   0 29591.7 1547.15  33
  -6  -1   0 27773.4 1401.50  35
   6   1   0 28942.0 1108.52  36
   6  -1   0 29603.4 1152.22  36
   6   1   0 28008.2 1148.59  18
  -6   1   0 27496.4 1243.46   2
   7   1   0 20034.0 597.292  37
   7  -1   0 19456.9 606.698  27
  -7   1   0 17561.8 711.317  39
  -7   1   0 19244.0 1308.33  35
   7   1   0 20733.1 561.164  42
  -7   1   0 21062.8 657.461  15
   7  -1   0 20278.0 597.168   7
  -7  -1   0 19873.8 1138.52   2
   7  -1   0 19264.1 585.601  24
  -7   1   0 19561.9 1425.11  33
   7  -1   0 18688.1 1032.58  36
   7   1   0 21098.5 597.327  24
  -7  -1   0 20434.6 609.655  22
   7  -1   0 20935.8 557.083  42
  -7  -1   0 20064.6 739.694  29
  -7   1   0 19485.8 1177.42   2
  -7   1   0 20871.1 757.057  29
   7   1   0 19717.4 1073.59  18
  -7   1   0 20362.3 589.684   4
  -7  -1   0 21169.1 592.702  31
  -7   1   0 21294.3 600.211  22
  -7  -1   0 20349.2 1455.42  33
  -7  -1   0 18076.3 1271.98  35
  -7  -1   0 19051.3 616.141  15
   7  -1   0 20015.9 603.061  37
   7  -1   0 20976.1 629.913  23
   7   1   0 18998.0 595.668  23
   7  -1   0 20013.2 1091.18  18
   7   1   0 18734.5 1003.74  36
  -7  -1   0 19905.1 598.813   4
  -8  -1   0 8179.74 429.203  15
  -8   1   0 8224.44 361.827  31
   8   1   0 7433.01 375.828  27
  -8   1   0 8713.88 519.867  29
   8  -1   0 8161.03 407.594  27
  -8   1   0 8304.89 394.388  22
   8  -1   0 8536.63 415.526  37
  -8   1   0 8028.71 434.741  15
   8  -1   0 8961.96 377.747  42
  -8  -1   0 8439.97 510.479  29
   8  -1   0 7789.65 385.896  24
  -8   1   0 8543.92 511.734  39
  -8  -1   0 8070.11 401.510   4
  -8  -1   0 8349.98 412.796  22
  -8  -1   0 8644.73 398.592  31
   8   1   0 8765.33 405.085  24
   8   1   0 7966.58 409.354  23
   8   1   0 8330.77 373.066  42
   8  -1   0 8213.22 416.296  23
  -8   1   0 9003.87 412.893   4
   8   1   0 7971.65 400.737  37
  -9   1   0 17363.9 627.365  15
   9  -1   0 16678.8 569.274  37
  -9   1   0 19485.8 703.179  39
  -9  -1   0 18283.6 726.505  29
  -9  -1   0 17630.5 578.176   4
   9  -1   0 16163.2 556.660  27
   9  -1   0 17775.7 508.969  42
   9   1   0 17090.5 579.159  23
   9   1   0 17596.7 521.354  42
  -9   1   0 18464.8 737.170  29
  -9  -1   0 17654.9 626.793  15
   9  -1   0 17488.1 591.114  23
  -9  -1   0 17278.0 581.192  22
   9   1   0 16377.8 532.755  27
  -9   1   0 17847.2 550.618   8
   9   1   0 17055.6 569.530  37
   9   1   0 17256.6 544.153  24
  -9  -1   0 18019.7 559.059  31
 -10  -1   0 219.527 65.3891   8
 -10   1   0 275.481 78.0471  15
  10   1   0 305.013 80.0100  23
 -10  -1   0 381.666 108.227  29
 -10   1   0 327.162 102.004  29
  10   1   0 293.740 75.3913  37
 -10   1   0 320.715 68.5788   8
  10  -1   0 285.223 85.5972  23
  10  -1   0 231.308 69.9394  37
 -10  -1   0 332.693 74.1561  31
  10   1   0 210.967 50.7303  42
 -10  -1   0 355.450 79.8049  22
 -10  -1   0 348.403 85.3765  15
 -11   1   0 7748.86 288.024  15
  11  -1   0 7033.82 251.913  37
  11   1   0 7330.12 264.103  23
  11  -1   0 7029.34 256.029  23
  11   1   0 6965.91 252.117  37
 -11  -1   0 7702.58 276.785  15
 -11   1   0 7816.93 313.633  29
 -11  -1   0 7309.03 293.211  29
   0  -2   0 309494. 2207.67  17
   0   2   0 318776. 1302.32   3
   0   2   0 316055. 1691.52   2
   0  -2   0 308366. 1837.12  19
  -1   2   0 282.133 61.8239  35
  -1   2   0 313.830 79.0016   2
   1   2   0 265.836 40.3075   3
   1  -2   0 350.410 54.9338  17
  -1   2   0 226.041 75.3688  20
   1  -2   0 248.621 74.9661  36
  -1  -2   0 454.503 58.6788  35
  -1  -2   0 264.493 35.9997   1
   1   2   0 340.234 74.4258  20
   1   2   0 275.586 75.6822  18
   1   2   0 285.801 71.4917  34
  -1   2   0 280.917 61.9639  33
  -1  -2   0 302.171 78.3127  19
   1  -2   0 336.829 69.7925  19
  -2   2   0 2832.81 239.084  35
   2  -2   0 3330.13 244.955  36
  -2  -2   0 3675.22 235.177  35
   2  -2   0 3175.93 208.977  19
   2  -2   0 3301.27 126.092  34
   2  -2   0 3062.01 217.107  18
  -2   2   0 3003.07 246.532  33
  -2  -2   0 3319.42 240.408  19
   2   2   0 3175.01 257.902  34
  -2   2   0 3176.30 254.461   2
   2   2   0 2979.10 231.478  18
   3   2   0 56731.4 1134.35  18
   3  -2   0 58153.8 749.046  34
   3  -2   0 58368.6 1148.47  36
  -3  -2   0 55433.9 1400.99  33
   3   2   0 56806.6 1031.69  36
  -3   2   0 57774.6 1244.15   2
   3   2   0 57055.0 1241.50  34
  -3   2   0 52071.9 1226.30  35
   3  -2   0 58425.0 1116.51  18
   3   2   0 56520.8 981.664  20
  -3   2   0 58176.0 1303.18  33
  -3  -2   0 54772.1 1092.95   2
  -3  -2   0 59379.2 1203.49  35
  -4  -2   0 130.214 93.9304  33
  -4   2   0 184.500 106.862   2
   4   2   0 279.855 120.191  34
   4   2   0 93.0514 56.6852  36
   4  -2   0 158.414 82.2235  36
  -4   2   0 158.554 95.2792  33
   4  -2   0 135.691 60.4387  34
  -4  -2   0 363.513 135.935  35
   4  -2   0 108.648 82.2037  18
  -4  -2   0 75.8081 54.8734   2
  -4   2   0 208.679 133.173  35
   4   2   0 133.779 83.3500  18
   5   2   0 25056.0 981.702  18
  -5  -2   0 24058.4 962.263   2
   5   2   0 24736.5 911.276  36
  -5   2   0 25962.2 1238.08  33
   5   2   0 27347.2 1125.42  34
  -5   2   0 24553.4 1083.91   2
  -5  -2   0 25865.5 1296.89  33
   5  -2   0 24983.8 976.727  36
  -5  -2   0 22935.0 1103.10  35
  -5   2   0 22153.3 1116.53  35
   5  -2   0 25519.0 995.393  18
   6   2   0 1127.05 218.067  36
   6   2   0 1030.03 222.214  18
  -6  -2   0 1063.78 284.813  35
   6   2   0 1568.92 302.850  34
  -6  -2   0 1189.18 253.878   2
   6  -2   0 1231.00 250.474  36
  -6   2   0 1094.83 326.555  33
  -6  -2   0 954.837 311.957  33
   6  -2   0 1264.87 251.088  18
   6  -2   0 1214.39 210.509   1
  -6   2   0 1559.24 358.646  35
  -6   2   0 954.835 258.693   2
   7   2   0 2562.92 203.206  42
  -7  -2   0 2365.36 473.261  35
  -7   2   0 2206.22 255.411  29
  -7  -2   0 2589.69 224.585   4
   7  -2   0 2067.57 348.907  36
   7  -2   0 2350.23 214.211  23
   7  -2   0 2451.81 384.795  18
  -7   2   0 2197.20 480.917  33
  -7  -2   0 3298.95 737.653  17
  -7   2   0 2702.12 246.855  15
  -7  -2   0 2573.00 221.601  22
  -7  -2   0 2431.20 266.935  29
   7   2   0 2554.34 223.569  23
  -7  -2   0 2513.66 223.946  15
  -7   2   0 2220.47 454.979  35
   7   2   0 3017.42 457.515  34
   7   2   0 2415.58 212.183  37
  -7  -2   0 2028.86 358.120   2
  -7  -2   0 2664.56 221.674  31
  -7   2   0 2670.80 214.713  22
   7  -2   0 2351.93 186.211  42
  -7  -2   0 2011.49 244.959  30
   7   2   0 2340.83 351.946  36
   7   2   0 2272.54 359.987  18
   7  -2   0 2618.73 228.006   7
  -7   2   0 2292.81 193.999   8
  -7   2   0 2858.07 471.761   2
   7   2   0 2594.96 208.678  24
   7  -2   0 2469.62 215.896  37
  -7   2   0 2045.25 261.260  39
   7  -2   0 2312.52 208.312  24
   7  -2   0 2580.41 230.891  27
  -8   2   0 172.492 78.1263  15
  -8  -2   0 139.480 81.1882  29
   8  -2   0 135.826 75.5447  37
  -8  -2   0 61.2417 70.7639  15
   8   2   0 91.2263 62.5836  42
  -8   2   0 20.3854 83.1029  39
   8   2   0 351.222 91.5039  24
   8   2   0 76.7958 55.4658  37
   8  -2   0 164.187 60.9533  42
   8   2   0 208.130 82.4136  23
   8  -2   0 117.892 74.3322  23
   8   2   0 99.3833 54.4984  27
  -8   2   0 92.5324 38.6916   8
  -8   2   0-0.42262 76.2176  29
   8  -2   0 127.553 53.8748  27
  -8  -2   0 119.736 62.1716  31
  -8  -2   0 69.0799 54.6577   4
  -8  -2   0 77.6165 61.7916  22
  -9   2   0 1569.83 195.593  15
  -9  -2   0 1766.27 186.135   4
  -9  -2   0 1845.44 202.398  15
   9  -2   0 1743.32 190.134  37
   9  -2   0 1622.59 183.262  27
  -9   2   0 1892.71 234.704  39
   9   2   0 1746.19 183.862  37
   9  -2   0 1625.66 183.064  23
  -9   2   0 1611.84 161.653   8
  -9  -2   0 1907.15 232.486  29
  -9  -2   0 1642.31 186.725  22
   9   2   0 1814.21 174.092  27
   9   2   0 1932.98 200.269  23
  -9  -2   0 1840.41 189.209  31
  -9   2   0 1942.84 237.100  29
   9   2   0 1750.78 169.154  42
  10  -2   0 73.1820 52.5315  37
  10   2   0 206.320 65.8044  37
 -10  -2   0 210.520 61.1665  31
 -10   2   0 193.548 77.0366  15
 -10   2   0 221.749 84.1591  29
 -10  -2   0 101.631 56.2373  15
 -10  -2   0 190.628 76.4812  29
 -10  -2   0 209.066 61.4339  22
  10   2   0 153.303 69.6018  23
  10   2   0 153.401 44.4473  42
  10  -2   0 167.765 61.0272  27
  10  -2   0 162.787 68.4082  23
 -10  -2   0 169.838 57.0862   4
 -11   2   0 61.2087 43.5768  29
 -11  -2   0 55.1849 34.6068  31
  11  -2   0-23.2789 37.1253  23
  11  -2   0 19.8876 32.4052  37
 -11  -2   0 28.1140 36.9443   8
  11   2   0 46.3310 31.5980  23
 -11   2   0-27.5019 38.2551  15
  11   2   0 80.2989 42.1198  37
   0   3   0 5.69234 59.7000  20
   0   3   0 2.27416 33.5418  34
   0   3   0 10.8196 20.0121   3
   0  -3   0 64.6670 62.3297  19
   0  -3   0 22.7131 28.1942   1
   0  -3   0 9.15010 11.3492  35
   0  -3   0-22.7237 75.9387  17
   1   3   0 24197.9 412.335   3
   1   3   0 21300.1 655.126  20
  -1   3   0 21788.9 629.450  33
   1  -3   0 21571.5 579.873  19
   1   3   0 20672.2 644.728  34
   1  -3   0 19749.4 676.389  36
  -1   3   0 20517.3 748.135  20
  -1  -3   0 23369.8 433.128   1
   1  -3   0 21274.3 490.399  17
  -1  -3   0 22146.1 642.903  19
  -1   3   0 23005.8 649.724   2
  -1   3   0 23323.5 558.356   3
   1   3   0 19913.5 618.753  18
  -2  -3   0 34778.9 881.448  19
   2  -3   0 32256.8 895.032  36
  -2   3   0 32676.9 798.539  35
   2   3   0 31934.6 851.302  18
  -2   3   0 34131.2 915.781   2
  -2  -3   0 34313.4 408.088   1
  -2   3   0 30766.0 973.574  20
   2  -3   0 33456.8 753.638  19
  -2  -3   0 36257.1 735.124  35
  -2   3   0 33208.6 905.824  33
   2   3   0 33927.1 800.952  20
   2   3   0 32165.5 912.125  34
   3  -3   0 1464.93 175.486  19
  -3  -3   0 1193.68 186.590  35
   3  -3   0 1404.16 192.668  18
  -3   3   0 1076.67 187.908  35
  -3   3   0 1316.27 219.642  33
   3  -3   0 1439.49 210.752  36
  -3   3   0 1356.79 219.315   2
   3   3   0 1191.88 187.229  18
   3   3   0 1360.55 173.653  20
  -3   3   0 1101.73 207.403  20
   3   3   0 1319.76 222.222  34
  -4   3   0 32267.3 1154.13   2
  -4  -3   0 32033.7 1011.91   2
  -4   3   0 30252.2 1119.93  35
   4   3   0 31388.2 1028.20  18
  -4   3   0 33555.8 1243.70  33
   4  -3   0 34603.9 1061.23  18
  -4  -3   0 30585.2 1078.89  35
   4   3   0 33415.4 1193.11  34
   4   3   0 33368.7 964.587  36
   4  -3   0 33060.1 928.570  19
  -5   3   0 531.853 200.223   2
   5  -3   0 584.902 164.483  36
   5   3   0 738.748 208.835  34
  -5   3   0 600.070 169.522  33
  -5  -3   0 441.092 173.158  35
   5   3   0 796.852 184.991  18
  -5   3   0 453.490 177.033  35
   5  -3   0 664.128 173.650  18
   5   3   0 725.118 170.332  36
  -5  -3   0 615.533 175.184   2
  -6   3   0 156.347 128.732  33
  -6   3   0 644.020 226.206  35
  -6   3   0 161.633 123.857   2
  -6  -3   0 155.971 106.323   2
  -6  -3   0 404.447 183.060  35
   6  -3   0 665.251 189.230  18
  -6   3   0 377.201 182.146  20
   6   3   0 262.859 128.522  18
   6  -3   0 205.846 112.225  36
   6   3   0 330.787 166.940  34
   6  -3   0 208.964 40.0111   1
   6   3   0 236.966 111.323  36
   7  -3   0 556.646 91.2450  42
   7  -3   0 531.915 111.517  27
  -7  -3   0 910.279 165.028  29
  -7   3   0 771.756 186.325  39
   7   3   0 550.892 103.496  23
  -7  -3   0 586.456 118.202  15
   7   3   0 703.631 250.130  34
  -7   3   0 1269.55 359.308  33
  -7  -3   0 167.727 149.576  35
  -7  -3   0 759.408 171.169  30
  -7  -3   0 439.393 99.4140  22
   7  -3   0 654.452 138.390   7
   7  -3   0 830.896 137.576  23
   7   3   0 727.702 109.066  42
  -7  -3   0 652.219 122.807  13
   7   3   0 905.763 232.864  18
  -7  -3   0 765.009 128.040  31
  -7  -3   0 663.605 485.333  17
  -7   3   0 735.334 128.024  15
  -7   3   0 870.737 172.054  29
   7   3   0 537.007 105.260  37
   7  -3   0 905.841 210.447   1
   7   3   0 1044.62 245.780  36
  -7   3   0 749.332 252.291   2
   7  -3   0 958.834 245.763  18
  -7   3   0 1283.22 341.322  35
   7  -3   0 703.234 118.726  37
   7  -3   0 321.119 166.188  36
  -8   3   0 4151.25 326.037  32
   8   3   0 3997.07 261.570  42
  -8  -3   0 4137.88 296.576  22
  -8  -3   0 4736.56 362.408  29
  -8   3   0 4307.74 318.459  15
   8   3   0 4046.20 290.178  23
   8  -3   0 4012.15 295.477  27
   8   3   0 4245.62 273.375  27
   8   3   0 3547.65 266.064  37
  -8   3   0 4628.46 362.728  29
  -8  -3   0 4266.01 304.104   4
  -8   3   0 4408.91 383.036  39
   8  -3   0 4182.76 290.780  37
  -8  -3   0 4096.96 288.168  31
  -8  -3   0 3884.39 292.222  15
   8  -3   0 4144.00 295.278  23
  -9   3   0-4.81389 53.5802  15
   9   3   0 127.507 69.6417  23
   9  -3   0 52.1049 51.0640  27
  -9  -3   0 101.912 63.3830   4
  -9  -3   0 156.762 69.7233  15
   9   3   0 141.440 51.1387  42
  -9  -3   0 96.8747 69.3470  22
   9  -3   0 131.229 58.4895  23
  -9   3   0 123.734 103.525  39
   9  -3   0 79.1665 54.7079  37
  -9  -3   0 157.575 75.3194  31
   9   3   0 88.4142 52.0866  37
  -9   3   0 203.349 94.8587  29
  -9  -3   0 114.755 64.2379  29
  10  -3   0 119.694 50.5405  23
 -10  -3   0 101.968 52.2305  22
 -10   3   0 237.222 82.6280  29
 -10   3   0 255.291 75.9903  15
 -10   3   0 228.631 82.0496  39
 -10  -3   0 78.5063 43.9371  31
  10  -3   0 211.545 59.6888  27
  10  -3   0 241.291 61.8251  37
  10   3   0 154.902 47.0201  42
 -10  -3   0 194.119 62.4922   4
  10   3   0 222.055 65.2413  23
  10   3   0 168.894 57.9716  37
 -11   3   0 35.4609 28.0470  15
  11   3   0 5.22260 25.9397  23
  11   3   0 46.9886 31.1360  37
 -11  -3   0 41.8192 30.3107  31
 -11   3   0 37.0198 38.0721  29
  11  -3   0 64.0524 32.8292  23
  11  -3   0-6.93118 28.3213  37
  11  -3   0-30.0645 41.1296  10
   0  -4   0 81268.4 1536.11  17
   0  -4   0 80421.3 1336.14  19
   0   4   0 74735.3 1291.71  34
   0   4   0 77032.9 1554.25  20
   0  -4   0 85385.9 1143.74   1
   0   4   0 82791.6 932.070   3
  -1  -4   0 1670.61 142.397   1
  -1   4   0 1683.71 163.317   3
  -1   4   0 1181.99 148.100  34
  -1   4   0 1819.54 209.570   2
   1  -4   0 1765.52 197.702  19
  -1  -4   0 1379.74 270.530  17
   1  -4   0 1453.21 155.627  17
  -1   4   0 1605.00 202.077  33
   1   4   0 1657.63 219.597  20
   1   4   0 1670.83 119.939   3
  -1  -4   0 1707.73 211.293  19
  -1   4   0 1183.49 216.665  20
   1   4   0 1401.02 195.417  34
  -2   4   0 58190.8 1321.53   2
   2  -4   0 56053.8 1091.28  19
  -2  -4   0 60886.9 1314.55  19
  -2   4   0 56016.9 1306.87  33
  -2  -4   0 59074.1 668.179   1
   2   4   0 55876.9 1201.50  20
   2   4   0 55139.7 1246.89  18
  -2  -4   0 55979.3 908.325  35
  -2   4   0 52544.0 1462.52  20
  -2   4   0 60419.8 1055.73  35
   2   4   0 54342.5 1333.57  34
  -2   4   0 59055.6 1173.58   3
   2  -4   0 52161.1 1311.76  36
   3   4   0 7206.72 442.001  20
  -3  -4   0 6693.04 415.256  35
   3   4   0 8182.02 582.077  34
   3   4   0 7538.19 490.950  18
  -3   4   0 7507.00 536.237   2
  -3   4   0 7558.06 538.811  33
  -3   4   0 7779.56 481.933  35
  -3   4   0 6636.89 552.493  20
   3  -4   0 7385.91 524.340  36
   3  -4   0 7476.60 417.205  19
  -4   4   0 21934.6 1031.38   2
  -4  -4   0 22375.0 896.083   2
   4  -4   0 21742.6 968.559  36
   4   4   0 23450.4 849.358  20
  -4   4   0 22264.0 1099.16  20
   4   4   0 24548.9 1114.90  34
  -4   4   0 22647.4 974.261  35
  -4  -4   0 20863.8 897.189  35
  -4   4   0 24587.3 1125.45  33
   4   4   0 23992.9 949.732  18
   5   4   0 13525.0 921.549  34
  -5   4   0 11684.7 837.074   2
  -5  -4   0 12366.8 720.703   2
   5  -4   0 11848.1 784.591  36
  -5   4   0 13251.8 939.131  33
   5   4   0 12006.9 695.985  36
  -5   4   0 12003.8 817.001  35
   5   4   0 12115.8 744.184  18
  -5  -4   0 11027.6 753.888  35
  -5   4   0 11066.0 837.699  20
   5  -4   0 11929.6 705.555   1
   6   4   0-25.8368 75.5606  36
  -6   4   0 144.562 77.2876  29
   6  -4   0 43.3225 49.8931  37
  -6   4   0 66.5768 44.7577  15
   6   4   0 100.673 125.579  34
   6   4   0 95.0242 86.1340  18
  -6   4   0 61.7337 86.6181  39
  -6   4   0 62.3939 100.820   2
   6   4   0 1.76586 44.9982  23
  -6  -4   0 63.9641 64.0994  40
  -6  -4   0-15.6744 41.7039  22
   6   4   0 23.7564 41.9004  42
  -6   4   0 189.252 156.079  35
   6  -4   0-85.0498 96.6014  36
  -6  -4   0 18.2902 86.0831  35
   6  -4   0 143.285 74.1298  27
   6  -4   0 59.5384 76.0675   7
  -6   4   0 113.774 123.433  33
   6  -4   0-25.2061 39.2886  23
  -6  -4   0 74.4460 44.1984  31
   6  -4   0 79.4759 74.3351   1
  -6   4   0 549.949 227.364  20
  -6  -4   0 202.718 78.0348  13
  -6  -4   0 412.399 389.515  17
  -7   4   0 11889.3 546.645  29
  -7  -4   0 10263.7 489.277  13
  -7   4   0 10811.6 598.489  39
  -7   4   0 10777.2 935.957  35
  -7  -4   0 11134.6 480.027  22
   7   4   0 9906.16 442.541  23
  -7  -4   0 8150.84 503.590  30
  -7   4   0 10488.2 504.328  38
   7   4   0 13148.1 1067.10  34
   7  -4   0 9484.13 814.378  36
   7   4   0 10127.8 434.459  37
   7   4   0 10338.0 417.357  42
  -7   4   0 10602.7 484.999  15
   7  -4   0 10318.0 448.753  37
  -7  -4   0 10466.5 451.052  15
   7   4   0 9921.04 764.866  36
   7  -4   0 10564.1 479.173  27
  -7  -4   0 11421.6 1446.56  17
   7   4   0 11120.0 827.164  18
  -7   4   0 11479.6 1125.40  33
  -7  -4   0 11133.7 461.210  31
  -7  -4   0 10873.8 472.251  40
   7  -4   0 10917.0 473.260  23
   7  -4   0 9876.50 453.706   7
   7  -4   0 11120.0 776.433   1
  -7   4   0 11359.7 981.028   2
  -8  -4   0 3439.66 263.210  15
  -8   4   0 3425.77 278.377  15
  -8   4   0 4036.11 323.959  32
  -8  -4   0 4274.29 320.674  29
   8   4   0 3705.45 253.176  42
  -8   4   0 3831.26 314.125  29
   8  -4   0 3587.99 290.202  11
  -8  -4   0 3762.70 284.780   4
   8  -4   0 3840.63 276.330  37
   8   4   0 3503.56 269.537  23
   8  -4   0 3404.77 274.436  27
   8  -4   0 3725.05 278.694  23
  -8  -4   0 3843.86 275.920  31
  -8   4   0 3765.18 348.719  39
  -8  -4   0 3887.60 290.223  22
   8   4   0 3329.96 253.117  37
  -9  -4   0 2558.67 213.716  15
  -9   4   0 2931.29 287.935  39
  -9  -4   0 2724.25 220.898  31
   9   4   0 2735.18 223.684  23
   9  -4   0 2963.39 224.368  37
  -9   4   0 2588.68 237.066  29
  -9  -4   0 2968.49 242.201  22
   9  -4   0 2802.40 224.639  23
  -9   4   0 2839.56 237.874  15
   9   4   0 2619.90 199.819  42
   9  -4   0 2811.87 227.286  27
   9   4   0 2769.60 215.966  37
  -9  -4   0 2732.60 223.097   4
 -10  -4   0 1583.21 147.452  22
  10  -4   0 1496.35 140.140  23
  10  -4   0 1291.71 126.061  37
  10   4   0 1474.46 131.068  37
 -10  -4   0 1553.43 140.378   4
  10  -4   0 1507.41 135.235  27
  10   4   0 1494.49 138.424  23
  10   4   0 1548.42 125.717  42
 -10  -4   0 1627.36 143.991  31
 -10   4   0 1503.40 147.348  29
 -10   4   0 1586.52 149.502  15
 -10   4   0 1702.99 169.662  39
  11   4   0 680.424 67.5323  23
   0  -5   0-13.5920 54.1664  19
   0   5   0 31.0233 35.6760   3
   0  -5   0 100.073 80.9485  17
   0   5   0-2.00035 44.3668  33
   0   5   0 51.3018 69.4754  34
   0   5   0 67.8484 95.7852  20
   0  -5   0-0.86323 30.9879   1
   1   5   0 5366.92 421.301  18
  -1   5   0 5652.44 413.786  33
  -1  -5   0 5892.77 307.761   1
   1   5   0 5471.84 441.756  20
   1  -5   0 5418.24 375.532  19
  -1   5   0 5852.40 319.902   3
   1  -5   0 5965.89 377.821   1
  -1  -5   0 5269.83 407.416  19
  -1  -5   0 4950.77 525.738  17
   1   5   0 5178.57 425.869  34
  -1   5   0 4932.16 477.235  20
  -2   5   0 2425.17 300.503   2
   2   5   0 2251.44 308.487  34
  -2  -5   0 2663.32 313.608  19
   2  -5   0 2572.37 258.683  19
  -2   5   0 1865.12 316.638  20
   2   5   0 2401.99 280.702  20
  -2   5   0 2805.95 269.988   3
  -2  -5   0 2219.90 410.645  17
   2  -5   0 2377.64 265.025   1
  -2   5   0 2149.39 287.819  33
   2   5   0 2455.29 297.193  18
   3   5   0 10801.2 739.692  34
  -3   5   0 9345.99 739.583  20
  -3  -5   0 10691.5 1006.44  17
   3   5   0 10720.1 602.410  20
   3  -5   0 11309.3 622.080   1
  -3   5   0 10401.3 603.799   3
   3   5   0 10783.9 642.762  18
  -3   5   0 10829.7 694.359   2
  -3   5   0 10433.7 693.538  33
   4   5   0 7258.71 553.893  18
  -4   5   0 5861.70 584.134  33
  -4   5   0 6521.22 512.218  35
   4  -5   0 6293.92 511.169   1
   4   5   0 6684.72 651.856  34
   4   5   0 5917.71 467.918  20
  -4  -5   0 6686.42 888.090  17
  -4   5   0 6580.41 547.780   3
  -4   5   0 5689.52 560.289   2
  -4  -5   0 5515.50 465.872   2
   4  -5   0 5613.00 549.638  36
  -4   5   0 5121.80 587.620  20
  -5   5   0 18051.5 1016.63   3
  -5   5   0 16729.0 1050.39   2
  -5   5   0 20944.6 1251.99  33
   5   5   0 19391.9 1182.80  34
   5  -5   0 17071.5 1014.18  36
  -5  -5   0 18930.5 1626.20  17
  -5   5   0 18441.5 992.233  35
   5   5   0 18718.4 959.208  18
   5   5   0 17646.5 892.410  36
   5  -5   0 18530.3 940.888   1
  -5   5   0 16910.0 1132.16  20
   6   5   0 775.525 123.258  23
  -6   5   0 927.783 249.830   2
  -6  -5   0 713.434 128.084  22
  -6   5   0 1160.25 282.972   3
   6   5   0 842.994 223.796  18
   6   5   0 659.600 225.131  36
  -6  -5   0 766.319 109.663  28
   6   5   0 853.690 305.652  34
   6  -5   0 651.729 140.373  11
  -6   5   0 723.279 152.268  32
   6  -5   0 644.576 125.030   7
   6  -5   0 795.544 127.226  23
   6  -5   0 636.647 114.521  37
   6  -5   0 633.934 187.046   1
  -6  -5   0 639.461 106.477  31
  -6  -5   0 1402.67 563.719  17
   6   5   0 730.037 111.997  42
  -6   5   0 977.876 145.456  15
   6   5   0 707.068 101.363  21
  -6  -5   0 772.312 133.165  13
   6  -5   0 883.456 138.240  27
   6  -5   0 617.707 258.625  36
  -6   5   0 636.657 172.584  39
  -6   5   0 809.828 283.988  33
  -6  -5   0 703.635 122.764  40
  -7   5   0 2020.12 241.047  32
   7   5   0 1891.24 199.098  23
  -7  -5   0 2475.85 218.672  15
  -7  -5   0 2444.89 222.343  31
  -7  -5   0 2468.10 231.884  40
  -7   5   0 2196.01 241.749  38
  -7   5   0 2373.24 232.723  29
   7   5   0 2101.65 192.510  42
  -7   5   0 2370.73 227.534  15
   7  -5   0 2236.37 234.287  11
   7   5   0 1858.41 186.275  37
   7   5   0 2152.22 169.283  21
  -7  -5   0 2036.93 223.237  13
  -7  -5   0 1534.75 221.375  30
   7  -5   0 2013.72 201.608  37
  -7  -5   0 1987.61 209.439  22
   7  -5   0 2131.23 213.932  23
   7  -5   0 2065.58 218.044  27
  -7   5   0 2235.31 278.891  39
   8   5   0 409.738 100.859  37
   8   5   0 359.091 97.4347  23
  -8  -5   0 354.693 106.129   4
  -8  -5   0 228.874 72.1460  15
  -8  -5   0 311.740 97.2691  22
   8   5   0 287.042 82.4145  12
  -8   5   0 420.387 134.507  39
   8  -5   0 251.086 76.3567  37
  -8  -5   0 256.092 82.4786  31
  -8   5   0 381.916 97.0548  38
  -8   5   0 516.346 118.226  29
   8   5   0 321.621 79.0847  42
  -8   5   0 232.905 90.2148  15
   8  -5   0 320.233 88.8296  27
  -8  -5   0 214.022 86.0933  13
  -8   5   0 176.961 96.1458  32
   8  -5   0 337.815 83.3719  23
  -9   5   0 122.472 84.6550  39
  -9   5   0 84.6973 51.4548  15
   9  -5   0 65.9963 41.0946  23
   9  -5   0 61.9471 50.2505  37
   9   5   0 46.7659 56.2963  37
  -9   5   0 33.3490 52.6438  32
  -9  -5   0 56.2943 56.8915  31
  -9   5   0 93.1510 59.1711  29
   9   5   0 69.2112 47.2082  42
   9   5   0 61.6895 63.2211  23
  -9  -5   0 67.9933 55.5966   4
  -9  -5   0 14.4585 43.8785  22
   9  -5   0 64.9717 49.4738  27
 -10  -5   0-98.2768 42.9580  31
 -10  -5   0-12.9643 42.7549   4
 -10   5   0 21.4936 35.6849  39
 -10   5   0 35.5695 30.3066  29
  10  -5   0 65.4738 47.0249  10
  10   5   0 39.6004 35.5538  37
  10  -5   0-30.3377 36.0773  37
  10   5   0 26.3974 23.2608  42
  10  -5   0-25.8329 32.2513  23
  10   5   0-22.8755 31.9710  23
 -10   5   0 18.4505 36.0724  15
  10  -5   0 53.6289 38.4612  27
 -10  -5   0-1.11785 34.3837  22
   0   6   0 26425.2 948.162  33
   0   6   0 26271.1 981.918  34
   0   6   0 25148.7 1100.65  20
   0  -6   0 26613.7 953.740  19
   0  -6   0 27082.0 821.079   1
   1   6   0 28884.9 1126.78  34
   1   6   0 27947.2 1068.64  18
   1  -6   0 28384.1 912.138   1
   1  -6   0 28540.2 950.051  19
   1   6   0 28927.1 1129.46  20
  -1  -6   0 30611.9 784.063   1
  -1   6   0 26767.3 1210.05  20
  -1  -6   0 30697.7 1352.68  17
  -1  -6   0 28123.6 1029.84  19
  -1   6   0 30365.2 1080.64  33
   2   6   0 23741.2 1107.59  34
   2  -6   0 22486.2 890.514   1
   2   6   0 21567.8 958.978  18
  -2   6   0 22504.4 973.622   2
  -2   6   0 20829.9 1136.25  20
  -2  -6   0 21622.3 955.557  19
  -2   6   0 22813.6 785.242   3
   2   6   0 21094.8 938.500  20
  -2   6   0 22643.1 999.718  33
   2  -6   0 22964.4 822.260  19
  -2  -6   0 23645.8 1372.66  17
   3   6   0 13359.2 900.219  34
  -3   6   0 12683.8 683.245   3
  -3   6   0 12057.9 916.224  20
  -3   6   0 12435.4 799.144   2
   3   6   0 12046.8 730.800  18
   3  -6   0 11783.2 695.849   1
   3   6   0 11439.0 690.609  20
  -3   6   0 13177.9 842.663  33
  -3  -6   0 14578.6 1227.42  17
  -4   6   0 8875.33 736.770   2
   4   6   0 10233.1 858.147  34
  -4   6   0 10276.2 823.448  33
  -4   6   0 8777.75 648.944   3
   4   6   0 9505.54 678.762  18
   4  -6   0 8346.22 626.879   1
   4   6   0 8626.17 622.282  20
  -4   6   0 7336.37 744.928  20
  -4  -6   0 9912.19 1134.03  17
  -5  -6   0 3933.41 273.993  22
   5   6   0 4304.26 584.510  34
  -5   6   0 4051.55 270.216  15
  -5   6   0 3314.18 491.673   2
  -5   6   0 3104.05 434.029   3
   5   6   0 3731.90 247.621  42
   5   6   0 3819.92 449.605  18
  -5  -6   0 4291.48 306.958  13
  -5   6   0 3495.67 314.106  39
   5  -6   0 3477.02 435.453   1
  -5   6   0 3085.70 283.540  32
  -5   6   0 3889.21 578.732  20
  -5  -6   0 3745.89 284.987  11
   5   6   0 3262.20 407.559  36
  -5  -6   0 3592.64 266.664  40
   5  -6   0 3349.50 276.081  11
   5  -6   0 3594.14 270.418  27
   5   6   0 3904.25 235.751  21
   5  -6   0 3735.02 262.725  23
  -5  -6   0 3594.59 242.815  31
  -5  -6   0 3707.27 238.890  28
   5  -6   0 3812.49 254.257  37
   5  -6   0 3777.76 247.941  43
  -5  -6   0 4016.53 761.155  17
  -5   6   0 4229.49 583.393  33
   6  -6   0 31286.5 870.304  11
  -6   6   0 30866.1 1450.94   3
  -6  -6   0 32663.0 812.471  22
   6  -6   0 31849.5 830.842  27
  -6   6   0 31249.6 778.315  15
   6  -6   0 31160.7 787.698  23
  -6  -6   0 36564.2 2505.92  17
  -6  -6   0 34116.8 741.296  28
  -6   6   0 31964.7 981.415  39
  -6   6   0 30601.3 903.625  38
  -6  -6   0 33214.0 767.792  31
   6  -6   0 34032.6 1420.72   1
  -6  -6   0 31459.8 865.233  13
   6   6   0 40334.5 1939.36  34
  -6  -6   0 32645.5 830.138  40
   6  -6   0 32706.4 775.374  37
  -6   6   0 32607.7 935.928  32
  -6   6   0 34789.4 1675.46   2
  -6   6   0 34351.6 1825.82  33
   6   6   0 31677.8 675.277  21
   6   6   0 31309.4 731.942  42
   6   6   0 33371.2 1383.21  36
  -7   6   0 3315.44 257.273  15
   7  -6   0 3329.02 258.767  23
  -7  -6   0 2976.92 252.475  22
   7  -6   0 2916.73 261.069  11
  -7  -6   0 3080.27 253.348  40
   7   6   0 3593.40 269.440  12
   7   6   0 3113.50 231.151  42
  -7   6   0 3265.11 298.132  32
   7   6   0 3099.02 247.226  23
   7  -6   0 2990.20 258.488  27
   7   6   0 3007.60 231.715  37
  -7  -6   0 3246.31 249.627  31
  -7  -6   0 3406.56 287.410  13
   7  -6   0 3209.99 246.468  37
  -7   6   0 3069.57 304.395  39
   7   6   0 3164.79 208.510  21
  -7   6   0 3044.62 280.582  38
  -8  -6   0 4281.30 285.974  22
   8  -6   0 4294.09 266.606  37
   8  -6   0 4030.53 268.605  23
   8   6   0 3920.86 266.366  23
   8   6   0 4314.79 258.540  42
   8   6   0 4047.69 255.700  37
  -8  -6   0 4320.21 274.678  31
  -8   6   0 4471.37 279.910  15
  -8   6   0 4554.12 351.810  39
   8   6   0 4474.00 266.900  12
  -8  -6   0 4261.45 301.380  13
  -8   6   0 4402.05 317.510  32
   8  -6   0 4352.79 289.962  27
  -8   6   0 4163.21 285.708  38
   8  -6   0 3978.79 324.150  10
  -9   6   0 198.035 73.5503  39
   9  -6   0 183.418 53.1851  37
   9   6   0 200.167 61.2526  23
  -9  -6   0 200.246 68.9045  22
   9   6   0 143.337 52.0246  37
  -9   6   0 135.447 52.5616  32
   9  -6   0 145.628 53.1462  27
   9  -6   0 204.931 74.9848  23
   9   6   0 98.4467 43.9568  42
  -9   6   0 185.008 63.8471  15
  -9  -6   0 93.0384 42.0444   4
  -9  -6   0 205.319 64.7960  31
   9  -6   0 136.567 74.8889  10
  10  -6   0 385.952 72.7885  10
 -10  -6   0 403.858 60.1913  31
  10   6   0 476.100 57.6058  42
  10  -6   0 315.122 48.4974  37
 -10   6   0 564.104 82.9697  39
 -10  -6   0 446.825 65.8493  22
 -10  -6   0 381.444 60.4954   4
  10   6   0 505.455 66.4550  23
  10  -6   0 502.803 63.1158  27
 -10   6   0 405.588 56.5472  15
   0   7   0 11.6645 53.9331  33
   0  -7   0-44.3916 42.2906   1
  -1   7   0 17794.4 1055.30  20
  -1   7   0 18779.2 930.769  33
   1   7   0 18266.5 985.656  20
   1   7   0 18129.4 980.525  34
   1   7   0 17516.4 924.227  18
  -1  -7   0 18731.2 911.808  19
   1   7   0 18819.7 879.330  33
   1  -7   0 19611.7 851.929  19
   1  -7   0 18268.4 809.762   1
  -2  -7   0 1070.07 358.726  17
  -2   7   0 895.201 218.203  33
   2   7   0 1058.92 211.496  18
   2  -7   0 1198.13 221.983   1
  -2   7   0 1140.89 287.579  20
   2   7   0 1048.01 231.193  20
  -2  -7   0 948.667 219.031  19
   2   7   0 1326.57 286.509  34
   3  -7   0 3391.11 297.872  10
  -3  -7   0 3494.27 236.800  28
  -3   7   0 3491.58 290.266  38
   3   7   0 4837.22 596.645  34
  -3  -7   0 3818.29 282.292  11
  -3  -7   0 4284.23 722.338  17
   3   7   0 3552.65 232.653  21
   3  -7   0 3182.36 391.378   1
   3   7   0 3084.46 389.346  18
  -3   7   0 3600.05 529.004  20
   3   7   0 3003.08 395.851  20
  -3   7   0 3494.57 454.923  33
  -4  -7   0 7885.04 361.833  28
   4  -7   0 7659.79 462.897  10
  -4   7   0 8000.49 774.552  33
   4  -7   0 7638.40 422.834  11
  -4   7   0 7368.42 705.195   2
   4  -7   0 7480.42 634.132   1
  -4   7   0 7033.14 763.569  20
  -4  -7   0 8336.31 422.396  11
   4  -7   0 7670.22 364.177  43
   4  -7   0 7559.77 373.003  23
  -4  -7   0 7252.93 324.351  31
  -4   7   0 7756.96 433.291  39
   4   7   0 7619.67 342.798  21
   4  -7   0 7279.33 345.151  37
   4  -7   0 7802.32 391.663  27
  -4   7   0 7742.64 429.915  32
   4   7   0 8203.99 820.536  34
   4   7   0 7197.80 614.204  20
  -4   7   0 7659.97 438.285  38
  -4  -7   0 7492.76 369.436  22
  -4  -7   0 8798.82 1091.42  17
  -5  -7   0 14118.7 569.015  11
  -5  -7   0 14451.2 531.610  22
   5  -7   0 13484.9 512.202  23
   5  -7   0 13615.7 895.766   1
  -5   7   0 13953.8 1019.17   2
  -5   7   0 14616.3 1126.42  33
   5  -7   0 14114.5 493.161  43
   5  -7   0 13862.1 495.006  37
   5  -7   0 13734.1 538.508  27
   5   7   0 16672.7 1262.53  34
   5  -7   0 13564.8 636.185  10
  -5   7   0 14181.2 604.746  32
   5  -7   0 13015.2 560.800  11
  -5   7   0 13298.6 593.689  38
   5   7   0 14429.4 471.853  21
  -5   7   0 14366.4 621.981  39
  -5   7   0 14108.6 494.133  15
  -5  -7   0 14182.6 491.480  28
  -5   7   0 12342.4 1038.82  20
  -5  -7   0 15900.7 1560.63  17
   5   7   0 13975.7 894.155  36
  -5  -7   0 14045.1 546.582  40
  -5  -7   0 14078.0 476.438  31
   5   7   0 13599.6 483.202  42
   6  -7   0 539.975 114.430  11
  -6   7   0 673.615 118.404  15
  -6   7   0 586.047 133.710  32
  -6  -7   0 776.823 116.809  28
  -6  -7   0 739.846 129.287  22
   6  -7   0 522.982 108.815  37
   6  -7   0 648.131 126.971  23
   6   7   0 599.005 101.943  21
  -6   7   0 674.929 147.802  38
   6  -7   0 709.578 109.024  43
  -6  -7   0 536.827 105.333  40
   6  -7   0 818.501 160.192  10
  -6   7   0 869.892 172.075  39
  -6  -7   0 587.262 107.916  31
   6  -7   0 705.713 133.753  27
  -6  -7   0 807.192 154.556  13
   6   7   0 605.942 111.166  42
  -7  -7   0 2689.77 221.017  31
   7   7   0 2553.96 185.263  21
   7   7   0 2887.82 237.135  12
   7   7   0 2508.95 204.648  37
  -7  -7   0 2507.20 241.189  13
  -7   7   0 2944.83 223.128  15
  -7   7   0 2886.58 278.529  39
   7  -7   0 2895.01 235.076  23
  -7   7   0 2715.90 261.509  32
   7   7   0 2531.02 204.628  42
   7  -7   0 2859.43 246.622  27
  -7  -7   0 2909.30 233.030  40
   7  -7   0 2792.38 216.403  37
  -7   7   0 2678.28 251.622  38
   7  -7   0 2921.39 286.700  10
   7   7   0 2363.98 206.665  23
  -7  -7   0 2730.41 233.732  22
   8  -7   0 420.780 94.8885  27
   8   7   0 236.477 52.5238  21
   8   7   0 245.918 61.2300  37
  -8   7   0 478.249 115.846  39
   8  -7   0 296.609 91.1778  10
   8   7   0 215.091 68.3714  12
  -8   7   0 240.774 62.8913  15
   8   7   0 226.733 68.8437  23
   8  -7   0 287.721 73.3271  37
   8   7   0 307.681 75.9294  42
  -8   7   0 290.001 86.2689  32
  -8  -7   0 447.037 100.807  13
  -8  -7   0 298.447 69.7354  31
  -8  -7   0 321.025 83.9285  22
  -8   7   0 191.010 62.8318  38
   9   7   0 7.19319 30.0083  12
   9  -7   0 88.1363 41.2814  27
  -9   7   0 32.0811 28.4023  15
  -9  -7   0 24.2976 31.3813  22
   9  -7   0-5.92758 50.0029  10
   9   7   0-16.2217 31.9189  42
   9  -7   0 80.0931 34.7400  37
  -9   7   0 43.6781 44.7273  32
  -9   7   0 14.0124 47.9863  39
   9   7   0 1.39848 29.0052  23
  -9  -7   0 46.7943 31.2494   4
  -9  -7   0-29.4221 36.8764  31
   0   8   0 860.188 272.735  20
   0   8   0 723.288 120.799  16
   0  -8   0 925.196 126.804  28
   0  -8   0 642.478 118.481  11
   0  -8   0 712.978 112.015  43
   0  -8   0 1096.87 241.728  19
   1  -8   0 15375.7 575.669  11
   1  -8   0 15049.6 786.758   1
   1   8   0 16602.0 529.764  16
  -1  -8   0 16073.6 502.266  43
   1  -8   0 14534.9 501.335  27
  -1  -8   0 14836.6 492.483  28
   1  -8   0 14232.1 635.874  10
   1  -8   0 14613.4 484.514  28
   1   8   0 14363.1 939.746  20
  -1   8   0 14400.8 1002.73  20
   1  -8   0 15930.0 512.854  43
  -1   8   0 15463.5 544.632  38
  -1  -8   0 14944.2 561.871  11
  -1  -8   0 15006.6 871.520  19
   2   8   0 1600.43 160.331  16
   2  -8   0 1335.41 147.340  28
  -2   8   0 1391.66 176.696  38
   2  -8   0 1702.87 229.804  10
   2  -8   0 1418.40 158.460  43
   2  -8   0 1218.88 238.419   1
  -2   8   0 1501.56 170.700  32
  -2   8   0 1214.24 272.974  33
   2   8   0 1556.64 292.056  20
  -2  -8   0 1359.31 145.058  43
   2   8   0 1872.95 375.668  34
  -2   8   0 1511.88 319.752  20
   2  -8   0 1182.15 146.831  27
  -2  -8   0 1480.50 160.581  28
   2  -8   0 1694.43 198.412  11
  -2  -8   0 1654.61 183.769  11
   3   8   0 12327.9 1006.90  34
  -3  -8   0 12252.3 463.541  28
   3  -8   0 12219.0 469.904  43
   3  -8   0 11118.1 776.298   1
  -3   8   0 12028.6 540.938  38
  -3   8   0 12644.5 529.564  32
  -3   8   0 10660.5 940.498  20
   3   8   0 10669.2 788.255  20
  -3   8   0 12116.2 909.221  33
   3  -8   0 11006.6 511.934  11
  -3  -8   0 11835.4 517.915  11
   3  -8   0 11727.2 481.316  27
  -3  -8   0 10891.9 443.426  22
   3  -8   0 12897.3 612.252  10
  -3  -8   0 12035.8 424.418  43
   3   8   0 11460.7 438.633  21
   3   8   0 11713.0 414.601  16
   4   8   0-153.062 112.694  20
   4  -8   0 26.7017 43.9088  37
  -4   8   0 18.9088 72.8320  32
   4  -8   0 21.4773 49.3016  27
  -4  -8   0 180.941 67.4947  22
   4  -8   0 194.391 72.0348  43
   4  -8   0 48.7641 79.2292  10
  -4   8   0-98.6270 118.254  20
   4  -8   0 107.773 151.725   1
  -4   8   0 297.270 265.434  33
   4   8   0 16.0613 35.0336  21
   4  -8   0 25.4744 70.3630  11
   4   8   0 552.577 261.239  34
  -4  -8   0 150.214 59.5282  28
  -4   8   0 104.201 76.9804  38
  -4  -8   0 67.2390 52.0113  11
  -5  -8   0 566.119 111.160  22
  -5   8   0 550.913 138.646  32
   5   8   0 546.109 97.6011  21
  -5  -8   0 576.769 98.1862  31
  -5  -8   0 815.835 123.057  28
  -5   8   0 753.725 148.454  38
   5  -8   0 688.713 127.272  11
   5  -8   0 462.973 129.465  10
   5   8   0 745.044 119.820  42
  -5  -8   0 594.536 117.829  40
   5  -8   0 609.062 104.371  43
  -5   8   0 629.594 145.933  39
   5  -8   0 707.151 114.839  37
  -5  -8   0 564.700 121.853  13
   5  -8   0 670.215 126.896  27
   6  -8   0 4206.03 251.154  43
   6   8   0 5043.14 323.420  12
  -6   8   0 4732.97 339.954  38
  -6  -8   0 4820.33 311.532  40
  -6   8   0 4580.86 332.732  32
   6  -8   0 4668.24 311.444  11
   6  -8   0 4642.53 275.267  37
  -6   8   0 4536.65 327.463  39
  -6  -8   0 4266.79 279.675  22
   6   8   0 4379.28 270.393  42
  -6  -8   0 4458.58 321.748  13
  -6   8   0 4445.02 261.041  15
  -6  -8   0 4956.63 280.050  28
  -6  -8   0 4414.42 264.516  31
   6   8   0 4637.59 259.465  21
   6  -8   0 4868.18 368.477  10
   6  -8   0 4714.34 308.016  27
  -7  -8   0 62.9319 42.5418  22
   7   8   0-39.5272 46.7503  23
  -7   8   0-10.3065 60.0679  38
  -7   8   0-25.1699 68.2921  32
   7   8   0 24.6102 30.5564  37
  -7  -8   0 107.468 64.7656  40
   7  -8   0 25.4659 39.4095  27
  -7   8   0 45.7830 35.4738  15
   7  -8   0 71.8470 81.3296  10
   7   8   0 15.2594 37.8637  21
   7  -8   0 8.44613 36.2321  37
  -7  -8   0 29.8470 56.2387  31
   7   8   0 27.1552 33.1242  42
  -7  -8   0 102.104 66.0617  13
  -7   8   0 15.4088 63.8552  39
   7   8   0 32.0181 46.7732  12
   8  -8   0 458.949 101.281  10
   8   8   0 494.094 77.6769  42
  -8  -8   0 520.755 80.0753  31
  -8   8   0 628.119 95.4752  38
   8   8   0 503.969 62.7771  21
  -8   8   0 443.103 93.1637  39
   8   8   0 536.308 87.2601  12
  -8   8   0 565.913 99.0973  32
  -8   8   0 395.094 59.7864  15
   8  -8   0 469.529 72.5130  37
  -8  -8   0 482.561 87.2096   4
   8  -8   0 452.580 83.5007  27
   8   8   0 534.971 88.7929  23
  -8  -8   0 463.210 93.7744  13
  -8  -8   0 438.135 76.5438  22
   9   8   0 816.138 78.9556  23
  -9   8   0 854.489 84.8473  32
   9   8   0 774.765 72.7719  42
   9  -8   0 1024.21 91.3991  27
  -9   8   0 1036.77 94.7821  39
  -9  -8   0 825.535 78.4741  22
  -9  -8   0 859.514 84.6132   4
   9  -8   0 748.616 89.7471  10
   0  -9   0 126.813 68.9562  11
   0   9   0 50.0029 54.9134  16
   0  -9   0 98.6761 72.7146  27
   0  -9   0 77.4176 52.0103  28
   0  -9   0 16.7410 37.5181  43
   1  -9   0 218.318 79.1988  27
  -1   9   0 0.84145 48.1916  38
  -1  -9   0 103.248 78.0091  11
   1   9   0 69.9428 42.1951  16
  -1  -9   0 100.634 62.7127  43
  -1   9   0 27.5917 54.7987  16
   1   9   0 80.8295 103.299  20
  -1   9   0 85.2516 165.561  20
   1  -9   0 71.1582 45.7049  28
   1  -9   0 31.0162 40.9128  43
   1  -9   0-43.4410 68.6276  11
  -1  -9   0-28.3490 47.9951  28
   2  -9   0 25053.1 675.031  43
  -2   9   0 25552.2 735.970  16
   2  -9   0 24579.8 867.176  10
   2  -9   0 24431.9 755.491  11
   2   9   0 25366.7 675.569  21
  -2  -9   0 25694.4 684.861  28
  -2   9   0 27916.9 736.178  32
   2   9   0 25117.1 1287.09  20
  -2   9   0 26355.6 1463.80  20
  -2   9   0 26433.0 758.777  38
  -2  -9   0 26255.9 656.157  43
   2   9   0 26466.7 663.234  16
   2  -9   0 24655.5 639.197  28
  -2  -9   0 24809.1 755.823  11
   2  -9   0 25864.5 700.871  27
   3  -9   0 3693.88 273.465  27
  -3  -9   0 3328.96 280.549  11
   3  -9   0 3149.77 312.265  10
   3  -9   0 3324.13 283.163  11
  -3  -9   0 3819.46 241.656  43
  -3  -9   0 3358.60 247.781  28
   3  -9   0 3479.30 254.340  43
  -3  -9   0 3334.65 240.930  22
   3  -9   0 3671.27 238.130  28
  -3   9   0 4733.48 318.178  32
   3   9   0 3619.69 234.670  16
  -3   9   0 3333.40 280.949  38
   3   9   0 3355.29 242.241  21
   4  -9   0 4572.47 371.601  10
   4  -9   0 5035.53 332.351  11
  -4   9   0 5024.31 351.787  38
  -4  -9   0 5217.45 304.916  28
  -4   9   0 5063.05 318.945  16
  -4  -9   0 4869.87 322.861  40
   4   9   0 5330.41 296.955  21
   4  -9   0 4785.22 292.292  43
  -4  -9   0 5104.79 299.325  22
  -4   9   0 5413.42 348.762  32
   4   9   0 4688.44 286.729  42
  -4  -9   0 4758.15 332.319  11
   4  -9   0 5102.14 319.860  27
   5  -9   0 21.6515 56.8019  43
  -5   9   0 96.3341 49.0372  16
   5  -9   0 54.9783 49.1591  27
  -5  -9   0 35.6170 38.8080  28
  -5  -9   0 107.584 64.7563  40
  -5   9   0 36.8806 64.2622  38
   5  -9   0-6.43991 92.3170  10
  -5  -9   0 67.5126 40.5512  22
  -5  -9   0-5.51243 43.5964  13
   5  -9   0 80.2381 45.8346  30
   5   9   0 22.3089 34.9818  21
   5  -9   0 38.2720 44.7608  11
   5   9   0 11.6446 48.7381  12
  -5   9   0 74.8788 73.4811  32
   5   9   0 14.9467 39.6019  42
  -6   9   0 125.933 70.1540  32
   6   9   0 90.3599 50.8235  42
  -6   9   0 87.3906 58.4381  38
   6  -9   0 30.2074 54.1073  10
   6  -9   0 119.412 54.8687  27
  -6   9   0 84.3617 56.2379  39
  -6  -9   0 135.897 45.7551  40
  -6  -9   0 131.986 54.8013  22
   6   9   0 61.1228 37.6075  21
   6   9   0 63.7666 50.0112  12
   6  -9   0 68.4289 36.3232  43
   6   9   0 152.133 61.9481  23
   6  -9   0-72.6407 47.0498  30
  -6  -9   0 172.722 57.3626  28
  -6  -9   0 69.9628 65.1072  13
   6   9   0-20.5799 39.2243  37
  -7   9   0 987.092 116.644  39
  -7   9   0 1161.87 137.898  38
  -7  -9   0 936.098 124.847  13
   7  -9   0 947.635 138.134  10
   7   9   0 1015.37 120.072  23
   7  -9   0 905.559 97.9139  30
  -7   9   0 1186.13 143.324  32
   7   9   0 986.712 124.138  12
   7  -9   0 1144.87 127.222  27
   7   9   0 883.997 94.4517  21
   7   9   0 953.735 108.501  42
  -7  -9   0 959.744 108.411  40
  -7  -9   0 963.661 109.803  22
  -8  -9   0 294.012 58.8732   4
   8  -9   0 285.497 70.7395  10
   8   9   0 390.996 65.2262  12
   8  -9   0 303.874 58.9753  27
  -8   9   0 345.132 63.2727  39
   8   9   0 232.495 53.3708  23
   8   9   0 378.528 59.7548  42
  -8   9   0 384.178 70.5826  32
   0 -10   0 20017.2 587.032  28
   0 -10   0 19913.8 667.885  11
   0  10   0 20989.7 634.804  16
   0 -10   0 20513.1 594.647  43
  -1  10   0 550.633 104.843  38
  -1 -10   0 572.002 121.573  11
  -1 -10   0 612.298 102.134  43
   1 -10   0 512.501 100.479  43
  -1 -10   0 528.366 101.385  28
  -1  10   0 559.035 112.714  16
   1  10   0 705.856 120.829  21
   1 -10   0 549.974 101.164  28
   1  10   0 475.597 102.150  16
   1 -10   0 627.092 123.225  11
   1 -10   0 571.719 100.987  27
   2 -10   0 4239.27 280.644  27
   2  10   0 4549.49 271.201  16
   2  10   0 4483.19 277.675  12
  -2 -10   0 4816.47 277.342  43
   2 -10   0 4714.40 270.645  28
  -2 -10   0 4515.21 317.960  11
  -2 -10   0 4386.78 283.469  28
  -2  10   0 4801.72 312.894  16
   2 -10   0 4627.58 317.635  11
   2 -10   0 4364.40 278.645  43
   2  10   0 4251.92 269.894  21
  -2  10   0 4385.49 296.909  38
  -2  10   0 4926.82 295.077  32
  -3  10   0 909.896 134.990  16
   3 -10   0 1076.79 153.984  11
   3  10   0 1081.90 126.341  16
   3  10   0 1232.50 157.140  12
   3  10   0 1277.31 146.087  21
   3 -10   0 1019.56 124.492  28
   3 -10   0 1166.03 148.247  43
  -3 -10   0 1071.90 123.809  43
   3 -10   0 1230.50 154.805  27
  -3  10   0 1144.65 159.110  38
  -3 -10   0 1116.20 157.738  11
  -3  10   0 1079.60 146.629  32
  -3 -10   0 1184.61 146.848  28
   4  10   0 198.922 69.4000  42
   4 -10   0 189.485 59.1882  43
   4 -10   0 133.154 63.7771  11
   4 -10   0 312.624 87.3454  27
  -4 -10   0 231.915 75.4770  40
  -4  10   0 156.377 67.1037  38
  -4  10   0 167.633 61.6934  32
   4  10   0 220.971 77.8801  12
   4  10   0 209.051 68.1601  21
  -4  10   0 142.175 59.1285  16
  -4 -10   0 244.871 77.5200  11
  -4 -10   0 248.894 73.5537  28
   5 -10   0 9816.68 393.304  27
  -5 -10   0 9405.85 359.658  28
   5 -10   0 10106.1 359.831  43
  -5  10   0 10120.1 429.321  38
   5 -10   0 9559.01 476.159  10
  -5  10   0 9817.06 358.818  16
  -5 -10   0 9528.68 394.187  40
   5  10   0 9888.76 354.876  21
   5  10   0 9519.89 362.345  42
  -5 -10   0 9741.07 429.021  13
   5  10   0 10688.4 421.381  12
  -5  10   0 10387.9 422.460  32
   6  10   0 355.136 81.1805  12
  -6 -10   0 366.515 70.8080  40
  -6  10   0 387.525 84.6390  32
  -6  10   0 421.552 92.5857  38
  -6 -10   0 300.957 74.9897  13
  -6 -10   0 303.599 63.1969  28
   6 -10   0 272.491 85.8960  10
   6  10   0 205.449 54.2778  23
   6  10   0 336.942 68.1048  42
   6 -10   0 358.484 76.4302  27
   6  10   0 293.559 58.7314  21
   7 -10   0 3583.94 178.734  27
  -7 -10   0 3439.85 189.596  13
   7  10   0 3691.98 172.604  42
   7  10   0 3535.94 187.111  12
  -7  10   0 3909.54 198.257  32
   7  10   0 3492.10 172.165  23
   7  10   0 3467.14 148.019  21
  -7  10   0 3773.83 194.767  38
   0  11   0 31.3515 40.0813  21
   0  11   0 62.6435 57.1278  16
   0 -11   0 15.7171 35.9530  28
   0 -11   0 38.1582 62.4858  11
   0 -11   0-37.0079 45.2878  43
   0 -11   0-1.56413 42.2524  25
   1 -11   0 705.523 111.391  43
   1  11   0 717.938 109.369  21
  -1 -11   0 614.440 102.877  28
   1  11   0 716.865 110.541  16
   1 -11   0 524.701 109.881  11
  -1  11   0 738.091 105.038  21
  -1 -11   0 701.137 120.684  11
  -1 -11   0 689.278 104.810  43
  -1 -11   0 708.239 103.506  25
  -1  11   0 729.257 118.277  16
   1 -11   0 674.563 100.768  28
  -2 -11   0 49.8934 32.6644  43
  -2 -11   0 110.310 56.5190  11
  -2  11   0 133.432 51.5307  16
   2 -11   0 76.2879 36.0404  28
  -2  11   0 123.159 50.6501  38
   2 -11   0 89.1602 54.0334  11
   2  11   0 69.0435 46.5173  16
   2  11   0 75.5072 45.6035  21
  -2 -11   0 58.3720 37.8812  28
   2 -11   0 154.282 63.5117  27
   2 -11   0 108.070 51.5382  43
  -3 -11   0 1264.11 157.024  11
  -3  11   0 1169.67 130.784  32
   3  11   0 1040.29 108.773  16
  -3  11   0 1043.49 130.994  16
   3 -11   0 1122.22 128.263  43
   3  11   0 1056.71 122.832  21
  -3 -11   0 823.331 99.5951  43
  -3 -11   0 1067.78 135.983  40
   3 -11   0 1178.08 135.080  11
  -3 -11   0 978.045 120.989  28
   3 -11   0 1344.30 143.315  27
  -3  11   0 1116.91 136.352  38
   3  11   0 983.273 116.676  42
  -4  11   0 1198.70 126.056  16
   4  11   0 1095.58 115.443  21
   4  11   0 1030.98 121.015  12
   4 -11   0 966.381 117.700  27
   4 -11   0 1127.05 117.890  43
  -4  11   0 1213.89 128.772  32
   4  11   0 1141.29 117.450  42
  -4 -11   0 1169.89 133.834  40
  -4  11   0 1147.34 130.846  38
  -4 -11   0 1285.98 151.207  13
  -4 -11   0 1116.89 120.501  28
   5  11   0 191.464 48.5222  21
  -5  11   0 232.631 60.7378  38
  -5  11   0 178.582 55.5825  32
  -5 -11   0 249.237 56.0903  28
  -5 -11   0 233.675 57.7453  40
   5 -11   0 285.507 63.9396  27
  -5 -11   0 250.704 72.2802  13
   5 -11   0 191.062 47.7703  43
   5  11   0 278.348 62.9933  12
   5  11   0 243.188 54.7186  42
   5  11   0 245.047 58.0873  23
  -6  11   0 1846.50 124.693  32
   6  11   0 1680.90 121.529  12
   6  11   0 1708.31 106.177  21
   6  11   0 1676.31 111.649  42
   6  11   0 1666.25 111.795  23
  -6  11   0 1713.54 125.884  38
  -6 -11   0 1696.05 129.956  13
   6 -11   0 1644.01 114.036  27
   0  12   0 12658.4 397.213  16
   0  12   0 12723.5 359.190  21
   0 -12   0 12655.7 383.789  43
   0 -12   0 12851.3 376.838  28
   0 -12   0 11839.9 366.334  25
   0 -12   0 12846.6 423.359  11
   1 -12   0 70.8505 37.7567  43
  -1 -12   0 109.847 52.8533  11
  -1 -12   0 72.1066 37.8152  43
   1 -12   0 63.9715 46.5521  11
  -1 -12   0 45.5842 30.8184  28
  -1  12   0 70.9574 43.4934  16
  -1 -12   0 88.9919 42.6338  25
   1 -12   0 38.5469 40.9335  25
   1  12   0 37.9763 28.2651  21
   1  12   0 51.4659 27.7414  16
   2 -12   0 6193.75 264.787  43
   2  12   0 6049.42 249.731  21
  -2  12   0 6471.23 278.724  16
  -2 -12   0 6315.27 291.291  40
   2  12   0 6220.17 244.160  16
  -2 -12   0 6406.40 265.698  28
   2 -12   0 6125.89 268.678  25
  -2 -12   0 6005.90 234.264  43
  -2 -12   0 6605.45 297.735  11
   3 -12   0 791.492 90.4260  43
   3  12   0 700.518 79.3342  42
   3 -12   0 743.135 93.2786  25
  -3 -12   0 765.196 90.8616  28
  -3  12   0 750.406 84.4046  38
  -3  12   0 789.283 92.3544  16
   3  12   0 683.979 81.8780  21
  -3 -12   0 821.920 110.354  13
  -3 -12   0 740.893 96.4806  40
   4 -12   0 1023.79 91.0386  43
  -4 -12   0 882.937 99.0391  13
   4 -12   0 990.265 95.6331  25
   4  12   0 912.775 82.5874  42
  -4  12   0 918.680 89.2561  38
  -4 -12   0 987.514 91.5999  28
  -4 -12   0 1015.47 97.1289  40
   4  12   0 991.279 89.5718  21
   5  12   0 329.345 44.4403  21
  -5 -12   0 355.064 56.7941  13
  -5  12   0 306.147 45.8184  38
   5 -12   0 366.854 48.8033  25
   0  13   0 28.6615 25.6661  16
   0 -13   0-9.17509 26.0916  25
   0 -13   0 3.09112 27.5059  43
  -1 -13   0 17.2788 29.6242  28
  -1  13   0 57.8938 31.0478  16
  -1 -13   0 35.9240 33.9479  40
  -1 -13   0 37.6051 28.5216  43
   1 -13   0 71.9930 32.6889  43
   1 -13   0-17.5629 31.0285  25
   1  13   0 44.1868 27.2639  16
  -2 -13   0 722.368 68.6618  28
   2  13   0 674.350 61.6492  21
  -2 -13   0 733.321 79.4968  13
   2 -13   0 702.917 67.1621  43
   2 -13   0 743.930 72.7247  25
  -2  13   0 681.747 67.7517  16
  -2 -13   0 746.340 76.0806  40
   3 -13   0 21.4755 23.3967  25
  -3 -13   0 54.3844 29.2510  13
   3 -13   0 24.6692 18.7208  43
  -3 -13   0 21.2577 18.9825  28
  11   0  -1 31.5233 36.4043  23
  11   0  -1-28.8197 32.1299  42
 -11   0   1 26.9431 59.8897  29
 -11   0   1 4.93689 44.5742  15
  11   0  -1 30.0242 29.5961  37
 -10   0   1 22.2372 37.8417  22
  10   0  -1 46.7062 55.2198  23
 -10   0   1 139.477 110.935  29
  10   0  -1 6.02967 55.7139  24
  10   0  -1-53.6590 47.7354  37
  10   0  -1 18.2665 50.9911  42
 -10   0   1-14.8075 52.6200  15
  -9   0   1 153.011 105.154  29
   9   0  -1-15.0183 41.3188  37
  -9   0   1 31.0110 62.9260  39
   9   0  -1 49.1890 55.8430  23
  -9   0   1 80.1524 57.6293  31
  -9   0   1 75.3192 61.7548  15
   9   0  -1 75.7158 54.9041  42
  -9   0   1 19.5787 45.0871  22
   9   0  -1-17.5922 41.6355  24
   8   0  -1-13.6136 48.6271  37
   8   0  -1 86.7891 104.056  36
   8   0  -1-20.9425 39.7920  42
  -8   0   1 65.4893 53.6175  31
  -8   0   1 76.7902 46.3802  22
   8   0  -1 117.627 72.7187  24
  -8   0   1-150.643 174.071  35
  -8   0   1 21.0598 48.1295  15
  -8   0   1 14.1223 124.663   2
   8   0  -1 13.8800 47.3610  23
   8   0  -1 132.663 105.412  18
  -8   0   1 0.43738 79.9794  29
  -7   0   1-31.2463 108.373  33
  -7   0   1 38.6438 53.8812  15
  -7   0   1 124.982 93.8161  29
   7   0  -1 128.971 129.994  18
   7   0  -1 39.7334 42.4414  23
   7   0  -1 56.6052 42.3934  37
   7   0  -1 257.998 126.952  36
  -7   0   1 226.207 118.023  35
  -7   0   1-120.384 121.192   2
  -6   0   1 176.446 134.453   2
  -6   0   1 267.468 173.832  35
   6   0  -1-25.0374 54.0085  18
   6   0  -1 52.9458 90.6492  34
  -6   0   1-182.381 134.675  33
   6   0  -1 5.62073 49.1870  36
  -5   0   1-7.46868 65.1520  33
  -5   0   1 13.4435 78.2010  35
   5   0  -1 110.461 80.9201  18
  -5   0   1 1.12729 61.1048   2
   5   0  -1 62.4977 75.3541  36
   5   0  -1-17.5849 34.5722   1
   5   0  -1-8.14707 44.2458  34
  -4   0   1 29.4615 77.1459  35
   4   0  -1-19.7870 35.1808  36
  -4   0   1 84.8113 87.2882   2
   4   0  -1 38.8391 33.5620   1
   4   0  -1 7.71753 46.0962  18
  -4   0   1 15.1961 77.2249  33
   4   0  -1-29.3419 41.7742  34
   3   0  -1 10.4909 40.9367  36
   3   0  -1 3.65472 35.3169  34
   3   0  -1 106.061 58.2031  18
  -3   0   1 25.1035 48.2119  33
  -3   0   1 8.89485 50.9081   2
  -3   0   1 30.7354 67.1757  35
   3   0  -1 23.1391 27.7736   1
  -2   0   1 14.4642 53.2795   2
  -2   0   1 21.7375 30.1620  33
   2   0  -1-8.89416 24.1533   1
   2   0  -1 22.0552 31.4226  18
  -2   0   1 31.4950 63.2488  35
   2   0  -1 7.97408 30.6980  34
  -2   0   1-1.04682 26.5154  19
   2   0  -1 7.34183 31.2752  36
   1   0  -1-1.24610 17.8819   1
   1   0  -1 37.6113 25.0302  36
   1   0  -1 52.6161 51.2294  17
  -1   0   1 53.9851 25.6341  33
   1   0  -1 3.89158 17.8991   3
  -1   0   1 18.0680 27.3716  19
   0   0  -1-8.18148 18.7858   1
   0   0  -1 46.4218 26.2372   3
   0   0  -1 20.4607 40.5068  17
   0   0   1 25.8708 26.9926  18
  -1   0  -1 10.2702 66.2021  17
  -1   0  -1 12.8710 35.2462   2
   1   0   1-3.74414 32.1274  18
  -1   0  -1-25.8812 54.2804  35
  -1   0  -1-16.4779 47.9841  33
   1   0   1 8.51988 14.6973  36
  -2   0  -1 64.4742 79.5089  33
   2   0   1-17.7669 40.9350  18
  -2   0  -1 77.6630 94.5131  35
  -2   0  -1 2.54030 124.869  17
   2   0   1 16.7959 22.4093  36
  -2   0  -1-10.7807 45.4465   2
   2   0   1 41.9002 47.4120  34
   3   0   1 77.0061 56.0639  34
  -3   0  -1-26.1185 91.9798  33
  -3   0  -1 70.3168 106.824  35
  -3   0  -1-22.5409 139.081  17
  -3   0  -1-12.5319 47.3646   2
   3   0   1 5.51227 45.4222  18
   3   0   1-12.0613 30.8452  36
   4   0   1 18.4177 54.6569  34
   4   0   1 17.0024 58.5288  18
  -4   0  -1-44.0592 210.855  17
  -4   0  -1 58.2742 114.633  33
  -4   0  -1-24.8311 60.2161   2
   4   0   1 38.8665 53.7771  36
  -4   0  -1 362.319 148.380  35
  -5   0  -1 67.7469 115.666  35
   5   0   1 58.5829 68.3741  34
  -5   0  -1 49.7198 71.8868   2
   5   0   1 124.555 71.2612  36
   5   0   1 58.0049 63.2456  18
  -5   0  -1 356.907 212.199  17
  -5   0  -1 192.494 183.178  33
  -6   0  -1 82.3228 128.714  35
  -6   0  -1 72.9474 89.4863   2
  -6   0  -1 248.797 173.681  33
   6   0   1 111.485 79.9079  18
   6   0   1 13.9262 69.2651  34
   6   0   1-16.0640 57.4169  36
  -6   0  -1 13.8611 239.641  17
  -7   0  -1-13.6473 59.4496  22
  -7   0  -1 13.4876 57.8802   4
   7   0   1 83.2387 55.9596  23
  -7   0  -1 574.182 267.782  33
   7   0   1-12.7037 45.0816  37
  -7   0  -1 451.296 200.941  35
  -7   0  -1 67.0165 84.8106  29
  -7   0  -1 6.98715 51.1640  15
   7   0   1 40.8659 46.7939  27
  -7   0  -1-22.9234 87.5967   2
   7   0   1 226.212 119.518  18
  -7   0  -1-5.06981 48.2804  31
  -8   0  -1-5.79674 68.7846  29
  -8   0  -1 34.7452 46.9533  15
  -8   0  -1 21.0664 53.8607  31
  -8   0  -1 54.0795 67.7956   4
   8   0   1 25.2446 44.2331  23
   8   0   1-23.9179 39.8822  37
  -8   0  -1-27.4341 54.6349  22
   8   0   1 78.1818 56.0713  27
   9   0   1 23.3635 40.0355  27
  -9   0  -1 82.0458 51.8567   8
  -9   0  -1-66.5066 98.1971  29
  -9   0  -1-50.7890 49.1376  31
   9   0   1-7.62086 43.0712  37
   9   0   1 9.88572 49.2434  23
  -9   0  -1 39.9819 58.0371  15
 -10   0  -1 11.5093 26.3567  31
  10   0   1-22.2103 42.4413  37
  10   0   1 64.7546 40.4570  23
 -10   0  -1-29.2398 30.7343   8
 -10   0  -1-62.4156 47.1186  15
 -10   0  -1 115.266 64.5976  29
  10   0   1 25.6418 35.0898  27
 -11   0  -1 25.6064 27.1095  29
 -11  -1   1 66.3668 51.1166  15
  11  -1  -1 34.1010 30.7367  37
  11   1  -1 108.305 43.9398  23
  11   1  -1 92.8661 42.6976  37
 -11   1   1 68.0562 53.8378  15
 -11   1   1 32.0048 51.0699  29
  11  -1  -1 76.2883 36.0235  42
 -11  -1   1 108.346 65.6981  29
  11   1  -1 40.3236 27.0877  42
  11  -1  -1 73.5762 41.6640  23
 -10  -1   1 206.032 71.9233  31
 -10  -1   1 150.706 77.8843  22
  10  -1  -1 131.508 51.0225  42
 -10  -1   1 126.776 55.7462  15
  10   1  -1 68.0503 50.1021  24
  10  -1  -1 53.8338 45.3064  37
  10  -1  -1 100.780 60.2970  23
  10   1  -1 80.5928 66.5386  23
  10   1  -1 77.4333 51.1250  42
 -10   1   1 44.7802 75.5559  29
  10   1  -1 82.1291 57.1927  37
 -10  -1   1 156.817 104.321  29
 -10   1   1 92.6106 57.5157  15
   9  -1  -1 1248.48 157.782  24
  -9  -1   1 1419.65 171.469  22
  -9  -1   1 1357.89 222.594  29
  -9   1   1 1119.04 169.251  15
  -9   1   1 1367.93 153.263  22
   9  -1  -1 1022.18 145.765   7
   9  -1  -1 1328.25 173.547  23
  -9   1   1 1429.06 234.595  29
  -9  -1   1 1480.02 163.711  31
   9   1  -1 1141.09 155.739  37
   9  -1  -1 1125.81 155.213  37
   9  -1  -1 1367.14 162.340  42
  -9  -1   1 1466.83 192.432  15
   9   1  -1 1316.43 162.383  24
  -9   1   1 1464.00 228.745  39
   9  -1  -1 1252.71 148.444  27
   9   1  -1 1366.45 162.408  42
   9   1  -1 1260.41 169.951  23
   8   1  -1 2715.20 236.751  24
  -8  -1   1 2042.67 446.373  35
   8   1  -1 2810.33 238.845  23
  -8   1   1 2451.14 460.814   2
   8  -1  -1 3091.04 232.107  42
  -8   1   1 3160.81 233.273  22
  -8   1   1 2598.13 246.126  15
  -8  -1   1 2019.63 407.588   2
  -8  -1   1 2521.51 293.643  29
  -8  -1   1 2860.77 227.734  31
  -8  -1   1 2549.19 219.855  22
   8  -1  -1 2721.86 227.086  27
  -8  -1   1 2392.70 238.087  15
   8  -1  -1 3470.20 481.404  18
   8   1  -1 2961.72 431.897  36
   8  -1  -1 2868.53 241.167  37
   8  -1  -1 2581.48 410.007  36
  -8   1   1 2814.49 552.263  33
   8   1  -1 2616.31 224.052  37
   8  -1  -1 2698.79 236.104  24
   8   1  -1 2550.66 210.135  42
   8  -1  -1 3085.91 247.034   7
  -8   1   1 2966.17 568.177  35
  -8   1   1 2299.26 271.892  29
  -8  -1   1 2939.39 596.381  33
  -8   1   1 2250.01 286.259  39
   8   1  -1 2697.77 431.811  18
   8  -1  -1 2680.78 239.246  23
   7  -1  -1 459.801 169.182  36
   7   1  -1 607.371 104.226  24
  -7  -1   1 893.224 287.062  33
  -7  -1   1 394.153 157.364   2
  -7   1   1 624.894 271.456  35
   7  -1  -1 415.839 82.9303  23
   7   1  -1 393.664 150.804  36
   7  -1  -1 330.874 87.7563  37
   7   1  -1 515.315 94.7231  23
  -7  -1   1 333.423 121.710  29
  -7   1   1 671.711 227.396   2
   7   1  -1 295.502 74.3563  37
  -7   1   1-155.711 151.754  33
  -7   1   1 283.886 104.503  29
   7  -1  -1 408.042 89.9189  42
   7  -1  -1 476.649 166.627  18
   7   1  -1 401.344 86.0938  42
   7  -1  -1 604.336 107.481  24
   7   1  -1 537.071 172.402  18
  -7  -1   1 252.384 178.892  35
  -7  -1   1 435.898 110.130  15
  -7   1   1 378.160 94.1388  15
  -6  -1   1 7299.01 615.211   2
  -6  -1   1 7605.32 694.744  35
   6  -1  -1 7466.58 582.460  36
  -6   1   1 8397.86 744.859  33
  -6  -1   1 8079.29 748.016  33
   6   1  -1 8088.12 629.730  34
   6  -1  -1 7986.65 462.479   1
   6   1  -1 7636.60 568.820  36
   6  -1  -1 7774.59 584.575  18
  -6   1   1 6690.92 606.899   2
  -6   1   1 6930.75 679.615  35
   6   1  -1 7399.74 558.360  18
  -5  -1   1 4700.05 458.375  35
   5   1  -1 4350.71 404.007  34
   5  -1  -1 4860.20 326.706   1
   5  -1  -1 4422.40 322.265  34
   5   1  -1 4584.64 379.321  18
  -5   1   1 4205.79 445.190  35
   5  -1  -1 3970.41 372.805  18
   5   1  -1 4070.94 363.825  36
  -5  -1   1 4183.47 411.407   2
  -5   1   1 4160.82 442.506  33
   5  -1  -1 3878.64 373.071  36
  -5  -1   1 4523.95 470.002  33
  -5   1   1 4397.73 427.665   2
   4   1  -1 22988.2 728.528  18
   4   1  -1 23688.2 411.984   1
  -4   1   1 26445.1 921.146  35
  -4  -1   1 24833.9 887.412  35
   4  -1  -1 22887.4 758.165  18
  -4  -1   1 22066.7 839.165   2
  -4  -1   1 22871.8 889.478  33
   4  -1  -1 24512.9 654.411   1
   4  -1  -1 23065.7 774.643  36
  -4   1   1 23419.9 846.410   2
   4  -1  -1 21860.8 610.400  34
  -4   1   1 23136.0 883.397  33
   4   1  -1 22993.0 752.042  36
   4   1  -1 24257.9 838.947  34
   3  -1  -1 13636.4 391.058  34
   3   1  -1 13641.0 553.690  34
   3   1  -1 15110.0 485.184  18
   3  -1  -1 15474.6 457.657   1
  -3  -1   1 14812.5 569.156  33
  -3  -1   1 16411.5 506.099  19
  -3   1   1 14380.7 576.955  33
   3   1  -1 16843.2 542.167  36
  -3  -1   1 15864.4 598.222  35
  -3   1   1 15181.7 573.409   2
  -3   1   1 15912.3 584.367  35
   3  -1  -1 15101.3 527.668  18
   3   1  -1 14765.7 264.079   1
   3  -1  -1 15154.8 538.346  36
   2   1  -1 12115.3 366.025   3
  -2   1   1 12134.0 418.020  35
   2  -1  -1 11270.0 384.103  36
   2   1  -1 11277.9 320.573  18
  -2  -1   1 11543.0 443.063  35
   2  -1  -1 12532.8 360.386   1
   2  -1  -1 11722.9 390.872  18
  -2  -1   1 11737.1 373.754  33
   2   1  -1 10512.8 427.803  34
   2   1  -1 11566.4 199.623   1
  -2  -1   1 12288.1 406.706  19
  -2   1   1 11012.9 415.438  33
  -2   1   1 12300.7 420.426   2
   1  -1  -1 4949.76 202.572   1
   1  -1  -1 4669.89 276.730  17
   1   1  -1 5022.30 149.817   1
   1   1  -1 4900.69 115.011  18
  -1   1   1 4763.12 218.124  35
  -1  -1   1 4843.66 248.859  19
  -1   1   1 4808.54 188.920   2
   1   1  -1 4203.66 244.902  34
   1   1  -1 4740.11 202.185   3
   1  -1  -1 4852.06 200.987  36
   1   1  -1 4794.33 195.170  20
   0   1  -1 1496.39 93.6887  33
   0  -1  -1 1603.52 77.3370   3
   0   1  -1 1370.38 114.950   3
   0   1  -1 1716.50 99.3316  20
   0  -1   1 1482.56 146.980  19
   0   1   1 1544.09 120.709  20
   0  -1  -1 1439.41 176.586  17
   0  -1  -1 1449.14 108.311   1
   0   1  -1 1399.37 109.762  17
   0  -1   1 1635.67 69.8870  18
  -1  -1  -1 42055.8 763.533  35
   1  -1   1 37551.0 614.426  36
  -1   1  -1 38355.6 557.132  20
  -1   1  -1 37096.6 730.923  33
   1   1   1 37284.5 688.782  34
   1   1   1 39807.8 493.282  20
  -1  -1  -1 37866.2 588.737   1
  -1   1  -1 40199.8 769.104   3
   1  -1   1 37900.3 593.563  18
   1   1   1 35947.4 766.581  18
  -1   1  -1 40495.1 737.762   2
  -1  -1  -1 39750.7 1103.19  17
  -1   1  -1 37121.3 667.472  17
  -1  -1  -1 40046.2 458.215   2
  -1   1  -1 40747.1 803.082  35
  -2   1  -1 44243.7 1056.49  17
  -2  -1  -1 45075.5 738.310   2
   2   1   1 43308.8 954.205  18
   2  -1   1 44700.7 770.820  36
  -2  -1  -1 43349.2 1402.86  17
   2   1   1 46265.0 678.911  36
   2   1   1 46456.3 921.993  34
  -2   1  -1 46751.6 951.964   2
  -2   1  -1 46277.1 1071.80  35
   2  -1   1 44484.1 840.274  18
  -2  -1  -1 43936.5 1165.39  33
  -2   1  -1 42560.9 1018.93  33
  -2  -1  -1 45668.1 1028.43  35
  -3   1  -1 31180.2 1068.72  33
  -3   1  -1 31386.5 918.964   2
  -3   1  -1 29075.7 1079.92  17
   3   1   1 31520.3 704.002  36
  -3  -1  -1 31602.6 1027.73  35
  -3  -1  -1 32213.3 796.538   2
   3   1   1 31411.1 915.192  18
   3  -1   1 30117.2 835.491  18
   3  -1   1 31483.7 770.126  36
   3   1   1 31038.5 885.360  34
  -3  -1  -1 27800.3 1309.10  17
  -3   1  -1 30942.2 1045.48  35
  -3  -1  -1 31114.8 1148.78  33
   3  -1   1 32492.4 785.879  34
   4   1   1 16899.0 620.205  36
  -4   1  -1 16382.9 872.912  35
  -4   1  -1 15502.9 750.586   2
  -4  -1  -1 16039.3 963.739  33
  -4  -1  -1 15080.9 1101.50  17
  -4  -1  -1 16816.8 874.689  35
   4  -1   1 17772.1 676.233  34
   4   1   1 16647.9 757.360  18
  -4  -1  -1 16485.3 694.067   2
  -4   1  -1 14848.5 921.491  17
  -4   1  -1 16591.7 924.931  33
   4  -1   1 17088.2 663.672  36
   4   1   1 17107.9 764.682  34
   4  -1   1 18008.8 753.815  18
   5   1   1 14429.3 671.795  36
   5  -1   1 14602.4 781.388  18
   5  -1   1 14480.2 709.721  36
  -5   1  -1 12913.0 954.971  33
  -5  -1  -1 14694.4 1220.94  17
  -5  -1  -1 13944.7 916.452  35
  -5   1  -1 14056.2 817.726   2
   5   1   1 15415.4 831.590  34
  -5  -1  -1 14390.1 1048.99  33
  -5  -1  -1 13459.5 736.371   2
  -5   1  -1 13905.5 1006.79  17
   5  -1   1 15997.6 746.891  34
   5   1   1 13392.4 769.000  18
  -5   1  -1 13929.0 923.516  35
  -6  -1  -1 873.832 355.727  17
  -6  -1  -1 1606.94 404.569  33
   6   1   1 2303.29 363.357  34
  -6   1  -1 1377.05 296.453   2
  -6  -1  -1 1503.16 285.507   2
   6   1   1 1473.55 281.843  18
   6  -1   1 1700.88 310.141  18
  -6   1  -1 1422.81 326.935  35
  -6  -1  -1 1262.05 291.153  35
  -6   1  -1 1886.11 418.886  33
   6  -1   1 1935.61 293.832  36
   7  -1   1 1206.65 166.725  27
  -7  -1  -1 1148.73 152.719  22
  -7  -1  -1 1211.53 201.694  29
  -7   1  -1 662.190 199.354  35
  -7  -1  -1 983.928 171.768  30
  -7  -1  -1 1341.27 469.127  17
   7   1   1 1272.70 282.248  18
  -7   1  -1 1298.80 150.947  31
   7   1   1 1035.85 146.728  23
   7   1   1 1079.11 130.378  42
   7  -1   1 957.936 139.280  37
  -7  -1  -1 1233.59 344.138  35
  -7   1  -1 1358.86 213.474  29
  -7  -1  -1 1138.64 160.313   4
   7   1   1 1094.46 145.517  37
  -7   1  -1 1058.15 148.301   4
  -7   1  -1 690.939 241.377   2
  -7   1  -1 1099.25 145.652  22
  -7   1  -1 1208.09 167.887  15
  -7   1  -1 1342.44 440.520  33
  -7   1  -1 1031.32 171.169  39
  -7  -1  -1 1162.45 161.631  15
  -7  -1  -1 1057.18 146.791  31
   7  -1   1 1355.49 288.587  18
   7  -1   1 1245.45 161.224  23
  -8   1  -1 57.8250 45.6835   8
   8   1   1 39.1720 51.0966  23
   8   1   1-120.282 60.6538  37
  -8   1  -1 2.45903 61.1387  39
  -8  -1  -1 64.6629 47.7926  22
  -8  -1  -1 42.3075 51.6347  31
  -8  -1  -1-0.91218 47.7688   4
  -8   1  -1-67.5436 70.4832  15
   8  -1   1-7.56535 57.4074  23
  -8   1  -1 50.3456 82.4066  29
  -8  -1  -1 71.6687 61.5051  29
  -8   1  -1 44.9434 42.4401  31
   8  -1   1-17.6423 58.5438  27
   8  -1   1 56.3424 45.3903  37
   8   1   1-15.5584 49.1896  27
  -8  -1  -1-4.69086 49.5388  15
   9   1   1 545.755 101.534  37
  -9  -1  -1 638.206 117.704  22
   9   1   1 537.876 107.526  23
  -9  -1  -1 643.233 119.546  15
  -9  -1  -1 524.598 97.3247  31
  -9   1  -1 583.308 129.207  29
  -9   1  -1 632.331 111.823   8
   9  -1   1 597.463 113.507  37
   9  -1   1 540.702 111.441  27
  -9   1  -1 610.930 101.241  31
  -9  -1  -1 703.572 117.727   4
   9  -1   1 653.304 118.087  23
  -9  -1  -1 721.274 144.424  29
   9   1   1 453.626 92.9359  27
  -9   1  -1 623.048 120.371  15
 -10  -1  -1 2558.16 203.409  29
  10   1   1 2388.77 174.800  37
 -10  -1  -1 2436.50 163.541  31
  10  -1   1 2383.78 172.681  23
  10  -1   1 2133.90 163.333  27
 -10   1  -1 2476.07 210.033  29
  10   1   1 2399.81 177.354  23
 -10   1  -1 2429.89 167.202   8
  10  -1   1 2334.61 168.962  37
 -10   1  -1 2671.98 193.313  15
 -10  -1  -1 2480.09 178.147   8
 -11   1  -1 36.1010 31.0713  29
 -11  -1  -1-6.40342 28.9758   5
  11   2  -1 46.3857 35.7194  42
  11  -2  -1 22.3496 33.7248  37
 -11  -2   1-56.3986 59.2912  29
  11   2  -1 9.01159 33.6448  37
 -11  -2   1 21.1003 38.5741  15
 -11  -2   1 1.60563 27.5033  31
 -11   2   1 14.3168 40.8843  29
 -11   2   1 82.8342 41.1574  15
  11   2  -1-27.0305 38.2301  23
  11  -2  -1 32.9389 35.8270  23
 -10   2   1 1726.12 210.702  29
  10   2  -1 1645.93 162.927  24
  10   2  -1 1780.44 171.036  37
  10  -2  -1 1647.59 169.561  23
 -10  -2   1 1757.31 175.020  22
 -10   2   1 1800.08 193.348  15
  10  -2  -1 1633.97 150.363  42
  10   2  -1 1578.44 164.846  23
 -10   2   1 1831.43 222.568  39
 -10  -2   1 1741.39 190.714  15
  10  -2  -1 1803.64 177.237  37
 -10  -2   1 1955.36 222.245  29
 -10  -2   1 1735.99 164.509  31
  10   2  -1 1862.01 165.887  42
   9   2  -1 14638.1 530.646  24
  -9   2   1 12917.7 651.896  39
  -9  -2   1 14567.0 533.950  22
   9  -2  -1 13390.9 514.355  37
  -9   2   1 14007.4 647.870  29
   9  -2  -1 13381.3 525.338  23
   9   2  -1 13231.7 477.865  42
  -9  -2   1 13025.7 623.484  29
   9   2  -1 12607.7 501.566  23
  -9   2   1 14115.3 570.251  15
   9  -2  -1 13346.3 468.777  42
  -9  -2   1 14379.1 510.515  31
  -9  -2   1 12963.1 542.691  15
   9  -2  -1 14163.3 524.025   7
   9   2  -1 13265.4 500.365  37
   9  -2  -1 13346.3 495.164  27
   8   2  -1 2715.28 414.059  36
   8  -2  -1 2651.43 232.841  37
  -8  -2   1 2923.73 232.143  31
  -8  -2   1 2482.27 456.439   2
   8   2  -1 2686.88 411.202  18
   8  -2  -1 2276.66 218.079  24
  -8  -2   1 2574.19 222.476   4
  -8  -2   1 2500.56 285.280  29
  -8   2   1 2565.37 550.653  35
  -8  -2   1 2746.68 565.245  35
   8  -2  -1 2554.81 211.546  42
  -8   2   1 2471.97 240.430  15
  -8  -2   1 2702.09 233.222  22
   8   2  -1 2516.78 212.016  42
  -8   2   1 2329.84 532.744  33
   8  -2  -1 2748.01 237.931  27
   8   2  -1 2503.21 220.527  37
  -8   2   1 2281.98 306.387  39
   8  -2  -1 2596.49 236.947  23
   8  -2  -1 2478.89 431.919  36
  -8   2   1 2172.28 260.832  29
   8  -2  -1 2688.00 244.890   7
   8   2  -1 2884.65 242.483  24
  -8  -2   1 2472.44 233.397  15
  -8   2   1 2974.70 514.066   2
   8   2  -1 2814.80 241.366  23
   7   2  -1 29701.5 1433.88  34
   7  -2  -1 25330.7 677.996  24
   7  -2  -1 25529.5 673.215  37
   7   2  -1 24684.5 1143.50  18
   7   2  -1 24506.1 641.281  37
  -7   2   1 23056.8 769.013  29
   7  -2  -1 23554.4 1167.61  18
  -7   2   1 25938.4 708.498  15
   7   2  -1 24384.8 620.265  42
  -7  -2   1 25132.5 665.470  22
  -7  -2   1 23457.0 775.083  29
  -7   2   1 23922.7 1486.14  33
   7  -2  -1 25815.2 677.291  27
  -7  -2   1 25636.9 648.021  31
  -7  -2   1 26658.8 1561.20  33
  -7   2   1 20335.3 1331.25  35
   7  -2  -1 25366.0 628.434  42
   7   2  -1 24084.4 1142.17  36
  -7  -2   1 20805.7 1330.55  35
   7  -2  -1 26334.9 699.255  23
   7  -2  -1 26387.8 694.569   7
   7   2  -1 24960.5 663.101  23
  -7  -2   1 23708.8 1248.40   2
  -7   2   1 22902.4 1298.83   2
   7  -2  -1 24078.6 1213.30  36
  -6  -2   1 9688.09 833.927  33
  -6   2   1 7577.06 718.277  35
  -6   2   1 9493.12 747.015   2
   6  -2  -1 9983.17 684.812  18
  -6   2   1 10957.3 884.001  33
  -6  -2   1 9836.29 720.169   2
   6  -2  -1 9294.35 674.616  36
   6   2  -1 9381.05 637.750  18
   6  -2  -1 10419.8 587.150   1
  -6  -2   1 9016.01 762.085  35
   6   2  -1 8742.80 619.604  36
   6   2  -1 10612.8 775.093  34
  -5  -2   1 8532.94 618.561  35
  -5   2   1 6985.72 584.051  35
  -5   2   1 7186.92 608.539  33
   5  -2  -1 6944.99 515.619  36
   5   2  -1 7765.89 508.567  36
  -5   2   1 7253.62 568.175   2
   5   2  -1 7859.03 599.092  34
  -5  -2   1 8105.29 649.974  33
   5   2  -1 7220.21 485.002  18
  -5  -2   1 6953.05 546.671   2
   5  -2  -1 7653.23 532.263  18
   5  -2  -1 7657.87 456.539   1
   4   2  -1 51752.0 1148.32  36
   4  -2  -1 51980.2 1208.95  18
  -4   2   1 48265.5 1360.57  33
  -4  -2   1 50300.2 1383.82  33
   4   2  -1 52301.5 1357.26  34
  -4   2   1 50625.4 1306.59  35
   4  -2  -1 54484.5 1100.88   1
   4   2  -1 54042.2 1129.68  18
  -4   2   1 51050.1 1300.02   2
  -4  -2   1 56219.7 1348.11  35
   4  -2  -1 50382.6 1221.23  36
  -4  -2   1 46938.4 1264.45   2
   3  -2  -1 4690.06 317.967  18
   3   2  -1 4983.80 289.820  18
   3  -2  -1 5149.12 342.838  36
   3   2  -1 4923.13 304.470  20
   3  -2  -1 5304.04 308.069   1
  -3   2   1 5622.55 350.916  35
  -3  -2   1 4509.18 338.676  33
  -3   2   1 4269.08 350.766  33
  -3  -2   1 4816.39 335.594  35
  -3  -2   1 5394.13 345.426  19
   3   2  -1 4602.74 365.537  34
  -3   2   1 4966.37 353.163   2
   2   2  -1 7933.30 346.274  20
   2   2  -1 8091.26 292.120  18
   2  -2  -1 9018.09 357.525   1
  -2   2   1 7932.51 404.839  33
  -2   2   1 8874.88 346.539  35
   2  -2  -1 8051.51 422.805  17
   2  -2  -1 8205.67 380.022  36
  -2  -2   1 8337.83 402.421  19
   2   2  -1 7671.48 423.128  34
   2   2  -1 8657.09 334.547   3
  -2  -2   1 8124.83 386.746  35
  -2   2   1 8429.79 378.266   2
   1   2  -1 213692. 1533.84   3
  -1   2   1 200079. 1968.93  20
   1   2  -1 219206. 1039.67  18
   1  -2  -1 210398. 1727.16  36
   1   2  -1 223202. 1672.84  20
  -1  -2   1 210465. 1944.28  19
  -1   2   1 218834. 1489.09   2
  -1   2   1 217709. 1288.14  35
   1  -2  -1 204138. 2024.31  17
   0  -2   1 1144.20 155.295  19
   0  -2  -1 952.591 100.256   1
   0   2  -1 985.644 81.9405  33
   0   2   1 852.884 127.928  20
   0   2  -1 1069.16 118.570   3
   0   2   1 961.750 105.059  34
   0   2  -1 955.886 118.306  20
   0  -2  -1 953.673 171.043  17
   1  -2   1 55682.2 994.593  36
  -1  -2  -1 58568.1 536.461   2
   1   2   1 61816.0 904.517  20
  -1  -2  -1 65222.2 891.193  35
  -1   2  -1 59036.3 979.738  20
   1  -2   1 61102.4 1122.83  19
  -1   2  -1 63073.0 1069.76   2
   1   2   1 58065.5 1126.77  18
  -1   2  -1 59225.0 930.983  33
   1  -2   1 63250.3 797.202  18
  -1   2  -1 64654.0 1058.28   3
  -1  -2  -1 65277.7 1593.07  17
   1   2   1 58436.1 973.798  34
  -1  -2  -1 60292.7 784.306   1
  -2   2  -1 68670.4 1156.74  20
  -2   2  -1 71746.8 1309.05  33
   2   2   1 72088.4 1282.42  34
   2   2   1 67246.0 1310.26  18
  -2  -2  -1 77255.6 1302.48  35
  -2  -2  -1 70945.6 884.517   2
   2  -2   1 71135.0 1181.32  36
   2   2   1 74621.7 966.031  20
   2  -2   1 70858.3 1087.85  18
  -2   2  -1 81220.4 1432.15  35
  -2   2  -1 73734.6 1328.79   2
  -2  -2  -1 72727.6 1978.28  17
  -3  -2  -1 912.931 293.072  17
   3   2   1 871.108 126.548  36
   3   2   1 1244.96 203.016  34
  -3   2  -1 1240.57 219.091  35
  -3   2  -1 1254.31 184.462  20
   3  -2   1 1233.04 176.359  36
   3  -2   1 1102.13 168.129  18
   3   2   1 1141.55 192.405  18
  -3  -2  -1 1256.13 211.135  35
  -3   2  -1 868.119 160.178  17
  -3   2  -1 1052.52 207.561  33
   3  -2   1 1290.51 151.308  34
  -3  -2  -1 1191.72 150.814   2
  -3   2  -1 1322.60 211.001   2
   4  -2   1 49174.4 1065.93  34
  -4   2  -1 46606.9 1560.17  33
   4  -2   1 44754.1 1163.91  36
  -4  -2  -1 42557.2 1370.27  35
   4   2   1 47055.1 1373.81  34
  -4   2  -1 44131.0 1444.99  35
   4   2   1 47211.5 1075.61  36
  -4   2  -1 43343.8 1337.91   2
  -4  -2  -1 42922.0 1961.53  17
   4  -2   1 43462.2 1189.67  18
  -4  -2  -1 45798.3 1118.22   2
   4   2   1 43309.6 1274.89  18
  -4   2  -1 41130.2 1138.81  20
  -5  -2  -1 23841.5 1188.33  35
  -5  -2  -1 23816.9 946.532   2
   5   2   1 22864.1 1027.57  18
  -5   2  -1 23874.9 1206.74  35
   5  -2   1 23452.3 1007.49  18
  -5   2  -1 22306.2 1081.47   2
   5   2   1 25399.1 913.966  36
  -5  -2  -1 23318.7 1640.65  17
   5   2   1 26072.1 1156.31  34
  -5   2  -1 24726.9 1325.78  33
   5  -2   1 23217.4 951.703  36
  -6  -2  -1 4795.29 308.940  13
   6  -2   1 4781.07 302.943  27
  -6  -2  -1 4644.82 811.635  17
  -6   2  -1 4933.80 613.657  35
  -6  -2  -1 5127.38 300.748  22
   6   2   1 4560.53 281.133  23
   6  -2   1 4686.42 506.265  18
  -6   2  -1 4958.21 350.532  29
  -6   2  -1 5359.36 730.330  33
  -6  -2  -1 4883.55 601.050  35
  -6  -2  -1 4874.61 357.708  30
   6   2   1 5321.99 592.969  34
   6   2   1 4748.22 524.055  18
  -6  -2  -1 5108.64 307.697   4
  -6  -2  -1 5083.17 289.446  31
   6   2   1 4858.62 283.700  37
  -6   2  -1 5077.98 290.147  22
  -6   2  -1 5007.50 313.782  15
   6  -2   1 4935.95 494.018  36
  -6   2  -1 4298.58 532.240   2
  -7   2  -1 42763.2 970.069  15
  -7  -2  -1 44477.6 1087.36  29
  -7   2  -1 42820.3 1962.49  35
  -7   2  -1 41017.5 873.515   8
  -7   2  -1 41956.3 2227.51  33
  -7  -2  -1 36802.3 2384.49  17
  -7  -2  -1 41019.3 883.432  31
  -7  -2  -1 41274.5 931.284   4
  -7  -2  -1 39537.6 1847.98  35
  -7   2  -1 42867.6 1086.04  29
  -7  -2  -1 37218.8 1053.42  30
  -7  -2  -1 40943.3 907.693  22
  -7   2  -1 38925.8 1720.13   2
   7  -2   1 41547.8 1633.72  18
   7   2   1 41461.1 798.601  42
   7   2   1 40766.0 1630.97  18
  -7   2  -1 41699.5 1837.45   3
   7   2   1 40377.6 871.811  37
   7   2   1 40505.1 898.388  23
  -7   2  -1 44616.5 1134.60  39
   7  -2   1 41321.0 894.663  23
   7  -2   1 39790.2 925.123  27
   7  -2   1 40697.6 876.855  37
   7   2   1 48161.3 1890.33  34
  -7  -2  -1 41618.7 911.528  15
  -8   2  -1 4770.21 355.475  39
   8  -2   1 4001.63 279.893  37
  -8   2  -1 3947.58 305.009  15
   8   2   1 3263.86 253.750  27
  -8  -2  -1 4166.83 285.738  31
  -8  -2  -1 4099.07 294.874  15
  -8   2  -1 3741.98 267.518   8
   8   2   1 4034.27 284.473  37
   8  -2   1 3776.29 293.098  27
   8   2   1 4206.48 256.188  42
  -8   2  -1 4287.87 350.963  29
   8  -2   1 4308.13 291.455  23
   8   2   1 3961.61 285.805  23
  -8  -2  -1 4361.77 344.763  29
  -8  -2  -1 4379.00 305.695  22
  -8  -2  -1 4490.97 310.845   4
   9   2   1 6283.81 333.747  23
   9  -2   1 6393.89 325.399  37
  -9  -2  -1 6218.42 337.892   4
  -9  -2  -1 6098.78 318.711  31
   9   2   1 5390.58 300.437  27
  -9   2  -1 5940.46 307.418   8
  -9   2  -1 6404.44 390.507  29
   9  -2   1 5847.50 314.431  23
  -9  -2  -1 5853.69 359.062  29
   9   2   1 6074.12 323.189  37
   9  -2   1 5751.43 329.968  27
  -9  -2  -1 5951.23 336.326  22
  -9   2  -1 6685.56 363.263  39
  -9   2  -1 6098.98 345.952  15
  -9  -2  -1 5911.13 322.820  15
 -10  -2  -1 278.468 66.1329   8
  10  -2   1 278.974 68.1557  27
  10   2   1 317.936 66.7589  23
  10  -2   1 288.727 65.3225  37
 -10  -2  -1 335.110 66.7479  31
 -10   2  -1 280.134 85.4130  29
 -10   2  -1 263.710 56.1254   8
  10   2   1 292.282 65.8409  37
  10  -2   1 319.310 68.2490  23
 -10   2  -1 435.014 82.5410  15
  11   3  -1-3.03871 32.4469  42
  11   3  -1-12.4166 26.1469  37
 -11   3   1-25.0984 46.0718  29
  11   3  -1-9.96362 35.0368  23
 -11  -3   1 48.2705 36.3058  31
  11  -3  -1-33.0960 36.1182  37
  11  -3  -1-5.55269 35.9882  23
 -11   3   1-7.55784 32.0714  15
 -11  -3   1-20.2689 36.0304  22
  11  -3  -1-77.3788 38.0678  26
 -11  -3   1-11.4332 34.5673  15
 -10   3   1 74.2395 75.5653  39
  10  -3  -1 40.4342 50.8300  37
  10  -3  -1 96.0687 45.5740  42
  10  -3  -1 49.0670 48.1245  23
  10   3  -1 54.1649 51.9556  24
  10   3  -1-28.7552 46.5061  37
 -10  -3   1 79.8421 58.6832  22
 -10   3   1 100.334 56.8079  29
 -10  -3   1 33.7713 41.1403  15
  10   3  -1-56.5247 53.0855  23
  10   3  -1-2.68517 36.8878  42
 -10  -3   1-25.1178 46.6415  31
 -10  -3   1-100.132 64.0006  29
 -10   3   1 87.6152 58.8950  15
   9  -3  -1 468.631 115.443   7
  -9  -3   1 523.125 150.680  29
  -9   3   1 596.389 122.517  15
   9  -3  -1 414.834 95.7740  37
  -9  -3   1 541.109 119.067  15
   9   3  -1 358.271 87.4466  23
   9  -3  -1 525.957 111.879  23
  -9  -3   1 454.550 96.8211  22
  -9   3   1 357.792 127.799  39
   9   3  -1 427.709 94.5599  37
   9  -3  -1 356.265 79.0402  42
   9   3  -1 515.240 100.537  42
   9   3  -1 444.516 94.5355  24
  -9  -3   1 491.016 98.2527   4
  -9   3   1 610.154 137.463  29
   9  -3  -1 412.487 95.1062  27
  -9  -3   1 401.199 90.3918  31
   8   3  -1 11010.1 467.827  23
  -8  -3   1 10554.5 555.491  29
   8  -3  -1 12205.9 506.221  23
   8   3  -1 13216.8 507.507  24
   8   3  -1 11050.2 454.613  37
  -8  -3   1 10244.9 477.121  15
   8   3  -1 11477.7 450.718  42
   8  -3  -1 11566.5 439.888  42
  -8  -3   1 11428.0 485.441  22
  -8   3   1 9700.37 586.451  39
   8  -3  -1 11641.4 493.970   7
  -8   3   1 11392.6 502.072  15
  -8   3   1 11172.8 567.640  29
  -8  -3   1 12109.9 491.296   4
  -8  -3   1 11903.5 477.125  31
   8  -3  -1 11551.5 490.381  37
   8  -3  -1 11370.1 479.445  27
   8   3  -1 11890.9 405.879  21
   7  -3  -1 5007.75 309.368  24
  -7  -3   1 4261.47 592.473  35
  -7   3   1 4882.89 361.084  29
  -7   3   1 5461.68 722.848  33
  -7  -3   1 5541.29 340.819  13
   7  -3  -1 5232.81 317.374  27
   7  -3  -1 5285.12 317.494  37
   7   3  -1 5977.66 699.212  34
   7   3  -1 5557.21 316.405  23
   7   3  -1 4682.68 516.353  36
   7   3  -1 4936.00 289.255  37
   7  -3  -1 5311.13 323.726   7
  -7  -3   1 5242.77 318.846  22
   7  -3  -1 5589.34 331.441  23
   7   3  -1 4994.96 508.295  18
  -7   3   1 4145.92 597.086  35
   7  -3  -1 5571.42 499.436   1
  -7   3   1 4526.90 585.097   2
  -7  -3   1 4863.52 355.330  29
   7   3  -1 4954.93 258.787  21
  -7  -3   1 5635.12 314.588  31
   7  -3  -1 4412.82 544.663  36
  -7   3   1 4830.59 314.029  15
   7   3  -1 5477.94 300.374  42
   7  -3  -1 5180.23 289.401  42
  -7  -3   1 4500.62 552.635   2
   6   3  -1 2422.53 335.021  36
  -6   3   1 2432.92 395.672   2
   6  -3  -1 1928.94 325.666  36
  -6   3   1 2120.57 402.622  35
  -6  -3   1 2276.86 377.166  35
   6   3  -1 2407.61 326.053  18
  -6   3   1 2255.41 418.991  33
  -6  -3   1 2465.28 370.457   2
   6  -3  -1 2868.05 337.990   1
   6   3  -1 3026.73 449.766  34
   5   3  -1 2059.21 331.354  34
   5   3  -1 1794.31 256.213  36
   5  -3  -1 1558.01 265.748  36
   5   3  -1 1913.92 266.382  18
  -5   3   1 1982.25 316.354   2
  -5   3   1 1634.67 287.937  35
  -5   3   1 1848.68 318.683  33
  -5  -3   1 1713.24 277.521  35
  -5  -3   1 1771.08 295.018   2
   5  -3  -1 2134.09 268.178   1
  -4   3   1 4972.39 462.604  33
  -4  -3   1 6239.02 462.395  35
  -4  -3   1 5476.82 426.100  19
   4   3  -1 5760.45 505.294  34
  -4   3   1 5273.50 446.152   2
   4   3  -1 5378.18 375.587  18
  -4   3   1 4683.68 415.257  35
   4  -3  -1 4926.56 418.230  36
   4  -3  -1 5422.78 383.269   1
   4   3  -1 4971.77 381.431  36
   3   3  -1 20925.0 689.161  20
  -3  -3   1 22522.3 797.045  19
  -3   3   1 20416.5 701.806  35
  -3   3   1 20518.5 820.522  33
   3  -3  -1 20438.6 760.781  36
   3  -3  -1 22048.9 703.486   1
   3   3  -1 19354.8 827.574  34
   3   3  -1 20518.8 631.839  18
  -3  -3   1 21226.3 718.143  35
  -3   3   1 21659.3 789.444   2
  -2  -3   1 37747.9 979.810  19
   2   3  -1 37205.7 853.895  20
   2  -3  -1 38333.2 441.852  19
   2   3  -1 34353.0 1001.04  34
   2  -3  -1 36076.8 929.964  36
   2  -3  -1 38931.7 849.818   1
  -2   3   1 37266.9 879.016   2
   2   3  -1 36901.7 715.214  18
   2   3  -1 39004.3 758.799   3
  -2   3   1 40267.2 757.327  35
  -2   3   1 33827.0 1046.07  20
  -2  -3   1 36805.6 833.535  35
  -2   3   1 37756.0 992.225  33
   2  -3  -1 37010.1 952.731  17
   1   3  -1 8.00372 49.7711  34
   1   3  -1 111.199 44.4583   3
  -1   3   1 95.2926 82.9273  20
  -1  -3   1 102.085 72.8173  19
   1  -3  -1 116.391 66.8167  36
  -1   3   1 140.294 31.8692  35
   1  -3  -1 102.285 55.7033   1
  -1   3   1 55.1706 27.5574  34
   1  -3  -1 110.342 81.7057  17
   1   3  -1 62.5399 37.6264  18
   1   3  -1 21.7974 46.8820  20
  -1   3   1 185.830 64.3087   2
   1  -3  -1 201.087 50.8410  19
   0  -3  -1 24473.1 572.280   1
   0   3   1 20595.2 567.250  34
   0   3   1 22614.5 761.101  20
   0   3  -1 22123.4 579.754   3
   0  -3  -1 22921.6 887.246  17
   0   3  -1 21007.1 478.892  33
   0   3  -1 23004.8 693.201  20
   0  -3   1 21579.3 717.798  19
   1   3   1 126.549 95.3160  18
  -1   3  -1 51.1979 51.7137   3
  -1  -3  -1 16.4901 117.867  17
   1   3   1 80.7227 51.5433  20
   1  -3   1 86.6015 80.0414  19
   1   3   1 77.0690 59.3802  34
  -1   3  -1 76.2317 61.9306  20
  -1   3  -1 95.8617 80.9644   2
  -1   3  -1 147.575 55.1353  33
  -1  -3  -1 169.964 56.0655   1
  -2  -3  -1 36429.4 673.624   2
   2  -3   1 35925.7 1001.44  36
  -2   3  -1 38326.1 1029.28   3
  -2  -3  -1 39599.1 884.331  35
   2   3   1 37034.5 1011.83  34
  -2  -3  -1 40278.0 720.541   1
  -2   3  -1 36868.1 988.939  33
   2  -3   1 38187.8 848.505  18
  -2  -3  -1 39918.1 1591.29  17
   2   3   1 36377.3 1074.48  18
  -2   3  -1 35760.8 1007.85  20
  -2   3  -1 37747.0 1062.73   2
   2  -3   1 37443.5 1046.50  19
   2   3   1 42125.6 885.994  20
  -3   3  -1 9821.98 597.727  35
  -3  -3  -1 9330.79 415.815   2
   3  -3   1 9641.53 391.472  34
  -3  -3  -1 9295.54 883.192  17
  -3  -3  -1 9115.18 536.225  35
  -3   3  -1 9078.15 589.053  33
   3   3   1 9801.41 603.648  34
   3   3   1 9288.79 580.026  18
  -3   3  -1 8596.34 543.582  20
   3  -3   1 8464.94 541.302  19
  -3   3  -1 9263.53 590.603   2
   3  -3   1 9237.32 491.529  18
   3  -3   1 9605.95 543.608  36
   3   3   1 9717.70 447.138  20
  -4  -3  -1 2084.61 477.914  17
   4  -3   1 1591.21 236.658  18
   4   3   1 1729.64 223.971  36
  -4   3  -1 1692.87 287.952  35
   4   3   1 1943.65 308.130  34
  -4  -3  -1 1871.89 301.890  35
  -4   3  -1 1483.98 258.056   2
   4  -3   1 1814.13 279.523  19
  -4   3  -1 1454.31 245.252  20
  -4   3  -1 1564.58 289.285  33
  -4  -3  -1 1894.89 224.998   2
   4  -3   1 1617.87 245.619  36
   4   3   1 1549.18 255.155  18
   5   3   1 7460.52 516.510  36
  -5   3  -1 6659.11 706.186  33
   5  -3   1 7086.64 566.630  18
   5  -3   1 6327.32 537.318  36
   5  -3   1 6802.37 585.174  19
  -5  -3  -1 6248.42 921.954  17
  -5   3  -1 7385.67 657.589   2
  -5  -3  -1 7119.17 633.405  35
   5   3   1 7896.52 689.380  34
   5   3   1 6371.43 560.792  18
  -5   3  -1 6407.38 621.820  35
  -6  -3  -1 6711.82 352.570  22
  -6   3  -1 5675.89 631.720   2
  -6   3  -1 6395.16 377.866  32
   6   3   1 7382.81 722.741  34
  -6  -3  -1 6159.57 408.553  30
  -6   3  -1 6024.42 660.107   3
   6   3   1 5691.91 584.456  18
   6  -3   1 5825.79 570.167  18
   6  -3   1 6820.93 373.365  27
  -6  -3  -1 6523.33 676.382  35
   6   3   1 5704.98 314.733  37
   6   3   1 6628.76 344.578  23
  -6  -3  -1 6615.55 373.667  13
  -6  -3  -1 6951.38 346.290  31
  -6   3  -1 6662.29 399.747  29
  -6  -3  -1 6899.03 399.322  29
  -6   3  -1 6819.06 444.616  39
  -6   3  -1 6359.88 331.472   8
  -6  -3  -1 6900.39 365.161  40
  -6   3  -1 6255.23 355.541  15
  -6   3  -1 6081.44 684.238  35
  -6  -3  -1 6434.77 975.055  17
   6   3   1 6365.99 305.134  42
   6  -3   1 5395.34 549.360  36
   6  -3   1 6548.39 337.176  37
   6  -3   1 6170.86 333.307  23
  -6   3  -1 6449.64 811.490  33
  -7   3  -1 4583.84 373.427  39
   7   3   1 3775.74 272.055  37
   7  -3   1 4252.53 529.235  18
   7  -3   1 3894.57 299.247  27
   7   3   1 4569.80 610.246  34
  -7   3  -1 4044.78 304.403  32
   7   3   1 3629.18 501.565  18
  -7  -3  -1 3448.19 520.034  35
   7   3   1 3529.51 272.944  23
  -7  -3  -1 4116.40 284.951  31
  -7  -3  -1 4162.36 321.587  29
  -7  -3  -1 4236.23 287.537  15
  -7  -3  -1 3741.10 288.635   4
  -7  -3  -1 3516.58 328.394  30
  -7   3  -1 3890.08 597.029  35
  -7   3  -1 3501.73 255.480   8
  -7  -3  -1 4460.99 881.859  17
  -7  -3  -1 3961.79 290.385  22
   7  -3   1 3993.93 277.332  37
  -7   3  -1 3591.02 537.728   3
  -7   3  -1 4339.97 341.279  29
  -7   3  -1 4795.12 745.981  33
  -7   3  -1 4073.14 564.126   2
   7  -3   1 4027.63 280.201  23
  -7   3  -1 3824.36 299.139  15
   7   3   1 3839.50 249.610  42
  -8  -3  -1 3265.34 279.469  29
  -8   3  -1 3545.99 314.065  39
  -8  -3  -1 2703.71 297.910  30
   8   3   1 3310.43 253.110  37
  -8  -3  -1 3440.16 274.568   4
   8  -3   1 2918.90 241.383  23
  -8   3  -1 3313.76 241.555   8
  -8  -3  -1 3420.51 273.353  22
   8  -3   1 3475.56 259.814  37
   8  -3   1 3203.87 273.803  27
  -8  -3  -1 3330.94 252.825  15
  -8  -3  -1 3401.90 259.915  31
  -8   3  -1 3197.07 290.773  29
  -8   3  -1 3243.23 274.938  15
   8   3   1 3725.44 240.193  42
   8   3   1 3433.55 264.174  23
  -9   3  -1 594.121 95.9927   8
   9   3   1 601.753 106.824  37
  -9   3  -1 711.835 127.240  39
   9  -3   1 606.615 104.775  37
  -9  -3  -1 570.965 105.747  31
  -9  -3  -1 501.059 108.302  22
   9   3   1 695.790 115.174  23
  -9   3  -1 997.115 155.353  29
   9  -3   1 634.903 100.425  23
   9   3   1 747.266 99.1499  42
   9   3   1 672.134 105.606  27
  -9  -3  -1 604.462 110.347   4
  -9   3  -1 817.147 134.983  15
   9  -3   1 809.267 123.104  27
  10  -3   1 1423.24 135.007  10
  10  -3   1 1343.04 115.427  37
 -10  -3  -1 1460.20 132.703   8
 -10  -3  -1 1526.83 130.865  31
 -10   3  -1 1543.13 138.474  15
  10   3   1 1380.93 123.832  37
  10   3   1 1460.50 130.568  23
 -10   3  -1 1661.47 150.638  29
  10  -3   1 1509.24 123.611  23
  10  -3   1 1435.09 128.410  27
  11  -4  -1 409.173 61.4626  23
  11   4  -1 300.462 50.8081  23
  11  -4  -1 274.934 63.7224  10
  11   4  -1 354.879 54.0692  42
  11  -4  -1 299.561 54.9589  37
 -11  -4   1 367.886 63.7148  22
 -11  -4   1 304.726 54.2018  31
 -11   4   1 350.678 62.2743  15
 -11   4   1 352.159 66.0319  39
 -10   4   1 837.650 115.768  15
  10  -4  -1 862.951 115.463  23
 -10  -4   1 834.919 120.714  22
 -10  -4   1 902.378 123.399  15
  10   4  -1 819.770 104.845  37
  10   4  -1 940.149 106.880  24
 -10  -4   1 705.245 105.125  31
 -10   4   1 820.857 123.798  29
  10   4  -1 932.046 109.636  42
  10  -4  -1 734.489 104.654  37
 -10   4   1 1077.67 163.094  39
  10  -4  -1 668.107 90.1422  26
 -10  -4   1 758.231 107.072   4
  10   4  -1 941.361 116.528  23
  -9   4   1 1900.73 228.214  32
  -9   4   1 2081.37 205.124  15
  -9  -4   1 1819.91 200.203  15
  -9  -4   1 1819.81 191.420  22
   9   4  -1 1887.45 181.600  37
   9  -4  -1 2033.91 196.952  37
  -9   4   1 1789.51 251.818  39
   9  -4  -1 1982.01 170.244  42
   9  -4  -1 1875.27 195.045  23
  -9   4   1 1991.06 220.550  29
  -9  -4   1 1994.22 198.487   4
   9   4  -1 1640.09 178.707  23
   9   4  -1 2154.31 190.973  24
   9  -4  -1 1922.67 189.768  27
  -9  -4   1 2032.55 196.414  31
  -9  -4   1 2344.94 238.659  29
   9   4  -1 1951.74 181.238  42
  -8   4   1 3741.88 373.619  39
   8   4  -1 4524.81 255.031  21
   8   4  -1 4117.15 273.999  37
   8  -4  -1 4004.00 296.015   7
  -8  -4   1 3953.99 290.641  15
   8   4  -1 4736.74 287.088  12
   8  -4  -1 4208.51 293.735  37
   8  -4  -1 4318.30 303.195  23
  -8  -4   1 4254.58 300.612  22
   8   4  -1 3863.54 277.780  23
   8   4  -1 4088.53 269.362  42
  -8  -4   1 4544.37 301.252  31
  -8  -4   1 4442.20 316.620  13
  -8  -4   1 4561.05 347.837  29
   8  -4  -1 3853.51 284.314  27
   8  -4  -1 4063.00 259.786  42
  -8   4   1 4583.82 347.548  29
  -8   4   1 4155.49 295.998  15
  -7  -4   1 625.790 189.741   2
  -7   4   1 522.139 156.359  39
  -7  -4   1 910.125 278.689  35
   7  -4  -1 465.862 254.613  36
   7   4  -1 915.120 230.023  18
  -7   4   1 733.043 152.717  29
   7   4  -1 779.253 118.149  37
   7   4  -1 187.234 121.905  36
   7  -4  -1 924.147 137.047  27
   7   4  -1 798.087 107.043  21
   7   4  -1 695.070 111.746  42
   7   4  -1 680.670 114.365  12
   7  -4  -1 773.870 129.895  23
  -7  -4   1 730.504 141.382  29
   7  -4  -1 640.213 130.689   7
  -7   4   1 771.272 272.186  20
  -7   4   1 943.808 283.686  35
  -7   4   1 922.517 316.143  33
  -7  -4   1 762.402 122.906  31
  -7  -4   1 721.327 135.030  13
   7   4  -1 305.236 190.726  34
   7  -4  -1 799.797 202.238   1
   7   4  -1 828.164 128.811  23
   7  -4  -1 685.611 110.922  42
  -7   4   1 867.285 138.156  15
  -7  -4   1 772.304 134.073  22
   7  -4  -1 573.002 110.731  37
  -7   4   1 880.947 260.134   2
   6  -4  -1 12143.8 749.510   1
  -6  -4   1 12587.4 452.259  31
  -6   4   1 11199.4 872.041   2
  -6  -4   1 12529.8 471.541  22
   6   4  -1 11956.9 738.827  18
  -6  -4   1 11247.9 863.454  35
   6  -4  -1 13354.0 478.077  37
  -6   4   1 10998.7 857.741  35
  -6   4   1 10421.9 924.351  20
   6  -4  -1 11534.2 839.722  36
   6  -4  -1 12520.4 465.470   7
   6   4  -1 13289.9 993.432  34
   6  -4  -1 12322.4 468.177  23
   6   4  -1 11849.3 761.260  36
  -6  -4   1 11754.7 833.515   2
  -6   4   1 12647.2 1004.44  33
   6   4  -1 12606.5 433.815  42
  -5  -4   1 641.667 193.907   2
   5   4  -1 681.769 166.578  18
  -5  -4   1 769.378 202.299  35
  -5   4   1 515.484 206.333  20
  -5   4   1 436.775 163.025  35
   5   4  -1 519.248 193.022  34
   5   4  -1 367.777 127.627  36
   5  -4  -1 725.844 174.302   1
  -5   4   1 690.548 209.975  33
   5  -4  -1 525.158 149.027  36
  -5   4   1 837.582 221.372   2
  -4   4   1 3733.86 427.995  33
  -4   4   1 3237.18 349.929  35
  -4  -4   1 3925.45 400.923  19
   4  -4  -1 3289.08 372.842  36
   4   4  -1 3644.74 442.218  34
   4   4  -1 3396.85 335.614  20
   4  -4  -1 3984.17 365.888   1
  -4   4   1 3780.00 473.687  20
   4   4  -1 3632.60 326.871  18
  -4   4   1 3753.85 400.092   2
  -4  -4   1 4189.08 382.669  35
  -3  -4   1 73128.4 1336.06  35
   3  -4  -1 65836.8 1537.73  36
  -3  -4   1 67510.9 1545.60  19
   3   4  -1 66244.4 1374.59  20
  -3   4   1 63586.8 1281.03  35
  -3   4   1 70707.0 1666.33  33
  -3   4   1 67394.6 1515.86   2
   3   4  -1 65996.7 1687.83  34
  -3   4   1 62578.5 1749.31  20
   3   4  -1 69988.5 1243.42  18
   3  -4  -1 68945.0 1381.05   1
  -2   4   1 151.458 67.2789   2
   2   4  -1 144.994 64.5674  20
  -2  -4   1 208.000 35.3019   1
  -2  -4   1 207.004 93.2658  19
  -2   4   1 217.320 55.3081  35
  -2   4   1 140.752 100.928  33
  -2  -4   1 249.972 78.0937  35
   2  -4  -1 239.143 83.0409   1
   2  -4  -1 289.285 118.663  36
   2  -4  -1 282.087 64.8225  19
   2   4  -1 171.578 61.6205   3
   2  -4  -1 208.157 92.8209  17
  -2   4   1 303.436 149.237  20
   2   4  -1 257.554 116.076  34
   2   4  -1 257.123 83.7100  18
  -1   4   1 163213. 2534.05  20
  -1  -4   1 176044. 2300.98  19
  -1   4   1 187075. 1862.45   2
   1  -4  -1 170391. 2285.08  17
   1   4  -1 182246. 1720.61   3
   1  -4  -1 184882. 1922.74   1
   1   4  -1 186536. 2206.85  20
  -1  -4   1 170044. 1701.79  35
   1   4  -1 171697. 1673.26  18
  -1   4   1 183223. 1169.30   3
   1   4  -1 160698. 2267.07  34
   0   4   1 4051.39 371.820  20
   0  -4   1 4399.65 361.917  19
   0   4   1 4431.24 308.005  34
   0  -4  -1 4566.69 284.960   1
   0  -4  -1 5094.07 313.728  19
   0   4  -1 3949.98 341.263  34
   0   4  -1 4668.29 277.277  33
   0   4  -1 4619.39 290.585   3
   0  -4   1 4438.16 292.888  17
   0  -4  -1 4865.70 456.244  17
   0   4  -1 4909.43 378.826  20
  -1  -4  -1 195496. 3299.53  17
   1   4   1 185156. 2298.66  20
  -1   4  -1 178921. 2403.20  20
   1   4   1 176220. 2202.49  34
   1   4   1 173305. 2470.51  18
  -1   4  -1 179126. 1989.77  33
   1  -4   1 187707. 2395.08  19
  -1   4  -1 184653. 2065.21   3
  -1  -4  -1 182101. 1689.83   1
  -1   4  -1 185722. 2316.27   2
  -2   4  -1 443.289 129.895  33
   2   4   1 366.236 129.824  34
  -2  -4  -1 375.794 74.4035   1
  -2   4  -1 397.340 126.053   3
   2  -4   1 414.094 141.274  19
  -2   4  -1 429.781 133.472   2
  -2  -4  -1 463.874 267.249  17
   2   4   1 411.801 107.929  20
   2   4   1 350.721 138.127  18
  -2   4  -1 366.883 132.670  20
   3   4   1 9848.85 660.622  34
   3  -4   1 7838.72 558.732  36
   3   4   1 8892.19 611.723  18
  -3   4  -1 9310.38 628.779  20
   3  -4   1 9934.13 615.440  19
  -3  -4  -1 9889.83 960.221  17
  -3   4  -1 9788.44 647.210  33
  -3   4  -1 9030.82 623.834   2
  -3  -4  -1 9751.43 523.399  35
   3   4   1 9225.87 491.891  20
  -3   4  -1 9452.92 610.184   3
  -4  -4  -1 6653.41 913.133  17
   4   4   1 6491.18 554.149  18
   4  -4   1 6581.32 504.233  18
   4   4   1 7278.96 462.949  20
   4   4   1 7195.52 482.778  36
  -4   4  -1 7362.51 596.372  35
  -4  -4  -1 6999.75 526.093  35
   4  -4   1 7080.97 565.011  19
   4   4   1 6793.80 616.241  34
  -4   4  -1 5934.81 540.275  20
  -4   4  -1 6465.57 590.112   2
   4  -4   1 6118.44 527.310  36
  -4   4  -1 6830.15 642.528  33
  -4   4  -1 6465.49 569.852   3
  -5   4  -1 1729.92 339.115  35
   5  -4   1 1910.75 298.218  18
   5   4   1 1815.15 268.365  36
  -5  -4  -1 1962.63 562.172  17
   5   4   1 2095.88 379.117  34
   5  -4   1 1784.88 310.025  36
  -5   4  -1 1934.14 363.985   2
   5   4   1 2166.00 345.802  18
  -5   4  -1 2657.04 459.422  33
  -5   4  -1 1740.08 332.775   3
  -6   4  -1 29393.3 921.702  39
   6  -4   1 29251.0 714.404  37
   6   4   1 27603.0 1308.98  18
   6   4   1 28443.9 732.215  23
  -6   4  -1 28290.3 1453.80   2
  -6   4  -1 28241.1 694.398   8
   6   4   1 32349.9 1602.91  34
  -6  -4  -1 27172.9 856.327  30
  -6   4  -1 27337.4 1422.94   3
  -6  -4  -1 29465.9 748.179  22
  -6  -4  -1 29621.3 727.463  31
  -6   4  -1 28435.7 816.430  32
   6  -4   1 25745.1 1251.25  36
   6  -4   1 28516.7 718.384  23
  -6   4  -1 29310.0 827.389  29
  -6   4  -1 29241.7 780.914  15
  -6  -4  -1 29111.5 808.213  13
   6   4   1 27299.9 653.413  42
  -6  -4  -1 27600.0 757.931  40
  -6   4  -1 30432.9 1734.61  33
   6  -4   1 29174.2 786.593  27
  -6  -4  -1 30836.5 2213.38  17
   7  -4   1 1585.40 181.374  23
  -7  -4  -1 1737.39 186.515  31
   7   4   1 1644.74 167.504  42
  -7  -4  -1 1662.70 194.805  22
  -7  -4  -1 1535.87 193.815   4
   7   4   1 1461.37 174.141  37
  -7   4  -1 1962.62 220.073  32
  -7   4  -1 1792.29 214.565  29
  -7   4  -1 1570.86 166.973   8
   7   4   1 1756.33 195.515  23
   7  -4   1 1625.89 197.588  27
  -7   4  -1 1486.22 189.187  15
  -7   4  -1 1711.54 236.574  39
  -7  -4  -1 1532.49 201.479  13
  -7  -4  -1 1389.22 217.275  30
   7  -4   1 1635.98 176.905  37
   8  -4   1 142.964 82.1690  27
  -8  -4  -1 110.761 65.7525  22
  -8   4  -1-11.9567 44.7815  32
  -8   4  -1 160.422 57.5786   8
   8   4   1 84.6028 47.7653  23
   8   4   1 121.921 61.0601  37
   8  -4   1 64.0400 37.0903  37
  -8  -4  -1 143.574 95.0917  30
  -8  -4  -1 16.3952 50.2011  31
   8   4   1 140.612 57.0193  42
  -8  -4  -1 220.111 82.3949   4
  -8   4  -1 31.1344 63.4201  15
  -8   4  -1 173.192 88.6678  39
  -8   4  -1 16.7793 48.8548  29
   8  -4   1 79.9113 47.9953  23
  -9  -4  -1 547.601 101.307   4
  -9   4  -1 513.173 113.780  39
  -9  -4  -1 549.932 95.0400  31
   9  -4   1 687.584 108.280  27
   9  -4   1 477.278 84.2620  37
   9   4   1 628.310 98.7621  37
   9  -4   1 547.960 93.5037  23
   9   4   1 593.164 102.016  23
  -9   4  -1 554.147 112.032  29
  -9  -4  -1 677.224 114.166  22
  -9   4  -1 440.350 92.5402  15
   9   4   1 533.489 83.2620  42
  10  -4   1 40.5968 30.3530  37
  10  -4   1 33.8837 28.5261  23
  10  -4   1 89.7549 41.8210  27
  10   4   1 68.8696 36.9775  37
 -10  -4  -1 132.514 47.8560   4
 -10  -4  -1 62.4696 38.2113  31
 -10   4  -1 51.6599 39.0101  29
 -10  -4  -1 70.8105 37.2548   8
 -10   4  -1 89.4097 36.4715  15
  10   4   1 75.3373 42.1916  23
  11  -5  -1 21.8564 21.8504  37
  11  -5  -1 36.4848 39.2181  10
 -10  -5   1 11.3664 36.2630  22
 -10   5   1 24.6373 62.1619  39
  10   5  -1 1.84677 35.3645  42
 -10  -5   1 0.17942 34.5038  31
  10  -5  -1-26.8968 36.9743  37
 -10  -5   1-42.6155 37.5030   4
  10  -5  -1-2.05001 49.0322  10
  10   5  -1 54.8564 37.6883  23
  10  -5  -1 37.8274 32.7004  23
 -10   5   1-6.63314 34.1137  15
  -9   5   1-19.2070 64.6214  29
   9  -5  -1 45.0977 46.1011  37
  -9   5   1-15.8613 43.0122  15
  -9   5   1 57.7089 65.7444  32
   9   5  -1 70.8783 35.8285  21
   9   5  -1 28.7997 44.8088  23
  -9  -5   1 14.9519 41.8718   4
   9   5  -1 50.9919 39.3287  42
  -9  -5   1 72.8947 55.4845  31
   9   5  -1-4.87758 38.7622  37
   9  -5  -1 43.0119 46.4091  27
   9   5  -1 90.1164 52.4021  24
  -9   5   1-16.4141 92.2884  39
  -9  -5   1-11.0583 48.8623  22
   9  -5  -1 46.9728 50.5369  23
   9  -5  -1-33.6552 37.8206  26
  -9  -5   1 1.75755 42.4757  15
   8  -5  -1 6987.33 379.762  23
  -8   5   1 7327.93 398.555  29
   8  -5  -1 7068.72 379.961  27
  -8  -5   1 7331.10 409.423  13
  -8   5   1 7252.28 493.587  39
   8   5  -1 7371.16 363.931  12
   8   5  -1 6668.53 355.877  23
  -8  -5   1 7193.99 375.591  31
  -8   5   1 6899.91 438.549  32
  -8  -5   1 7014.50 384.131  22
   8  -5  -1 7290.00 377.793  37
   8   5  -1 6732.32 341.296  37
   8   5  -1 7033.09 348.872  42
   8  -5  -1 6275.78 360.412   7
  -8   5   1 7479.44 382.580  15
  -8  -5   1 6446.94 359.923  15
   8   5  -1 7503.52 323.797  21
  -7  -5   1 5467.54 357.168  13
   7  -5  -1 5103.62 331.702   7
  -7   5   1 5232.16 744.846  33
  -7  -5   1 5648.81 334.179  31
  -7  -5   1 5060.86 1025.38  17
   7   5  -1 5199.19 302.504  42
   7   5  -1 5009.06 308.409  23
  -7   5   1 5767.81 707.306   2
  -7   5   1 5869.49 340.684  15
   7  -5  -1 5510.72 333.873  37
   7  -5  -1 5788.11 349.445  23
  -7  -5   1 5520.06 343.339  22
   7  -5  -1 5863.33 571.388   1
  -7   5   1 4616.74 400.511  39
   7   5  -1 5190.45 278.058  21
   7  -5  -1 5825.36 665.482  36
  -7   5   1 4853.93 687.061  20
   7   5  -1 5739.15 594.597  36
   7  -5  -1 5845.67 352.431  27
   7   5  -1 7256.47 829.423  34
   7   5  -1 5279.47 302.383  37
   7   5  -1 5945.09 344.594  12
  -6   5   1-124.045 131.891  33
   6   5  -1 16.4353 38.4953  23
   6  -5  -1 87.7947 69.0784  23
   6   5  -1 168.142 143.255  34
  -6  -5   1-115.840 63.5923  13
   6  -5  -1 53.3196 55.0282  37
   6   5  -1-3.92797 26.8390  42
   6   5  -1-276.440 122.868  36
   6   5  -1 156.214 74.4143  12
  -6  -5   1-288.599 155.108   2
   6  -5  -1 169.856 128.354  36
   6   5  -1 86.1483 50.7399  21
  -6  -5   1 61.5470 45.1427  31
   6  -5  -1 66.4553 77.2325   7
   6  -5  -1 63.0959 50.8531  27
  -6   5   1 78.6294 102.804   2
  -6  -5   1 138.844 54.7576  22
   6  -5  -1 39.0990 42.2075  42
  -6   5   1 42.8790 105.332  20
   6  -5  -1-1.51873 48.1667   1
  -6   5   1 114.518 125.765  39
  -6   5   1-5.89921 38.1158  15
   5  -5  -1 7637.94 676.917  36
  -5   5   1 8136.07 709.404   2
   5   5  -1 8078.53 562.733  18
  -5  -5   1 7861.59 657.244   2
  -5   5   1 7195.17 758.613  20
   5  -5  -1 8281.72 616.443   1
   5   5  -1 8978.50 808.211  34
   5   5  -1 8319.00 614.853  36
  -5   5   1 8384.70 771.977  33
  -4   5   1 410.434 161.603  33
   4   5  -1 385.091 150.740  34
  -4  -5   1 331.482 142.157  19
   4   5  -1 376.315 124.053  18
   4   5  -1 321.807 101.371  20
  -4   5   1 251.871 125.296   2
   4  -5  -1 407.651 132.484   1
   4  -5  -1 407.735 151.217  36
  -4   5   1 415.050 172.716  20
   3   5  -1 54422.6 1381.82  20
   3   5  -1 57315.4 1726.74  34
  -3   5   1 58191.0 1508.66   2
  -3  -5   1 58232.3 1568.18  19
  -3   5   1 52314.0 1791.29  20
   3   5  -1 60002.8 1260.56  18
   3  -5  -1 56129.6 1373.07   1
  -3   5   1 57561.9 1650.18  33
   3  -5  -1 52466.4 1537.12  36
   2  -5  -1 800.235 179.342  17
   2   5  -1 745.144 195.899  34
  -2   5   1 474.963 168.912  20
  -2   5   1 739.749 159.938   2
   2  -5  -1 790.763 161.026   1
   2   5  -1 605.072 154.838  20
  -2   5   1 568.813 151.927  33
  -2  -5   1 727.947 175.415  19
   2   5  -1 762.677 144.284  18
   2   5  -1 676.508 116.037   3
  -2   5   1 552.890 96.0761   3
   1   5  -1 2603.04 222.800   3
   1  -5  -1 2440.77 248.323   1
   1  -5  -1 2237.94 298.787  17
   1   5  -1 2739.86 230.086  33
  -1  -5   1 2880.16 219.348   1
   1   5  -1 2498.14 298.834  20
  -1   5   1 2325.22 355.261  20
  -1   5   1 2094.01 217.353  34
   1   5  -1 2373.59 236.411  18
  -1  -5   1 2333.84 342.630  17
  -1  -5   1 2398.99 305.972  19
   1  -5  -1 2681.59 239.953  19
  -1   5   1 2284.40 294.592  33
   1   5  -1 1902.20 287.144  34
   0   5   1 375.918 138.274  20
   0  -5  -1 405.706 100.082   1
   0   5  -1 376.257 134.776  20
   0   5  -1 362.365 97.0551   3
   0  -5  -1 702.519 137.570  19
   0  -5   1 372.850 123.710  19
   0  -5  -1 337.243 169.487  17
   0   5   1 368.111 120.684  34
   0   5  -1 500.556 105.947  33
  -1  -5  -1 26826.4 727.788   1
   1   5   1 25674.9 978.255  20
   1   5   1 24162.9 1031.37  18
  -1   5  -1 26530.0 853.422  33
  -1   5  -1 25867.4 1024.47  20
   1   5   1 26936.5 958.914  34
  -1   5  -1 27364.1 849.644   3
  -1  -5  -1 27659.8 1336.40  17
   1  -5   1 26473.8 982.781  19
  -2   5  -1 592.031 160.065   2
   2   5   1 798.935 169.252  20
   2   5   1 761.283 184.445  34
  -2   5  -1 975.322 192.415  33
   2  -5   1 666.437 175.716  19
  -2   5  -1 781.008 171.810   3
   2   5   1 781.152 200.593  18
  -2  -5  -1 1089.81 328.347  17
  -2   5  -1 642.538 186.249  20
   3  -5   1 63344.3 1621.65  19
  -3   5  -1 57457.0 1713.43  20
  -3   5  -1 64809.0 1758.31  33
   3   5   1 63114.4 1826.99  34
  -3   5  -1 59029.2 1722.19   2
  -3  -5  -1 63955.6 2544.24  17
   3   5   1 56735.9 1662.63  18
  -3   5  -1 60784.8 1611.60   3
   3   5   1 61588.4 1433.24  20
  -4   5  -1 1318.80 310.083  20
   4   5   1 1434.48 327.628  34
   4   5   1 1287.78 221.351  36
  -4   5  -1 1052.83 232.532   3
   4   5   1 1404.78 276.551  18
  -4  -5  -1 1102.14 446.301  17
  -4   5  -1 1368.66 302.433   2
  -4   5  -1 1507.34 307.620  33
   4   5   1 1577.73 235.990  20
  -5  -5  -1 116.142 55.9947  28
   5  -5   1-3.47386 36.7053  23
  -5  -5  -1 1551.85 441.014  17
   5  -5   1 66.3453 71.2395  27
  -5   5  -1 1326.03 198.106  39
  -5   5  -1 10.9815 66.0642  38
  -5   5  -1 350.310 160.882   3
  -5   5  -1-116.666 53.2222   8
  -5  -5  -1-22.2909 51.3810  40
  -5  -5  -1 18.1888 53.3784  22
   5   5   1-0.86029 98.5149  18
   5   5   1 4.88300 31.9394  42
   5  -5   1 31.2679 34.4735  43
  -5  -5  -1 42.1111 62.4955  31
  -5   5  -1-508.869 220.585  33
  -5  -5  -1 48.8080 53.9901  30
  -5  -5  -1 27.0015 36.6495  13
   5   5   1-203.095 149.605  34
  -5   5  -1 257.983 86.2116  32
  -5   5  -1 66.6465 52.3335  15
  -5   5  -1 322.648 167.326   2
   5  -5   1-134.577 55.9712  37
  -6  -5  -1 5981.91 1053.09  17
  -6   5  -1 5424.65 342.122  15
  -6   5  -1 5366.39 365.999  32
  -6  -5  -1 5249.36 341.312  40
  -6   5  -1 5620.37 409.933  39
  -6   5  -1 6524.59 835.835  33
   6   5   1 5344.09 297.486  42
  -6   5  -1 5247.87 349.081  38
  -6   5  -1 5121.23 622.994   3
   6  -5   1 5755.53 317.482  37
  -6  -5  -1 5384.25 360.076  13
   6   5   1 6876.16 783.753  34
  -6   5  -1 5462.88 343.212  29
   6  -5   1 6001.29 596.119   1
  -6  -5  -1 5930.67 346.642  22
  -6  -5  -1 5185.34 376.716  30
   6   5   1 5216.05 578.154  18
  -6  -5  -1 5647.83 305.109  28
  -6  -5  -1 5585.69 323.996  31
  -6   5  -1 5843.14 688.991   2
  -6   5  -1 5421.12 306.993   8
   6   5   1 5025.51 317.011  23
   6  -5   1 5498.84 351.362  27
   6  -5   1 5516.77 323.039  23
   6  -5   1 5616.87 311.744  43
   6  -5   1 5089.03 373.673  11
  -7   5  -1 731.466 127.953  38
  -7  -5  -1 483.887 124.005  30
   7   5   1 651.540 111.512  42
  -7  -5  -1 795.868 145.605  13
  -7   5  -1 784.737 167.901  39
   7  -5   1 495.594 102.234  37
   7  -5   1 583.877 122.832  11
  -7   5  -1 818.278 127.707   8
   7   5   1 547.076 103.417  37
  -7  -5  -1 577.642 112.365  31
  -7  -5  -1 707.301 130.785  40
   7   5   1 588.375 112.948  23
   7  -5   1 623.557 113.634  23
  -7   5  -1 755.371 136.315  29
  -7   5  -1 706.538 144.699  32
   7  -5   1 671.375 132.170  27
  -7  -5  -1 733.145 134.526  22
  -7   5  -1 595.987 116.768  15
  -8   5  -1 5473.19 321.316  29
   8   5   1 5456.75 317.135  23
  -8  -5  -1 5916.04 333.784  22
   8  -5   1 5054.42 339.392  11
   8   5   1 5717.61 289.483  42
  -8  -5  -1 5845.23 341.523   4
   8  -5   1 5871.77 299.922  37
  -8  -5  -1 5020.21 352.915  30
   8  -5   1 5872.28 342.953  27
   8   5   1 5740.59 316.000  37
  -8   5  -1 6059.49 336.833  32
  -8  -5  -1 5707.06 317.308  31
  -8   5  -1 5618.78 329.140  15
  -8   5  -1 6271.81 394.118  39
   8  -5   1 5793.98 307.536  23
  -9   5  -1 711.971 102.124  29
   9  -5   1 639.130 88.6893  23
   9  -5   1 562.051 81.2243  37
   9   5   1 581.567 82.0906  42
  -9  -5  -1 643.335 100.646   4
   9  -5   1 603.929 103.622  10
  -9  -5  -1 605.456 97.7821  31
   9   5   1 553.998 91.9516  23
   9  -5   1 500.249 87.4288  27
  -9   5  -1 713.637 116.987  39
   9   5   1 569.063 91.8394  37
  -9   5  -1 542.532 98.5740  15
  10   5   1-9.05625 21.0596  37
  10   5   1 45.4768 26.1073  23
 -10   5  -1 2.41000 28.4911  15
 -10  -5  -1-26.0641 30.8364  31
  10  -5   1-14.8731 26.5773  27
 -10  -5  -1 20.2026 34.6377   8
  10  -6  -1 873.179 93.6161  37
 -10  -6   1 939.846 93.7458   4
 -10  -6   1 842.784 97.4587  31
  10  -6  -1 892.671 124.320  10
 -10  -6   1 980.534 108.490  22
  10   6  -1 814.169 91.1735  23
 -10   6   1 677.116 74.8417  15
  10   6  -1 814.826 86.0227  42
 -10   6   1 1044.53 126.954  39
   9   6  -1 1543.57 151.296  23
  -9   6   1 1912.45 220.485  39
   9   6  -1 1566.84 140.786  12
   9   6  -1 1743.14 154.195  42
  -9  -6   1 1734.58 173.334  22
  -9   6   1 1604.77 148.512  15
   9  -6  -1 1694.22 158.386  37
  -9  -6   1 1918.02 171.790  31
   9   6  -1 1672.60 129.519  21
   9  -6  -1 1777.43 203.564  10
   9  -6  -1 1717.00 160.869  27
   9  -6  -1 1757.87 171.631  23
  -9  -6   1 1706.86 164.650   4
  -9   6   1 1714.93 189.841  32
  -8  -6   1 3568.39 250.382  15
   8   6  -1 3517.08 220.979  21
  -8   6   1 3687.97 308.091  38
  -8  -6   1 4098.32 300.138  13
  -8  -6   1 4121.07 288.722  22
   8  -6  -1 3785.98 263.511  37
  -8   6   1 4156.25 265.490  15
  -8   6   1 3604.45 311.494  32
  -8  -6   1 4000.40 270.181  31
   8   6  -1 4295.30 279.213  12
  -8   6   1 4209.81 358.364  39
   8  -6  -1 3846.41 276.980  27
   8  -6  -1 3993.61 278.162  23
   8   6  -1 3771.49 241.527  37
   8   6  -1 3801.29 260.292  23
   8   6  -1 3813.81 252.974  42
   7  -6  -1-15.9634 56.8149   7
  -7   6   1 55.9646 97.1139  39
  -7  -6   1-78.6540 60.2812  22
   7   6  -1 39.7149 51.1566  12
  -7   6   1-27.4253 80.1772  32
   7   6  -1-2.01820 37.5672  42
   7   6  -1 81.4391 46.7243  37
   7   6  -1-20.8704 41.4042  23
  -7  -6   1 58.1921 50.0080  31
   7  -6  -1-4.22182 47.5239  27
   7  -6  -1 77.7829 72.4468  23
   7  -6  -1 73.1832 69.3122  37
  -7   6   1 89.0299 55.4910  15
  -7  -6   1-123.966 70.7254  13
   7   6  -1-49.4207 40.6149  21
   6   6  -1 36635.0 1849.68  34
  -6  -6   1 33895.9 842.422  22
  -6  -6   1 32755.2 764.467  31
  -6  -6   1 34581.1 2416.21  17
   6   6  -1 31941.1 699.719  21
   6  -6  -1 28190.1 749.183   7
   6   6  -1 31256.5 728.509  42
   6  -6  -1 32934.6 818.845  23
  -6   6   1 28919.7 1713.09  20
   6  -6  -1 32965.0 796.855  37
   6   6  -1 35748.2 869.796  12
  -6   6   1 27742.6 922.188  39
   6   6  -1 32715.1 1376.38  36
  -6   6   1 35847.5 1824.43  33
   6  -6  -1 33946.7 1401.61   1
  -6  -6   1 32574.0 863.217  13
   6  -6  -1 31101.9 1547.94  36
   6  -6  -1 34023.5 836.196  27
  -6   6   1 33704.1 1601.79   2
  -5   6   1-236.790 140.422   2
   5  -6  -1 88.4464 55.6622  37
   5  -6  -1-160.797 131.068  36
   5   6  -1-147.600 53.6566  21
  -5  -6   1-8.62121 45.9641  11
  -5   6   1-1.32351 109.358  20
   5   6  -1-140.514 144.037  34
   5  -6  -1-57.6371 67.7800   1
  -5  -6   1-6.13991 56.0367  31
  -5  -6   1 342.135 160.059   2
  -5  -6   1 364.595 315.626  17
   5   6  -1 217.444 63.9194   9
   5  -6  -1 112.663 60.3384  23
  -5   6   1 68.8053 73.3102  39
  -5   6   1 232.187 143.849  33
  -5  -6   1-59.6071 34.0581  28
   5  -6  -1 64.6845 56.8544  27
   5   6  -1 38.9702 40.8487  42
   5   6  -1-129.565 91.9169  36
  -5  -6   1 60.4181 68.2302  22
   5  -6  -1 91.0092 62.4596   7
  -4  -6   1 9667.80 729.024  19
   4   6  -1 9500.97 837.291  34
  -4   6   1 9233.26 780.959  33
  -4  -6   1 9216.75 1080.72  17
   4   6  -1 8098.46 606.317  20
  -4   6   1 8857.37 702.108   2
   4  -6  -1 8865.30 641.590   1
  -4   6   1 8171.85 830.907  20
  -3  -6   1 25433.8 1128.18  19
  -3   6   1 24791.7 1183.15  33
  -3  -6   1 25940.7 1602.14  17
   3   6  -1 24317.9 1235.47  34
   3  -6  -1 24524.2 994.720   1
  -3   6   1 23035.9 1313.15  20
  -3   6   1 26109.2 1086.84   2
   3   6  -1 24313.6 1017.75  20
  -2   6   1 864.012 204.028  33
   2  -6  -1 745.660 158.156   1
  -2   6   1 923.735 183.724   2
  -2   6   1 1233.86 310.382  20
  -2  -6   1 1079.98 236.813  19
  -2  -6   1 1047.66 298.388  17
   2   6  -1 934.034 219.897  34
   2   6  -1 970.696 203.858  20
   1   6  -1 61417.7 1724.67  34
   1  -6  -1 66042.7 1417.46   1
  -1  -6   1 66828.8 1707.19  19
   1   6  -1 67814.5 1695.99  20
   1  -6  -1 73366.3 1343.52  19
   1   6  -1 71467.9 1229.05   3
  -1   6   1 71786.4 1780.29  33
  -1   6   1 62692.6 1920.51  20
   1  -6  -1 67194.7 1701.14  17
  -1  -6   1 71714.3 1213.97   1
   0   6  -1 1771.55 217.707  33
   0   6  -1 2074.81 225.452   3
   0  -6   1 1806.06 278.624  19
   0   6   1 1468.71 227.124  34
   0   6   1 1541.92 282.963  20
   0  -6  -1 1643.97 215.305   1
   0  -6  -1 1363.57 289.649  17
   0  -6   1 1826.54 222.674   1
   0   6  -1 1918.29 299.501  20
  -1  -6  -1 62205.2 2116.74  17
   1   6   1 61504.0 1641.43  34
   1   6   1 54457.6 1573.56  20
  -1   6  -1 56008.8 1663.33  20
  -1  -6  -1 57801.9 1172.94   1
  -1   6  -1 57409.1 1381.59  33
   1  -6   1 57177.2 1546.40  19
   1   6   1 54753.6 1690.77  18
  -1   6  -1 55509.0 1288.38   3
  -2   6  -1 7895.75 543.053   3
  -2   6  -1 7802.98 586.260  33
   2   6   1 8051.15 583.134  20
   2   6   1 8499.27 667.020  34
  -2   6  -1 7996.52 654.065  20
   2  -6   1 8332.22 598.840  19
   2   6   1 7341.50 630.209  18
  -2  -6  -1 8767.18 896.509  17
  -3   6  -1 2750.34 400.794   2
  -3   6  -1 2604.91 401.600  20
   3   6   1 2804.82 339.743  20
  -3   6  -1 2827.40 363.519   3
  -3   6  -1 3599.43 442.759  33
   3   6   1 2999.28 418.867  18
   3   6   1 3253.85 465.359  34
  -3  -6  -1 3051.07 605.089  17
  -4  -6  -1 39555.7 875.226  40
   4   6   1 36697.9 1264.74  20
   4   6   1 35280.9 1439.21  18
  -4   6  -1 39189.5 976.564  39
  -4   6  -1 33326.1 1363.53   3
  -4  -6  -1 41819.7 911.276  11
  -4   6  -1 37710.3 920.843  38
   4   6   1 38999.3 1321.15  36
   4  -6   1 37886.3 849.350  27
  -4   6  -1 35197.2 1532.15   2
  -4  -6  -1 39185.7 784.916  28
   4  -6   1 38959.2 819.277  43
   4   6   1 38904.4 1695.23  34
   4  -6   1 35958.9 940.243  11
  -4   6  -1 40016.1 1664.14  33
   4   6   1 37348.8 716.840  21
  -4   6  -1 40515.7 951.351  32
  -4  -6  -1 38486.5 2262.67  17
  -4   6  -1 37006.1 811.906  15
   4  -6   1 39806.2 989.769  10
  -4  -6  -1 36273.4 763.064  22
   5   6   1 2364.85 459.781  34
  -5  -6  -1 1961.12 213.354  13
   5  -6   1 1739.18 223.752  11
   5   6   1 1786.04 159.040  21
   5  -6   1 2026.03 182.804  37
  -5   6  -1 2239.21 239.774  32
   5  -6   1 1731.57 181.565  43
  -5  -6  -1 1764.77 214.803  30
  -5  -6  -1 1881.32 203.550  40
  -5   6  -1 1904.33 193.817  15
  -5   6  -1 1522.13 361.455  33
  -5  -6  -1 2023.60 554.344  17
  -5   6  -1 2132.50 247.971  39
   5   6   1 1428.67 306.069  18
  -5  -6  -1 1924.30 184.535  31
   5  -6   1 1745.37 178.696  23
   5  -6   1 1980.64 236.864  10
  -5   6  -1 1783.49 212.212  38
  -5  -6  -1 1738.43 181.629  22
  -5   6  -1 1655.91 320.280   3
   5  -6   1 2459.64 384.384   1
  -5  -6  -1 1990.48 184.417  28
  -5   6  -1 2577.95 447.508   2
   5  -6   1 1717.88 195.642  27
   5   6   1 1762.44 172.740  42
  -6  -6  -1 25294.3 819.161  30
  -6   6  -1 27594.8 876.609  39
  -6   6  -1 27655.0 797.788  38
   6  -6   1 26291.2 677.266  43
   6   6   1 26013.7 722.355  23
  -6   6  -1 28632.6 839.061  32
   6  -6   1 25229.6 828.230  11
  -6   6  -1 26346.3 738.365  15
   6  -6   1 26969.0 671.882  37
  -6  -6  -1 26816.2 694.698  31
   6  -6   1 28064.5 871.644  10
   6  -6   1 27146.8 705.928  23
  -6  -6  -1 27635.4 679.905  28
   6   6   1 25895.6 667.461  42
  -6  -6  -1 26406.9 763.336  40
   6  -6   1 25100.1 753.034  27
  -6  -6  -1 26718.6 723.061  22
  -6  -6  -1 26636.8 804.105  13
  -7  -6  -1 806.076 145.556  30
   7  -6   1 725.639 143.319  11
  -7   6  -1 1035.21 175.620  39
  -7   6  -1 1062.60 147.603  38
   7  -6   1 1272.37 150.886  23
   7   6   1 896.784 130.681  37
   7  -6   1 1372.29 149.330  37
   7   6   1 1256.88 143.784  42
   7  -6   1 1226.82 183.620  10
  -7  -6  -1 1101.93 146.417  31
   7  -6   1 1193.74 164.078  27
  -7   6  -1 1274.55 175.443  32
  -7   6  -1 1099.75 155.662  15
   7   6   1 1057.60 146.323  23
  -7  -6  -1 1236.61 163.035  40
  -7  -6  -1 1117.33 150.110  22
  -7  -6  -1 1051.17 163.525  13
   8   6   1 90.4966 43.8028  42
   8  -6   1 134.688 55.4523  23
   8   6   1 107.003 50.8885  12
   8  -6   1 96.1864 56.1315  27
   8   6   1 135.282 53.4760  37
  -8  -6  -1 114.794 56.1779  22
  -8  -6  -1 115.483 55.0504  31
  -8   6  -1 104.216 57.1950  32
   8  -6   1 39.5631 65.5659  10
   8   6   1 113.791 55.7267  23
  -8  -6  -1 155.076 67.9929   4
  -8   6  -1 94.9979 65.7839  15
   8  -6   1 194.669 57.0053  37
  -8   6  -1 44.2374 60.4650  39
   9   6   1 6628.57 273.812  23
   9   6   1 6458.95 230.987  42
   9   6   1 6459.21 259.205  37
   9  -6   1 5969.57 269.446  10
  -9   6  -1 6538.04 266.051  15
  -9   6  -1 6585.14 302.117  39
  -9  -6  -1 6791.69 284.898   4
   9  -6   1 6710.00 277.522  27
  -9  -6  -1 6707.97 266.495  31
  -9  -6  -1 7040.89 276.445  22
  10  -7  -1 106.346 52.0433  10
 -10   7   1 89.3961 31.7959  32
  10   7  -1 62.4759 21.7358  42
 -10  -7   1 77.8401 36.0800  22
 -10   7   1 80.2602 30.0440  39
 -10  -7   1 65.3775 28.5216  31
   9   7  -1 1409.35 127.905  42
  -9   7   1 1504.58 164.572  32
  -9   7   1 1492.01 165.856  39
  -9  -7   1 1266.61 129.518   4
   9  -7  -1 1218.83 121.902  37
   9   7  -1 1282.23 118.324  12
  -9  -7   1 1449.31 135.121  31
   9  -7  -1 1513.23 175.698  10
   9   7  -1 1223.41 99.4562  21
   9  -7  -1 1306.28 128.704  27
  -9  -7   1 1374.16 139.656  22
   9   7  -1 1301.79 125.032  23
  -8  -7   1 4077.36 272.807  22
   8   7  -1 3976.39 249.768  23
   8  -7  -1 4048.74 253.901  37
   8   7  -1 3960.51 256.585  12
   8   7  -1 4071.32 247.846  42
   8   7  -1 4128.51 228.566  21
   8  -7  -1 4356.07 332.382  10
  -8   7   1 4636.87 326.838  32
  -8  -7   1 4474.93 266.811  31
   8  -7  -1 4041.72 261.959  23
  -8   7   1 4406.86 329.344  39
  -8  -7   1 4380.83 289.047  13
   8  -7  -1 4289.73 270.475  27
  -8   7   1 4076.51 230.225  15
  -8   7   1 4562.55 315.562  38
   7   7  -1 316.947 71.7463  21
  -7   7   1 436.164 122.459  32
   7  -7  -1 329.079 96.3876  23
  -7   7   1 234.194 109.031  39
   7   7  -1 413.481 86.4633  42
   7  -7  -1 295.910 84.0272  37
   7  -7  -1 139.345 71.1622  27
  -7  -7   1 343.189 90.2820  31
   7   7  -1 368.830 91.9404  12
  -7  -7   1 239.583 92.5878  22
   7  -7  -1 296.287 107.042  10
  -7   7   1 286.339 116.118  38
   7   7  -1 370.009 85.5011  37
  -7  -7   1 508.320 125.352  13
   7   7  -1 438.644 95.5799  23
  -6  -7   1 3135.91 264.015  22
  -6  -7   1 3359.27 285.648  13
   6   7  -1 3310.21 230.352  21
  -6   7   1 3013.48 304.696  39
  -6  -7   1 3265.77 242.687  31
   6   7  -1 3691.61 287.368  12
  -6   7   1 3414.56 305.617  32
   6  -7  -1 3339.53 255.086  37
   6  -7  -1 3264.72 323.736  10
   6  -7  -1 3249.26 260.794  23
  -6  -7   1 3693.40 240.470  28
   6  -7  -1 3393.92 269.469  27
   6   7  -1 3008.86 231.228  42
   5   7  -1 1279.66 147.904  42
   5   7  -1 1293.57 174.348  12
  -5   7   1 1234.82 190.167  32
  -5  -7   1 1177.56 164.967  22
   5   7  -1 1215.34 139.577  21
   5  -7  -1 1109.32 253.013   1
   5  -7  -1 1113.54 153.756  23
  -5   7   1 1705.89 417.234  20
  -5  -7   1 1296.98 174.526  11
  -5  -7   1 970.789 129.179  28
   5   7  -1 1382.34 300.939  36
   5  -7  -1 1291.88 143.497  43
  -5   7   1 1570.77 368.992  33
  -5   7   1 1086.29 179.022  39
  -5  -7   1 1659.16 185.336  40
   5  -7  -1 1145.09 194.175  10
   5   7  -1 858.476 270.787  34
  -5   7   1 1470.68 319.293   2
   5  -7  -1 1123.48 148.635  37
  -5  -7   1 1233.88 147.351  31
   5  -7  -1 1202.61 158.354  27
  -5  -7   1 1053.74 452.958  17
  -4   7   1 4007.82 640.647  20
   4  -7  -1 4782.19 288.494  37
  -4  -7   1 4525.63 299.370  22
  -4  -7   1 5594.98 857.083  17
  -4   7   1 3905.47 479.116   2
   4  -7  -1 4817.81 367.393  10
   4   7  -1 4569.83 253.350  16
  -4  -7   1 4351.92 253.400  31
   4   7  -1 4231.88 481.870  20
  -4   7   1 4579.50 330.247  32
  -4  -7   1 4880.16 324.192  11
   4  -7  -1 4559.78 270.526  43
   4  -7  -1 4371.27 474.632   1
  -4  -7   1 4696.54 279.673  28
  -4   7   1 5143.47 627.653  33
   4  -7  -1 4051.55 259.610   7
   4  -7  -1 4750.93 300.801  27
   4   7  -1 4847.59 272.590  21
   4   7  -1 3962.80 574.519  34
   4   7  -1 4550.41 269.737  42
   3   7  -1 8749.68 803.702  34
  -3   7   1 10482.5 827.640  33
  -3  -7   1 9118.04 962.772  17
  -3   7   1 6984.71 781.533  20
  -3  -7   1 8776.54 713.329  19
   3   7  -1 7993.60 639.712  20
   3  -7  -1 8140.34 613.620   1
   2   7  -1 28825.2 1371.08  34
   2   7  -1 27841.8 1181.51  20
  -2   7   1 26381.4 1422.15  20
  -2  -7   1 27615.1 1217.23  19
  -2   7   1 31338.7 1335.05  33
   2  -7  -1 27981.3 1072.29   1
   1   7  -1 198.119 110.283  20
  -1   7   1 388.397 184.760  20
   1   7  -1 571.258 191.458  34
  -1  -7   1 266.005 133.185  19
   1  -7  -1 274.219 101.752   1
  -1   7   1 216.298 149.947  33
   0  -7  -1 29475.2 972.326   1
   0  -7   1 30899.0 1230.15  19
   0   7   1 32036.9 1288.45  33
   0   7  -1 30307.3 1266.12  20
   0   7   1 29209.9 1318.48  20
   0  -7   1 31367.0 987.607   1
  -1   7  -1 10600.4 787.634  20
   1   7   1 10283.1 746.926  20
  -1  -7  -1 11756.9 974.557  17
   1   7   1 11171.7 767.553  34
   1  -7   1 10794.2 637.124   1
   1   7   1 10303.9 806.325  18
   1  -7   1 11358.5 735.587  19
  -2  -7  -1 12442.8 1121.47  17
   2   7   1 11405.0 834.860  18
   2   7   1 10327.0 729.138  20
   2   7   1 11192.5 842.159  34
  -2   7  -1 10657.1 818.221  20
   2  -7   1 10480.7 680.843   1
  -3  -7  -1 6064.53 346.314  30
   3   7   1 5672.41 611.012  18
   3  -7   1 5999.50 554.561   1
  -3  -7  -1 6632.70 364.585  11
  -3   7  -1 4803.32 573.318  20
   3  -7   1 5796.55 315.799  28
   3   7   1 5740.79 534.520  20
   3   7   1 6649.28 706.282  34
  -3   7  -1 6126.61 374.705  38
   3  -7   1 6131.73 394.063  11
  -3   7  -1 6197.43 363.989  39
   3  -7   1 5937.16 392.516  10
  -3  -7  -1 6010.54 853.828  17
  -3   7  -1 6803.28 385.582  32
  -3  -7  -1 6079.86 316.273  28
  -3  -7  -1 6544.39 313.960  43
   3  -7   1 6298.94 343.038  27
  -3   7  -1 5948.27 315.550  15
   3  -7   1 6326.10 333.635  43
  -4   7  -1 110.774 79.2639  32
  -4   7  -1 172.864 99.8230  39
  -4  -7  -1 26.1649 50.8958  30
  -4  -7  -1 40.8784 63.9826  40
  -4  -7  -1 105.069 54.0217  43
  -4  -7  -1 39.1266 57.5164  11
   4   7   1-134.621 137.601  34
  -4   7  -1 69.8269 65.5686  15
   4  -7   1 62.0729 62.5435  27
  -4   7  -1 150.423 104.557  38
  -4  -7  -1 176.034 69.0814  28
   4  -7   1 110.730 96.5230  11
   4  -7   1 34.5748 70.9996   1
   4  -7   1 56.3972 44.1316  43
   4  -7   1-3.14503 68.0105  10
  -4  -7  -1 225.774 242.134  17
   4   7   1 155.023 129.233  18
  -4  -7  -1 40.2617 48.7603  22
   4   7   1 104.762 46.6269  21
  -4   7  -1 365.086 149.378   3
  -5   7  -1 197.504 98.4152  39
  -5  -7  -1-128.246 69.3666  40
   5  -7   1 119.609 54.6125  43
  -5   7  -1 117.204 78.5045  38
   5  -7   1 203.318 73.5636  23
   5  -7   1 206.304 120.910  10
  -5  -7  -1 51.8496 56.4142  28
   5   7   1 68.2307 41.1526  21
   5   7   1 16.2140 37.6018  42
   5  -7   1-28.4415 57.6344  11
  -5   7  -1 71.9111 79.2124  32
  -5  -7  -1 37.1513 38.9032  31
  -5  -7  -1 32.6448 48.8150  30
  -5  -7  -1 111.174 71.2350  22
   5  -7   1 72.5807 56.5989  27
  -5   7  -1 31.5611 58.1880  15
  -5  -7  -1 116.915 56.9244  13
   6   7   1 6660.73 334.769  42
  -6  -7  -1 7291.39 350.683  28
  -6   7  -1 7121.13 402.678  38
  -6   7  -1 7081.16 424.309  39
   6  -7   1 7125.78 432.988  10
   6  -7   1 6573.99 415.635  11
  -6  -7  -1 6373.73 387.823  30
   6  -7   1 7105.98 345.426  43
  -6   7  -1 7353.66 417.371  32
  -6  -7  -1 6355.73 326.498  31
  -6  -7  -1 6834.42 382.638  40
   6  -7   1 6911.06 383.434  27
  -6   7  -1 6756.96 360.523  15
  -6  -7  -1 6667.04 351.796  22
   6   7   1 7146.77 307.132  21
   6   7   1 6329.14 354.678  23
   6  -7   1 6703.56 318.879  37
   6  -7   1 6747.28 344.621  23
  -6  -7  -1 6415.69 394.171  13
  -7  -7  -1 560.577 104.738  40
  -7  -7  -1 624.729 111.874  22
   7   7   1 771.207 122.364  12
  -7   7  -1 602.687 104.848  38
   7  -7   1 483.050 108.418  27
   7   7   1 542.599 105.145  23
   7  -7   1 690.594 130.628  11
  -7   7  -1 563.508 114.906  32
  -7  -7  -1 451.929 88.9587  31
   7  -7   1 517.951 113.428  10
  -7  -7  -1 383.238 103.077  30
  -7  -7  -1 510.533 103.117  13
   7  -7   1 566.760 88.4932  37
  -7   7  -1 749.467 144.813  39
  -7   7  -1 624.186 107.197  15
   7   7   1 489.848 97.1676  37
   7   7   1 479.564 80.1418  42
   8   7   1 294.434 59.4720  42
  -8  -7  -1 243.473 66.4708  22
   8   7   1 199.677 56.3445  37
   8   7   1 274.350 63.8483  12
  -8   7  -1 210.842 62.6588  32
  -8   7  -1 228.198 76.6880  39
   8   7   1 158.619 57.1715  23
   8  -7   1 172.720 69.1283  10
  -8  -7  -1 222.235 58.6151  31
   8  -7   1 273.199 72.9764  27
  -8  -7  -1 305.769 75.4614   4
  -8   7  -1 232.067 60.6864  15
   9   7   1 322.607 55.0916  37
   9   7   1 419.362 66.0966  23
   9  -7   1 360.582 58.9834  27
  -9  -7  -1 354.370 61.3801   4
  -9   7  -1 479.113 71.8138  39
  -9  -7  -1 309.487 52.5945  31
   9   7   1 475.452 55.7375  42
  -9   7  -1 405.169 58.7110  15
  -9   8   1 3508.30 195.172  39
   9  -8  -1 3602.90 174.571  27
  -9  -8   1 3603.93 173.977  31
   9   8  -1 2780.51 119.658  21
   9   8  -1 3636.10 173.162  42
   9  -8  -1 3491.79 220.678  10
   9   8  -1 3012.62 155.521  12
  -9  -8   1 3615.18 187.693  22
   9  -8  -1 2830.34 157.388  30
  -9   8   1 3879.13 207.676  32
  -9  -8   1 3462.76 177.684   4
   8   8  -1 7.87972 30.9726  42
  -8  -8   1 101.661 49.3522  13
   8   8  -1 29.8244 37.9306  21
  -8   8   1 2.24353 51.4087  32
   8  -8  -1 48.8895 59.9500  10
  -8   8   1 15.4882 49.6574  39
   8   8  -1 47.3930 36.7217  23
  -8  -8   1 10.8557 41.7326  31
   8   8  -1-19.7681 35.6887  12
   8  -8  -1 76.2835 45.6928  37
  -8  -8   1 32.9771 39.9090  22
  -8   8   1 48.3349 52.2307  38
   8  -8  -1-9.34105 38.4143  27
   7  -8  -1 91.9337 55.9890  37
   7   8  -1 60.2687 36.9156  21
   7   8  -1 78.2962 47.6029  12
   7  -8  -1 160.466 92.8861  10
   7  -8  -1 120.185 55.4647  27
   7   8  -1 141.766 59.7061  23
  -7  -8   1 257.739 91.9673  13
  -7   8   1 100.656 77.5644  32
  -7  -8   1 224.600 70.7687  31
   7   8  -1 113.871 50.1841  42
  -7  -8   1 69.4981 45.0133  22
  -7   8   1 304.682 99.0248  39
  -7   8   1 156.773 84.7853  38
  -6  -8   1 3688.16 264.309  40
  -6  -8   1 3401.23 229.507  28
   6   8  -1 3450.85 242.056  42
   6   8  -1 3363.00 230.900  21
  -6   8   1 3538.50 311.270  38
  -6  -8   1 3354.33 262.218  22
   6  -8  -1 3641.67 258.715  37
   6   8  -1 3656.12 278.700  12
   6  -8  -1 3634.22 273.883  27
  -6   8   1 4093.10 323.772  32
  -6  -8   1 3708.79 244.938  31
   6  -8  -1 3670.43 332.242  10
  -6  -8   1 3492.75 287.252  13
  -6   8   1 3877.14 309.933  39
   6  -8  -1 3690.53 229.100  43
   5  -8  -1 40.5900 51.1974  37
   5   8  -1 79.4588 42.9925  21
   5   8  -1 113.856 55.0516  42
  -5   8   1 0.79124 66.9459  38
  -5  -8   1 147.548 79.4247  11
   5   8  -1 146.118 76.2152  12
  -5   8   1 59.5028 63.4498  32
   5  -8  -1 48.6084 49.8916  43
   5  -8  -1 76.8072 66.7825  10
  -5  -8   1 43.7316 51.2782  22
  -5  -8   1 38.6442 42.4113  28
   5  -8  -1 135.939 68.0801  27
  -5  -8   1 93.7883 57.4394  31
  -5  -8   1 21.0450 38.9696  40
  -4   8   1 3327.01 306.437  38
   4  -8  -1 3766.21 264.007  37
   4   8  -1 4186.86 266.808  21
   4  -8  -1 3753.77 252.797  43
   4   8  -1 4003.39 247.200  16
   4   8  -1 3292.64 451.685  20
  -4  -8   1 3635.70 252.346  28
  -4  -8   1 3203.36 276.270  11
  -4   8   1 4102.87 645.259  20
  -4   8   1 3843.40 557.485  33
   4  -8  -1 2993.29 412.066   1
  -4   8   1 3957.90 309.289  32
   4   8  -1 4468.48 643.031  34
   4  -8  -1 3684.34 276.244  27
   4  -8  -1 3267.34 318.412  10
  -4  -8   1 3954.16 286.374  22
   4   8  -1 3517.13 243.527  42
   4   8  -1 4090.51 297.737  12
  -4  -8   1 3477.64 225.025  31
  -3   8   1 3844.92 533.696  33
   3  -8  -1 3746.27 254.493  43
  -3  -8   1 4097.47 272.613  28
  -3  -8   1 3998.86 304.048  11
  -3   8   1 3573.20 302.462  38
  -3   8   1 4128.75 296.420  32
   3   8  -1 3895.11 272.725  12
   3  -8  -1 3903.88 336.093  10
   3   8  -1 2997.31 421.231  20
  -3  -8   1 4250.17 526.217  19
   3   8  -1 4284.50 612.826  34
   3  -8  -1 3461.36 426.703   1
  -3   8   1 2931.78 512.291  20
   3  -8  -1 3947.92 277.861  27
   3   8  -1 4106.14 260.341  21
   3   8  -1 3997.46 248.814  16
   3  -8  -1 4032.32 269.544  30
  -3  -8   1 3741.61 270.474  22
   2  -8  -1 86.5746 49.2022  27
  -2  -8   1 268.782 79.3061  22
   2   8  -1-35.5359 38.8557  21
   2   8  -1-9.34878 41.2541  20
  -2  -8   1 92.5353 46.1513  43
  -2  -8   1 2.04277 44.8136  28
   2   8  -1 59.2169 103.802  34
  -2  -8   1 69.1256 83.9511  19
   2  -8  -1 130.898 87.8702   1
   2  -8  -1-36.8740 38.2119  43
  -2   8   1-91.6467 100.284  33
   2   8  -1 24.9770 42.1135  16
   2  -8  -1-88.9393 54.8667  11
   2   8  -1 143.912 65.1639  12
  -2   8   1-101.876 85.4239  38
  -2  -8   1-107.691 61.8376  11
   2  -8  -1 49.2216 52.9298  30
   2  -8  -1 67.9411 78.7286  10
  -2   8   1-270.386 171.852  20
  -1   8   1 3631.70 480.703  33
   1   8  -1 2799.63 405.929  20
   1  -8  -1 3477.62 238.587  43
   1  -8  -1 3107.42 361.323   1
   1   8  -1 3410.02 242.500  16
  -1   8   1 3370.66 510.323  20
  -1  -8   1 3410.09 440.805  19
  -1  -8   1 3372.77 232.718  43
  -1  -8   1 3376.75 278.627  11
   1  -8  -1 3168.59 215.651  28
   1  -8  -1 3338.27 228.987  30
   1  -8  -1 3534.78 250.694  27
   1  -8  -1 3321.89 254.856  11
  -1  -8   1 3244.50 241.887  28
   0  -8  -1 544.500 101.433  27
   0  -8  -1 524.360 94.5072  43
   0   8  -1 396.373 164.706  20
   0  -8   1 574.496 187.099  19
   0  -8   1 460.158 101.392  11
   0  -8  -1 492.304 108.122  11
   0   8   1 493.009 206.403  18
   0   8  -1 245.814 70.9906  32
   0   8   1 600.811 211.039  20
   0   8   1 537.970 192.368  33
   0   8  -1 492.274 98.0349  38
   0  -8   1 656.168 117.631  28
   0  -8  -1 427.832 92.2364  28
   0   8  -1 500.528 95.8275  16
   0  -8   1 493.657 91.9068  43
   1  -8   1 5273.12 477.634   1
  -1  -8  -1 5384.27 293.805  25
   1  -8   1 5289.57 303.872  43
  -1   8  -1 5873.16 332.930  32
  -1  -8  -1 5316.06 295.874  28
   1  -8   1 5613.19 306.727  27
   1   8   1 4797.07 576.108  18
  -1  -8  -1 5477.71 333.036  11
   1   8   1 5223.38 573.032  20
   1  -8   1 5281.17 305.330  28
   1  -8   1 5906.09 387.624  11
   1  -8   1 5044.71 507.021  19
   1   8   1 6074.50 599.718  33
  -1   8  -1 6113.28 338.965  16
   1   8   1 5805.78 312.301  16
  -1   8  -1 5629.87 604.183  20
   1  -8   1 4962.53 381.511  10
  -1   8  -1 5305.31 329.118  38
  -1  -8  -1 5713.71 303.074  43
  -2  -8  -1 83.2784 45.6811  25
   2   8   1 218.235 147.957  34
   2  -8   1 71.7888 73.9746  11
   2   8   1 298.022 145.007  20
   2  -8   1 69.5469 54.8364  43
   2  -8   1 44.2974 44.3353  27
  -2   8  -1 228.317 189.364  20
   2  -8   1 14.3032 49.4845   1
  -2  -8  -1 120.775 72.9797  11
   2   8   1 74.7407 48.2809  16
  -2   8  -1 12.1915 44.6081  16
   2  -8   1-19.9180 74.6501  10
  -2   8  -1-14.1521 57.9337  38
  -2  -8  -1-96.1788 50.7791  28
  -2   8  -1 15.8662 70.0834  32
   2  -8   1 178.534 71.4649  28
  -2  -8  -1 63.3382 40.9208  43
  -2   8  -1-2.97258 47.5709  15
   3   8   1 1594.67 349.525  34
  -3  -8  -1 1792.46 202.676  11
   3  -8   1 1752.86 178.375  28
  -3   8  -1 1633.42 201.368  38
   3   8   1 1798.96 178.101  21
   3  -8   1 1692.94 221.073  11
   3   8   1 1379.55 285.764  20
   3  -8   1 1622.22 178.887  27
  -3   8  -1 1407.96 331.947  20
  -3  -8  -1 1618.59 160.833  43
  -3   8  -1 1570.62 193.929  32
   3   8   1 1353.73 301.822  18
   3  -8   1 1873.04 241.095  10
  -3  -8  -1 1962.06 543.288  17
  -3  -8  -1 1661.18 172.476  28
  -3   8  -1 1668.32 179.816  16
  -3   8  -1 1426.38 153.254  15
   3  -8   1 1646.67 182.380  43
   3  -8   1 1632.89 301.473   1
   4  -8   1 1947.41 238.547  11
  -4  -8  -1 2081.93 220.554  40
   4  -8   1 2272.58 214.468  43
  -4  -8  -1 2129.56 190.568  22
  -4  -8  -1 2224.46 205.554  28
   4   8   1 2271.46 190.680  21
  -4   8  -1 2081.77 227.015  32
   4  -8   1 2279.26 219.240  27
   4  -8   1 2428.15 205.344  28
  -4  -8  -1 2300.35 187.387  43
  -4   8  -1 2066.79 226.627  38
  -4   8  -1 2362.75 230.701  39
  -4   8  -1 2263.86 201.519  15
  -4   8  -1 2467.81 211.322  16
   4  -8   1 2150.29 252.553  10
  -5   8  -1 300.786 92.3206  39
   5  -8   1 537.520 107.439  43
  -5   8  -1 509.556 116.887  38
  -5   8  -1 658.590 128.811  32
   5  -8   1 521.247 129.491  11
   5   8   1 497.403 85.2346  21
  -5  -8  -1 529.368 95.1697  22
   5  -8   1 426.058 116.604  10
  -5  -8  -1 541.429 98.8695  28
  -5  -8  -1 470.698 113.790  40
   5  -8   1 501.048 113.274  27
  -5  -8  -1 487.564 120.026  13
  -5   8  -1 409.618 87.7274  15
   5   8   1 496.123 98.8221  42
   6   8   1-33.7109 49.5039  42
   6   8   1-15.0026 46.5475  23
  -6  -8  -1-15.7992 40.2564  40
  -6   8  -1 58.6869 60.9372  39
  -6  -8  -1 51.2462 36.5581  28
  -6  -8  -1 48.2699 58.2011  13
   6  -8   1-62.7862 70.5038  10
   6  -8   1 81.0628 60.0760  27
   6   8   1 7.38094 38.1818  21
   6  -8   1-174.177 74.7270  11
  -6   8  -1 16.5164 61.2196  32
  -6  -8  -1 46.3922 41.4200  22
   6  -8   1 63.4144 40.1904  43
  -6   8  -1-122.992 66.1158  38
  -6   8  -1 101.816 52.9016  15
   7   8   1 371.999 74.1064  42
   7   8   1 392.241 77.6497  37
  -7  -8  -1 404.427 88.1644  40
  -7  -8  -1 368.618 74.0199  22
  -7   8  -1 372.518 81.3983  39
  -7   8  -1 427.354 97.7402  32
   7   8   1 388.991 83.9784  12
  -7  -8  -1 444.080 95.1439  13
  -7   8  -1 409.329 76.3238  15
   7  -8   1 354.604 86.3103  10
  -7   8  -1 409.273 85.4592  38
   7  -8   1 452.405 92.6594  27
   7   8   1 364.831 82.0180  23
   8   8   1 407.903 65.8941  37
  -8   8  -1 456.041 83.9476  39
   8   8   1 401.976 65.4588  12
  -8   8  -1 448.067 74.5399  32
  -8   8  -1 396.599 64.5391  15
   8   8   1 458.868 66.1333  42
   8  -8   1 505.083 77.5920  27
   8  -8   1 470.379 83.6958  10
  -8  -8  -1 501.358 80.8758   4
   8   8   1 380.921 64.9452  23
   8   9  -1 531.300 67.5642  21
  -8  -9   1 621.456 84.7106  22
  -8  -9   1 513.654 80.8689  13
   8  -9  -1 525.841 71.6070  30
  -8   9   1 422.063 67.0621  39
  -8   9   1 541.792 82.4367  38
   8   9  -1 490.480 76.4251  12
  -8   9   1 542.077 86.0543  32
   8  -9  -1 440.056 88.7435  10
   8   9  -1 535.056 72.5011  42
   8  -9  -1 464.401 69.2841  27
   7   9  -1 5065.91 250.597  23
  -7   9   1 5627.83 311.776  32
   7  -9  -1 5855.93 290.830  27
   7  -9  -1 5388.36 264.116  30
   7   9  -1 5387.66 260.118  42
  -7  -9   1 5206.32 292.161  13
  -7  -9   1 5689.43 282.777  22
   7  -9  -1 5308.32 341.138  10
   7   9  -1 5321.66 245.211  21
  -7   9   1 5507.06 281.201  39
  -7   9   1 5840.56 323.315  38
   7   9  -1 5243.24 286.634  12
   6   9  -1 1234.73 137.052  42
   6   9  -1 1189.69 135.116  23
   6   9  -1 1227.73 156.786  12
  -6   9   1 1287.85 177.964  38
   6   9  -1 1051.86 127.410  21
   6  -9  -1 1295.03 196.457  10
  -6   9   1 1315.02 170.649  32
  -6  -9   1 1363.25 156.816  22
  -6  -9   1 1365.02 139.330  28
   6  -9  -1 1152.26 140.955  30
  -6  -9   1 1221.95 159.942  13
   6  -9  -1 1406.18 162.881  27
   5   9  -1 9544.42 391.424  42
   5  -9  -1 10096.3 392.899  43
  -5  -9   1 10079.1 405.087  28
  -5  -9   1 10280.3 480.568  11
   5   9  -1 9769.14 393.659  21
   5  -9  -1 9852.86 416.838  30
   5  -9  -1 9910.25 538.348  10
  -5   9   1 10775.5 485.456  32
  -5  -9   1 9426.13 357.782  31
   5   9  -1 9989.74 449.593  12
  -5  -9   1 9091.89 412.899  22
   5  -9  -1 9499.61 432.294  27
  -5  -9   1 10505.2 445.256  40
  -5   9   1 9306.98 481.981  38
   4  -9  -1 9174.71 393.581  43
   4   9  -1 9655.95 398.208  42
   4   9  -1 9819.44 382.344  16
   4   9  -1 10095.1 455.613  12
   4  -9  -1 9194.43 535.507  10
  -4  -9   1 9168.83 421.318  22
   4   9  -1 9693.59 400.791  21
   4  -9  -1 9402.73 435.988  27
  -4  -9   1 9470.33 471.417  11
  -4  -9   1 9805.60 414.431  28
  -4   9   1 10120.9 467.701  32
   4  -9  -1 10088.3 425.387  30
  -4   9   1 9796.33 496.105  38
  -3  -9   1 13215.7 507.945  22
  -3  -9   1 13871.3 505.237  28
   3  -9  -1 14307.1 537.590  27
   3  -9  -1 14489.5 505.409  30
   3  -9  -1 14747.5 671.650  10
  -3   9   1 15737.8 558.010  32
   3  -9  -1 14235.3 500.055  43
  -3  -9   1 14348.2 582.672  11
   3  -9  -1 14525.4 528.881  11
   3   9  -1 14335.8 484.737  16
   3   9  -1 14326.1 529.065  12
   3   9  -1 14457.2 492.240  21
  -3   9   1 14319.4 586.857  38
   2  -9  -1 38113.6 819.528  43
  -2  -9   1 38984.1 859.508  22
  -2  -9   1 37501.3 834.715  28
  -2   9   1 45773.5 1815.78  33
  -2   9   1 42835.0 1954.37  20
   2  -9  -1 40173.4 894.940  11
  -2  -9   1 41471.7 1633.72  19
  -2  -9   1 39072.0 964.497  11
   2  -9  -1 39718.5 768.917  28
   2   9  -1 40192.7 848.233  12
   2  -9  -1 40696.6 832.059  30
   2   9  -1 38910.9 810.146  21
   2  -9  -1 39915.5 884.122  27
   2   9  -1 39272.6 828.549  16
  -2  -9   1 40985.3 807.571  43
   2   9  -1 39413.0 1596.66  20
  -2   9   1 41951.0 943.025  38
   1  -9  -1 1005.80 142.432  30
   1  -9  -1 1021.63 144.696  27
   1   9  -1 1175.69 144.304  21
  -1  -9   1 1156.90 175.612  11
   1   9  -1 742.887 214.427  20
  -1   9   1 1110.18 307.059  20
  -1  -9   1 1619.36 317.740  19
   1  -9  -1 964.271 147.350  11
   1  -9  -1 1045.09 131.708  28
  -1  -9   1 994.306 139.977  28
   1   9  -1 965.327 139.003  16
  -1  -9   1 892.538 127.674  43
  -1  -9   1 1097.33 144.170  22
   1  -9  -1 1034.71 140.333  43
   0  -9  -1 31904.7 814.177  11
   0  -9   1 31255.6 880.350  11
   0   9  -1 33448.1 1499.71  20
   0   9  -1 32164.2 780.260  16
   0  -9   1 31360.3 743.612  43
   0  -9  -1 30628.0 735.047  43
   0  -9  -1 32222.7 732.313  28
   0  -9   1 30459.0 762.346  28
   0   9   1 31994.7 793.858  16
   0   9  -1 33585.5 760.359  32
   0   9   1 32048.7 1542.37  20
   0   9  -1 31025.4 747.905  38
  -1  -9  -1 17767.4 550.002  25
  -1   9  -1 18578.0 1140.44  20
  -1   9  -1 19371.4 613.142  32
   1  -9   1 17862.7 674.025  11
   1  -9   1 17378.2 569.270  43
  -1  -9  -1 17051.9 602.755  11
   1   9   1 18862.9 1144.32  20
  -1  -9  -1 17089.1 542.169  28
   1  -9   1 17356.6 572.419  28
  -1   9  -1 18128.8 592.457  16
   1   9   1 17926.8 560.199  16
   1  -9   1 17497.5 549.440  27
  -1  -9  -1 17235.4 546.973  43
  -1   9  -1 18079.8 601.604  38
   2  -9   1 19683.5 611.768  43
   2  -9   1 19497.4 597.877  28
  -2  -9  -1 18572.9 641.099  11
  -2   9  -1 19807.6 644.706  32
  -2  -9  -1 18977.7 580.181  28
   2   9   1 20515.3 561.960  16
  -2   9  -1 18963.3 608.570  16
   2  -9   1 18970.2 701.069  11
   2  -9   1 20148.8 604.246  27
  -2  -9  -1 19426.1 573.239  43
  -2   9  -1 19991.4 656.945  38
  -2  -9  -1 19432.5 558.048  25
   3  -9   1 11994.6 453.150  28
   3  -9   1 12240.7 481.358  43
   3  -9   1 11328.4 576.173  10
  -3  -9  -1 12540.1 476.599  28
   3   9   1 12140.0 457.430  21
  -3  -9  -1 12194.5 516.593  11
  -3  -9  -1 12624.4 450.392  43
  -3   9  -1 12175.4 524.862  38
  -3   9  -1 12979.6 533.449  32
  -3   9  -1 12517.7 477.697  16
   3  -9   1 12457.3 485.420  27
  -3   9  -1 12341.0 435.667  15
   3  -9   1 11805.3 552.404  11
   4  -9   1 92.1818 53.1767  43
   4   9   1-1.00986 49.2381  42
   4  -9   1 108.624 58.2609  28
  -4  -9  -1 72.9844 53.7541  28
  -4  -9  -1 53.2364 55.4256  13
  -4  -9  -1 40.1177 53.4130  40
   4   9   1 52.4772 38.6174  21
  -4   9  -1 125.981 57.0676  32
   4  -9   1 25.8096 58.5241  10
  -4   9  -1-29.2974 54.6359  38
  -4   9  -1 68.1345 39.6425  16
   4  -9   1 97.2501 78.1212  11
   4  -9   1 95.0537 50.2164  27
  -4   9  -1 25.6077 36.5112  15
  -4   9  -1 15.9369 53.0998  39
   5   9   1 5415.48 290.732  42
  -5   9  -1 5091.17 299.782  39
   5  -9   1 4658.65 274.320  43
   5  -9   1 5171.55 339.138  11
  -5   9  -1 5773.49 347.862  32
  -5  -9  -1 5220.70 318.897  40
   5  -9   1 4710.60 342.892  10
  -5  -9  -1 5121.60 284.957  28
  -5   9  -1 5252.09 326.377  38
   5  -9   1 5175.53 304.535  27
  -5   9  -1 5216.17 270.684  15
   5   9   1 5110.82 261.693  21
  -5  -9  -1 5168.88 332.392  13
   6   9   1 1509.42 154.257  23
  -6  -9  -1 1535.48 163.274  40
   6   9   1 1618.08 166.746  12
  -6   9  -1 1654.67 167.224  38
  -6   9  -1 1612.09 170.609  32
   6   9   1 1503.65 126.288  21
   6  -9   1 1424.13 171.744  10
   6  -9   1 1505.09 136.456  43
   6   9   1 1390.77 135.862  42
  -6   9  -1 1536.78 156.253  39
   6  -9   1 1443.50 149.752  27
  -6   9  -1 1561.98 136.689  15
  -6  -9  -1 1515.12 169.459  13
  -7  -9  -1 466.843 83.0689  13
   7   9   1 538.008 72.4518  42
  -7  -9  -1 451.039 80.0669   4
  -7   9  -1 484.239 79.3331  39
  -7   9  -1 429.481 73.3537  38
   7   9   1 524.499 82.4543  12
   7   9   1 518.947 74.4928  37
   7   9   1 447.682 75.1060  23
  -7   9  -1 500.941 84.1231  32
   7  -9   1 345.620 77.3506  10
   7  -9   1 532.486 82.1615  27
  -7   9  -1 500.814 65.9920  15
   8  -9   1 46.9079 27.8641  27
  -8  -9  -1 26.9452 27.8017   4
   8   9   1 53.9639 29.6156  23
  -8   9  -1 22.2090 24.0645  32
  -8  10   1 1349.51 92.3990  38
   8  10  -1 1305.58 89.9243  12
  -8  10   1 1469.92 97.0549  32
   8 -10  -1 1526.38 92.7509  27
   7  10  -1 3067.09 163.401  42
  -7 -10   1 3083.88 169.389  22
   7 -10  -1 2948.19 216.848  10
  -7 -10   1 2891.52 179.084  13
   7  10  -1 3004.87 184.749  12
   7 -10  -1 2503.72 139.370  30
  -7  10   1 3246.37 188.792  32
  -7  10   1 3172.79 195.543  38
   7 -10  -1 3154.59 179.390  27
   7  10  -1 2984.53 156.430  21
  -6 -10   1 2014.98 147.618  28
  -6 -10   1 1951.50 178.157  13
   6  10  -1 2113.11 156.537  42
   6  10  -1 2021.01 174.974  12
  -6  10   1 2153.29 181.710  32
   6  10  -1 2079.54 155.684  21
   6 -10  -1 1831.61 143.731  30
   6 -10  -1 2041.94 210.334  10
  -6 -10   1 1992.29 160.410  22
  -6  10   1 2177.88 193.692  38
   6 -10  -1 1771.88 158.930  27
   5  10  -1 177.045 58.8460  12
   5  10  -1 140.453 54.0974  42
   5 -10  -1 184.254 70.9642  27
  -5 -10   1 201.256 64.1235  40
  -5  10   1 86.6685 56.1067  38
  -5  10   1 136.096 61.9252  16
   5 -10  -1 183.380 53.2919  43
   5 -10  -1 120.547 45.1857  30
   5  10  -1 229.008 63.6156  21
  -5 -10   1 143.268 60.8993  13
  -5 -10   1 169.124 61.4786  28
   5 -10  -1 172.650 79.2791  10
  -5  10   1 172.782 63.7309  32
  -5 -10   1 226.847 73.3540  22
  -4 -10   1 1501.79 167.357  40
  -4  10   1 1471.86 178.243  38
  -4 -10   1 1666.70 167.885  22
   4  10  -1 1410.45 144.530  42
  -4  10   1 1650.75 170.234  32
   4 -10  -1 1541.49 171.648  27
   4 -10  -1 1280.93 193.005  10
   4  10  -1 1379.79 147.423  21
   4 -10  -1 1489.18 150.001  30
   4  10  -1 1441.79 140.788  16
  -4 -10   1 1480.45 157.369  28
  -4 -10   1 1328.15 169.855  11
   4  10  -1 1401.29 162.239  12
   4 -10  -1 1254.22 138.933  43
   3  10  -1 342.794 76.4988  42
   3  10  -1 415.939 91.6095  21
  -3 -10   1 315.746 80.9756  28
   3  10  -1 396.937 92.3924  12
  -3  10   1 236.057 69.8038  38
  -3 -10   1 334.731 88.4997  22
  -3 -10   1 292.217 95.8952  11
   3 -10  -1 358.987 91.0426  27
   3 -10  -1 324.092 68.7545  30
   3  10  -1 395.679 88.7531  16
   3 -10  -1 292.553 78.9100  43
  -2 -10   1 747.497 120.068  28
  -2 -10   1 1026.05 141.872  22
   2  10  -1 706.071 111.949  21
  -2  10   1 733.100 130.707  16
   2 -10  -1 838.816 126.557  11
   2 -10  -1 820.934 128.031  27
   2  10  -1 794.555 119.786  16
   2 -10  -1 847.896 119.188  30
  -2 -10   1 541.416 116.411  11
   2 -10  -1 811.930 124.820  43
   2 -10  -1 781.270 107.739  28
  -2  10   1 930.827 137.676  38
  -2 -10   1 785.723 110.991  43
  -1 -10   1 3556.56 289.288  11
   1  10  -1 3054.58 218.023  21
  -1 -10   1 3011.79 222.173  43
  -1 -10   1 3131.20 231.381  22
   1 -10  -1 3164.10 221.499  28
   1  10  -1 3265.47 245.700  16
  -1 -10   1 3060.50 240.439  28
  -1  10   1 3269.19 257.454  16
   1 -10  -1 3113.30 247.851  11
   1 -10  -1 3075.88 235.967  43
   0 -10  -1 652.482 108.357  25
   0  10  -1 718.558 110.874  38
   0  10   1 562.224 112.449  16
   0 -10  -1 645.840 122.728  11
   0 -10   1 732.705 142.089  11
   0 -10   1 723.588 120.704  28
   0  10  -1 814.020 129.399  16
   0 -10  -1 546.087 102.834  43
   0  10  -1 713.295 105.577  21
   0 -10   1 657.598 112.216  43
   0 -10  -1 773.720 117.789  28
  -1  10  -1 748.611 126.184  38
  -1 -10  -1 786.672 132.854  11
  -1 -10  -1 666.667 112.492  25
   1 -10   1 564.795 138.187  11
  -1  10  -1 553.088 106.509  16
  -1 -10  -1 728.295 116.875  28
   1 -10   1 596.146 102.674  28
   1  10   1 634.925 104.463  16
   1 -10   1 476.094 91.2670  27
  -1 -10  -1 614.225 106.619  43
   1 -10   1 540.077 103.875  43
  -1  10  -1 809.094 117.005  32
  -2 -10  -1 1.94510 26.8790  25
   2 -10   1 124.836 56.9083  43
  -2 -10  -1 171.798 62.5977  11
   2 -10   1 64.5266 38.8882  28
   2  10   1 79.7523 68.2850  21
   2 -10   1 75.2905 62.2456  11
  -2 -10  -1 49.2091 49.8227  28
  -2 -10  -1 153.029 64.6116  43
  -2  10  -1 89.4655 60.6098  38
   2  10   1 56.1609 36.6124  16
  -2  10  -1 186.605 69.5667  16
   2 -10   1 106.016 50.3825  27
  -2  10  -1 41.0392 49.4441  32
  -3  10  -1 214.587 68.0558  16
  -3  10  -1 258.814 75.2455  32
  -3  10  -1 198.800 68.2061  38
  -3 -10  -1 318.192 89.9321  11
   3  10   1 305.831 72.6250  21
  -3 -10  -1 242.176 82.2208  28
   3 -10   1 240.072 64.2633  28
   3 -10   1 191.668 63.4557  27
  -3 -10  -1 385.138 100.236  40
   3 -10   1 271.901 85.8838  11
   3 -10   1 191.282 64.0800  43
  -3 -10  -1 376.761 78.9246  43
  -4 -10  -1 2697.37 233.379  13
  -4  10  -1 2944.06 238.266  38
  -4 -10  -1 2598.56 222.497  40
   4  10   1 2855.30 197.709  21
  -4  10  -1 2839.68 228.477  32
   4  10   1 3140.37 217.384  42
   4 -10   1 2757.69 207.539  43
  -4 -10  -1 2871.53 210.509  28
  -4  10  -1 2997.43 200.992  16
   4 -10   1 2890.17 243.930  11
   4 -10   1 3039.13 216.678  27
   5 -10   1 857.876 122.685  11
  -5 -10  -1 875.192 124.848  40
   5  10   1 844.267 117.526  12
  -5  10  -1 983.568 127.336  32
   5  10   1 812.275 105.601  42
  -5 -10  -1 951.948 130.589  13
   5 -10   1 983.149 112.676  43
   5  10   1 808.783 95.5480  21
   5 -10   1 860.606 112.425  27
  -5  10  -1 930.225 125.057  38
  -5 -10  -1 910.815 111.190  28
   6  10   1 1256.22 120.645  23
  -6 -10  -1 1197.03 129.418  13
  -6 -10  -1 1207.06 120.288  40
  -6  10  -1 1264.36 124.965  32
  -6  10  -1 1206.71 121.239  38
   6  10   1 1205.32 122.244  12
   6  10   1 1191.08 110.732  42
   6 -10   1 1070.09 106.906  27
   6  10   1 1205.53 95.6613  21
  -7  10  -1 7960.39 238.213  32
  -7  10  -1 6562.78 198.881  38
   7  10   1 7610.71 229.373  23
  -7 -10  -1 6818.41 221.776   4
   7 -10   1 6836.13 200.228  27
   7  10   1 7048.39 222.756  12
   7  10   1 7593.72 210.354  42
   6  11  -1 292.129 59.9444  12
  -6  11   1 216.972 54.3648  38
   6  11  -1 299.937 53.5800  21
  -6  11   1 162.629 42.2964  32
  -6 -11   1 239.608 49.9275  28
   6 -11  -1 259.018 54.9310  27
  -6 -11   1 216.807 52.6039  13
   5  11  -1 5452.83 236.425  21
  -5 -11   1 5476.89 277.369  13
  -5  11   1 5587.43 268.440  38
  -5  11   1 5826.37 243.564  32
   5  11  -1 5362.92 254.634  12
  -5 -11   1 5811.68 242.492  28
   5 -11  -1 5523.17 244.619  25
  -5  11   1 5773.65 254.189  16
   5 -11  -1 5741.19 263.749  27
  -5 -11   1 5018.57 225.281  40
  -4 -11   1 3184.14 210.033  40
   4  11  -1 3174.43 185.678  42
   4 -11  -1 3102.92 193.460  43
  -4 -11   1 3128.08 229.474  11
  -4 -11   1 3139.23 200.722  28
  -4  11   1 3468.42 227.455  38
   4  11  -1 3099.33 179.580  16
  -4  11   1 3212.00 217.948  16
   4 -11  -1 3077.41 211.414  27
   4  11  -1 3137.79 194.498  21
   3  11  -1 11070.1 380.702  21
  -3 -11   1 11635.4 462.777  11
   3  11  -1 11273.5 380.690  16
  -3  11   1 11778.6 443.880  16
   3 -11  -1 12402.3 436.608  27
  -3  11   1 11979.2 419.228  38
   3 -11  -1 12040.0 407.948  43
  -3 -11   1 11862.9 413.593  28
   2  11  -1 16185.9 464.912  21
  -2 -11   1 17139.2 513.115  28
  -2 -11   1 16039.5 562.214  11
   2  11  -1 15905.0 484.730  16
   2 -11  -1 16494.6 494.868  43
  -2  11   1 16202.7 529.451  16
  -2 -11   1 16183.9 450.536  43
   2 -11  -1 15368.4 495.760  25
   1 -11  -1 734.835 116.167  11
  -1 -11   1 991.489 145.048  11
  -1 -11   1 920.064 116.013  43
   1 -11  -1 973.908 126.155  43
   1  11  -1 926.806 123.695  16
  -1 -11   1 888.571 124.376  28
  -1  11   1 910.462 128.115  16
   1  11  -1 973.965 116.274  21
   1 -11  -1 963.459 128.266  25
   1 -11  -1 1002.13 113.785  28
   0 -11  -1 14768.5 474.296  43
   0 -11   1 15150.1 558.067  11
   0  11   1 15178.2 491.522  16
   0 -11  -1 15682.8 511.593  11
   0  11  -1 14641.3 491.029  16
   0 -11   1 14700.0 480.155  28
   0 -11  -1 15014.1 456.021  28
   0 -11   1 14850.4 472.411  43
   0 -11  -1 14916.6 477.826  25
   1 -11   1 15116.2 483.066  43
  -1 -11  -1 14779.0 499.621  11
   1  11   1 15122.4 482.471  21
   1 -11   1 14345.7 535.498  11
  -1  11  -1 15303.6 440.337  32
   1 -11   1 14310.5 459.370  28
  -1 -11  -1 15004.9 462.870  28
   1  11   1 15009.6 457.222  16
  -1  11  -1 14257.8 478.063  16
  -1  11  -1 14310.5 459.387  38
  -1 -11  -1 15255.7 473.054  43
  -1 -11  -1 14133.7 442.940  25
  -2 -11  -1 10531.1 419.050  11
  -2  11  -1 10279.2 374.433  32
   2 -11   1 8897.40 413.172  11
   2 -11   1 9890.37 361.338  28
  -2  11  -1 9790.76 390.040  38
   2  11   1 9655.74 370.278  21
  -2 -11  -1 9755.90 371.632  28
   2  11   1 9334.78 325.128  16
  -2  11  -1 9879.87 382.817  16
  -2 -11  -1 9316.45 351.497  43
   2 -11   1 9755.95 353.290  27
   2 -11   1 9702.33 379.340  43
  -3 -11  -1 12287.3 364.458  43
   3 -11   1 13036.7 394.274  27
  -3  11  -1 13365.6 428.017  32
   3  11   1 13485.4 411.459  21
  -3 -11  -1 12899.9 464.532  13
   3 -11   1 13087.9 470.867  11
   3  11   1 12449.3 406.087  42
  -3 -11  -1 12646.3 408.698  28
  -3  11  -1 12276.0 392.946  16
  -3  11  -1 13463.4 446.274  38
   3 -11   1 13234.6 422.251  43
  -3 -11  -1 12556.5 448.557  40
  -4  11  -1 58.8864 42.7185  38
   4 -11   1 17.6749 34.0770  43
  -4 -11  -1 24.8529 34.6542  13
  -4 -11  -1 59.7037 42.4661  40
   4  11   1 55.6432 36.1756  21
   4  11   1-16.8364 32.8405  12
  -4  11  -1 6.46266 32.2668  32
  -4 -11  -1 47.6727 42.5769  28
   4 -11   1 76.5890 40.4597  27
   4  11   1 81.9051 42.0823  42
   5  11   1 5889.96 226.660  42
  -5  11  -1 5501.03 238.133  38
   5  11   1 5661.26 235.718  23
   5  11   1 5435.90 200.050  21
   5  11   1 5612.39 236.978  12
  -5  11  -1 5869.82 240.043  32
  -5 -11  -1 5482.70 251.526  13
   5 -11   1 5641.04 213.414  43
   5 -11   1 5218.69 203.200  27
  -5 -11  -1 5176.41 230.282  40
  -6  11  -1 238.255 42.0549  38
   6  11   1 232.040 39.6723  42
  -6  11  -1 278.050 46.3302  32
   6  11   1 183.578 39.4140  12
   6  11   1 239.873 43.1652  23
  -6 -11  -1 224.580 40.4944   4
  -6 -11  -1 222.845 48.0162  13
   5  12  -1 1210.21 86.4885  21
  -5 -12   1 1155.11 83.2517  28
  -5  12   1 1027.53 79.0164  38
  -5 -12   1 1146.87 96.4025  13
   5 -12  -1 1156.03 84.7903  25
  -4 -12   1 3209.10 164.440  28
  -4 -12   1 2928.27 150.308  40
  -4  12   1 3305.56 171.923  16
   4 -12  -1 3140.29 155.234  43
  -4  12   1 2980.08 149.979  38
   4  12  -1 3334.46 161.539  21
  -4 -12   1 3324.27 192.202  13
   4 -12  -1 3158.51 168.903  25
  -3 -12   1 1139.16 109.476  28
   3  12  -1 1182.39 104.923  21
  -3 -12   1 1360.36 134.513  11
   3  12  -1 1114.03 100.638  16
  -3  12   1 1174.94 115.983  16
  -3 -12   1 1195.49 114.715  40
   3 -12  -1 1269.06 119.494  25
   3 -12  -1 1314.10 114.780  43
   2 -12  -1 470.282 72.9799  43
   2  12  -1 412.027 65.3241  21
  -2  12   1 374.085 72.4704  16
  -2 -12   1 367.290 80.2543  11
   2 -12  -1 382.658 69.9007  25
   2  12  -1 336.097 61.5944  16
  -2 -12   1 431.031 73.9415  28
  -2 -12   1 366.294 59.8335  43
   1  12  -1 2413.19 170.308  16
  -1 -12   1 2468.00 193.479  11
  -1  12   1 2309.39 170.490  16
  -1 -12   1 2440.39 169.302  28
  -1 -12   1 2378.14 155.417  43
  -1  12   1 2507.62 165.732  21
   1 -12  -1 2320.58 164.336  43
   1 -12  -1 2387.50 168.962  25
   0 -12  -1 58.3128 37.4971  25
   0 -12   1 55.9915 34.7104  25
   0 -12  -1 28.7901 30.6388  43
   0 -12   1 78.2266 47.2694  11
   0  12   1 37.8492 32.0249  21
   0 -12   1 37.2165 27.7850  43
   0 -12  -1 105.012 40.2290  28
   0 -12   1 66.3921 42.4365  28
   0  12  -1 55.1394 37.6315  16
   0  12   1 14.2048 30.3573  16
   1 -12   1 1832.12 162.865  11
   1  12   1 1622.65 134.817  21
  -1  12  -1 1656.08 142.122  16
  -1 -12  -1 1819.74 138.615  28
  -1  12  -1 1695.72 123.079  38
   1  12   1 1786.90 131.843  16
   1 -12   1 1725.35 134.367  28
   1 -12   1 1768.70 142.042  43
  -1 -12  -1 1614.54 124.704  25
  -1 -12  -1 1676.67 133.569  43
  -2 -12  -1 3198.55 168.792  43
  -2  12  -1 3201.59 174.838  38
   2 -12   1 3247.56 202.498  11
  -2  12  -1 3201.15 181.528  16
   2  12   1 3476.80 187.212  21
  -2 -12  -1 3438.66 185.287  28
   2 -12   1 3295.53 185.306  43
   2  12   1 3196.85 180.962  42
  -2 -12  -1 3044.58 197.897  40
   3 -12   1 1585.90 120.223  43
   3  12   1 1383.61 109.472  21
  -3 -12  -1 1388.46 125.098  40
  -3 -12  -1 1368.45 111.933  28
   3  12   1 1482.06 113.776  42
  -3 -12  -1 1349.88 123.472  13
  -3  12  -1 1316.43 95.9520  32
  -3  12  -1 1301.66 108.371  38
  -4 -12  -1 5929.98 227.070  13
   4  12   1 6194.66 194.744  21
   4 -12   1 6150.90 202.763  43
  -4  12  -1 5215.90 168.107  32
   4  12   1 5926.79 197.968  42
  -4 -12  -1 6061.30 203.448  28
  -4 -12  -1 5677.84 212.742  40
  -4  12  -1 5772.92 204.350  38
   4  12   1 5926.37 210.337  23
  -3 -13   1 773.502 64.8317  28
   3 -13  -1 791.179 63.1301  43
  -3  13   1 798.587 66.6639  16
  -3 -13   1 858.939 78.6873  13
   3 -13  -1 735.349 65.6214  25
   2 -13  -1 81.1994 29.3459  25
  -2 -13   1 109.675 35.1555  40
   2 -13  -1 59.4330 24.4792  43
  -2 -13   1 113.725 39.9766  11
  -2  13   1 104.948 32.2834  16
  -2 -13   1 58.2940 24.9083  28
   2  13  -1 61.2291 24.9111  16
  -1 -13   1 128.430 40.8307  40
   1 -13  -1 86.2315 27.5583  43
   1  13  -1 84.6944 31.3501  16
   1 -13  -1 118.247 37.7638  25
  -1 -13   1 48.6035 31.6344  11
  -1 -13   1 94.2910 30.5694  28
  -1  13   1 80.1823 32.1328  16
   0 -13  -1 558.316 71.7743  40
   0 -13   1 596.540 70.5180  11
   0 -13   1 595.088 61.5772  43
   0 -13  -1 594.389 63.5050  43
   0 -13  -1 525.804 58.3137  25
   0  13   1 526.503 60.2471  16
   0  13  -1 614.338 68.4823  16
   0  13   1 503.876 56.6112  21
   0 -13   1 562.820 62.8132  28
   1 -13   1 377.596 51.6335  43
   1 -13   1 370.411 47.6432  25
  -1 -13  -1 300.271 51.7713  40
   1  13   1 370.951 48.3293  21
  -1  13  -1 291.738 45.1296  16
   2 -13   1 339.535 45.9780  25
  -2 -13  -1 361.153 51.9140  40
  -2  13  -1 312.558 41.8676  16
  -2 -13  -1 280.540 38.6382  28
  -2 -13  -1 344.697 50.9804  13
   2  13   1 352.839 45.6828  21
   2 -13   1 384.279 48.6520  43
 -12   0   2 723.953 83.0908  15
 -12   0   2 629.889 85.2116  29
  12   0  -2 460.669 55.0518  26
  11   0  -2 267.179 62.5092  37
  11   0  -2 286.646 58.8538  42
  11   0  -2 332.996 67.4165  23
 -11   0   2 293.488 79.9917  15
  10   0  -2 303.713 69.7841  42
  10   0  -2 250.366 88.1063  24
  10   0  -2 390.805 89.7219  23
 -10   0   2 469.716 136.742  29
  10   0  -2 326.171 72.6837  37
 -10   0   2 293.255 85.1436  15
  -9   0   2 75.3145 66.2968  15
   9   0  -2 103.607 71.5431  23
   9   0  -2 10.5804 42.5811  42
  -9   0   2 125.504 106.068  29
   9   0  -2-38.3850 74.0822   7
   9   0  -2 2.21083 46.2801  37
   9   0  -2 26.8526 49.6045  24
   8   0  -2 2636.25 234.850  24
   8   0  -2 2578.53 223.672  37
  -8   0   2 2312.67 446.066   2
   8   0  -2 2471.14 189.219  21
   8   0  -2 2672.16 218.912  42
   8   0  -2 3021.40 443.799  36
  -8   0   2 2045.58 484.376  35
  -8   0   2 2143.14 465.102  33
   8   0  -2 1997.19 354.833  18
  -8   0   2 2504.09 277.682  29
   8   0  -2 2852.27 228.731   7
  -8   0   2 2256.59 227.458  15
   8   0  -2 2701.27 228.424  23
   7   0  -2 10720.5 776.618  36
  -7   0   2 11650.1 956.599  33
   7   0  -2 11536.8 766.671  18
  -7   0   2 10026.4 833.247   2
  -7   0   2 11239.0 937.965  35
  -6   0   2 351.095 171.389  35
  -6   0   2 308.317 142.972  33
   6   0  -2 297.285 128.190  18
  -6   0   2 192.662 124.379   2
   6   0  -2 283.334 119.072  36
   5   0  -2 81553.6 1146.64   1
   5   0  -2 79203.5 1639.04  36
  -5   0   2 83928.0 1903.99  35
   5   0  -2 80129.7 1602.69  34
   5   0  -2 80239.2 1556.87  18
  -5   0   2 82848.7 1833.79  33
   4   0  -2 623.312 97.0624   1
   4   0  -2 739.656 143.334  34
   4   0  -2 811.338 147.277  36
  -4   0   2 617.717 153.801  35
  -4   0   2 667.569 172.559   2
  -4   0   2 702.461 151.749  33
   4   0  -2 713.229 134.456  18
  -3   0   2 10300.8 503.435   2
   3   0  -2 11906.7 385.305   1
   3   0  -2 11959.4 470.792  36
  -3   0   2 11974.7 385.811  19
  -3   0   2 11262.2 463.979  33
  -3   0   2 11110.5 563.328  35
   2   0  -2 899411. 3342.19  36
   2   0  -2 928303. 5120.02  17
  -2   0   2 892506. 3626.61  19
   2   0  -2 884820. 3202.07   1
   2   0  -2 917437. 3509.27   3
   1   0  -2 38926.4 513.028  36
   1   0  -2 38254.7 975.700  17
   1   0  -2 38459.4 681.727   1
   1   0  -2 37906.1 669.410   3
   0   0   2 826243. 3526.45  18
   0   0  -2 825729. 3365.98   1
   0   0  -2 818028. 4532.95  17
  -1   0  -2 13496.3 416.540   2
   1   0   2 12420.4 482.217  18
  -1   0  -2 13515.0 499.957   3
  -1   0  -2 12216.5 633.044  17
  -2   0  -2 2427.34 252.867   3
  -2   0  -2 2104.78 298.132  33
   2   0   2 2347.27 242.845  34
  -2   0  -2 2521.63 343.275  17
   2   0   2 2450.97 245.725  18
  -2   0  -2 2534.46 223.432   2
   2   0   2 2409.73 150.514  36
   3   0   2 151944. 1527.06  36
  -3   0  -2 144925. 2228.05   3
  -3   0  -2 145458. 2845.25  17
  -3   0  -2 147259. 1996.23   2
   3   0   2 153523. 2140.58  34
  -3   0  -2 143514. 2752.43  33
   3   0   2 141052. 2088.82  18
  -3   0  -2 147528. 2470.58  35
  -4   0  -2 6807.93 557.399   3
   4   0   2 7036.97 519.100  34
  -4   0  -2 6382.79 579.670  35
  -4   0  -2 7335.40 718.760  17
  -4   0  -2 6635.08 687.519  33
  -4   0  -2 7310.74 512.938   2
   4   0   2 6473.47 507.451  18
  -5   0  -2 23529.4 1457.13  33
   5   0   2 23294.8 1077.15  18
  -5   0  -2 24748.3 1288.79  35
   5   0   2 26721.6 1149.58  34
  -5   0  -2 25743.8 1090.53   2
  -5   0  -2 26913.9 1526.52  17
  -5   0  -2 23665.2 1154.71   3
  -6   0  -2 8331.56 761.913   3
   6   0   2 8205.30 379.893  23
  -6   0  -2 7902.26 386.310  22
  -6   0  -2 7016.88 422.227  30
   6   0   2 8484.72 711.495  34
   6   0   2 7371.15 658.964  18
  -6   0  -2 8625.52 470.029  29
  -6   0  -2 7828.72 370.219  31
   6   0   2 8102.81 375.573  37
  -6   0  -2 8243.90 402.815   4
  -6   0  -2 7435.32 378.817  15
  -7   0  -2 339.981 91.3167  22
  -7   0  -2 352.218 89.3018  31
   7   0   2 436.799 96.3264  37
   7   0   2 464.403 95.1799  23
  -7   0  -2 371.130 120.871  29
  -7   0  -2 383.965 103.688   4
   7   0   2 388.071 96.9161  27
  -7   0  -2 536.226 113.289  15
   8   0   2 1581.53 193.291  27
   8   0   2 1462.16 166.836  23
  -8   0  -2 1476.18 176.659   8
   8   0   2 1774.15 182.959  37
  -8   0  -2 1430.17 163.234  31
  -8   0  -2 1762.89 226.521  29
  -8   0  -2 1661.87 185.962  15
   9   0   2-22.8597 40.1868  23
  -9   0  -2 44.2209 44.5632   8
  -9   0  -2 133.627 69.6174  29
   9   0   2 72.1686 46.7772  37
  -9   0  -2 56.6154 53.5981  15
  -9   0  -2 61.2781 44.6445  31
   9   0   2 93.2114 55.5817  27
 -10   0  -2-14.8294 46.3632   5
 -10   0  -2 40.6125 41.6216  29
 -10   0  -2 2.13208 33.7494   8
  10   0   2-25.6199 37.0051  27
  10   0   2-44.0866 39.0500  37
 -12   1   2 114.494 40.0349  15
 -12   1   2-30.3334 40.2982  29
 -12  -1   2 83.9231 37.0905  29
  12  -1  -2 23.3857 23.0965  26
  12   1  -2 0.76307 19.7875  26
 -12  -1   2 60.1367 29.7748  15
  11   1  -2 4267.69 228.134  24
  11  -1  -2 4575.15 238.798  23
  11   1  -2 4799.94 227.893  42
  11   1  -2 4439.80 222.821  37
  11  -1  -2 4291.12 214.704  42
 -11   1   2 5059.18 318.987  29
 -11  -1   2 5545.60 333.028  29
  11  -1  -2 4582.19 232.840  37
 -11   1   2 5003.58 278.586  15
 -11  -1   2 4903.28 282.622  15
  11   1  -2 4844.56 243.145  23
  10  -1  -2 286.411 80.2821  37
  10  -1  -2 304.701 83.3182   7
  10  -1  -2 219.540 67.3149  42
  10   1  -2 348.855 85.0097  42
 -10  -1   2 316.566 75.6371  22
  10  -1  -2 172.261 68.4113  24
 -10   1   2 386.002 125.344  39
 -10  -1   2 253.677 61.7922  31
  10   1  -2 221.264 69.4385  24
  10   1  -2 298.434 79.7368  23
 -10  -1   2 322.672 118.062  29
  10   1  -2 275.464 72.3605  37
 -10   1   2 184.451 101.357  29
 -10   1   2 256.158 89.2911  15
 -10  -1   2 193.023 81.9688  15
  10  -1  -2 273.464 82.2618  23
   9   1  -2 1864.20 196.559  24
   9   1  -2 2276.77 177.602  21
  -9  -1   2 2094.75 196.098  22
   9   1  -2 1809.75 184.322  42
   9   1  -2 1673.16 187.090  23
   9   1  -2 1923.55 194.698  37
   9  -1  -2 1658.24 183.008  37
   9  -1  -2 1598.10 173.634  42
  -9  -1   2 1802.37 176.863  31
  -9   1   2 1925.94 217.845  15
   9  -1  -2 1747.64 193.761  24
  -9   1   2 1789.07 248.140  29
  -9  -1   2 1449.69 220.723  29
   9  -1  -2 1741.04 190.093   7
   9  -1  -2 1854.76 200.450  23
  -9  -1   2 1640.41 200.313  15
   8   1  -2 6345.99 359.406  24
   8   1  -2 5487.10 311.576  42
  -8   1   2 5898.24 772.979  33
  -8  -1   2 5992.58 325.541  22
   8   1  -2 6006.48 297.130  21
   8  -1  -2 5688.91 328.308  37
   8  -1  -2 6182.81 349.187  23
   8   1  -2 5860.68 620.999  36
  -8   1   2 5146.43 749.113  35
  -8  -1   2 5932.84 778.319  35
   8   1  -2 5409.58 565.334  18
   8   1  -2 5914.34 337.075  23
  -8  -1   2 6422.65 325.809  31
  -8  -1   2 5614.72 410.670  29
  -8  -1   2 4682.85 324.894  15
   8  -1  -2 5364.52 609.498  36
   8  -1  -2 5709.64 317.612  42
  -8   1   2 5001.53 391.793  29
  -8   1   2 5189.90 672.227   2
   8   1  -2 5641.09 322.173  37
  -8  -1   2 5216.90 642.877   2
   8  -1  -2 5763.44 337.308   7
   8  -1  -2 5979.51 291.185  21
  -8   1   2 5367.81 342.157  15
   8  -1  -2 6015.80 352.532  24
   7  -1  -2 5424.33 307.944  24
   7  -1  -2 5201.54 284.397  42
  -7  -1   2 4460.06 541.203   2
   7  -1  -2 4867.23 529.439  36
  -7   1   2 4418.93 611.537  35
  -7  -1   2 4825.37 631.943  35
   7  -1  -2 5021.34 519.143  18
  -7   1   2 5663.94 672.504  33
  -7  -1   2 5164.74 632.463  33
   7   1  -2 4827.49 487.161  18
   7   1  -2 4886.80 275.557  42
   7   1  -2 4550.38 501.505  36
  -7   1   2 4595.77 561.426   2
   6   1  -2 489.824 146.025  36
   6   1  -2 271.856 125.864  34
  -6   1   2 478.079 180.419   2
  -6  -1   2 517.158 216.676  35
  -6  -1   2 382.197 163.736   2
  -6   1   2 573.664 204.037  33
   6  -1  -2 331.345 124.058  18
   6   1  -2 447.874 128.445  18
  -6   1   2 582.504 186.387  35
  -6  -1   2-43.0379 87.8624  33
   6  -1  -2 422.524 104.848   1
   6  -1  -2 522.234 156.878  36
   5  -1  -2 3611.74 281.745   1
  -5   1   2 4059.17 424.913  35
   5  -1  -2 3685.08 365.245  36
  -5   1   2 4037.12 423.970  33
  -5  -1   2 3457.37 396.986  35
   5   1  -2 3777.49 386.120  34
  -5  -1   2 3689.19 395.975  33
   5  -1  -2 3190.88 325.276  18
   5   1  -2 3681.75 324.831  18
   5   1  -2 3668.61 352.304  36
  -5   1   2 3107.97 359.274   2
  -5  -1   2 3838.73 419.098   2
  -4  -1   2 1607.25 249.111   2
  -4  -1   2 1872.61 232.819  33
   4  -1  -2 1642.67 216.470  36
   4  -1  -2 1884.18 189.129   1
  -4  -1   2 1768.98 269.583  35
   4   1  -2 1721.61 244.689  34
  -4   1   2 1805.60 243.812  33
   4   1  -2 1799.54 191.456  18
  -4  -1   2 1954.79 205.303  19
  -4   1   2 1837.91 261.071  35
  -4   1   2 1828.10 249.790   2
   4   1  -2 1818.25 221.952  36
   4   1  -2 1703.02 127.771   1
   3   1  -2-96.2069 69.7658  34
   3   1  -2 9.60684 39.4666  36
  -3  -1   2 9.78208 79.8446  35
  -3   1   2 267.191 81.6623  33
   3   1  -2 24.0398 41.2752   3
   3  -1  -2 190.940 74.0214  36
   3   1  -2 9.53386 26.8463  18
  -3  -1   2 22.1925 45.6670  19
   3  -1  -2 16.0074 36.1982   1
  -3   1   2-41.7375 54.9465  35
   3   1  -2 39.8175 33.1663   1
  -3  -1   2 6.16185 36.4035  33
  -3   1   2 32.4324 45.5735   2
   2  -1  -2 106714. 1233.86   1
  -2   1   2 101672. 1278.27   2
  -2  -1   2 105042. 888.959  33
   2   1  -2 102099. 1172.23  36
   2   1  -2 104248. 1014.69   1
  -2   1   2 97485.8 1477.23  35
  -2  -1   2 101328. 1431.45  19
  -2   1   2 104460. 980.718  19
   2  -1  -2 104472. 1212.14  36
   2  -1  -2 105217. 1773.05  17
   2  -1  -2 105790. 1122.93   3
  -2   1   2 102711. 1395.21  33
   2   1  -2 104406. 1272.45   3
  -1  -1   2 318203. 2644.75  19
   1  -1  -2 329191. 3023.84  17
   1   1  -2 333851. 2689.40  17
   1  -1  -2 337229. 1726.08  36
   1   1  -2 323341. 2185.45   3
   1   1  -2 334986. 1947.72   1
   1  -1  -2 337634. 2166.47   1
   1  -1  -2 337777. 1796.76   3
   0   1   2 27207.0 565.102  20
   0   1  -2 28344.6 681.740   3
   0  -1   2 26791.4 811.771  19
   0  -1   2 28455.8 487.522  18
   0  -1  -2 28745.5 541.739   3
   0  -1  -2 28479.7 949.741  17
   0  -1  -2 27425.2 634.865   1
   0   1  -2 26441.0 735.689  17
  -1  -1  -2 5243.86 283.974   3
  -1   1  -2 5478.45 318.811   2
   1   1   2 5233.31 136.406  20
  -1   1  -2 4956.19 359.025  33
   1  -1   2 5116.20 272.038  18
  -1  -1  -2 5184.63 474.447  17
   1   1   2 5210.81 363.193  18
  -1  -1  -2 5632.07 308.264   1
  -1   1  -2 5276.97 354.742  17
  -1   1  -2 4921.66 328.140   3
  -2   1  -2 4050.19 345.504   3
   2   1   2 4534.59 345.248  34
  -2  -1  -2 4733.38 330.306   3
   2  -1   2 3934.33 249.943  36
   2   1   2 4256.72 178.395  36
   2   1   2 3839.03 335.016  18
   2  -1   2 4186.39 302.426  18
  -2  -1  -2 4658.97 256.063   2
  -2   1  -2 4313.41 367.066  17
  -2   1  -2 4103.93 393.067  33
  -2   1  -2 4513.43 334.617   2
  -2  -1  -2 4761.50 517.082  17
  -3   1  -2 8840.65 673.241  33
   3   1   2 10385.8 586.570  34
  -3  -1  -2 9596.26 821.619  17
   3  -1   2 9470.29 514.407  34
  -3   1  -2 9731.40 610.115   3
   3  -1   2 9037.47 507.115  18
  -3   1  -2 9148.97 627.811  17
  -3   1  -2 9685.16 558.640   2
  -3  -1  -2 9647.05 462.631   2
  -3  -1  -2 9791.86 558.083   3
   3   1   2 9065.62 563.102  18
  -3  -1  -2 9879.73 625.949  35
   3  -1   2 9847.91 446.236  36
   4   1   2 244.892 128.872  18
  -4   1  -2 310.809 124.683   2
   4   1   2 216.392 102.679  34
  -4   1  -2 291.212 127.838  33
   4  -1   2 308.967 110.775  34
  -4   1  -2 382.715 163.019   3
  -4  -1  -2 326.878 121.234   3
  -4   1  -2 154.240 87.1877  35
  -4  -1  -2 668.753 280.654  17
  -4   1  -2 359.295 193.772  17
  -4  -1  -2 406.050 186.858  35
   4  -1   2 174.733 84.9960  18
  -4  -1  -2 521.558 131.672   2
  -5   1  -2 9280.92 748.556   3
  -5  -1  -2 9498.41 716.493   3
  -5  -1  -2 9005.25 766.901  35
   5  -1   2 10736.7 683.932  34
   5  -1   2 8168.41 631.104  18
   5   1   2 9214.78 697.792  18
   5   1   2 10889.0 768.701  34
  -5  -1  -2 10539.7 1052.04  17
  -5   1  -2 9064.20 678.740   2
  -5   1  -2 9430.34 902.522  33
  -5   1  -2 9291.54 798.851  35
  -6   1  -2 8243.70 408.006  15
   6  -1   2 7873.33 370.772  23
   6   1   2 7886.66 374.926  23
  -6   1  -2 8656.44 403.798  22
  -6  -1  -2 8071.27 459.923  30
  -6   1  -2 7763.45 751.171   3
  -6   1  -2 8401.38 443.230  39
  -6  -1  -2 8145.38 732.064   3
  -6   1  -2 9267.55 1029.61  33
   6   1   2 9350.17 783.418  34
  -6   1  -2 8176.49 399.370   4
  -6  -1  -2 8322.88 387.335  31
   6  -1   2 8340.98 380.882  37
  -6  -1  -2 8704.21 1005.03  17
  -6  -1  -2 8455.44 456.635  29
   6   1   2 8305.40 718.550  18
  -6  -1  -2 8575.50 403.639  22
   6   1   2 7771.28 372.373  37
  -6   1  -2 7968.42 459.646  29
  -6  -1  -2 8526.47 411.805   4
  -6   1  -2 8106.88 372.632  31
   6  -1   2 7472.75 389.546  27
  -6  -1  -2 8027.74 386.842  15
   6  -1   2 8486.13 709.675  18
  -7  -1  -2 8516.90 408.539  31
   7   1   2 8684.89 413.881  23
   7  -1   2 9415.50 418.453  23
  -7   1  -2 9166.15 460.504  39
   7  -1   2 8766.68 404.840  37
   7   1   2 8772.56 412.497  37
  -7   1  -2 8658.82 392.607  31
  -7  -1  -2 8581.65 424.004  22
  -7  -1  -2 8032.52 480.757  30
  -7   1  -2 8452.15 424.480   4
  -7   1  -2 8923.97 496.012  29
  -7  -1  -2 8982.51 490.386  29
  -7  -1  -2 8505.12 430.142   4
  -7   1  -2 8555.77 421.380   8
   7  -1   2 8492.50 435.189  27
  -7  -1  -2 8932.51 423.828  15
  -7   1  -2 9101.25 444.217  15
   8   1   2 37.4898 41.7883  37
  -8   1  -2 5.38613 46.0534  31
  -8  -1  -2 109.515 57.0040  15
  -8   1  -2-11.5046 55.4811  15
  -8  -1  -2 15.1573 45.9172  31
  -8   1  -2 0.35942 62.2314  29
  -8  -1  -2 34.0256 48.0435  22
  -8  -1  -2-36.2782 66.3008  29
  -8   1  -2 58.1244 59.5986   8
  -8  -1  -2 48.3894 41.6375   4
   8  -1   2 39.4246 55.0417  27
   8   1   2 1.71770 43.7848  27
   8  -1   2 77.6563 47.1439  23
   8  -1   2 50.7499 47.5665  37
   8   1   2 54.9065 38.9515  23
  -9   1  -2 9704.83 428.485  29
  -9   1  -2 8944.72 319.622  31
  -9   1  -2 9514.34 373.995   8
   9  -1   2 9485.91 352.671  37
   9   1   2 9654.72 369.001  37
  -9  -1  -2 8498.61 341.745  31
   9  -1   2 9648.17 349.932  23
  -9  -1  -2 9101.60 404.352  29
  -9  -1  -2 9344.04 382.597   8
   9  -1   2 9015.23 380.709  27
   9   1   2 8806.47 369.431  27
  -9   1  -2 9746.45 381.686  15
   9   1   2 9604.09 364.740  23
  10   1   2 1039.04 88.3858  23
 -10  -1  -2 860.699 83.7458  31
  10  -1   2 914.816 81.6107  37
  10   1   2 1058.09 93.7140  37
 -10   1  -2 807.979 104.122   5
 -10   1  -2 1126.43 112.238  29
 -10   1  -2 1040.08 95.3786   8
 -10  -1  -2 1013.02 97.3805   8
 -10  -1  -2 881.110 116.509   5
  10  -1   2 1042.95 98.3012  27
  10   1   2 953.371 90.0151  27
  11   2  -2 432.726 75.1213  24
  11   2  -2 517.796 77.1960  42
  11  -2  -2 406.560 64.4703  42
  11   2  -2 502.461 78.9068  23
  11  -2  -2 523.080 83.6553  37
 -11  -2   2 579.547 80.3687  22
 -11  -2   2 531.500 76.7854  31
 -11  -2   2 875.871 133.456  29
 -11   2   2 590.739 111.846  29
 -11  -2   2 569.532 102.732  15
  11  -2  -2 621.725 88.7096  23
 -11   2   2 538.489 92.9583  15
  10  -2  -2 1385.13 146.158  42
  10  -2  -2 1428.06 162.244  23
  10   2  -2 1520.09 156.114  42
  10   2  -2 1614.83 171.401  24
  10   2  -2 1380.03 146.791  37
 -10  -2   2 1664.84 163.519  31
  10   2  -2 1579.37 163.707  23
 -10   2   2 1822.10 229.594  29
 -10  -2   2 1736.95 232.660  29
 -10  -2   2 1566.39 163.633  22
  10  -2  -2 1484.90 167.744   7
 -10   2   2 1611.01 184.162  15
 -10  -2   2 1572.95 186.299  15
 -10   2   2 1432.65 220.508  39
  10  -2  -2 1501.35 162.113  37
   9   2  -2 868.856 134.542  42
   9  -2  -2 980.177 144.567  37
   9   2  -2 1114.82 147.373  37
   9   2  -2 941.661 136.205  23
   9  -2  -2 701.835 131.552  24
  -9  -2   2 938.902 137.290  31
  -9   2   2 906.110 190.831  29
  -9  -2   2 1011.87 189.231  29
  -9  -2   2 1184.43 152.980  22
   9  -2  -2 1120.77 161.416   7
   9  -2  -2 1106.11 154.107  23
   9  -2  -2 988.379 136.729  42
  -9   2   2 852.951 199.754  39
   9   2  -2 987.558 146.124  24
   9   2  -2 996.595 121.090  21
  -9  -2   2 1023.00 161.315  15
  -9   2   2 1029.65 155.912  15
   8  -2  -2 856.360 140.960   7
   8  -2  -2 947.258 145.770  23
   8  -2  -2 836.844 138.718  24
  -8   2   2 1065.02 305.474   2
   8   2  -2 867.606 130.829  37
   8   2  -2 839.549 117.497  21
   8   2  -2 784.554 125.083  42
   8  -2  -2 833.778 137.932  37
   8  -2  -2 832.133 254.670  36
  -8  -2   2 967.069 300.817   2
  -8  -2   2 1290.19 364.358  35
  -8   2   2 823.437 304.936  35
   8   2  -2 892.791 246.118  36
   8   2  -2 1208.38 262.527  18
  -8  -2   2 970.200 136.932  31
  -8   2   2 799.303 311.924  33
   8  -2  -2 892.737 129.917  42
  -8  -2   2 735.804 123.513  22
  -8   2   2 932.318 175.566  29
  -8  -2   2 776.447 174.988  29
  -8   2   2 1000.96 152.405  15
   8   2  -2 857.292 126.259  23
   7   2  -2 12790.1 934.025  34
   7   2  -2 10639.7 422.542  23
   7   2  -2 11351.0 423.841  42
  -7  -2   2 10228.9 903.270  35
   7   2  -2 11114.6 732.157  18
   7  -2  -2 10671.0 415.959  42
  -7  -2   2 11424.9 440.289  22
  -7   2   2 8995.80 859.187  35
  -7   2   2 11013.8 959.007  33
   7   2  -2 11339.1 399.286  21
   7  -2  -2 9733.91 770.396  36
  -7  -2   2 11877.8 433.339  31
   7  -2  -2 11347.1 450.897  23
  -7   2   2 10769.3 515.296  29
   7  -2  -2 11427.3 455.294  24
  -7   2   2 10037.0 845.376   2
   7  -2  -2 12059.1 455.043  37
   7  -2  -2 12182.1 460.649   7
   7   2  -2 10222.2 750.856  36
  -7   2   2 10747.7 444.199  15
  -7  -2   2 9968.09 830.277   2
   7   2  -2 12948.8 444.551  14
   6  -2  -2 2647.33 367.986  36
   6   2  -2 2820.40 356.899  36
  -6   2   2 2671.95 410.894  35
   6   2  -2 2884.90 414.555  34
  -6   2   2 2742.31 432.185  33
  -6  -2   2 3528.14 448.763  33
   6   2  -2 3037.34 339.291  18
  -6  -2   2 3066.11 430.274  35
   6  -2  -2 2945.61 306.254   1
  -6   2   2 3095.44 428.056   2
  -6  -2   2 2612.37 399.600   2
  -5   2   2 103585. 2123.45   2
  -5   2   2 111560. 2319.04  33
   5  -2  -2 110764. 2084.81  36
   5   2  -2 107774. 1932.51  36
  -5  -2   2 112700. 2266.58  35
  -5  -2   2 113026. 2192.62  33
   5   2  -2 109297. 1745.86  18
   5  -2  -2 109938. 1730.07   1
  -5   2   2 120820. 2285.89  35
  -5  -2   2 97994.0 2187.66   2
   5   2  -2 114664. 2362.53  34
  -5  -2   2 118256. 1920.00  19
   4   2  -2 9692.49 624.110  34
   4  -2  -2 10310.3 563.035  36
   4   2  -2 9674.83 512.888  36
  -4   2   2 10100.3 575.844  35
  -4  -2   2 9947.07 610.153  35
  -4  -2   2 10220.0 531.389  19
   4  -2  -2 10241.4 487.482   1
  -4  -2   2 9682.06 528.214  33
  -4   2   2 9599.05 592.190  33
  -4   2   2 10015.8 572.023   2
   4   2  -2 10553.9 451.716  18
  -3   2   2 21443.6 726.386  35
   3   2  -2 21745.0 678.508  36
   3  -2  -2 21596.4 718.344  36
  -3  -2   2 20869.5 812.404  35
   3  -2  -2 22267.6 663.539   1
   3   2  -2 19790.5 821.808  34
  -3   2   2 20772.4 783.153  33
  -3  -2   2 20694.5 570.276  33
   3   2  -2 21178.2 502.615  18
   3  -2  -2 22722.5 919.114  17
  -3   2   2 21658.0 717.527   2
  -3  -2   2 22581.5 779.513  19
   3   2  -2 22751.7 683.364   3
   2  -2  -2 270538. 2179.80   1
   2   2  -2 273397. 2115.45  20
  -2  -2   2 271991. 2690.60  19
  -2   2   2 271492. 2604.95  33
   2  -2  -2 267431. 2975.02  17
  -2   2   2 272706. 2332.42  35
   2  -2  -2 270587. 2232.44  36
  -2   2   2 277787. 2070.52   2
   2   2  -2 267546. 2174.61   3
   1   2  -2 13613.0 492.324   3
   1  -2  -2 12243.8 419.096  36
  -1  -2   2 13357.2 605.123  19
   1   2  -2 12968.4 409.759  20
  -1   2   2 12844.3 543.066  20
   1  -2  -2 12645.4 648.262  17
  -1   2   2 13732.6 328.050   2
   1  -2  -2 13601.8 308.635   3
   1  -2  -2 14773.4 495.598   1
   0  -2  -2 204623. 1137.70   3
   0   2  -2 205570. 1444.83  20
   0   2  -2 199350. 1971.55   3
   0   2   2 200865. 1859.82  34
   0   2  -2 191629. 1529.32  33
   0  -2   2 201044. 966.960  18
   0  -2   2 190499. 2391.03  19
   0  -2  -2 203802. 1846.19   1
   0   2   2 193713. 1957.58  20
   0  -2  -2 199678. 2797.36  17
  -1  -2  -2 66102.3 838.794   3
   1   2   2 62938.4 1406.61  18
  -1   2  -2 66477.1 1296.31   3
   1   2   2 66889.2 1234.27  34
  -1   2  -2 59807.8 1189.67  33
  -1   2  -2 66619.3 762.330  20
   1   2   2 68162.3 920.439  20
   1  -2   2 64650.3 1453.54  19
  -1  -2  -2 70110.9 1876.52  17
  -1   2  -2 62163.4 930.542  17
  -1  -2  -2 64126.8 1069.25   1
  -1   2  -2 68972.4 1272.04   2
   1  -2   2 65897.2 896.197  18
  -2   2  -2 185.876 87.2481  17
  -2   2  -2 223.565 89.4337   2
   2   2   2 296.562 60.0899  36
   2   2   2 107.665 97.8241  18
   2   2   2 198.063 45.7884  20
  -2   2  -2 180.310 96.1510   3
  -2   2  -2 135.428 92.0018  33
  -2  -2  -2 88.6657 45.3524   3
   2  -2   2 187.929 109.057  19
   2  -2   2 124.572 53.0154  18
   2   2   2 109.714 87.9518  34
  -2  -2  -2 96.9114 155.905  17
   3  -2   2 117003. 1777.78  34
  -3   2  -2 107939. 2112.12   3
  -3   2  -2 106950. 2320.89  33
   3   2   2 110322. 2038.30  34
   3  -2   2 103931. 1718.35  18
  -3   2  -2 105877. 1984.40   2
  -3  -2  -2 113107. 3012.15  17
  -3  -2  -2 114690. 1777.22   3
   3  -2   2 109961. 1721.09  36
   3   2   2 107958. 2080.48  18
  -4   2  -2 75.3618 97.8671   2
   4  -2   2 178.731 89.8526  18
  -4  -2  -2 21.2767 72.0076  35
   4  -2   2 95.7597 67.4412  34
   4   2   2-125.850 100.409  34
  -4   2  -2 70.7274 92.6155  33
  -4   2  -2 144.558 91.7553   3
  -4  -2  -2 29.4485 75.6558   3
  -4  -2  -2 60.8361 198.548  17
   4   2   2 33.6516 61.1858  18
  -5  -2  -2 5892.65 533.459   3
  -5  -2  -2 5536.72 587.980  35
   5   2   2 6003.28 602.564  34
   5  -2   2 5534.98 519.171  18
   5  -2   2 5501.49 593.662  19
   5   2   2 5146.87 546.225  18
  -5   2  -2 5700.16 566.242   2
  -5  -2  -2 5868.91 851.603  17
  -5   2  -2 5871.04 723.424  33
  -5   2  -2 5352.14 592.122   3
   6   2   2 586.550 105.861  37
  -6  -2  -2 554.356 109.528  22
  -6   2  -2 561.051 207.588   2
   6  -2   2 511.874 96.9678  23
  -6   2  -2 444.464 188.740   3
   6  -2   2 565.180 105.067  37
   6   2   2 33.5450 103.219  34
   6  -2   2 669.417 225.037  19
  -6  -2  -2 560.029 107.151  31
   6  -2   2 179.393 121.155  18
   6   2   2 728.582 218.628  18
  -6   2  -2 318.455 72.5051  31
  -6  -2  -2 468.394 126.854  30
  -6  -2  -2 1368.04 455.996  17
  -6   2  -2 558.601 129.948  29
  -6  -2  -2 633.356 130.816  29
   6   2   2 420.836 95.1709  23
  -6   2  -2 513.103 108.508   8
   6  -2   2 530.693 115.409  27
  -6   2  -2 14.3407 110.770  33
  -6  -2  -2 614.708 131.000   4
  -6   2  -2 582.132 113.535  15
  -6   2  -2 602.132 128.402  39
   7  -2   2 2021.57 194.264  23
  -7  -2  -2 2168.92 218.955  22
  -7   2  -2 2034.13 226.832  39
   7   2   2 2072.23 205.408  23
   7  -2   2 2153.53 199.576  37
   7   2   2 2375.89 217.990  37
  -7  -2  -2 1886.97 193.915  31
  -7  -2  -2 1739.15 231.400  30
  -7   2  -2 2278.94 252.551  29
  -7  -2  -2 2144.74 230.484  29
  -7   2  -2 2163.35 216.852   8
  -7  -2  -2 2017.86 214.891   4
   7  -2   2 2079.56 220.680  27
  -7   2  -2 2104.06 214.224  15
  -7  -2  -2 2123.99 201.716  15
  -7   2  -2 1886.94 178.862  31
  -8  -2  -2 100.537 61.7131  22
   8  -2   2 73.8065 48.1856  37
   8  -2   2 91.4578 64.5110  27
   8  -2   2 144.948 64.7479  23
   8   2   2 156.631 58.2462  37
  -8  -2  -2 46.9922 47.2621  31
  -8   2  -2 85.1015 65.5574  39
  -8   2  -2 132.583 85.7000  29
  -8  -2  -2 164.365 86.9865  29
  -8   2  -2 114.865 59.2553   8
   8   2   2 157.862 69.2521  23
  -8  -2  -2 127.513 57.4899   4
   8   2   2 128.519 67.8726  27
  -8   2  -2 105.297 66.8229  15
  -8   2  -2 71.0905 47.1844  31
   9  -2   2 458.074 75.2118  23
   9   2   2 436.801 85.0637  23
   9  -2   2 421.839 78.3393  37
  -9  -2  -2 383.096 78.4854  31
   9   2   2 473.830 86.2504  37
  -9   2  -2 352.591 79.0980   8
  -9  -2  -2 379.535 84.2994   8
  -9   2  -2 409.161 99.5572  29
  -9  -2  -2 465.568 98.3937   4
   9  -2   2 478.005 92.0134  27
   9   2   2 358.737 76.6392  27
  -9   2  -2 312.162 80.2751  15
  10   2   2-7.77230 24.4213  37
 -10  -2  -2 68.5694 31.5647   8
 -10  -2  -2 23.3414 27.5548  31
 -10  -2  -2 12.4638 30.7699   5
 -10   2  -2 12.0503 33.9993  29
  10  -2   2-43.5470 39.7128  27
  11   3  -2 3241.29 178.564  24
  11   3  -2 3765.62 190.721  42
 -11   3   2 3905.01 255.703  39
 -11  -3   2 3430.26 185.430  22
  11  -3  -2 3765.72 197.818  37
 -11  -3   2 3554.24 184.033  31
  11   3  -2 3365.64 180.851  23
 -11   3   2 4048.03 239.078  29
  11  -3  -2 3415.53 191.018  23
 -11  -3   2 3785.81 227.533  15
  11  -3  -2 3238.82 176.963  26
 -11   3   2 3720.33 208.658  15
  10   3  -2 5442.63 283.280  42
 -10  -3   2 6010.71 313.218  22
 -10   3   2 5156.34 386.634  39
  10   3  -2 5422.39 272.380  37
 -10  -3   2 5709.78 296.128  31
  10  -3  -2 5411.75 296.560  37
  10  -3  -2 5376.81 274.099  42
  10   3  -2 5590.20 299.071  24
 -10   3   2 5544.39 361.742  29
 -10  -3   2 5465.88 358.603  29
 -10  -3   2 5641.10 334.338  15
  10  -3  -2 5159.78 290.733   7
 -10   3   2 5586.79 312.358  15
  10  -3  -2 5446.69 305.357  23
  10   3  -2 5132.35 279.946  23
   9   3  -2 7434.89 362.423  42
   9   3  -2 6893.29 358.308  23
  -9  -3   2 7737.60 376.674  31
   9   3  -2 7292.85 319.382  21
   9  -3  -2 7513.31 381.731  37
   9  -3  -2 7699.37 364.051  42
   9   3  -2 7105.18 349.424  37
  -9   3   2 5792.14 459.033  39
  -9   3   2 7238.85 451.112  29
  -9  -3   2 6586.26 440.336  29
   9  -3  -2 7371.64 389.272   7
  -9   3   2 7491.20 393.374  15
  -9  -3   2 7137.97 403.318  15
   9   3  -2 7736.06 390.612  24
   9  -3  -2 6946.37 372.301  23
  -9  -3   2 7619.69 387.161  22
   8  -3  -2 26700.0 689.946  42
   8  -3  -2 25071.0 721.460  24
   8  -3  -2 26814.0 737.133  23
   8   3  -2 26784.1 707.162  23
   8   3  -2 25989.6 683.351  42
   8  -3  -2 26179.3 721.848  37
   8   3  -2 26455.3 679.186  37
  -8  -3   2 26654.6 727.404  22
  -8   3   2 22716.9 1495.56  35
  -8  -3   2 23280.2 1511.31  35
   8   3  -2 26840.9 638.334  21
  -8   3   2 28018.5 1748.00  33
  -8  -3   2 27204.6 711.096  31
  -8   3   2 23309.4 811.200  29
  -8  -3   2 23278.2 812.453  29
   8  -3  -2 26856.5 699.798  27
   8  -3  -2 26655.4 739.360   7
  -8   3   2 25546.3 724.998  15
  -8  -3   2 25716.0 1457.24   2
   8   3  -2 26751.2 668.441  14
   7  -3  -2 6573.14 352.020  24
   7   3  -2 5505.23 562.611  36
   7  -3  -2 6367.10 342.929  37
  -7  -3   2 6352.18 349.747  22
   7   3  -2 6002.89 320.810  23
   7   3  -2 6283.40 302.047  21
   7  -3  -2 5948.68 285.248  21
   7   3  -2 5869.77 304.566  37
   7  -3  -2 5636.54 622.840  36
  -7  -3   2 6135.38 699.869  35
   7  -3  -2 6149.22 517.043   1
   7   3  -2 6207.56 702.689  34
  -7   3   2 6451.82 762.958  33
   7   3  -2 6200.38 327.135  12
  -7   3   2 4713.11 635.554  35
  -7  -3   2 6227.50 331.203  31
   7  -3  -2 6226.43 323.305  42
   7  -3  -2 6244.82 341.991  23
  -7   3   2 4826.45 351.702  29
  -7   3   2 5114.56 631.495   2
   7   3  -2 6120.55 318.376  42
   7  -3  -2 6146.99 323.197  27
   7  -3  -2 6190.51 341.089   7
  -7   3   2 6019.37 333.042  15
  -7  -3   2 5402.01 640.781   2
   7   3  -2 6370.39 314.451  14
  -6  -3   2 14901.0 979.156   2
  -6   3   2 17828.1 1121.18  33
   6   3  -2 17339.4 899.536  36
  -6   3   2 15041.0 980.959  35
  -6  -3   2 18016.6 1042.55  35
   6   3  -2 18855.9 839.188  18
   6  -3  -2 17139.2 812.523   1
  -6   3   2 16881.8 1006.78   2
   6   3  -2 18018.8 1109.64  34
   6  -3  -2 17378.1 983.110  36
   5  -3  -2 10346.5 691.486  36
   5   3  -2 10552.6 633.924  36
   5   3  -2 11452.1 812.918  34
  -5  -3   2 11884.6 682.342  19
  -5   3   2 11518.7 804.851  33
   5   3  -2 10693.7 545.208  18
  -5  -3   2 9761.26 716.327   2
   5  -3  -2 10670.0 595.397   1
  -5  -3   2 11315.1 727.508  35
  -5   3   2 12555.7 758.698  35
  -5   3   2 11394.9 737.044   2
   4   3  -2 8153.95 629.331  34
   4  -3  -2 8525.10 557.595  36
  -4  -3   2 8461.96 569.350  35
  -4   3   2 9755.89 559.480  35
  -4  -3   2 8634.50 558.212  19
  -4   3   2 9040.39 633.128  33
   4  -3  -2 9122.79 508.162   1
   4   3  -2 8460.68 506.650  36
  -4   3   2 8293.84 547.423   2
   4   3  -2 8883.83 410.487  18
   3  -3  -2 107199. 1623.65   1
   3  -3  -2 104122. 1747.47  36
   3   3  -2 101138. 1590.56  20
   3   3  -2 100723. 2037.16  34
  -3   3   2 102274. 1649.47   2
  -3   3   2 108428. 1957.79  33
   3   3  -2 104932. 1055.10  18
   3  -3  -2 108984. 2099.16  17
  -3  -3   2 100177. 1841.34  19
  -3  -3   2 100434. 1832.39  35
   3   3  -2 106192. 1561.35   3
   2   3  -2 1773.07 193.227   3
  -2   3   2 1677.53 232.955  33
  -2  -3   2 1578.92 229.518  35
  -2  -3   2 1848.78 248.496  19
   2   3  -2 1518.01 245.886  34
   2  -3  -2 1423.56 192.618  36
   2  -3  -2 2043.01 212.304   1
  -2   3   2 1717.52 261.415  20
  -2   3   2 1568.35 122.497  34
   2  -3  -2 1570.55 251.164  17
  -2   3   2 1754.59 184.818   2
   2   3  -2 1920.03 203.238  20
  -2   3   2 1964.52 184.599  35
  -1   3   2 101588. 1196.92  35
   1   3  -2 102264. 1378.97  20
   1  -3  -2 103766. 1448.27   1
  -1   3   2 97878.0 1786.79  20
  -1  -3   2 101963. 1818.80  19
   1   3  -2 100742. 1430.13   3
  -1   3   2 109299. 1008.18   2
   1  -3  -2 106263. 2032.50  17
  -1   3   2 101385. 1236.62  34
   0   3  -2 7818.89 300.187  33
   0   3  -2 7628.99 421.540   3
   0   3   2 8717.50 496.987  20
   0  -3  -2 9171.78 662.124  17
   0   3  -2 8873.53 392.830  20
   0   3   2 8763.68 427.194  34
   0  -3   2 8846.34 552.385  19
   0  -3  -2 8074.31 399.698   1
  -1   3  -2 87161.4 1579.94   3
   1   3   2 92400.2 1391.92  20
   1  -3   2 87031.2 1829.84  19
  -1   3  -2 82467.2 1393.92  33
   1  -3   2 92944.9 1088.88  18
   1   3   2 86273.9 1831.93  18
  -1  -3  -2 97468.5 2421.13  17
  -1  -3  -2 88331.1 1336.92   1
  -1   3  -2 95268.2 1290.16  20
   1   3   2 90879.3 1568.72  34
  -2   3  -2 17521.9 793.332   3
   2   3   2 17511.1 861.295  18
   2   3   2 17884.6 787.018  34
  -2   3  -2 17803.3 586.978  20
   2   3   2 19290.5 574.910  20
  -2   3  -2 16076.3 753.698  33
   2  -3   2 17787.3 605.689  18
  -2  -3  -2 18425.0 628.639   1
  -2  -3  -2 19960.1 1226.77  17
  -2   3  -2 18111.7 799.821   2
   2  -3   2 16573.7 846.315  19
  -3  -3  -2 3153.25 552.786  17
   3  -3   2 2883.35 287.919  18
   3   3   2 2674.62 355.582  18
   3   3   2 2979.23 368.639  34
   3  -3   2 2995.20 392.451  19
  -3   3  -2 3075.87 370.611   2
  -3   3  -2 2639.82 344.655   3
  -3   3  -2 2967.39 392.923  33
  -4   3  -2 10584.3 763.251   3
   4  -3   2 11656.7 832.148  19
  -4   3  -2 11583.0 889.613  33
   4  -3   2 10526.0 634.159  18
   4   3   2 9859.87 715.680  18
  -4   3  -2 10850.1 753.001   2
  -4  -3  -2 11525.6 1138.85  17
   4   3   2 12148.4 825.946  34
  -5  -3  -2 12050.6 540.600  30
  -5  -3  -2 13287.9 513.701  13
  -5  -3  -2 12295.3 455.431  22
  -5   3  -2 11464.8 872.523   3
   5   3   2 12433.5 457.478  23
  -5  -3  -2 12852.3 462.219  31
   5   3   2 14007.5 969.672  34
  -5   3  -2 11632.5 1021.83  33
  -5   3  -2 13149.2 569.103  39
   5  -3   2 11915.6 767.992  18
   5   3   2 11524.6 834.029  18
  -5  -3  -2 12161.0 1272.83  17
  -5   3  -2 11758.4 850.651   2
  -5  -3  -2 12661.9 495.331  40
   5  -3   2 12669.3 929.577  19
  -5   3  -2 12528.6 526.487  29
  -5   3  -2 12986.6 474.247   8
   5  -3   2 12490.7 487.922  27
  -5   3  -2 12770.1 491.457  15
   6   3   2 11408.6 469.407  23
  -6  -3  -2 12594.4 495.580  22
  -6   3  -2 12431.7 578.377  39
   6  -3   2 12031.0 451.284  37
   6   3   2 10832.7 454.671  37
   6   3   2 12645.7 996.878  34
  -6   3  -2 10886.7 1108.83  33
   6  -3   2 11553.4 825.678  18
   6   3   2 11926.4 903.422  18
  -6   3  -2 11617.2 422.994  31
  -6  -3  -2 12380.4 485.398  31
  -6   3  -2 11038.7 889.950   2
   6  -3   2 11882.9 450.130  23
  -6  -3  -2 12914.2 1399.47  17
  -6  -3  -2 11299.2 557.992  30
  -6   3  -2 12611.1 987.432   3
  -6   3  -2 12521.8 557.003  29
  -6  -3  -2 11744.7 509.948  29
  -6   3  -2 11983.9 481.547   8
  -6  -3  -2 11680.5 501.635   4
   6  -3   2 11831.5 511.409  27
  -6   3  -2 12041.7 506.562  15
  -6  -3  -2 11878.2 528.190  13
  -7  -3  -2 10423.3 461.902  22
  -7   3  -2 11307.4 538.978  39
   7  -3   2 10801.3 430.991  37
   7   3   2 9216.87 425.738  37
  -7  -3  -2 10298.4 451.997  31
  -7  -3  -2 9417.61 525.083  30
  -7   3  -2 9991.78 505.267  29
  -7  -3  -2 10515.1 476.599  29
  -7   3  -2 9815.65 444.539   8
  -7  -3  -2 10007.4 475.599   4
   7  -3   2 10280.9 482.228  27
   7   3   2 9595.95 439.841  23
  -7   3  -2 10655.1 479.606  15
   7  -3   2 10064.0 420.954  23
   8   3   2 998.870 138.248  23
  -8  -3  -2 1087.61 148.949  22
  -8   3  -2 1028.94 156.752  39
  -8  -3  -2 970.246 147.919   4
   8  -3   2 867.256 116.088  37
   8   3   2 1089.17 139.362  37
  -8  -3  -2 941.850 133.979  31
   8  -3   2 952.652 124.663  23
  -8   3  -2 965.514 131.519   8
   8  -3   2 982.794 149.264  27
   8   3   2 732.156 126.945  27
  -8   3  -2 1028.28 148.299  15
  -8   3  -2 993.674 157.528  29
   9  -3   2 1700.36 159.501  27
   9   3   2 1643.24 148.128  23
  -9   3  -2 1778.64 171.597  29
   9  -3   2 1466.48 123.090  37
   9   3   2 1584.28 142.741  37
   9  -3   2 1480.26 164.500  11
  -9  -3  -2 1539.77 144.673  31
   9   3   2 1466.90 137.947  27
  -9   3  -2 1713.59 146.882   8
  -9  -3  -2 1482.19 147.892   4
  -9  -3  -2 1454.06 149.097   8
   9  -3   2 1655.69 129.278  23
  -9   3  -2 1612.60 149.432  15
  -9   3  -2 1360.48 142.955   5
 -10  -3  -2 1021.46 101.076   5
 -10   3  -2 1139.70 94.6232  29
 -10  -3  -2 1341.78 102.058   8
 -10  -3  -2 1189.52 89.5703  31
  10  -3   2 1362.91 99.2743  27
 -10   3  -2 1147.35 88.8629  15
  10   3   2 1288.76 93.3070  37
  11  -4  -2 184.320 49.0878  37
  11  -4  -2 213.442 53.0867  23
 -11  -4   2 101.375 47.4602  22
  11   4  -2 152.535 43.3440  24
 -11  -4   2 158.852 53.9919  31
  11  -4  -2 218.093 64.7680  10
 -11   4   2 126.900 40.2372  29
  11   4  -2 141.777 45.6494  42
 -11   4   2 155.967 63.9279  39
 -11   4   2 193.432 53.2807  15
  11  -4  -2 116.846 34.0938  26
 -11  -4   2 78.8571 39.9242  15
  10   4  -2 105.020 42.3988  42
  10   4  -2 92.6277 47.9575  23
 -10   4   2 145.156 70.0610  29
  10   4  -2 26.9160 34.1126  21
 -10  -4   2 80.2004 52.8530  22
  10  -4  -2 54.1428 43.8755  37
 -10   4   2 200.769 86.2315  32
 -10  -4   2 98.9951 57.7832  31
 -10   4   2-20.2480 68.5597  39
  10  -4  -2 70.2563 53.3820  23
  10   4  -2 179.369 62.1733  24
 -10   4   2 124.607 53.4928  15
  10  -4  -2 33.3408 38.5454  26
 -10  -4   2 171.761 71.4347  15
   9  -4  -2 1277.30 163.631  23
   9  -4  -2 1256.47 146.641  42
   9   4  -2 1592.02 169.247  23
   9   4  -2 1323.32 152.976  42
  -9   4   2 1143.98 212.468  39
   9  -4  -2 1128.58 153.035  37
   9   4  -2 1513.19 146.033  21
   9   4  -2 1495.55 155.078  37
  -9  -4   2 1339.90 160.161  31
  -9  -4   2 1534.62 201.502  29
   9  -4  -2 1402.62 177.359   7
   9  -4  -2 1670.20 165.630  27
  -9   4   2 1474.32 169.753  15
  -9  -4   2 1244.25 170.238  15
   9   4  -2 1537.43 176.288  24
  -9  -4   2 1570.70 179.193  22
  -9   4   2 1347.41 184.744  29
   8  -4  -2 875.421 141.379  23
  -8  -4   2 800.590 144.558  22
   8   4  -2 796.636 128.854  23
   8  -4  -2 858.683 127.947  42
   8  -4  -2 908.530 140.090  37
   8   4  -2 1005.85 133.163  37
   8   4  -2 807.831 127.618  12
   8   4  -2 842.387 117.860  21
  -8  -4   2 882.653 137.231  31
  -8   4   2 704.115 146.938  29
  -8   4   2 681.555 184.586  39
  -8  -4   2 895.004 165.813  29
   8  -4  -2 1091.94 147.658  27
   8  -4  -2 974.800 146.150   7
  -8   4   2 870.516 135.678  15
   8   4  -2 858.898 128.289  42
   8   4  -2 1097.75 132.720  14
   7   4  -2 717.818 104.915  14
   7  -4  -2 952.676 142.876  23
   7   4  -2 952.457 139.520  23
   7   4  -2 795.734 120.405  12
   7  -4  -2 860.935 250.698  36
  -7   4   2 729.057 258.707   2
  -7   4   2 593.591 239.776  35
  -7  -4   2 875.912 264.125  35
  -7  -4   2 1363.74 328.515   2
  -7   4   2 1147.07 383.047  20
  -7   4   2 832.896 286.306  33
  -7  -4   2 813.356 129.634  31
   7  -4  -2 865.731 128.587  42
  -7   4   2 853.434 148.778  29
   7  -4  -2 877.898 137.949  37
   7   4  -2 735.860 116.474  42
   7  -4  -2 989.906 152.178   7
   7  -4  -2 758.760 123.207  27
   7  -4  -2 739.010 191.842   1
   7   4  -2 877.205 119.358  21
   7   4  -2 846.412 225.274  36
  -7  -4   2 928.967 143.139  22
  -7   4   2 703.232 106.156  15
   7   4  -2 122.142 143.281  34
   6  -4  -2 4237.40 269.332  37
   6  -4  -2 3511.75 466.990  36
   6   4  -2 3457.49 426.205  36
  -6  -4   2 3129.08 467.410   2
  -6   4   2 3367.12 468.492  35
  -6  -4   2 3488.70 457.647  35
   6   4  -2 3582.44 530.445  34
  -6   4   2 3835.97 535.044  33
   6  -4  -2 3497.53 402.780   1
  -6  -4   2 3539.29 242.024  31
  -6   4   2 3365.08 467.001   2
   6  -4  -2 3818.52 253.470   7
   5   4  -2 12087.8 707.029  36
   5  -4  -2 13214.2 831.941  36
  -5   4   2 11629.8 753.833  35
  -5  -4   2 13316.7 795.489  19
   5   4  -2 13463.7 942.675  34
   5  -4  -2 12673.0 709.950   1
  -5   4   2 13527.1 926.269  33
  -5  -4   2 13051.3 792.966  35
  -5   4   2 11770.4 783.627   2
  -4   4   2 239.458 98.6440  33
   4  -4  -2 383.320 121.849   1
  -4   4   2 446.417 141.470   2
   4  -4  -2 413.952 137.626  36
  -4   4   2 374.505 114.442  35
  -4   4   2 388.353 152.698  20
   4   4  -2 359.105 161.543  34
  -4  -4   2 289.817 108.668  19
  -4  -4   2 486.182 155.047  35
   3   4  -2 21645.6 1033.24  34
  -3  -4   2 22485.3 954.609  19
   3  -4  -2 23264.5 922.325  36
   3   4  -2 22938.7 829.420  20
  -3  -4   2 23693.0 893.172  35
  -3   4   2 21678.5 1071.30  20
  -3   4   2 25127.2 1049.72  33
  -3   4   2 27044.4 774.335  35
   3  -4  -2 23616.0 840.374   1
   3  -4  -2 26821.2 1072.50  17
  -3   4   2 24578.8 871.258   2
   3   4  -2 23020.4 767.785   3
   2   4  -2 7532.58 425.884   3
  -2  -4   2 7725.96 494.278  35
   2  -4  -2 7474.82 490.378  36
  -2   4   2 7271.52 535.379  33
   2   4  -2 7549.39 451.687  20
  -2  -4   2 7086.40 529.151  19
   2  -4  -2 7179.17 436.352   1
  -2   4   2 7208.60 593.605  20
   2   4  -2 6591.76 537.989  34
   2  -4  -2 8003.44 579.731  17
  -2   4   2 8735.78 435.701   2
  -1  -4   2 197.946 115.390  19
   1   4  -2 426.191 112.907   3
   1   4  -2 419.491 107.803  20
  -1   4   2 351.400 103.644  34
  -1   4   2 549.494 178.277  20
   1  -4  -2 326.026 93.0844   1
   1  -4  -2 69.0964 118.713  17
   0  -4  -2 1027.11 159.205   1
   0   4  -2 1110.92 171.922  20
   0   4   2 988.403 202.781  20
   0   4   2 1075.91 171.125  34
   0  -4   2 1248.13 227.759  19
   0  -4  -2 1426.28 319.441  17
   0   4  -2 1048.39 176.386   3
  -1   4  -2 17241.8 742.425   3
  -1   4  -2 19038.0 705.147  20
   1   4   2 18994.2 749.441  20
   1   4   2 17969.8 760.274  34
  -1   4  -2 17891.5 671.352  33
   1   4   2 18135.5 925.596  18
  -1  -4  -2 18610.0 1147.88  17
   1  -4   2 17788.3 877.013  19
  -1  -4  -2 17513.1 629.647   1
  -2   4  -2 5707.29 478.527   3
   2   4   2 6704.24 408.398  20
  -2   4  -2 6017.68 411.109  20
   2   4   2 6176.75 508.074  34
   2  -4   2 5866.28 535.053  19
  -2   4  -2 6279.11 488.649  33
  -2   4  -2 5820.66 490.730   2
  -2  -4  -2 6386.22 387.149   1
  -2  -4  -2 5966.84 733.641  17
   2   4   2 5708.20 540.042  18
   3   4   2 1934.39 309.634  34
  -3   4  -2 1378.03 265.514   3
  -3   4  -2 1417.99 291.920  33
   3  -4   2 1251.74 261.795  19
   3  -4   2 1242.04 206.413  18
   3   4   2 1189.97 270.260  18
  -3  -4  -2 1843.88 442.659  17
  -3   4  -2 1511.40 278.557   2
  -4   4  -2 5206.27 551.583   3
   4  -4   2 6145.30 619.328  19
  -4   4  -2 5641.10 643.950  33
   4   4   2 5331.17 588.231  34
   4  -4   2 5192.83 463.765  18
   4   4   2 4989.13 544.570  18
  -4   4  -2 5014.55 546.864   2
  -4  -4  -2 6031.80 901.492  17
  -5  -4  -2 916.793 139.020  40
   5   4   2 925.246 140.223  23
  -5   4  -2 839.578 165.077  39
  -5  -4  -2 1078.23 160.243  13
   5   4   2 462.458 203.454  34
  -5   4  -2 973.278 260.091   3
  -5   4  -2 368.575 212.198  33
  -5   4  -2 862.334 144.910  32
  -5  -4  -2 924.918 134.874  31
   5  -4   2 1581.13 277.635  18
   5   4   2 759.026 233.797  18
  -5   4  -2 1109.56 292.382   2
  -5  -4  -2 973.199 136.198  22
  -5  -4  -2 720.714 145.840  30
  -5  -4  -2 832.521 388.262  17
  -5   4  -2 726.921 133.838  29
  -5   4  -2 869.894 130.592   8
   5  -4   2 974.830 146.050  27
   5   4   2 650.645 98.5972  42
  -5   4  -2 963.851 139.930  15
  -6   4  -2 310.913 176.005   2
  -6   4  -2 97.5223 83.2274  29
  -6   4  -2 28.5546 82.0466  39
   6   4   2-3.15349 55.2571  23
  -6  -4  -2 17.0814 54.0333  40
   6   4   2 33.6604 112.587  34
  -6  -4  -2 115.303 74.7668  13
  -6   4  -2 24.0354 131.320  33
  -6   4  -2-31.9853 68.3306  32
  -6  -4  -2-20.1600 50.0158  31
  -6  -4  -2-32.8540 70.7239  30
  -6  -4  -2-382.138 303.283  17
  -6  -4  -2-13.7072 51.0647  22
  -6   4  -2 35.6333 40.4779   8
   6  -4   2 32.1666 53.0389  27
  -6  -4  -2-59.8677 64.6730   4
  -6   4  -2-47.4985 67.8790  15
   6  -4   2 120.870 67.9861  43
   6   4   2 33.7799 32.6105  42
   7   4   2 3283.90 256.528  23
  -7  -4  -2 3064.06 252.371  22
   7  -4   2 3295.82 228.516  37
   7  -4   2 3036.26 222.499  43
  -7  -4  -2 3535.46 263.044  31
  -7  -4  -2 2758.48 283.482  30
   7   4   2 3021.52 244.439  37
  -7   4  -2 3133.77 241.184   8
  -7  -4  -2 3119.28 260.443   4
  -7   4  -2 3115.59 269.728  29
   7  -4   2 2724.54 246.441  27
  -7   4  -2 3390.36 272.180  15
   7   4   2 3426.42 222.508  42
   7  -4   2 3357.57 235.395  23
  -7   4  -2 3047.94 281.173  39
   8  -4   2 643.548 96.7152  37
   8   4   2 766.219 120.599  23
  -8  -4  -2 703.001 122.385  22
  -8   4  -2 825.108 136.845  39
   8  -4   2 493.469 123.353  11
  -8  -4  -2 753.085 122.519  31
  -8  -4  -2 556.642 124.845  30
   8   4   2 477.913 94.2040  37
  -8   4  -2 765.320 128.798  29
  -8   4  -2 556.123 104.121   8
  -8  -4  -2 515.140 105.901   4
   8  -4   2 705.365 114.762  27
   8  -4   2 734.667 101.440  23
  -8   4  -2 693.491 118.831  15
   9   4   2 80.6774 37.5153  23
  -9  -4  -2 70.4784 45.8599  31
   9  -4   2 75.0775 53.0510  11
  -9  -4  -2 110.974 47.1017   5
  -9   4  -2 93.6180 51.9467  29
  -9  -4  -2 115.298 56.9019   4
   9  -4   2 60.7492 37.1470  27
   9   4   2 127.640 49.6788  37
  -9   4  -2 103.668 55.2453  15
  11   5  -2 3.54052 19.9679  42
 -11  -5   2-52.2753 31.4485  22
 -11   5   2 127.998 54.2942  39
 -11  -5   2 70.3575 32.4005  31
  11  -5  -2 56.0559 44.1871  10
  11  -5  -2 40.0340 32.0921  37
 -10  -5   2 108.980 54.8435  22
 -10   5   2 151.111 73.3728  32
  10  -5  -2 90.7299 39.4448  37
 -10  -5   2 96.4395 56.6539  31
  10   5  -2 140.252 51.4382  24
  10  -5  -2 101.014 49.7048  23
 -10   5   2 114.823 100.689  39
  10   5  -2 101.447 35.2351  21
 -10   5   2 150.938 52.0957  15
  10  -5  -2 119.150 47.0275  26
 -10  -5   2 164.889 53.2484  15
  10   5  -2 129.930 48.3300  42
  -9  -5   2 393.239 103.579  22
   9  -5  -2 439.261 110.487   7
   9   5  -2 353.250 78.0879  42
   9   5  -2 403.100 96.0523  24
   9   5  -2 398.787 91.2252  23
  -9   5   2 253.953 129.762  39
   9   5  -2 409.901 85.4405  21
   9  -5  -2 543.769 107.242  37
   9   5  -2 410.647 81.1446  12
   9  -5  -2 430.818 102.493  23
  -9  -5   2 428.854 98.1256  31
   9  -5  -2 271.187 71.8026  27
  -9   5   2 384.448 88.6490  15
   9  -5  -2 407.607 87.0419  26
  -9  -5   2 282.046 80.5501  15
   8  -5  -2 97.1150 53.1180  37
   8  -5  -2 97.8119 53.0975  23
  -8  -5   2 254.450 96.3397  22
   8   5  -2 99.4851 46.2078  21
   8   5  -2 154.836 54.7703  12
   8   5  -2 235.231 65.9210  23
  -8  -5   2 124.322 56.4134  31
   8   5  -2 139.801 63.9504  42
  -8   5   2 220.395 140.297  39
   8  -5  -2 200.884 67.7843  27
   8  -5  -2 288.489 101.631   7
  -8   5   2 127.570 68.3392  15
   8  -5  -2 168.224 59.3117  26
   7  -5  -2 10340.2 425.216  42
  -7   5   2 9440.77 1009.56  20
   7   5  -2 9631.89 414.088  23
  -7  -5   2 10247.9 467.963  22
   7   5  -2 9544.16 391.975  21
   7  -5  -2 9087.76 847.454  36
   7   5  -2 8808.16 735.643  36
   7  -5  -2 9667.45 739.814   1
   7   5  -2 10525.4 463.551  12
   7   5  -2 10994.0 1036.65  34
  -7   5   2 9576.67 987.133  33
  -7  -5   2 10203.0 439.353  31
  -7   5   2 10548.2 918.676   2
   7  -5  -2 10187.4 444.292  27
   7  -5  -2 9844.79 449.642   7
   7  -5  -2 10032.4 446.067  37
   7  -5  -2 10298.1 424.130  26
   7  -5  -2 10102.5 454.636  23
   7   5  -2 9422.75 408.338  42
  -7  -5   2 10281.3 903.443   2
   7   5  -2 10856.2 405.614  14
  -6   5   2-3.00797 73.7520   2
   6   5  -2 103.992 48.6427  14
   6   5  -2-14.1318 36.4720  23
   6  -5  -2 113.946 65.1879  42
   6  -5  -2 197.478 78.6875  23
   6   5  -2 83.3127 64.4853  12
   6  -5  -2 141.168 56.5650  37
   6  -5  -2 134.508 88.6482   7
   6   5  -2 22.4595 30.6403  21
   6  -5  -2-66.3663 82.5005  36
   6   5  -2 3.99645 44.4432  36
   6   5  -2 126.308 142.912  34
  -6   5   2 21.9179 116.386  20
  -6   5   2-192.910 148.004  33
  -6  -5   2-158.686 154.211   2
  -6  -5   2 37.1515 59.6006  31
   6   5  -2 121.350 50.3816  42
   6   5  -2-44.8001 40.1994   9
  -6  -5   2 129.079 76.1956  22
   6  -5  -2 66.1433 50.8241  27
   6  -5  -2 77.0572 44.9395  26
   6  -5  -2 89.5291 86.2387   1
  -5   5   2 11471.7 989.988  20
   5  -5  -2 11638.1 839.569  36
   5   5  -2 11897.0 750.692  36
  -5  -5   2 14239.7 832.367  35
  -5  -5   2 11725.3 806.959  19
   5   5  -2 13279.1 1011.55  34
  -5   5   2 12068.5 933.463  33
   5  -5  -2 12542.8 764.506   1
  -5   5   2 12011.3 830.162   2
  -4   5   2 138.064 97.0454   2
   4   5  -2-11.2129 72.9149  20
   4  -5  -2-90.5199 81.3425  36
  -4  -5   2-214.428 120.945  19
  -4   5   2 19.1769 59.2187  33
   4   5  -2-32.8118 93.5131  34
  -4  -5   2 84.0887 74.6797  35
  -4   5   2 46.6939 104.905  20
   4  -5  -2 1.75096 65.0274   1
  -3   5   2-3.81080 65.2257  33
   3   5  -2 158.627 70.7258   3
   3  -5  -2 91.6909 59.3868  36
   3   5  -2 215.647 119.252  34
   3   5  -2 93.7357 73.4066  20
  -3  -5   2-15.3468 80.9857  35
  -3   5   2 252.288 130.205  20
  -3  -5   2 118.489 88.7536  19
  -3   5   2 436.643 128.838   2
   3  -5  -2 20.1662 92.5782  17
   3  -5  -2 52.8009 72.2419   1
  -2  -5   2 6579.67 455.392  35
   2   5  -2 6776.99 479.801  20
   2  -5  -2 6851.58 468.073   1
  -2   5   2 6107.95 610.505  20
  -2   5   2 7241.44 426.682   2
  -2  -5   2 6418.74 551.871  19
   2  -5  -2 7205.06 592.608  17
  -2   5   2 7290.12 584.009  33
   2   5  -2 6162.34 575.264  34
   2   5  -2 6469.17 414.426   3
   1   5  -2 3973.69 335.728   3
  -1  -5   2 4016.85 426.893  19
   1   5  -2 4041.84 363.748  20
  -1   5   2 3761.52 457.507  20
  -1   5   2 3887.16 302.383  34
   1  -5  -2 4183.33 353.891   1
   1  -5  -2 4117.25 472.952  17
   0   5  -2 4255.03 361.227   3
   0  -5  -2 5005.27 374.409   1
   0   5  -2 6065.67 444.968  20
   0   5   2 5750.54 514.022  20
   0   5   2 5530.75 413.765  34
   0  -5   2 5597.08 518.705  19
   0  -5  -2 5595.09 602.451  17
   1   5   2 3794.49 387.140  20
  -1   5  -2 2966.56 318.108  20
   1   5   2 3421.86 375.126  34
   1  -5   2 2696.61 374.085  19
   1   5   2 2325.70 384.259  18
  -1  -5  -2 3596.30 532.946  17
  -1  -5  -2 2715.59 271.085   1
  -1   5  -2 3053.69 332.755   3
  -2   5  -2 3230.49 379.538   3
   2  -5   2 3495.73 433.628  19
   2   5   2 3227.39 328.684  20
   2   5   2 2968.29 388.418  34
  -2   5  -2 3536.29 380.647  33
  -2   5  -2 3111.59 335.477  20
   2   5   2 3276.25 448.837  18
  -2  -5  -2 3425.53 586.929  17
  -3   5  -2 13835.0 849.701   3
   3   5   2 13068.8 894.527  18
   3   5   2 15463.6 962.677  34
   3  -5   2 14335.8 912.123  19
  -3   5  -2 14738.9 922.677  33
  -3   5  -2 14206.9 897.759   2
  -3  -5  -2 14029.1 1271.63  17
  -4  -5  -2 5612.12 333.600  40
   4   5   2 5464.28 593.450  18
   4  -5   2 5154.54 306.096  43
  -4   5  -2 5774.96 374.017  39
  -4  -5  -2 5295.69 326.402  13
  -4  -5  -2 5155.04 283.670  31
  -4  -5  -2 5299.98 341.415  30
  -4   5  -2 3914.59 507.944   2
   4   5   2 5326.84 621.894  34
  -4   5  -2 6052.33 671.221  33
  -4   5  -2 5339.84 338.155  32
  -4  -5  -2 5879.53 880.116  17
  -4   5  -2 5015.33 294.573   8
  -4  -5  -2 5569.79 299.629  28
   4  -5   2 5526.45 322.840  27
   4  -5   2 6020.23 620.355  19
  -4   5  -2 5374.78 316.874  15
  -4   5  -2 5586.88 334.682  38
  -4   5  -2 5153.10 568.148   3
   5  -5   2 8023.63 394.004  43
  -5  -5  -2 8392.30 432.482  40
  -5   5  -2 8743.63 491.150  39
  -5   5  -2 8550.62 418.486  38
  -5  -5  -2 8501.69 441.200  13
   5   5   2 9261.39 869.193  34
  -5   5  -2 8350.34 885.411  33
  -5  -5  -2 8748.54 398.642  22
  -5   5  -2 9248.08 452.731  32
  -5   5  -2 8196.24 775.782   2
  -5  -5  -2 8502.62 386.172  31
  -5  -5  -2 10287.4 1259.33  17
  -5  -5  -2 7915.49 450.827  30
  -5   5  -2 7729.22 749.287   3
  -5   5  -2 8461.79 415.052  29
  -5   5  -2 8971.69 410.315   8
  -5  -5  -2 9130.22 396.829  28
   5   5   2 8788.81 790.685  18
   5  -5   2 9868.70 466.976  27
  -5   5  -2 8758.69 429.487  15
   5   5   2 8898.87 375.134  42
   6  -5   2 263.437 80.3582  43
   6   5   2 329.343 71.5071  42
  -6  -5  -2 457.858 102.057  22
   6   5   2 378.795 94.3365  23
  -6  -5  -2 412.393 106.112  40
  -6   5  -2 300.094 100.896  39
  -6   5  -2 354.278 100.472  32
   6  -5   2 415.041 130.375  11
  -6  -5  -2 341.713 84.1448  31
  -6  -5  -2 281.848 109.029  30
  -6   5  -2 360.100 98.3861   8
  -6   5  -2 388.368 97.9900  29
   6  -5   2 390.237 106.475  27
  -6  -5  -2 386.036 119.151  13
  -6   5  -2 359.534 94.8132  15
  -7   5  -2 66.6656 70.6192  39
   7  -5   2-33.9383 32.0752  43
   7   5   2-26.4483 31.1098  42
  -7  -5  -2 15.3546 55.9538  30
   7   5   2 73.1943 49.1988  23
  -7  -5  -2 9.36871 45.9806  22
   7   5   2 103.850 65.5049  37
  -7   5  -2 82.3014 54.3476  32
  -7  -5  -2 70.3688 53.3211  31
   7  -5   2 18.7704 66.8695  11
  -7   5  -2-30.0468 38.5288  29
   7  -5   2-0.59164 68.2329  27
  -7  -5  -2 19.1022 51.3365   4
  -7   5  -2 39.0827 49.1242  15
   8   5   2 308.438 81.7396  23
  -8   5  -2 313.820 85.1744  39
  -8  -5  -2 212.178 61.8393  22
   8   5   2 298.254 73.9945  37
   8  -5   2 308.664 76.7154  11
  -8  -5  -2 403.993 83.5628  31
  -8  -5  -2 245.980 81.9828  30
  -8   5  -2 359.082 79.7114  29
   8  -5   2 278.934 76.7589  27
  -8  -5  -2 336.106 81.7885   4
  -8   5  -2 263.579 72.0028  15
   9   5   2-1.68069 32.6241  37
  -9   5  -2-14.8897 34.3709  29
  -9  -5  -2 18.0278 34.7426   4
   9  -5   2-2.21052 32.1100  27
  -9  -5  -2 45.7143 34.3664  31
  -9   5  -2 39.3886 40.1683  15
   9   5   2 65.0007 45.4781  23
  -9   5  -2-34.6528 35.5291  39
  10   6  -2 366.538 64.0230  42
 -10  -6   2 302.928 65.0627  22
 -10   6   2 492.526 103.434  39
  10   6  -2 306.792 48.2680  21
 -10   6   2 626.652 106.348  32
 -10  -6   2 422.324 72.5358  31
  10  -6  -2 458.732 95.9508  10
  10  -6  -2 452.734 73.5216  37
  10   6  -2 451.531 68.8220  24
   9   6  -2 218.941 67.1579  42
   9   6  -2 164.783 61.3540  24
  -9   6   2 179.752 78.1477  38
   9  -6  -2 184.674 63.2890  37
   9   6  -2 231.057 60.1454  21
   9   6  -2 183.425 58.9284  12
  -9   6   2 144.301 75.0567  32
   9  -6  -2 260.769 77.2371  23
  -9   6   2 170.329 88.2421  39
  -9  -6   2 342.158 82.9157  31
   9  -6  -2 112.001 80.2084  10
   9  -6  -2 272.670 67.5386  27
   9   6  -2 111.306 46.5029  23
  -9  -6   2 256.105 71.1515   4
   9  -6  -2 151.350 45.8957  26
  -9  -6   2 229.966 67.0045  15
  -9  -6   2 275.426 79.2763  22
   8   6  -2 3628.00 246.973  23
   8   6  -2 3907.38 255.177  42
  -8  -6   2 3905.75 287.070  22
   8   6  -2 3763.59 237.435  21
  -8  -6   2 4089.22 275.886  31
   8  -6  -2 4118.77 283.514  23
   8  -6  -2 3467.57 265.796   7
   8  -6  -2 3719.19 256.968  27
  -8   6   2 3693.04 345.932  39
   8   6  -2 4119.65 280.721  12
   8  -6  -2 3928.54 240.348  26
   8  -6  -2 4020.10 276.070  37
  -7  -6   2 336.854 93.8100  31
   7   6  -2 379.630 91.3839  42
  -7  -6   2 388.680 101.011  22
   7  -6  -2 168.489 81.7085  23
   7   6  -2 314.400 74.8965  21
   7   6  -2 260.270 75.7598  12
  -7   6   2 395.954 135.462  39
   7  -6  -2 314.184 95.7064   7
   7  -6  -2 301.190 89.0066  27
   7  -6  -2 320.493 71.9433  26
   7   6  -2 435.355 92.5290  23
  -7  -6   2 188.688 75.4716  13
   7  -6  -2 325.926 94.7814  37
  -6  -6   2 19948.6 1236.46   2
   6   6  -2 24360.5 636.303  42
  -6  -6   2 21906.5 689.270  22
   6  -6  -2 23424.5 683.722  23
   6   6  -2 23060.1 612.906  21
   6  -6  -2 23685.2 675.987  37
   6   6  -2 23679.0 1183.57  36
  -6  -6   2 25421.1 741.549  11
  -6  -6   2 24862.2 738.026  13
  -6   6   2 21195.3 1514.39  20
   6   6  -2 27171.0 1613.53  34
   6  -6  -2 22844.2 1147.85   1
  -6   6   2 27375.6 1613.54  33
   6  -6  -2 21274.9 641.005   7
  -6  -6   2 23978.2 655.080  31
  -6   6   2 22763.9 1270.68   2
   6   6  -2 23674.0 627.271  23
   6   6  -2 23496.9 642.050   9
   6  -6  -2 23181.8 1345.42  36
   6  -6  -2 23426.5 606.086  26
   6   6  -2 23745.4 571.250  16
   6  -6  -2 23504.1 676.140  27
   6   6  -2 24522.9 721.175  12
   5   6  -2 4858.18 269.223  42
  -5  -6   2 4951.11 321.258  22
   5  -6  -2 3967.45 524.854  36
   5   6  -2 5314.16 327.461  12
   5  -6  -2 5033.20 305.848  37
   5   6  -2 4891.57 273.339  21
   5   6  -2 4468.02 493.485  36
  -5  -6   2 4816.62 315.136  11
   5  -6  -2 4943.12 303.678  23
  -5  -6   2 4782.28 546.042  19
   5   6  -2 4664.43 639.900  34
  -5   6   2 4708.46 627.398  33
   5  -6  -2 4235.00 474.553   1
  -5   6   2 3661.93 613.736  20
  -5  -6   2 4813.79 282.930  31
   5  -6  -2 5536.41 384.792  10
  -5   6   2 4585.74 525.850   2
   5   6  -2 4947.41 283.450   9
   5   6  -2 4331.80 248.315  16
   5  -6  -2 4133.72 267.185   7
   5  -6  -2 4557.08 289.767  27
   4   6  -2 3217.94 397.367  20
  -4   6   2 2392.10 469.535  20
  -4  -6   2 3369.38 450.577  19
   4   6  -2 2755.39 465.304  34
  -4   6   2 3339.33 489.514  33
   4  -6  -2 2816.69 369.956   1
  -4   6   2 2692.20 358.717   2
  -3   6   2 2096.73 427.077  20
   3  -6  -2 2525.49 330.124   1
   3   6  -2 2533.99 337.545  20
  -3  -6   2 2846.07 400.726  19
   3   6  -2 2517.32 420.671  34
  -3   6   2 2755.74 406.264  33
   3   6  -2 2310.50 265.367   3
  -2   6   2 1519.90 288.212  33
   2  -6  -2 1192.19 216.887   1
   2   6  -2 1161.12 222.445  20
  -2   6   2 1074.41 279.003  20
  -2  -6   2 1570.17 298.176  19
   2  -6  -2 1469.83 283.377  17
   2   6  -2 1260.53 284.643  34
   2   6  -2 1439.93 207.434   3
   1  -6  -2 17.1918 43.4990   1
  -1   6   2 322.961 171.051  20
   1   6  -2 97.3517 56.5389   3
   1   6  -2 30.2392 48.1368  20
  -1  -6   2 27.9461 99.4234  19
  -1   6   2 30.4281 74.2695  33
   1  -6  -2 101.480 171.416  17
   0  -6  -2 2923.69 310.809   1
   0   6  -2 2905.28 316.144   3
   0   6  -2 3031.76 354.166  20
   0   6   2 2918.79 405.462  20
   0  -6   2 2849.46 394.109  19
   0  -6  -2 2900.58 471.934  17
   0   6   2 2727.29 326.526  34
   1   6   2 699.349 185.565  20
  -1   6  -2 666.850 166.518   3
   1   6   2 1225.87 253.715  34
   1  -6   2 801.999 227.416  19
  -1   6  -2 780.898 191.278  20
   1   6   2 717.729 225.416  18
  -1  -6  -2 791.673 271.320  17
  -1  -6  -2 599.298 135.694   1
   2   6   2 2891.94 442.489  18
  -2   6  -2 3527.40 395.560  20
   2   6   2 3349.78 441.957  34
   2  -6   2 3608.42 463.050  19
   2   6   2 3518.75 385.462  20
  -2  -6  -2 4005.28 673.742  17
  -2   6  -2 3070.36 379.637   3
   3  -6   2 9698.31 423.625  43
  -3  -6  -2 10435.5 405.392  28
  -3  -6  -2 10926.3 460.819  40
  -3   6  -2 10466.1 458.233  38
  -3  -6  -2 9531.94 443.047  30
   3   6   2 10533.5 849.796  34
   3  -6   2 9560.92 768.012  19
  -3   6  -2 10491.5 467.827  32
   3   6   2 8902.11 784.823  18
  -3  -6  -2 10148.2 1141.75  17
  -3   6  -2 10165.3 473.345  39
   3  -6   2 10246.8 515.067  11
  -3  -6  -2 10640.0 400.948  43
  -3   6  -2 10049.1 424.061  15
  -3   6  -2 9082.75 713.909   3
   4  -6   2 20268.4 634.017  43
  -4  -6  -2 21401.5 683.649  13
  -4   6  -2 21148.6 722.659  39
  -4  -6  -2 20202.2 657.054  40
  -4   6  -2 21776.6 681.562  38
  -4  -6  -2 20113.4 678.122  30
   4   6   2 24700.1 1398.05  34
   4  -6   2 21071.7 762.259  11
  -4   6  -2 21750.6 701.381  32
  -4  -6  -2 20722.9 567.338  31
   4  -6   2 20723.0 639.189  27
   4  -6   2 21173.6 717.478  10
  -4  -6  -2 23465.5 1812.06  17
  -4  -6  -2 21808.0 613.521  28
  -4   6  -2 22330.0 680.369  15
   4   6   2 19329.1 1166.35  18
  -4   6  -2 18372.0 1085.99   3
  -5  -6  -2 1480.73 192.453  40
  -5   6  -2 1221.54 189.470  39
   5   6   2 1042.60 133.667  42
   5  -6   2 1165.63 192.987  11
  -5   6  -2 1324.67 182.069  32
  -5  -6  -2 1078.55 136.502  31
   5  -6   2 1317.91 180.801  10
  -5  -6  -2 1039.39 167.588  30
  -5   6  -2 1213.32 165.612  38
  -5  -6  -2 1278.32 157.468  28
   5  -6   2 1163.99 164.654  27
  -5   6  -2 1300.63 167.245  15
  -5  -6  -2 1319.46 179.875  13
   5  -6   2 1128.15 156.054  43
  -5  -6  -2 1384.77 159.222  22
  -6  -6  -2 3922.10 307.726  13
  -6   6  -2 3360.63 263.891  15
  -6  -6  -2 4031.24 267.511  22
  -6  -6  -2 3911.18 297.357  40
  -6   6  -2 4229.09 331.510  39
  -6   6  -2 3811.04 268.751  38
   6   6   2 4007.78 284.875  23
   6  -6   2 3669.24 324.184  11
  -6   6  -2 4059.63 298.540  32
  -6  -6  -2 3752.54 253.340  31
   6  -6   2 3552.64 286.249  10
   6  -6   2 3539.65 254.864  43
   6   6   2 3879.82 248.203  42
  -6  -6  -2 3390.08 301.434  30
  -6   6  -2 3569.94 253.845  29
   6  -6   2 3784.57 283.860  27
   7   6   2 101.189 58.6436  23
  -7  -6  -2 154.133 65.0224  22
  -7   6  -2 193.091 67.6106  39
   7  -6   2 66.6044 67.5147  11
   7   6   2 139.646 59.9628  37
  -7   6  -2 220.738 69.9316  32
   7   6   2 117.248 51.4034  42
  -7  -6  -2 133.139 59.5836  31
  -7  -6  -2 82.2501 55.1751  30
  -7   6  -2 126.709 65.4734  29
   7  -6   2 146.363 60.5176  27
  -7  -6  -2 114.521 62.5337   4
  -7   6  -2 156.123 63.7833  15
   8   6   2 85.6081 33.2712  42
  -8  -6  -2 136.650 52.7542  22
   8   6   2 116.708 46.4228  37
   8  -6   2 128.987 52.0719  27
   8  -6   2 63.0047 53.8446  11
  -8  -6  -2 105.748 48.7847  31
  -8   6  -2 117.975 57.5230  39
   8   6   2 102.556 49.2584  23
  -8  -6  -2 81.1916 45.2094   4
  -8   6  -2 135.785 49.9001  15
   9   6   2 23.0104 21.7715  37
  -9  -6  -2 16.5367 20.0425  31
  -9   6  -2 38.9540 30.3620  39
  -9  -6  -2 58.1636 30.5099   8
   9   6   2 99.8993 35.2020  23
  -9  -6  -2 0.11307 23.8566   4
   9  -6   2-12.3335 23.9296  27
  -9   6  -2 3.08811 23.6175  15
  10   7  -2-2.08573 24.6261  42
 -10  -7   2 25.7406 28.3912  22
  10  -7  -2 38.7880 42.1887  10
 -10   7   2-7.79964 29.0239  32
 -10  -7   2 3.81887 31.4021  31
  10  -7  -2-0.56538 23.8437  30
 -10   7   2 52.9948 39.0398  39
   9   7  -2 4301.86 223.124  42
   9   7  -2 4788.47 232.310  24
  -9   7   2 4944.64 307.421  39
   9   7  -2 4241.49 227.428  12
   9   7  -2 4216.28 204.710  21
  -9   7   2 4761.07 298.232  32
  -9  -7   2 4773.92 248.513  31
   9  -7  -2 4119.72 282.887  10
  -9  -7   2 4587.78 259.902  22
   9  -7  -2 4175.75 233.384  37
  -9  -7   2 4360.19 229.019   4
  -9   7   2 4742.01 284.175  38
   8   7  -2 6830.47 310.316  23
   8   7  -2 7121.67 323.906  42
  -8   7   2 6989.00 409.417  32
  -8  -7   2 7440.52 377.990  22
   8   7  -2 7487.10 319.895  21
   8  -7  -2 6994.48 342.919  37
  -8   7   2 7062.12 420.526  39
  -8   7   2 7141.95 419.199  38
  -8  -7   2 7316.59 346.045  31
   8  -7  -2 8246.52 458.846  10
   8  -7  -2 7183.50 338.955  27
   8   7  -2 7163.76 357.049  12
   7   7  -2 14303.0 486.587  42
   7   7  -2 13820.6 476.408  23
  -7  -7   2 14435.9 554.935  22
  -7   7   2 13899.7 630.365  39
   7   7  -2 14331.4 477.751  21
   7  -7  -2 14540.6 537.409  23
  -7   7   2 14913.4 631.447  32
  -7  -7   2 14341.5 509.770  31
   7  -7  -2 16087.5 678.823  10
   7  -7  -2 14753.3 526.052  37
   7  -7  -2 13410.3 499.447   7
   7  -7  -2 15161.3 538.234  27
   7   7  -2 15181.6 563.000  12
  -7  -7   2 15099.7 571.365  13
  -6  -7   2 7422.79 417.710  13
  -6   7   2 6896.15 450.903  39
   6   7  -2 7455.86 354.187  23
   6  -7  -2 7951.12 394.670  37
  -6  -7   2 7333.57 366.859  31
  -6  -7   2 8854.52 445.694  11
   6  -7  -2 7640.46 476.041  10
   6   7  -2 8093.26 422.403  12
   6   7  -2 8088.15 336.305  16
   6  -7  -2 6620.09 355.361   7
   6  -7  -2 7739.22 394.796  27
  -6  -7   2 7609.64 410.854  22
   6  -7  -2 7823.70 401.020  23
   6   7  -2 8012.27 365.174  21
   6   7  -2 7636.85 360.050  42
   5  -7  -2 170.152 82.1937  10
   5   7  -2 281.189 81.1863  21
   5   7  -2 279.164 96.2335  12
   5   7  -2 110.208 82.7581  36
   5   7  -2 193.980 171.590  34
  -5  -7   2 303.639 95.8202  22
  -5  -7   2 282.766 82.7745  11
   5  -7  -2 244.090 75.5945  37
  -5  -7   2 190.525 78.0327  31
   5  -7  -2 174.906 73.3483   7
   5   7  -2 311.308 76.1890   9
  -5   7   2 327.355 167.123  33
   5  -7  -2-41.3361 77.9534   1
  -5  -7   2 224.920 69.5355  28
   5   7  -2 253.284 68.2276  16
   5  -7  -2 264.836 75.6680  27
   5   7  -2 326.564 87.7072  42
   4   7  -2 10701.5 396.692  42
   4  -7  -2 10775.4 397.486  43
   4  -7  -2 11108.2 444.679  37
   4  -7  -2 12296.0 573.540  10
   4   7  -2 11519.1 423.270  21
   4   7  -2 10709.2 773.253  20
  -4   7   2 8881.07 963.364  20
   4  -7  -2 9734.05 718.571   1
  -4  -7   2 10821.8 859.450  19
   4   7  -2 10735.0 969.595  34
  -4   7   2 12500.0 994.505  33
  -4  -7   2 10830.2 493.178  11
  -4  -7   2 9847.17 394.203  31
   4   7  -2 11520.3 428.072   9
   4   7  -2 11851.9 485.125  12
   4   7  -2 11626.2 421.504  16
  -4  -7   2 10717.8 421.799  28
   4  -7  -2 12112.6 475.086  27
  -4  -7   2 10097.8 461.111  22
   3   7  -2 13677.1 1036.44  34
  -3   7   2 16811.7 1096.65  33
   3   7  -2 16107.5 536.340  12
   3  -7  -2 15600.0 482.777  43
  -3  -7   2 15787.3 585.322  11
   3   7  -2 14696.1 462.676  21
   3   7  -2 14095.5 859.520  20
   3  -7  -2 13898.8 820.770   1
  -3   7   2 13549.1 1115.39  20
  -3  -7   2 14986.1 976.036  19
   3  -7  -2 15643.5 628.160  10
   3  -7  -2 15497.7 525.491  30
  -3  -7   2 14321.4 534.850  22
   3   7  -2 15397.9 478.794   9
   3   7  -2 15537.0 486.677  16
  -3  -7   2 15305.6 508.048  28
   3  -7  -2 15574.6 524.288  27
   2  -7  -2 10342.7 674.883   1
   2   7  -2 10736.7 731.795  20
  -2   7   2 10504.4 924.620  20
  -2  -7   2 11156.2 826.281  19
  -2   7   2 11969.8 884.434  33
   1  -7  -2 1802.20 267.779   1
   1   7  -2 2076.50 320.407  20
  -1   7   2 1993.81 390.699  20
  -1  -7   2 2084.92 359.906  19
  -1   7   2 2485.27 402.539  33
   0   7  -2 15956.4 767.141   3
   0  -7   2 15373.7 965.781  19
   0  -7   2 16040.4 756.754   1
   0   7   2 15442.9 988.755  20
   0   7   2 15309.8 1075.40  18
   0  -7  -2 17361.3 1171.28  17
   0   7  -2 16266.8 893.675  20
   0  -7  -2 15179.5 753.625   1
  -1   7  -2 2489.74 324.404   3
  -1   7  -2 2212.76 336.338  20
   1  -7   2 2602.91 216.517  43
   1  -7   2 2956.81 418.629  19
   1   7   2 2428.00 378.858  20
  -1   7  -2 2854.16 237.430  38
   1   7   2 2592.03 396.626  34
   1  -7   2 2886.45 266.117  11
  -1   7  -2 3023.38 238.963  32
  -1  -7  -2 2985.44 526.431  17
   1   7   2 1974.90 391.611  18
   1  -7   2 2554.93 221.167  28
  -1  -7  -2 2737.61 208.354  43
  -2   7  -2 5672.26 331.426  39
  -2   7  -2 5489.63 527.862   3
  -2   7  -2 6336.32 364.117  38
  -2  -7  -2 5941.56 308.378  43
   2   7   2 5530.60 648.145  18
   2   7   2 6243.97 563.590  20
  -2  -7  -2 5965.02 333.719  11
   2  -7   2 6063.51 611.958  19
   2   7   2 6801.61 670.039  34
  -2   7  -2 6459.73 365.774  32
   2  -7   2 5422.13 368.883  10
  -2  -7  -2 5973.33 836.878  17
   2  -7   2 5995.41 333.052  43
   2  -7   2 6130.30 401.900  11
  -2  -7  -2 6336.16 321.223  28
  -2   7  -2 5704.68 300.811  16
  -2   7  -2 6090.88 324.189  15
  -2  -7  -2 6132.87 346.699  30
  -2  -7  -2 6040.04 308.546  25
   2  -7   2 5678.14 331.333  28
  -3  -7  -2 4353.55 267.192  43
  -3  -7  -2 4668.12 315.246  40
   3  -7   2 4613.28 302.833  43
  -3   7  -2 4592.77 317.703  38
   3   7   2 4900.34 611.134  34
   3  -7   2 4383.46 353.710  11
  -3   7  -2 4399.44 315.129  32
   3   7   2 4155.84 569.049  18
   3  -7   2 4104.52 325.755  10
  -3  -7  -2 4483.77 316.809  30
  -3   7  -2 3924.90 468.919   3
  -3  -7  -2 4799.80 790.391  17
  -3  -7  -2 4704.86 287.693  28
   3  -7   2 4098.74 285.992  28
   3  -7   2 4292.03 285.608  27
  -3   7  -2 4222.82 280.966  15
  -3   7  -2 4581.18 322.270  39
   4  -7   2 256.972 77.7394  43
  -4  -7  -2 318.096 95.1593  13
  -4  -7  -2 308.242 94.4239  40
  -4   7  -2 305.133 94.5080  39
  -4   7  -2 311.814 102.658  38
   4   7   2 315.351 73.8252  21
   4  -7   2 272.218 78.5680  11
  -4   7  -2 262.951 93.6210  32
   4  -7   2 388.616 108.928  10
  -4  -7  -2 131.434 52.3986  30
  -4  -7  -2 351.096 86.9429  28
   4  -7   2 248.012 87.1193  28
   4  -7   2 287.597 87.5156  27
  -4   7  -2 256.717 81.1110  15
   5  -7   2 17027.7 577.030  43
  -5   7  -2 16092.0 623.010  39
   5  -7   2 16115.2 679.708  11
  -5   7  -2 17241.5 599.155  38
  -5  -7  -2 16959.8 626.902  13
  -5   7  -2 18086.1 635.845  32
  -5  -7  -2 16311.5 501.645  31
   5  -7   2 18648.5 664.699  10
  -5  -7  -2 15520.6 609.826  30
   5  -7   2 16635.1 536.581  28
  -5  -7  -2 17130.5 553.323  28
  -5  -7  -2 16453.4 609.652  40
   5  -7   2 17344.2 592.136  27
  -5   7  -2 17158.1 581.964  15
   5   7   2 16948.2 535.046  42
  -5  -7  -2 17472.3 532.691  22
   6   7   2 236.478 67.9404  42
  -6   7  -2 177.205 69.0561  39
  -6  -7  -2 294.081 91.7142  13
  -6  -7  -2 354.560 82.1555  22
  -6   7  -2 237.038 67.6015  38
  -6  -7  -2 344.303 101.707  30
  -6   7  -2 320.861 99.2482  32
  -6  -7  -2 228.357 72.5604  31
   6  -7   2 200.662 64.1871  43
   6  -7   2 285.611 88.4355  10
   6  -7   2 257.348 88.4964  11
   6  -7   2 288.791 82.2588  27
   6   7   2 307.145 91.4578  23
  -6   7  -2 308.810 89.2956  15
  -6  -7  -2 285.980 90.8883  40
   7   7   2 1887.90 148.543  42
  -7   7  -2 1803.55 182.204  39
  -7  -7  -2 1822.92 174.911   4
   7   7   2 1638.31 158.112  37
   7  -7   2 1734.75 190.910  11
  -7   7  -2 2111.94 180.255  32
  -7  -7  -2 1777.85 180.722  30
   7  -7   2 1915.46 171.513  27
  -7   7  -2 1992.41 171.215  15
   7   7   2 1796.74 167.584  23
   8   7   2 926.225 102.657  23
   8   7   2 830.235 80.6015  12
  -8  -7  -2 862.229 101.657   4
   8  -7   2 810.280 91.3972  27
  -8   7  -2 791.319 91.4509  15
   8   7   2 635.942 66.1579  42
  -8   7  -2 800.707 102.719  39
   8   7   2 750.666 89.6470  37
   9   8  -2 270.255 49.9624  42
   9   8  -2 263.244 48.6035  24
   9   8  -2 204.820 43.7857  21
   9   8  -2 246.123 54.2487  12
  -9   8   2 228.569 65.4803  32
  -9  -8   2 292.346 60.7133  31
  -9   8   2 380.048 74.0307  39
   9  -8  -2 248.975 71.3803  10
   9  -8  -2 295.523 62.2121  30
  -9   8   2 363.445 74.4082  38
  -9  -8   2 332.300 66.8715  22
  -9  -8   2 249.688 51.8846   4
   8   8  -2 1311.44 127.019  42
  -8  -8   2 1615.28 161.629  22
   8  -8  -2 1540.54 147.430  37
   8  -8  -2 1495.90 183.237  10
   8   8  -2 1518.50 133.770  21
  -8   8   2 1543.88 179.135  38
  -8   8   2 1567.86 176.759  32
  -8  -8   2 1497.02 141.545  31
   8  -8  -2 1685.35 151.397  27
  -8   8   2 1599.95 170.169  39
   8   8  -2 1438.90 153.840  12
   7   8  -2 82.9391 38.1902  42
  -7  -8   2 154.408 63.8731  13
  -7   8   2 45.4847 63.1789  39
   7   8  -2 126.902 48.4612  21
  -7  -8   2 110.163 64.8503  22
  -7   8   2 195.701 103.590  38
   7  -8  -2 161.147 62.1871  37
   7   8  -2 142.812 67.0145  12
   7  -8  -2 249.357 103.495  10
  -7   8   2 122.547 85.4032  32
  -7  -8   2 200.968 65.5055  31
   7  -8  -2 195.495 66.2525  27
   6   8  -2 2166.80 190.120  21
  -6  -8   2 2260.35 228.397  13
   6   8  -2 2127.17 185.038  42
   6   8  -2 2353.57 190.480  23
   6   8  -2 2268.28 221.957  12
  -6   8   2 2404.74 238.438  39
   6  -8  -2 2291.86 209.903  37
  -6   8   2 2040.46 236.750  32
  -6  -8   2 2189.69 191.423  31
   6  -8  -2 2212.75 261.656  10
   6   8  -2 2327.95 177.665  16
  -6  -8   2 2338.72 185.903  28
   6  -8  -2 2091.88 207.037  27
  -6  -8   2 1998.49 209.882  22
   5  -8  -2 676.897 119.595  37
   5  -8  -2 727.888 107.187  43
   5   8  -2 615.028 101.234  42
  -5  -8   2 763.952 139.900  22
  -5   8   2 535.566 121.341  32
   5   8  -2 677.251 107.717  21
   5   8  -2 835.512 134.661  12
  -5  -8   2 811.926 142.940  11
  -5  -8   2 711.352 111.839  31
   5  -8  -2 804.900 165.626  10
   5   8  -2 670.815 109.401  16
  -5  -8   2 738.121 114.723  28
   5  -8  -2 689.370 125.049  27
   5   8  -2 800.610 114.807   9
   4  -8  -2 993.528 124.270  43
   4   8  -2 1154.17 134.730  42
  -4   8   2 1231.07 368.960  20
  -4  -8   2 1031.27 157.103  22
   4   8  -2 962.232 144.719  12
   4   8  -2 1091.73 135.233  21
   4   8  -2 980.113 245.923  20
  -4   8   2 1212.41 334.256  33
   4   8  -2 991.119 339.260  34
  -4  -8   2 995.503 236.180  19
   4  -8  -2 904.023 231.257   1
  -4   8   2 1150.68 164.078  32
  -4  -8   2 1176.82 138.946  31
   4  -8  -2 1052.30 188.159  10
   4  -8  -2 1178.99 155.122  30
   4   8  -2 1133.49 137.672   9
  -4  -8   2 1121.38 144.409  28
   4   8  -2 1170.93 141.129  16
   4  -8  -2 1277.41 162.699  27
  -4  -8   2 901.643 147.136  11
   3  -8  -2 13153.3 464.717  43
   3   8  -2 13333.9 502.603  12
   3   8  -2 13341.1 457.181  21
   3  -8  -2 12738.0 837.614   1
  -3  -8   2 12744.9 522.451  22
   3   8  -2 13725.9 905.492  20
  -3   8   2 12298.7 1089.12  20
  -3  -8   2 12741.6 549.958  11
  -3  -8   2 13319.2 960.493  19
  -3   8   2 14978.6 1089.90  33
   3  -8  -2 13115.1 609.774  10
  -3  -8   2 12403.2 422.960  31
   3  -8  -2 13235.2 495.281  30
   3   8  -2 14201.2 477.409   9
   3   8  -2 13318.8 471.283  16
  -3  -8   2 13144.2 490.765  28
   3  -8  -2 13571.4 513.153  27
   2  -8  -2 1152.96 138.521  43
  -2   8   2 1284.17 304.989  33
   2   8  -2 1057.84 131.573  38
   2   8  -2 1185.80 151.607  12
   2  -8  -2 877.459 210.325   1
   2   8  -2 1227.27 137.666  21
   2   8  -2 1062.48 249.141  20
  -2  -8   2 1081.74 166.712  11
  -2  -8   2 1101.83 294.270  19
   2   8  -2 1114.54 132.538  32
   2  -8  -2 921.405 152.012  10
   2  -8  -2 1135.20 149.236  30
   2   8  -2 1117.51 142.308  16
  -2  -8   2 916.171 137.031  28
   2  -8  -2 1209.87 161.658  27
  -2   8   2 1221.27 288.915  20
  -2  -8   2 1102.91 157.596  22
   1  -8  -2-53.4886 42.2422  43
   1   8  -2-65.0944 47.9411  38
   1   8  -2 92.9235 49.2999  21
   1   8  -2 50.6553 81.0646  20
  -1  -8   2 21.3216 92.1550  19
   1  -8  -2-25.2973 57.5305   1
  -1   8   2 251.994 146.019  33
  -1  -8   2 33.6249 56.9000  11
   1   8  -2 73.2868 46.0355  32
  -1   8   2 177.877 131.151  20
   1  -8  -2 39.2077 39.6723  30
   1  -8  -2 36.1766 34.8408  28
  -1  -8   2-110.928 59.0326  28
   1   8  -2 15.3953 51.5895  16
   1  -8  -2 2.75314 51.6451  27
  -1  -8   2 126.196 53.4077  43
   0  -8   2 3915.53 262.184  43
   0  -8  -2 4232.00 270.100  43
   0   8  -2 4099.93 280.293  38
   0   8  -2 3700.28 455.345  20
   0   8   2 3924.77 528.694  20
   0  -8  -2 3756.99 262.865  11
   0  -8   2 3512.94 481.736  19
   0   8   2 4311.68 541.193  33
   0   8  -2 3912.89 272.929  32
   0   8   2 3876.00 572.944  18
   0  -8  -2 4175.77 276.055  30
   0  -8   2 3377.78 294.699  11
   0  -8  -2 3553.48 236.037  28
   0   8  -2 4075.25 271.290  16
   0  -8   2 3687.43 269.262  28
   0  -8  -2 3689.56 254.085  25
  -1  -8  -2 15450.3 1262.06  17
   1  -8   2 13942.5 509.227  43
  -1  -8  -2 13966.4 489.612  43
  -1   8  -2 13654.4 880.851  20
  -1  -8  -2 14099.9 480.544  28
   1   8   2 13358.8 921.462  20
  -1  -8  -2 14699.4 527.928  11
   1  -8   2 13395.9 599.691  11
   1  -8   2 16270.1 1021.39  19
  -1   8  -2 13878.0 538.737  32
   1   8   2 14108.1 1083.50  18
  -1   8  -2 13791.0 490.686  16
   1  -8   2 13438.7 517.915  28
  -1  -8  -2 13609.5 516.451  30
  -1   8  -2 13412.5 528.074  38
  -1  -8  -2 14080.4 493.143  25
  -2  -8  -2 58.9684 42.8877  25
  -2  -8  -2 29.3213 43.9104  43
   2  -8   2-10.7175 59.0243  43
   2  -8   2-12.6653 56.9275  11
  -2   8  -2 109.955 69.1585  39
  -2   8  -2-0.93774 48.9142  38
   2   8   2 129.113 104.052  20
  -2  -8  -2 65.0687 59.0859  11
  -2   8  -2-11.9660 61.6692  32
   2  -8   2-351.278 111.873  10
  -2  -8  -2-24.4536 55.7167  30
  -2  -8  -2 264.622 213.679  17
  -2  -8  -2-48.1365 58.5057  28
   2  -8   2 13.2185 54.5997  28
  -2   8  -2 81.9911 54.7688  16
   2   8   2-70.8292 128.325  18
  -2   8  -2-50.1848 58.5254  15
   2  -8   2-136.565 106.201   1
  -3  -8  -2 247.060 79.9233  28
  -3  -8  -2 114.013 58.5957  43
   3   8   2 282.835 81.7147  21
  -3  -8  -2 223.688 80.6269  40
  -3   8  -2 136.375 82.8194  38
  -3   8  -2 381.752 104.773  39
  -3   8  -2 283.661 86.4633  32
   3  -8   2 350.900 116.617  11
   3  -8   2 271.276 106.866  10
  -3  -8  -2 202.715 78.7171  30
   3  -8   2 170.960 68.2848  28
  -3   8  -2 450.379 87.1069  16
   3  -8   2 255.415 62.3848  27
  -3   8  -2 379.727 93.9502  15
   3  -8   2 155.499 66.3926  43
   4   8   2 3492.39 249.414  42
  -4  -8  -2 3032.00 266.820  13
  -4  -8  -2 3037.71 260.798  40
  -4   8  -2 3473.78 276.631  38
   4   8   2 3652.77 232.201  21
  -4  -8  -2 3181.11 268.284  30
   4  -8   2 2876.56 287.704  11
  -4   8  -2 3254.92 273.651  32
   4  -8   2 3081.55 282.793  10
   4  -8   2 3154.30 254.651  43
  -4  -8  -2 3393.70 246.404  28
   4  -8   2 3070.20 234.690  28
   4  -8   2 3472.51 256.255  27
  -4   8  -2 2997.79 238.003  15
  -4   8  -2 3323.05 268.975  39
  -5  -8  -2 263.628 93.7856  40
   5  -8   2 290.037 81.7749  43
  -5  -8  -2 218.439 85.9156  13
  -5   8  -2 128.622 72.0050  39
  -5   8  -2 136.113 74.0375  38
   5   8   2 243.550 58.5158  21
   5  -8   2 205.904 99.0161  11
   5  -8   2 403.934 98.6884  10
   5   8   2 148.761 60.2020  42
  -5   8  -2 120.314 68.5012  32
  -5  -8  -2 74.3314 65.8687  30
  -5  -8  -2 147.335 62.4934  28
   5  -8   2 205.141 70.8294  27
  -5   8  -2 139.201 61.2154  15
   6   8   2 990.728 115.999  42
   6   8   2 1024.84 133.493  23
   6  -8   2 1057.44 123.091  43
  -6   8  -2 1121.59 147.530  39
   6  -8   2 1105.93 163.298  11
  -6  -8  -2 970.009 135.847  40
  -6   8  -2 1160.79 134.068  38
  -6   8  -2 1190.07 147.011  32
   6  -8   2 739.331 119.109  10
  -6  -8  -2 1014.17 140.851  30
  -6  -8  -2 1057.64 144.757  13
   6  -8   2 1027.37 128.973  27
  -6   8  -2 935.981 121.457  15
   7   8   2 1184.99 106.515  42
   7   8   2 946.318 108.595  12
   7   8   2 998.972 109.337  37
   7  -8   2 927.629 119.248  11
  -7   8  -2 933.918 106.877  32
  -7  -8  -2 888.740 104.803  30
  -7  -8  -2 1003.93 116.581   4
   7  -8   2 1092.96 113.512  27
  -7   8  -2 977.357 104.447  15
   7   8   2 1027.97 115.646  23
  -7   8  -2 1112.57 125.317  39
   8   8   2 110.822 34.5685  23
  -8   8  -2 28.2563 23.6082  39
   8   8   2 46.8050 27.0342  37
  -8  -8  -2 32.1206 26.5143   4
  -9   9   2 90.5005 32.5672  32
   9  -9  -2 179.593 46.1798  10
  -9  -9   2 129.281 35.1825  22
   8   9  -2 2046.69 132.865  42
  -8   9   2 2369.27 179.971  38
   8   9  -2 2036.30 156.361  12
   8   9  -2 2017.53 132.509  21
  -8   9   2 2072.07 161.093  32
   8  -9  -2 2131.46 187.060  10
   8  -9  -2 1924.34 142.656  30
  -8  -9   2 2230.12 159.959  22
   8  -9  -2 2146.20 146.530  27
  -7  -9   2 15.4121 55.4727  13
   7   9  -2 70.8872 38.5053  42
  -7  -9   2 32.6347 44.2812  22
  -7   9   2 42.4635 63.4298  38
   7   9  -2 56.8560 47.4806  12
   7  -9  -2 94.2502 50.7305  30
  -7   9   2 113.428 54.5679  32
   7  -9  -2 82.7196 48.3277  27
  -7  -9   2 123.200 50.5678  31
   7  -9  -2-27.7925 57.5117  10
   7   9  -2 99.2758 42.2554  21
  -6  -9   2 2258.31 209.497  13
   6   9  -2 2225.47 174.020  42
  -6   9   2 2348.41 217.124  32
   6   9  -2 2344.55 213.015  12
   6  -9  -2 2397.80 250.813  10
  -6  -9   2 2262.59 173.634  31
   6  -9  -2 2484.82 206.334  30
  -6  -9   2 2436.66 210.138  22
  -6  -9   2 2287.59 173.707  28
  -6   9   2 2526.20 248.746  38
   6   9  -2 2348.72 185.848  21
   6   9  -2 2463.53 167.972  16
   6  -9  -2 2272.39 200.918  27
   6  -9  -2 2285.42 174.163  25
   5  -9  -2 128.079 47.6119  43
   5   9  -2 82.2067 47.6324  42
  -5  -9   2 174.491 65.0990  22
  -5   9   2 100.652 78.3160  38
   5   9  -2 147.199 56.8566  21
   5   9  -2 120.584 68.4418  12
  -5  -9   2 177.287 89.3202  11
  -5   9   2 89.9876 76.4345  32
  -5  -9   2 92.5374 36.5813  31
   5  -9  -2 228.297 105.908  10
   5  -9  -2 58.2652 40.0246  30
   5   9  -2 139.621 52.1282   9
  -5  -9   2 134.386 57.2091  28
   5   9  -2 174.233 56.2513  16
   5  -9  -2 222.917 79.5814  27
   4  -9  -2 1506.79 156.226  43
   4   9  -2 1589.69 154.890  42
   4   9  -2 1447.52 176.174  12
  -4  -9   2 1420.15 178.196  22
  -4   9   2 1296.24 187.741  38
   4   9  -2 1603.35 164.096  21
  -4  -9   2 1503.97 192.617  11
  -4   9   2 1745.67 187.580  32
   4  -9  -2 1833.85 239.807  10
  -4  -9   2 1660.38 154.124  31
   4  -9  -2 1636.12 179.876  30
   4   9  -2 1664.19 160.805   9
   4   9  -2 1393.60 151.988  16
  -4  -9   2 1403.63 161.846  28
   4  -9  -2 1451.41 175.760  27
  -3  -9   2 860.967 147.533  22
   3  -9  -2 750.762 117.508  43
  -3   9   2 1024.74 156.075  38
   3   9  -2 884.093 123.460  21
   3   9  -2 657.509 115.961  12
   3  -9  -2 803.092 130.819  30
  -3  -9   2 665.838 135.571  11
   3  -9  -2 699.732 150.446  10
   3   9  -2 896.685 119.153   9
  -3  -9   2 810.042 126.861  28
   3   9  -2 712.256 116.977  16
   3  -9  -2 807.767 132.298  27
   2  -9  -2 5996.62 323.877  43
  -2  -9   2 6301.09 313.505  43
   2   9  -2 6132.47 311.252   9
   2   9  -2 5514.29 287.734  21
  -2  -9   2 5740.13 376.992  11
   2  -9  -2 5819.29 329.644  30
   2   9  -2 5422.23 317.328  16
  -2  -9   2 5485.84 326.550  28
   2  -9  -2 5604.83 334.612  27
  -2  -9   2 6026.06 357.040  22
  -1  -9   2 14787.7 502.573  43
   1  -9  -2 14598.8 506.851  43
   1   9  -2 14366.4 500.086  38
   1   9  -2 15337.6 464.018  21
   1   9  -2 16228.5 522.503  32
  -1  -9   2 14756.2 610.012  11
   1  -9  -2 15880.7 545.903  30
   1  -9  -2 15711.1 482.132  28
   1   9  -2 15078.7 529.950  16
  -1  -9   2 14443.0 539.609  28
   1  -9  -2 13886.3 508.165  25
   0  -9  -2 4589.31 270.993  28
   0  -9  -2 4300.43 276.929  43
   0   9  -2 3963.19 279.733  38
   0  -9   2 4210.14 275.183  43
   0  -9  -2 4559.72 289.920  11
   0  -9   2 4201.68 336.642  11
   0  -9  -2 4386.61 289.611  30
   0   9  -2 4411.81 292.929  32
   0   9  -2 4552.29 291.479  16
   0  -9   2 4275.30 294.894  28
   0   9   2 4359.91 289.562  16
   0  -9  -2 4437.78 285.011  25
  -1  -9  -2 2011.85 188.204  43
  -1   9  -2 2244.23 218.551  32
  -1  -9  -2 2195.00 204.153  11
   1  -9   2 1898.65 191.720  43
   1  -9   2 2011.11 239.374  11
  -1   9  -2 1907.73 200.763  38
  -1  -9  -2 2103.34 204.728  30
  -1  -9  -2 2085.00 189.187  28
  -1   9  -2 2108.09 197.556  16
   1  -9   2 2245.53 216.037  28
   1   9   2 2249.63 196.378  16
  -1  -9  -2 2149.10 195.630  25
  -2  -9  -2 1861.46 183.571  43
   2  -9   2 1880.90 191.790  43
  -2  -9  -2 1973.25 199.030  11
   2  -9   2 1970.16 232.899  11
  -2   9  -2 1892.27 203.971  32
  -2  -9  -2 1662.68 184.421  30
  -2   9  -2 1713.52 192.172  38
  -2  -9  -2 1766.82 177.690  28
  -2   9  -2 1904.95 183.701  16
   2  -9   2 2034.39 202.642  28
  -2  -9  -2 1946.80 183.138  25
   3  -9   2 283.846 85.3754  43
  -3  -9  -2 318.559 87.9396  13
  -3  -9  -2 283.889 77.2305  43
  -3   9  -2 273.350 80.1643  39
  -3   9  -2 257.156 82.5912  38
   3   9   2 321.840 79.4414  21
  -3  -9  -2 211.865 66.4237  28
   3  -9   2 197.901 82.7528  11
  -3   9  -2 226.885 85.2573  32
  -3  -9  -2 246.038 84.3756  30
  -3  -9  -2 243.221 77.4570  40
   3  -9   2 285.652 80.2032  28
  -3   9  -2 158.768 47.4010  16
   3  -9   2 420.554 88.2902  27
  -3   9  -2 195.831 56.2495  15
   4  -9   2 1455.19 161.920  43
   4   9   2 1725.65 168.486  42
  -4  -9  -2 1626.96 185.233  13
  -4  -9  -2 1561.28 181.025  40
  -4   9  -2 1717.57 172.128  39
  -4   9  -2 1580.54 184.197  32
  -4   9  -2 1607.35 178.055  38
   4   9   2 1672.42 152.770  21
   4  -9   2 1429.04 196.238  11
  -4  -9  -2 1517.27 170.777  30
   4  -9   2 1611.45 157.837  28
  -4  -9  -2 1571.34 162.181  28
   4  -9   2 1604.64 163.536  27
  -4   9  -2 1539.81 157.873  15
   5  -9   2 46.1578 31.6439  43
   5   9   2 6.92691 32.6373  42
  -5  -9  -2 60.0914 53.2990  13
  -5  -9  -2-34.9872 60.2651  40
  -5   9  -2 5.57527 44.6298  38
   5   9   2 19.5654 40.8090  21
   5  -9   2 35.9116 48.8139  11
  -5   9  -2 4.24470 46.9045  32
  -5   9  -2 25.3404 37.9555  39
  -5  -9  -2-31.6620 51.7783  30
   5  -9   2 46.4757 40.9592  27
  -5   9  -2 81.1782 50.0455  15
  -6   9  -2 1333.53 125.946  38
  -6  -9  -2 1496.25 149.222  13
   6   9   2 1640.80 131.899  42
   6   9   2 1612.64 146.168  23
  -6   9  -2 1502.57 137.280  39
   6  -9   2 1533.53 126.129  43
   6   9   2 1757.57 153.422  12
   6  -9   2 1348.61 148.764  11
  -6  -9  -2 1434.60 142.020  40
  -6   9  -2 1393.45 137.427  32
  -6  -9  -2 1493.09 136.828   4
   6  -9   2 1474.06 127.650  27
  -6   9  -2 1487.30 124.881  15
   6   9   2 1462.36 133.603  37
   7   9   2 145.354 37.0098  42
   7   9   2 158.265 42.4898  23
  -7   9  -2 82.0403 37.1875  39
   7   9   2 143.930 37.1638  37
   7   9   2 168.537 45.0314  12
  -7   9  -2 163.386 39.9382  32
   7  -9   2 102.199 32.9773  27
  -7  -9  -2 153.587 40.9493   4
  -8 -10   2 627.312 65.9642  22
   8  10  -2 465.624 59.5531  12
  -8  10   2 580.675 68.1817  38
   8  10  -2 550.386 55.3296  21
   8 -10  -2 550.557 56.8960  27
  -7 -10   2-123.978 44.9357  13
  -7 -10   2-32.0783 38.1596  22
  -7  10   2-28.0758 37.9233  38
   7  10  -2-1.90393 28.7622  21
   7  10  -2 9.55104 33.6947  12
  -7  10   2-13.6297 38.7094  32
   7 -10  -2 37.3481 33.7242  30
   7 -10  -2-11.4396 33.0758  27
  -6 -10   2 218.179 65.5403  13
  -6 -10   2 219.971 64.9352  22
   6  10  -2 146.498 48.2881  21
   6  10  -2 212.805 59.6753  12
  -6  10   2 276.362 68.1331  32
   6 -10  -2 148.477 63.7100  10
  -6  10   2 213.978 67.9424  38
   6 -10  -2 143.989 54.3376  30
  -6 -10   2 130.893 45.1917  28
   6 -10  -2 212.410 64.6726  27
  -5 -10   2 899.818 127.119  22
  -5  10   2 954.285 141.232  38
   5  10  -2 837.566 107.629  21
  -5 -10   2 922.442 137.721  11
  -5  10   2 960.338 126.632  32
   5  10  -2 889.315 126.779  12
   5  10  -2 872.055 101.993  16
  -5 -10   2 1022.24 119.682  28
   5 -10  -2 1010.74 131.813  27
   5 -10  -2 1030.61 126.847  30
   5 -10  -2 832.435 108.202  25
   4 -10  -2 4209.06 245.689  43
  -4 -10   2 4371.94 283.741  22
   4  10  -2 4355.51 275.628  12
  -4  10   2 4523.05 300.235  38
   4  10  -2 4569.92 258.495  21
  -4 -10   2 4549.43 309.334  11
   4 -10  -2 4592.75 271.727  30
   4  10  -2 4261.68 250.233  16
  -4 -10   2 4424.42 265.272  28
   4 -10  -2 4501.97 283.490  27
   4 -10  -2 4362.36 267.510  25
   3 -10  -2 6035.07 310.420  43
  -3 -10   2 6387.13 345.345  22
  -3  10   2 6868.01 355.203  38
   3  10  -2 6016.27 319.521  12
   3  10  -2 6442.12 307.181  21
  -3 -10   2 6530.53 380.598  11
   3  10  -2 6489.79 326.815  16
   3 -10  -2 6698.84 337.276  30
   3  10  -2 6857.77 303.204   9
  -3 -10   2 6620.54 340.196  28
   3 -10  -2 6348.88 344.958  27
   3 -10  -2 6029.47 325.784  25
   2 -10  -2 492.644 100.371  25
  -2 -10   2 452.045 96.4600  22
   2 -10  -2 596.796 106.071  43
  -2 -10   2 567.217 93.3740  43
   2  10  -2 475.869 81.7952  21
  -2 -10   2 583.222 126.257  11
   2 -10  -2 469.894 88.7538  30
   2  10  -2 600.064 96.9613   9
  -2 -10   2 628.507 116.619  28
   2  10  -2 574.053 107.813  16
   1 -10  -2 95.3385 53.1191  25
   1 -10  -2 196.162 61.2778  43
  -1 -10   2 147.879 62.4204  43
  -1 -10   2 150.375 59.6817  22
   1  10  -2 147.652 66.0459  38
   1  10  -2 88.0361 41.3152  21
  -1 -10   2 148.093 73.2874  11
   1 -10  -2 151.542 60.4621  30
   1 -10  -2 161.870 55.2477  28
  -1 -10   2 130.426 59.9433  28
   1  10  -2 100.611 47.4140  16
  -1  10   2 111.372 57.9627  16
   1  10  -2 188.018 58.4455  32
   0 -10  -2-37.3308 40.0677  25
   0 -10  -2-62.7200 47.4286  43
   0  10  -2-27.0100 48.2804  38
   0 -10  -2 140.350 60.0071  11
   0 -10   2-45.7730 42.3112  43
   0 -10   2 1.05508 67.5016  11
   0 -10  -2-6.37760 41.0828  30
   0  10  -2 32.5942 48.5072  32
   0 -10  -2 14.3735 35.4830  28
   0 -10   2 71.2509 65.6335  28
   0  10  -2-6.81275 40.7387  16
   0  10   2-39.5984 58.7669  16
   0 -10   2-67.5158 51.8038  22
   1 -10   2 7111.19 352.800  43
  -1 -10  -2 7833.23 360.086  43
  -1  10  -2 7764.09 379.290  38
  -1 -10  -2 7805.73 368.229  11
   1 -10   2 6732.48 404.147  11
  -1  10  -2 7783.94 372.722  32
  -1 -10  -2 7967.07 372.353  30
  -1 -10  -2 7469.14 343.460  28
  -1  10  -2 7728.48 359.769  16
   1  10   2 7972.12 338.543  16
   1 -10   2 7577.35 371.050  28
  -1 -10  -2 7522.22 353.022  25
  -2 -10  -2 1246.37 141.283  43
   2 -10   2 1325.33 155.207  43
  -2  10  -2 1368.68 162.791  32
   2 -10   2 1320.43 184.625  11
  -2 -10  -2 1264.28 162.367  40
  -2 -10  -2 1375.18 158.925  30
  -2  10  -2 1407.26 164.910  38
   2  10   2 1444.91 154.294  21
  -2 -10  -2 1393.71 148.997  28
  -2  10  -2 1296.66 141.822  16
   2 -10   2 1383.62 151.825  28
  -2 -10  -2 1556.45 151.029  25
  -3 -10  -2 113.008 55.0307  13
  -3 -10  -2 141.639 66.4861  40
  -3  10  -2 230.604 78.8633  38
   3 -10   2 242.926 76.6848  11
  -3 -10  -2 181.764 74.3044  30
   3  10   2 222.296 64.8700  21
  -3  10  -2 208.503 75.6980  32
  -3 -10  -2 277.803 69.5107  28
   3 -10   2 123.809 50.9435  28
   3 -10   2 272.322 65.8243  27
   3 -10   2 237.547 69.9167  43
  -4 -10  -2 191.760 71.8951  13
   4  10   2 222.486 64.3048  42
   4  10   2 184.662 49.5133  21
   4 -10   2 208.353 59.8419  43
  -4  10  -2 136.687 60.0367  32
  -4  10  -2 147.187 55.5572  38
  -4 -10  -2 193.356 65.3999  28
  -4 -10  -2 216.866 67.1609  40
   4 -10   2 123.181 47.6336  27
   4 -10   2 145.039 60.4894  11
   5 -10   2 944.708 101.228  43
   5  10   2 753.312 89.5893  42
  -5 -10  -2 868.006 108.736  40
  -5  10  -2 634.379 76.5860  39
  -5  10  -2 854.181 104.731  38
   5  10   2 927.412 110.441  12
   5  10   2 812.610 78.6805  21
   5 -10   2 757.168 106.880  11
  -5  10  -2 810.924 104.967  32
  -5 -10  -2 742.794 103.190  13
   5  10   2 756.517 100.713  23
   5 -10   2 685.734 81.2023  27
   6  10   2 86.7134 34.4095  42
   6  10   2 89.6220 32.2329  37
   6  10   2 5.29240 26.1851  12
  -6  10  -2 49.4586 30.8125  32
  -6  10  -2 129.449 36.3859  38
   6  10   2 124.261 39.5739  23
   7  11  -2 39.1836 21.3166  21
  -6 -11   2 4962.06 205.830  13
   6  11  -2 5383.96 222.270  12
  -6  11   2 5587.65 229.896  38
   6  11  -2 5253.53 200.750  21
   6 -11  -2 4974.11 187.598  30
  -6  11   2 5426.58 215.133  16
   5 -11  -2 10.5494 26.8395  25
  -5 -11   2 48.4962 40.1561  13
  -5  11   2 72.9891 40.4580  38
   5  11  -2 41.3610 30.4418  21
   5 -11  -2 15.5861 33.5518  30
  -5 -11   2 64.2369 35.4607  22
  -5 -11   2-8.52549 29.8700  28
   5  11  -2 78.9219 35.2751  16
  -5  11   2 74.6507 49.2073  16
  -4 -11   2 2121.28 165.523  22
   4 -11  -2 1775.26 140.394  43
  -4  11   2 1867.84 154.646  38
   4  11  -2 1852.03 143.593  21
  -4 -11   2 2042.80 182.375  11
   4 -11  -2 1857.01 146.744  30
   4  11  -2 1821.49 145.351  16
  -4  11   2 1850.99 170.052  16
  -4 -11   2 1862.84 151.052  28
   4 -11  -2 1913.46 159.314  25
   3 -11  -2 82.8728 45.7001  25
   3  11  -2 76.1851 30.6696  21
  -3 -11   2 134.114 58.1938  22
   3 -11  -2 50.2390 39.9429  30
  -3 -11   2 145.898 54.3354  28
   3  11  -2 99.6721 49.6057  16
  -3  11   2 76.0916 50.4299  16
  -3 -11   2 38.6489 46.2280  11
   3 -11  -2 213.184 57.5374  43
   2 -11  -2 52.8829 45.5083  25
  -2 -11   2 76.7765 42.7784  43
   2 -11  -2 93.5423 51.3760  43
  -2 -11   2 95.3328 37.9060  22
  -2 -11   2 46.5452 47.3871  11
   2 -11  -2 179.871 60.6924  30
  -2 -11   2 32.5293 43.2969  28
   2  11  -2 125.593 55.9950  16
  -2  11   2 75.4944 58.4593  16
   1 -11  -2 457.056 94.5063  25
   1 -11  -2 525.563 93.1000  43
  -1 -11   2 584.593 115.098  11
   1 -11  -2 588.693 97.3560  30
  -1 -11   2 658.415 109.480  28
   1  11  -2 549.356 95.0581  16
  -1  11   2 609.933 103.755  16
  -1 -11   2 542.843 88.7614  43
   0 -11  -2 10.9322 36.9105  25
   0 -11  -2 38.9328 42.4975  43
   0  11  -2-13.1868 31.0147  32
   0 -11   2-54.1586 40.6529  43
   0 -11  -2 172.519 73.7934  30
   0  11  -2 7.93639 33.7373   9
   0 -11   2 61.5993 61.9384  11
   0 -11  -2 47.9410 48.3625  28
   0 -11   2 15.7396 48.7935  28
   0  11  -2 26.9576 40.6847  16
   0  11   2 6.90080 32.3438  16
   0  11  -2-12.1580 37.2568  38
  -1 -11  -2-10.1659 38.8599  25
  -1 -11  -2 79.8291 43.8432  43
   1 -11   2-15.5153 32.7437  43
  -1 -11  -2 50.5118 43.1748  40
   1  11   2 62.4677 47.2734  21
   1 -11   2 69.4380 68.4994  11
  -1  11  -2 24.9864 35.7019  32
  -1 -11  -2-48.4480 36.6699  28
   1 -11   2 39.7166 32.5792  28
  -1  11  -2 53.8836 39.5231  16
   1  11   2 7.61645 38.9473  16
  -1  11  -2 34.6411 34.3384  38
   2 -11   2 1201.52 130.210  43
  -2 -11  -2 1027.92 131.672  13
  -2 -11  -2 1126.20 117.829  43
  -2 -11  -2 1103.70 137.189  40
   2  11   2 1150.37 122.303  21
   2 -11   2 1137.29 145.060  11
  -2  11  -2 1071.18 122.059  32
  -2 -11  -2 1200.51 122.130  28
  -2  11  -2 1012.43 112.069  16
   2 -11   2 1167.77 124.139  28
  -2  11  -2 985.378 119.658  38
  -2 -11  -2 1012.48 106.522  25
  -3 -11  -2 388.483 77.9052  13
   3  11   2 440.670 75.4908  42
  -3 -11  -2 470.012 85.3589  40
  -3  11  -2 363.189 74.4159  38
   3  11   2 558.026 80.5583  21
   3 -11   2 468.607 78.0155  43
  -3  11  -2 454.920 81.1144  32
   3 -11   2 496.756 91.2472  11
  -3 -11  -2 379.254 69.3804  28
   4 -11   2 4044.63 193.987  43
   4  11   2 3661.23 184.017  42
  -4  11  -2 3725.85 197.403  38
  -4 -11  -2 3758.26 208.094  40
  -4 -11  -2 3816.55 206.264  13
   4  11   2 3682.16 192.165  12
   4  11   2 3777.80 166.818  21
   4 -11   2 3908.86 213.705  11
  -4  11  -2 3960.41 199.811  32
   5 -11   2 231.703 39.4009  43
   5  11   2 226.961 41.4939  42
  -5  11  -2 294.348 48.8885  38
  -5 -11  -2 208.011 44.2332  40
   5  11   2 246.145 48.8771  12
  -5  11  -2 239.464 46.3192  32
   5  11   2 241.706 43.7725  23
  -5 -11  -2 195.885 44.9905  13
   5  12  -2 969.784 72.8330  21
  -5  12   2 1060.32 83.7404  16
   4 -12  -2 244.907 49.4768  25
  -4 -12   2 338.901 65.1610  13
  -4 -12   2 234.051 50.0988  28
   4  12  -2 196.261 39.2653  16
  -4  12   2 302.916 59.9371  16
   3 -12  -2 812.027 86.2783  43
   3  12  -2 679.165 79.6648  16
  -3 -12   2 709.096 95.2745  11
  -3 -12   2 776.377 90.5217  28
  -3  12   2 735.563 90.1024  16
   3 -12  -2 683.050 85.0473  25
   2 -12  -2 1230.78 112.368  43
  -2 -12   2 1345.06 136.628  11
   2  12  -2 1237.98 115.636  16
  -2 -12   2 1230.67 116.918  28
  -2  12   2 1143.01 112.017  16
   2 -12  -2 1161.80 114.691  25
   1 -12  -2 41.5674 29.3224  25
   1 -12  -2 63.6307 33.2134  43
  -1 -12   2 39.0246 27.4346  43
  -1  12   2 101.838 46.2844  21
  -1 -12   2 60.5038 45.6747  11
  -1 -12   2 102.763 37.3534  28
   1  12  -2 41.7901 33.7822  16
  -1  12   2 82.3775 41.6016  16
   0  12  -2 1361.12 104.389  38
   0  12   2 1612.27 131.392  21
   0 -12  -2 1523.92 138.948  40
   0 -12   2 1415.29 115.911  43
   0  12  -2 1342.03 120.278  16
   0  12   2 1456.46 113.518  16
   0 -12   2 1503.09 128.883  28
   0 -12   2 1505.73 145.737  11
   0 -12  -2 1459.31 122.538  43
   0 -12  -2 1405.84 119.530  25
  -1 -12  -2 171.708 46.9159  43
   1 -12   2 113.725 35.8842  43
  -1 -12  -2 156.940 47.9378  40
   1  12   2 173.062 44.4953  21
  -1  12  -2 149.903 48.9728  38
   1 -12   2 158.233 55.7857  11
  -1  12  -2 169.818 42.0667  32
   1 -12   2 126.149 45.6241  28
  -1  12  -2 141.335 39.8985  16
  -1 -12  -2 122.915 35.9498  25
   2 -12   2 570.504 72.1551  43
  -2 -12  -2 578.853 82.9999  40
   2  12   2 699.829 81.0166  42
  -2  12  -2 583.177 71.9359  38
   2  12   2 579.589 69.5732  21
   2 -12   2 540.285 79.7098  11
  -2  12  -2 544.004 63.6332  32
  -2 -12  -2 625.816 71.8481  28
   3 -12   2 212.326 44.0707  43
   3  12   2 180.429 40.1123  42
  -3 -12  -2 119.494 41.5639  40
   3  12   2 245.020 43.1057  21
   3 -12   2 145.288 37.5783  11
  -3  12  -2 178.586 36.8169  32
  -3  12  -2 216.393 43.3503  38
   2 -13  -2 71.5802 28.2480  25
  -2 -13   2 62.1597 26.5640  11
  -2 -13   2 3.68479 21.0066  28
   2  13  -2 49.2707 23.4127  16
  -2  13   2 24.1994 25.2712  16
   2 -13  -2 55.9031 23.9465  43
   1 -13  -2 9280.26 229.400  43
  -1  13   2 9077.23 211.658  21
  -1 -13   2 9723.85 262.563  11
   1  13  -2 8749.34 226.113  16
  -1 -13   2 9647.10 234.343  28
   1 -13  -2 8444.86 212.180  25
   0  13   2 586.773 57.2825  42
   0 -13  -2 542.175 60.2767  40
   0  13   2 624.396 58.0361  21
   0 -13   2 655.044 70.8473  11
   0  13  -2 592.782 58.6565  16
   0 -13   2 627.471 59.3770  28
   1  13   2 2382.32 104.254  21
  12   0  -3 42.9844 29.7593  42
 -12   0   3 0.96651 41.9599  29
  12   0  -3 4.97584 19.6258  26
 -12   0   3-8.86827 30.0182  15
  11   0  -3-18.3219 36.3981  24
  11   0  -3 32.0393 37.2321  42
 -11   0   3 58.4874 72.7496  29
 -11   0   3 11.8511 41.6741  15
  10   0  -3 34.7331 54.9206  42
  10   0  -3 40.6676 40.6437  23
  10   0  -3 58.3644 37.6365  21
  10   0  -3-10.2816 44.5491  24
 -10   0   3-5.40985 92.3757  29
  10   0  -3-108.974 51.3514  37
  10   0  -3 10.9400 48.6740   7
 -10   0   3 55.4791 57.8290  15
   9   0  -3 18.8743 60.6952  24
   9   0  -3-12.2496 41.6840  42
   9   0  -3 68.3342 50.1234  23
   9   0  -3 4.88680 34.2128  37
   9   0  -3 3.28699 43.0807  21
  -9   0   3 16.9012 78.3556  29
   9   0  -3 25.0452 62.0814   7
  -9   0   3-5.76993 51.8726  15
   8   0  -3-52.2817 55.4410  42
   8   0  -3 64.0175 45.3217  37
   8   0  -3-89.5870 89.6972  36
   8   0  -3 66.0555 59.7558   7
   8   0  -3-25.3939 45.0955  21
  -8   0   3-43.6032 141.159   2
   8   0  -3 46.5333 64.7590  24
   8   0  -3-36.7051 56.1196  23
  -8   0   3-13.6993 45.2125  15
   7   0  -3 20.8593 34.6800  14
   7   0  -3 46.6517 36.3804   7
   7   0  -3 53.4117 39.2546  42
   7   0  -3 17.8773 42.9390  21
   7   0  -3-136.867 108.047  36
  -7   0   3 218.717 137.704   2
  -7   0   3 164.551 143.256  35
   7   0  -3 61.0245 61.7864  24
   6   0  -3 53.3197 69.3268  36
  -6   0   3 113.695 125.314   2
  -6   0   3 45.0709 74.0688  35
  -5   0   3-35.6791 59.2683  33
  -5   0   3 10.7207 88.0390   2
   5   0  -3-8.74194 66.8520  36
  -5   0   3 157.742 112.192  35
   5   0  -3 36.5786 37.5176   1
   4   0  -3-11.0549 50.4820  36
  -4   0   3-34.3166 83.5262  35
  -4   0   3 39.3078 40.2888  19
  -4   0   3 7.38140 39.7758  33
  -4   0   3 151.391 88.5825   2
   4   0  -3 46.6476 54.0468   1
   3   0  -3 182.570 65.8648   3
   3   0  -3 20.1760 44.4615  36
  -3   0   3 74.9110 126.007  35
  -3   0   3 15.4217 63.4964  19
  -3   0   3 25.4416 51.9507  33
   3   0  -3 78.5658 53.2544   1
   2   0  -3 14.9741 44.7893   1
  -2   0   3 25.3753 41.6758  33
   2   0  -3 30.6944 28.9068  36
   2   0  -3 36.3058 41.5954   3
  -2   0   3-19.3910 55.2462  19
   2   0  -3 28.4298 104.061  17
   1   0  -3 10.4111 14.5167  36
   1   0  -3-12.6205 46.0201   3
   1   0  -3-4.00470 40.2104   1
  -1   0   3-28.0288 77.2264  19
  -1   0   3 24.0527 61.6806  18
   1   0  -3 81.1387 101.467  17
   0   0  -3 28.1974 62.8366   1
   0   0  -3 17.6088 36.5464   3
   0   0   3 82.9938 57.8055  18
   0   0  -3 9.14117 119.573  17
  -1   0  -3 11.6549 55.0856   3
   1   0   3 123.939 64.2049  18
  -1   0  -3 104.737 114.204  17
  -2   0  -3-92.3204 70.0669   3
   2   0   3 156.573 78.8376  18
  -2   0  -3-118.821 122.320  17
   2   0   3 107.896 93.3432  34
   3   0   3 149.505 93.9283  34
  -3   0  -3 60.8248 55.8988   3
   3   0   3-31.0895 53.8536  18
  -3   0  -3 115.074 126.015  17
   4   0   3 48.9005 70.8420  34
  -4   0  -3-84.8306 89.9599   3
   4   0   3-85.5302 59.2199  18
   5   0   3-51.7467 39.6811  37
  -5   0  -3 211.952 117.314   3
   5   0   3-10.9693 73.2870  18
  -5   0  -3-191.633 68.7986  31
  -5   0  -3 7.13773 42.9285  22
  -5   0  -3 35.6589 51.9645  30
  -5   0  -3 87.9145 82.3768  29
   5   0   3-14.0980 84.1009  34
  -5   0  -3 34.4692 39.6647   4
  -6   0  -3-43.2177 51.8999  31
  -6   0  -3 55.0720 58.7689  30
  -6   0  -3 86.8149 68.7641  29
  -6   0  -3 53.7753 65.5826   8
  -6   0  -3 21.3278 56.2596   4
   6   0   3-26.8974 69.9133  37
  -6   0  -3 12.6558 58.9816  15
   7   0   3 0.96411 45.8388  37
  -7   0  -3-20.7743 42.8282  31
  -7   0  -3 48.5114 64.3316  29
  -7   0  -3-18.2671 46.9472   8
   7   0   3 58.9432 63.9634  27
  -7   0  -3-105.318 52.7055  15
   8   0   3 10.5401 36.8454  37
  -8   0  -3-29.2852 45.4710  31
  -8   0  -3 133.256 75.7815  29
  -8   0  -3 26.3853 48.3224   8
   8   0   3-13.4937 39.2809  27
  -9   0  -3-58.7723 45.9804   5
  -9   0  -3-33.7574 29.9948   8
  -9   0  -3 4.68009 31.7231  29
   9   0   3 18.5027 32.2088  27
  12   1  -3 134.021 35.2585  42
 -12   1   3 86.2464 47.2631  29
 -12  -1   3 85.6634 45.5785  29
  12  -1  -3 47.6272 25.5634  26
 -12  -1   3 43.7904 40.5202  15
  11   1  -3 1362.96 138.372  24
  11  -1  -3 1478.76 132.131  23
  11  -1  -3 1389.83 128.674  42
  11   1  -3 1383.22 128.149  42
 -11   1   3 1734.78 200.433  29
 -11  -1   3 1574.93 187.706  29
 -11   1   3 1366.56 147.544  15
 -11  -1   3 1531.93 163.808  15
  11  -1  -3 1400.43 134.588  26
  10  -1  -3 4711.47 294.772  24
  10  -1  -3 4771.45 280.402  23
  10   1  -3 5135.00 284.688  42
  10   1  -3 4582.44 268.325  23
  10   1  -3 4344.64 235.213  21
  10   1  -3 4858.96 298.008  24
  10  -1  -3 4807.06 277.754  37
  10   1  -3 4460.66 253.978  37
  10  -1  -3 4426.46 229.276  21
 -10   1   3 4920.91 378.115  29
 -10  -1   3 4307.59 359.911  29
  10  -1  -3 4441.91 272.050   7
 -10   1   3 5035.96 319.037  15
 -10  -1   3 4614.74 318.119  15
  10  -1  -3 4916.68 279.448  42
   9  -1  -3 6215.31 344.463  23
   9  -1  -3 6447.51 343.233  42
   9   1  -3 6357.76 338.200  42
   9  -1  -3 6325.30 363.988  24
   9   1  -3 6230.17 336.435  23
   9   1  -3 6915.78 375.106  24
   9  -1  -3 6503.76 313.686  21
   9   1  -3 6208.18 308.705  21
   9  -1  -3 6193.36 337.426  37
   9   1  -3 6440.85 332.850  37
  -9   1   3 5513.25 421.669  29
  -9  -1   3 5809.08 432.774  29
   9  -1  -3 6087.21 346.894   7
   9   1  -3 6996.69 345.251   7
  -9   1   3 6016.70 362.736  15
  -9  -1   3 5724.73 365.457  15
   8  -1  -3 8808.05 419.851  24
   8   1  -3 9233.58 433.053  24
   8   1  -3 8834.23 392.550  23
   8  -1  -3 9002.84 402.916  42
   8   1  -3 9206.84 404.514  42
   8   1  -3 8545.87 371.842  21
   8  -1  -3 8777.84 371.419  21
   8  -1  -3 9247.57 407.512  37
   8   1  -3 8802.84 385.783  37
   8  -1  -3 9133.10 802.011  36
   8   1  -3 8534.65 750.809  36
  -8   1   3 9301.89 952.333  35
  -8  -1   3 9349.10 940.209  35
  -8   1   3 8507.93 898.743  33
  -8  -1   3 9301.71 384.717  31
  -8   1   3 8589.36 846.717   2
   8  -1  -3 9746.77 430.994   7
   8   1  -3 9677.74 408.472   7
  -8  -1   3 8694.90 864.975   2
  -8   1   3 8335.52 413.749  15
   8  -1  -3 8929.12 404.273  23
   8   1  -3 8315.28 385.411  14
   7  -1  -3 15768.5 531.670  24
   7   1  -3 15731.3 496.861  42
   7   1  -3 16225.7 486.788  21
   7  -1  -3 16136.6 509.905  37
   7  -1  -3 14305.3 920.754  36
   7   1  -3 14226.2 892.111  36
  -7   1   3 15670.4 1093.43  35
  -7   1   3 15773.9 1083.33  33
   7  -1  -3 16034.3 486.535  21
  -7  -1   3 15892.2 1104.73  35
  -7   1   3 13932.7 984.139   2
   7  -1  -3 16904.2 531.778   7
   7   1  -3 18194.0 528.713   7
  -7   1   3 13828.8 492.139  15
  -7  -1   3 14930.9 1056.55   2
   7  -1  -3 16361.5 516.183  42
   7   1  -3 15889.9 499.930  14
  -6   1   3 692.883 208.793  35
   6  -1  -3 465.784 159.953  36
   6   1  -3 642.533 172.668  36
  -6   1   3 680.267 199.942   2
  -6  -1   3 468.429 191.726  35
  -6  -1   3 533.896 196.979   2
  -6   1   3 679.963 199.312  33
   5  -1  -3 22668.5 752.180   1
  -5  -1   3 21405.9 1041.52   2
   5  -1  -3 22612.5 921.465  36
   5   1  -3 23457.9 911.047  36
  -5   1   3 23645.2 1073.19  35
  -5  -1   3 23290.8 1094.62  35
  -5   1   3 25849.3 1057.97  33
  -5   1   3 23522.4 1022.48   2
  -4  -1   3 25645.4 1090.82  35
   4  -1  -3 24533.9 753.963   1
  -4   1   3 23654.4 983.704  35
  -4  -1   3 27370.8 785.679  33
   4  -1  -3 25156.0 856.694  36
   4   1  -3 25797.2 840.977  36
  -4  -1   3 27648.1 853.894  19
  -4   1   3 27276.1 955.089  33
   4   1  -3 26034.8 635.565   1
   4   1  -3 26313.3 848.615   3
  -4   1   3 24933.3 928.512   2
   3  -1  -3 788.824 133.922  36
   3   1  -3 748.445 134.301   3
   3   1  -3 704.375 125.292  36
   3  -1  -3 646.057 125.200   1
  -3   1   3 653.393 181.166  35
  -3  -1   3 402.536 151.165  35
  -3  -1   3 730.684 104.214  33
  -3   1   3 577.786 131.272   2
  -3   1   3 631.477 94.7693  19
  -3  -1   3 835.140 166.967  19
  -3   1   3 543.839 132.984  33
   3   1  -3 671.045 106.975   1
   3  -1  -3 760.697 215.295  17
   3  -1  -3 703.873 123.947   3
   2   1  -3 171420. 1905.89   3
  -2  -1   3 166878. 1216.68  33
   2  -1  -3 176780. 1629.07  36
   2   1  -3 175548. 1602.25  36
  -2   1   3 183701. 2169.72  33
  -2  -1   3 167883. 2304.41  19
  -2   1   3 165805. 1975.90  19
   2   1  -3 176745. 1756.05   1
   2  -1  -3 172390. 2735.26  17
   2  -1  -3 176031. 1925.15   1
  -2   1   3 171649. 1811.55   2
   2  -1  -3 175002. 1690.06   3
   1   1  -3 6238.17 369.957   3
   1  -1  -3 5473.76 202.757  36
   1   1  -3 6393.67 236.528  36
  -1  -1   3 6012.23 467.094  19
  -1  -1   3 6638.29 264.911  18
   1  -1  -3 6354.88 525.037  17
   1   1  -3 6476.91 489.875  17
   1  -1  -3 6623.89 379.191   1
   1  -1  -3 6354.00 315.156   3
   0  -1  -3 51975.4 953.357   3
   0   1  -3 51527.6 1134.94   3
   0   1   3 53992.2 785.499  20
   0  -1   3 50348.7 1404.01  19
   0  -1   3 54588.0 883.557  18
   0   1   3 55075.5 1310.87  18
   0  -1  -3 52258.7 1099.00   1
   0  -1  -3 54217.3 1581.96  17
   0   1  -3 52532.1 1336.25  17
  -1  -1  -3 30374.6 808.210   3
   1  -1   3 33080.6 818.781  18
   1   1   3 29842.1 1003.14  18
  -1  -1  -3 29440.8 1256.12  17
  -1   1  -3 29458.7 1024.17  17
  -1   1  -3 29325.8 939.044   3
  -2   1  -3 1645.91 250.376   3
   2   1   3 1885.84 268.139  34
   2  -1   3 1721.36 220.515  18
   2   1   3 1820.74 263.788  18
  -2   1  -3 2072.88 290.711  17
  -2  -1  -3 1786.85 363.666  17
  -2  -1  -3 1824.35 232.028   3
  -3   1  -3 14345.2 817.397   3
  -3  -1  -3 15062.6 750.169   3
   3   1   3 15262.7 831.706  34
  -3   1  -3 15768.6 745.482   2
   3  -1   3 14971.4 734.871  18
   3   1   3 15090.9 815.733  18
  -3  -1  -3 14618.0 1069.29  17
   3  -1   3 16830.6 825.215  34
  -4   1  -3 14273.9 893.435   3
   4  -1   3 16770.2 896.699  34
  -4  -1  -3 14040.2 809.348   3
   4  -1   3 15993.3 847.866  18
   4   1   3 13758.1 850.156  18
  -4  -1  -3 15455.3 1195.73  17
   4   1   3 16679.0 954.410  34
  -5  -1  -3 1392.94 163.123  22
  -5   1  -3 1298.95 163.763  39
   5   1   3 1243.24 144.913  37
  -5   1  -3 1251.16 155.084  15
   5   1   3 1094.06 241.518  34
  -5   1  -3 1291.85 305.866   3
  -5   1  -3 1389.20 158.001  31
   5  -1   3 1726.80 304.599  18
   5   1   3 1071.96 256.698  18
  -5   1  -3 1344.84 179.826  30
  -5  -1  -3 1186.10 166.424  30
  -5  -1  -3 1290.81 155.194  31
  -5   1  -3 1228.32 175.363  29
  -5  -1  -3 1323.88 179.155  29
  -5   1  -3 1314.95 161.830   4
  -5  -1  -3 1311.47 168.936   4
  -5   1  -3 1192.80 157.362   8
   5  -1   3 1627.40 310.263  34
   5  -1   3 1162.75 157.438  27
  -6   1  -3 14891.9 548.780  39
   6   1   3 13867.0 498.965  37
  -6   1  -3 15046.3 622.198  29
  -6   1  -3 13510.9 499.256  31
  -6  -1  -3 13214.1 506.918  31
  -6  -1  -3 13403.6 595.690  30
  -6  -1  -3 14721.6 596.109  29
  -6  -1  -3 14360.4 557.223   4
  -6   1  -3 14082.8 544.996   8
  -6  -1  -3 15445.2 556.222  22
   6  -1   3 13664.6 552.434  27
  -6   1  -3 15191.4 545.310  15
   7   1   3 868.117 127.418  23
   7  -1   3 609.934 96.7849  37
   7   1   3 466.586 93.2390  37
  -7   1  -3 458.836 98.5824  31
  -7  -1  -3 543.657 110.660  31
  -7  -1  -3 504.406 136.698  30
  -7  -1  -3 514.003 118.412  29
  -7   1  -3 720.429 137.681  29
  -7   1  -3 593.405 120.146   8
  -7  -1  -3 608.076 119.215   8
  -7  -1  -3 624.962 118.806   4
   7  -1   3 561.075 122.274  27
   7   1   3 625.869 121.650  27
  -7   1  -3 694.115 119.841  15
  -8   1  -3 1013.82 118.038  31
   8  -1   3 1092.80 116.614  37
   8   1   3 1029.93 125.537  37
  -8  -1  -3 1226.83 142.342  31
  -8  -1  -3 1297.82 152.834  29
  -8   1  -3 940.952 139.263  29
  -8   1  -3 1055.42 137.262   8
  -8  -1  -3 1016.21 135.440   8
   8  -1   3 957.656 137.517  27
   8   1   3 1033.44 138.174  27
   9   1   3 148.028 42.8860  37
  -9  -1  -3 182.298 50.0720  31
  -9   1  -3 83.5935 55.5103   5
  -9  -1  -3 211.813 65.0155   5
  -9   1  -3 154.561 53.6165  29
  -9   1  -3 213.000 54.5441   8
  -9  -1  -3 198.293 59.2573   8
   9  -1   3 200.635 57.4551  27
   9   1   3 168.671 49.5986  27
  12   2  -3 28.2617 19.6465  42
  12  -2  -3 27.8130 25.0581  26
  11  -2  -3 44.5534 31.6035  42
  11  -2  -3 33.0061 36.8327  23
  11   2  -3 11.3147 36.7773  24
 -11   2   3 91.5553 72.1186  39
  11  -2  -3 56.8894 42.8033  37
 -11   2   3 78.6622 65.8012  29
 -11  -2   3 103.726 73.2789  29
  11   2  -3 16.0912 37.1571  42
  11  -2  -3 11.8718 32.6845  26
 -11   2   3 33.4263 38.5055  15
 -11  -2   3 34.0499 55.6837  15
  10  -2  -3 1736.69 170.185  23
 -10   2   3 1226.05 212.847  39
  10   2  -3 1793.77 153.412  21
  10  -2  -3 1790.17 169.085  37
  10   2  -3 1946.69 171.066  23
 -10  -2   3 1907.16 168.943  31
 -10   2   3 1764.57 221.706  29
 -10  -2   3 1650.10 223.970  29
  10  -2  -3 1678.72 175.017   7
 -10   2   3 1789.96 186.110  15
 -10  -2   3 1751.92 197.197  15
  10   2  -3 1852.38 182.328  24
  10  -2  -3 1624.61 160.741  42
  10   2  -3 1805.54 171.202  42
   9  -2  -3 5243.72 328.897  24
   9   2  -3 6172.02 354.434  24
   9  -2  -3 6049.35 294.792  21
   9   2  -3 5932.07 323.979  23
   9  -2  -3 5400.12 311.831  42
   9   2  -3 5607.23 323.522  42
   9  -2  -3 5769.07 329.200  23
   9   2  -3 5576.89 294.442  21
   9  -2  -3 5822.01 330.352  37
   9   2  -3 5562.96 298.758  37
  -9  -2   3 6145.13 324.756  31
  -9   2   3 5188.51 397.711  29
  -9  -2   3 5295.41 413.023  29
   9  -2  -3 5607.79 334.541   7
  -9   2   3 6063.39 351.483  15
  -9  -2   3 4822.45 335.993  15
   8  -2  -3 1017.28 142.619  23
   8  -2  -3 776.823 130.302   7
   8  -2  -3 1064.17 142.629  42
   8   2  -3 979.978 137.075  23
   8   2  -3 952.282 141.989  42
   8  -2  -3 1108.76 160.677  24
   8  -2  -3 1037.68 132.432  21
   8   2  -3 919.986 122.895  21
   8  -2  -3 1132.35 152.843  37
  -8   2   3 1151.24 309.929   2
   8  -2  -3 745.909 232.834  36
   8   2  -3 762.267 227.165  36
  -8  -2   3 1049.49 313.553   2
  -8   2   3 1238.48 350.496  35
  -8  -2   3 819.177 307.780  35
  -8   2   3 109.694 177.611  33
  -8  -2   3 984.725 135.967  31
  -8  -2   3 991.088 135.629  22
  -8   2   3 751.498 150.830  29
  -8   2   3 964.070 149.183  15
   8   2  -3 982.720 133.604  14
   7  -2  -3 5275.33 312.204  24
   7  -2  -3 6007.96 319.381  23
   7  -2  -3 6081.62 318.594  42
   7   2  -3 6210.34 314.678  42
   7  -2  -3 6114.37 300.950  21
   7  -2  -3 5703.46 311.283  37
   7  -2  -3 4760.83 553.319  36
   7   2  -3 5377.61 554.507  36
  -7   2   3 5378.44 664.278  35
  -7  -2   3 6676.32 719.034  35
  -7   2   3 6064.63 693.503  33
   7   2  -3 5880.65 297.657  21
  -7  -2   3 5706.41 303.710  31
   7   2  -3 5829.25 280.281  16
   7   2  -3 5722.58 636.787  34
  -7   2   3 4990.38 590.667   2
   7  -2  -3 6102.14 327.089   7
  -7   2   3 4961.61 288.737  15
  -7  -2   3 4702.70 616.678   2
   7   2  -3 5848.96 304.897  14
  -6   2   3 1390.11 291.813   2
   6  -2  -3 1422.70 269.527  36
   6   2  -3 1382.44 259.691  36
  -6   2   3 1701.98 327.246  35
  -6  -2   3 1404.25 318.393  35
   6   2  -3 1487.35 301.240  34
  -6  -2   3 868.217 249.588   2
  -6   2   3 1872.61 339.451  33
   6  -2  -3 1322.03 217.062   1
  -5  -2   3 13702.1 877.414   2
   5  -2  -3 14942.4 672.079   1
   5  -2  -3 15638.1 806.557  36
   5   2  -3 15521.7 755.914  36
  -5   2   3 16210.5 869.755  35
  -5  -2   3 16171.9 939.237  35
  -5  -2   3 16842.8 760.130  19
   5   2  -3 15976.3 923.434  34
  -5   2   3 16561.9 911.070  33
  -5   2   3 15697.1 829.508   2
   4  -2  -3 1982.27 235.770   1
  -4  -2   3 2171.07 322.373  35
   4  -2  -3 1926.17 255.675  36
   4   2  -3 1935.35 242.809  36
  -4   2   3 1934.18 277.658  35
  -4  -2   3 2141.20 273.161  19
  -4   2   3 2450.36 315.854  33
  -4   2   3 2110.36 272.305   2
   4   2  -3 2065.49 248.908   3
   3  -2  -3 22469.5 754.372   1
  -3  -2   3 22511.6 899.655  19
   3  -2  -3 22380.7 756.476  36
   3   2  -3 22100.3 713.270  36
  -3   2   3 21302.5 854.324  35
  -3  -2   3 21697.9 980.170  35
  -3   2   3 23920.3 930.330  33
   3  -2  -3 22304.4 1058.84  17
  -3   2   3 23937.9 765.086   2
   3   2  -3 21490.0 744.053   3
   2  -2  -3 23.4413 36.0559  36
  -2   2   3 133.628 51.8185   2
   2   2  -3-7.29201 36.2470   3
  -2  -2   3 32.6353 61.5766  19
  -2   2   3 193.835 68.3965  19
   2  -2  -3 30.5484 105.649  17
   2  -2  -3 9.48365 38.9950   3
  -2   2   3-130.954 81.5600  35
   2  -2  -3 3.83206 53.9248   1
   1   2  -3 12425.3 567.570   3
  -1   2   3 12712.7 607.037  20
  -1  -2   3 13582.7 738.793  19
   1  -2  -3 12900.0 558.475   1
   1  -2  -3 13675.7 817.045  17
   1  -2  -3 13559.7 407.669   3
   0   2  -3 22368.7 800.043   3
   0   2   3 24715.7 707.661  20
   0   2   3 25026.1 821.421  34
   0  -2  -3 24263.4 557.209   3
   0  -2   3 23433.0 1008.03  19
   0   2   3 24141.7 983.155  18
   0  -2  -3 24916.4 1165.01  17
   0   2  -3 24031.8 814.280  17
   0  -2  -3 23588.1 769.723   1
  -1  -2  -3 31754.5 723.778   3
  -1   2  -3 31414.7 1033.72   3
   1   2   3 35325.0 1078.78  34
   1  -2   3 31192.5 1228.71  19
   1  -2   3 34203.1 740.748  18
  -1  -2  -3 31265.0 917.858   1
  -1  -2  -3 35190.8 1503.62  17
  -1   2  -3 33306.3 941.632  17
   1   2   3 32593.2 1171.29  18
  -2  -2  -3 11242.4 508.455   3
   2  -2   3 11574.2 536.596  18
  -2   2  -3 11859.3 701.572   3
   2   2   3 11992.4 700.175  34
   2  -2   3 11363.0 788.258  19
  -2   2  -3 10321.3 716.589  33
   2   2   3 11566.3 723.963  18
  -2  -2  -3 12236.6 977.473  17
  -3   2  -3 5078.91 515.067   3
   3  -2   3 6520.87 505.804  34
   3   2   3 5344.15 511.864  34
   3  -2   3 5352.86 588.219  19
  -3   2  -3 5171.11 588.119  33
  -3   2  -3 5850.48 497.097   2
   3  -2   3 5788.72 440.912  18
   3   2   3 5282.50 515.376  18
  -3  -2  -3 5573.49 739.692  17
   4  -2   3 13572.7 783.559  34
   4  -2   3 11427.4 922.599  19
  -4   2  -3 12783.3 1037.03  33
   4  -2   3 12234.3 730.378  18
  -4   2  -3 11813.0 769.116   2
   4   2   3 11482.8 816.547  18
  -4   2  -3 10874.7 813.977   3
  -4  -2  -3 12822.4 1180.08  17
   4   2   3 12544.4 873.042  34
   5   2   3 3990.68 516.830  18
  -5  -2  -3 4202.10 277.623  22
  -5   2  -3 3638.39 510.205   3
   5   2   3 4710.05 591.354  34
   5  -2   3 4517.72 617.899  19
   5  -2   3 3845.17 447.094  18
  -5   2  -3 3855.13 258.603  31
  -5  -2  -3 4556.33 289.694  31
  -5  -2  -3 3708.03 304.464  30
  -5   2  -3 4398.82 319.280  39
  -5  -2  -3 4236.51 720.797  17
  -5   2  -3 4097.86 315.854  29
  -5  -2  -3 3915.95 292.753  29
  -5   2  -3 3661.22 270.365   8
  -5  -2  -3 3974.75 282.966   4
   5   2   3 3857.20 258.741  37
   5  -2   3 3962.60 287.506  27
  -5   2  -3 3729.87 271.126  15
   6   2   3 1271.07 157.296  23
  -6  -2  -3 1191.83 158.975  22
  -6   2  -3 1349.45 173.206  39
   6   2   3 1422.25 164.505  37
  -6   2  -3 1187.99 146.191  31
  -6  -2  -3 1325.53 163.767  31
  -6  -2  -3 999.311 171.612  30
  -6   2  -3 1289.37 181.885  29
  -6  -2  -3 1274.62 174.917  29
  -6   2  -3 1102.53 154.969   8
  -6  -2  -3 1183.38 167.044   4
   6  -2   3 1209.46 170.529  27
  -6   2  -3 1286.17 165.845  15
   7   2   3 2150.25 190.523  23
   7   2   3 2084.96 193.527  37
  -7   2  -3 2079.59 185.032  31
  -7  -2  -3 2005.94 200.107  31
  -7  -2  -3 1922.19 232.546  30
  -7  -2  -3 2044.09 208.022  29
  -7   2  -3 2087.53 227.701  29
  -7   2  -3 2058.22 198.551  39
  -7  -2  -3 2246.77 217.914   4
  -7   2  -3 1873.82 195.600   8
   7  -2   3 1983.56 211.239  27
  -7   2  -3 2018.13 196.509  15
   8   2   3 868.646 106.253  23
  -8  -2  -3 869.249 118.311  31
  -8   2  -3 606.724 115.707   5
  -8   2  -3 745.071 122.514  29
  -8  -2  -3 937.935 130.023   4
  -8   2  -3 705.775 110.756   8
  -8  -2  -3 967.948 129.332   8
   8  -2   3 982.057 135.285  27
   8   2   3 747.626 115.521  27
   8   2   3 728.666 103.098  37
  -8   2  -3 671.828 103.857  15
   9   2   3 710.735 80.4133  37
   9  -2   3 642.202 102.911  11
  -9  -2  -3 690.742 107.214   5
  -9  -2  -3 794.816 88.8319  31
  -9   2  -3 506.254 74.8147   5
  -9   2  -3 772.406 96.8229  29
  -9   2  -3 626.637 80.7268   8
  -9  -2  -3 816.569 94.0064   8
   9  -2   3 846.597 99.4590  27
   9   2   3 732.800 91.4625  27
  11   3  -3 994.469 81.6818  21
 -11   3   3 1178.62 155.201  39
  11   3  -3 944.877 102.525  24
  11   3  -3 1070.66 106.413  42
 -11  -3   3 941.019 97.9496  31
  11  -3  -3 1040.99 105.175  23
 -11   3   3 1113.78 133.676  29
 -11  -3   3 862.187 121.779  29
  11  -3  -3 942.740 98.4056  37
 -11   3   3 950.407 103.317  15
 -11  -3   3 1176.91 135.831  15
  11  -3  -3 1104.04 108.964  26
  10  -3  -3 3457.20 231.809  23
  10   3  -3 3514.36 230.016  42
  10   3  -3 3284.34 199.884  21
  10   3  -3 3737.27 248.241  24
  10  -3  -3 3526.31 232.283  37
  10  -3  -3 3690.91 230.325  42
 -10  -3   3 3588.04 231.596  31
 -10  -3   3 3666.03 236.101  22
 -10   3   3 3626.75 293.230  29
 -10  -3   3 3183.95 283.912  29
  10  -3  -3 3353.70 238.529   7
 -10   3   3 3756.17 247.867  15
 -10  -3   3 3253.16 259.015  15
 -10   3   3 2614.91 296.693  39
  10  -3  -3 3652.87 239.506  26
   9  -3  -3 104.214 69.1032   7
   9   3  -3-32.9310 58.3062  24
   9  -3  -3 34.3947 53.1056  42
   9   3  -3 7.24775 40.4736  42
   9  -3  -3 16.9025 53.9251  23
   9  -3  -3 29.9411 46.0772  37
   9   3  -3 32.9472 36.7537  21
  -9  -3   3 27.2431 47.3496  31
  -9  -3   3 101.500 44.1581  22
   9   3  -3-23.4701 50.9179  23
  -9   3   3 134.030 83.8181  29
  -9  -3   3 46.5657 80.8096  29
  -9   3   3 76.7670 53.3307  15
  -9  -3   3 21.6773 55.3381  15
   8  -3  -3 5668.38 341.015  24
   8  -3  -3 6317.63 341.608  42
   8   3  -3 5907.81 318.274  23
   8   3  -3 6163.22 335.555  42
  -8  -3   3 6404.27 352.958  22
   8   3  -3 6008.31 330.616  12
   8   3  -3 5438.67 301.715  21
   8  -3  -3 5825.03 332.933  37
  -8  -3   3 5466.04 319.454  31
  -8   3   3 4998.53 368.164  29
   8  -3  -3 5799.69 344.267   7
  -8   3   3 5854.14 333.788  15
   8  -3  -3 5639.94 331.217  23
   8   3  -3 5741.27 314.028  14
   7   3  -3-7.25015 45.2305  14
   7  -3  -3 37.3262 52.9412  24
   7  -3  -3 7.90988 47.3515   7
   7  -3  -3 62.9191 53.7253  42
   7   3  -3-64.6674 41.9350  42
   7  -3  -3 38.1657 45.5798  23
  -7  -3   3-4.53328 50.2301  22
   7   3  -3 152.412 157.417  34
  -7   3   3 245.359 148.901   2
   7  -3  -3 19.3738 49.9786  21
   7  -3  -3 29.2884 48.2953  37
   7  -3  -3 0.63904 50.6182   1
   7   3  -3 15.3915 51.4533  21
   7   3  -3-12.6177 45.3081  12
   7  -3  -3-16.6032 79.4450  36
   7   3  -3 31.5387 64.1088  36
  -7   3   3-28.2887 95.9371  35
  -7  -3   3 39.6344 166.653  35
  -7  -3   3-370.441 200.530   2
  -7   3   3 65.8660 128.472  33
  -7  -3   3 8.54878 44.1778  31
   7   3  -3-76.0904 40.9625  16
  -6   3   3 117.627 124.703   2
   6  -3  -3 9.04212 52.7277  36
   6   3  -3 1.42013 36.9896  36
  -6   3   3-120.052 112.909  35
  -6  -3   3-11.2281 132.783  35
   6  -3  -3-7.04359 38.4409   1
   6   3  -3 144.886 122.519  34
  -6  -3   3 114.220 115.422   2
   5  -3  -3 14247.8 720.236   1
   5  -3  -3 14813.4 834.543  36
   5   3  -3 15474.9 788.006  36
  -5   3   3 17393.2 891.766  35
  -5  -3   3 14646.3 898.425  35
  -5   3   3 16558.3 985.312  33
  -5  -3   3 16428.5 848.051  19
   5   3  -3 16295.6 1010.78  34
  -5   3   3 15324.4 836.388   2
   4  -3  -3 4127.93 368.136   1
  -4   3   3 4608.55 478.261  33
   4  -3  -3 4287.36 407.081  36
   4   3  -3 4499.76 383.393  36
  -4   3   3 4535.70 410.050  35
  -4  -3   3 4896.52 495.700  35
  -4  -3   3 4374.07 437.071  19
   4   3  -3 4238.64 496.809  34
  -4   3   3 4812.74 410.885   2
   4   3  -3 4282.26 371.275   3
  -3   3   3 4381.46 366.812  35
  -3  -3   3 3244.38 389.110  35
  -3  -3   3 3953.25 413.929  19
  -3   3   3 3885.46 417.390  33
   3  -3  -3 4035.10 475.377  17
   3  -3  -3 3620.68 337.547  36
  -3   3   3 4029.36 323.699   2
   3  -3  -3 3749.65 335.783   1
   3   3  -3 3746.65 327.518   3
   2   3  -3 1162.62 183.486   3
   2  -3  -3 1155.44 184.696   1
   2  -3  -3 1319.94 183.302  36
  -2   3   3 1145.34 186.947  35
  -2   3   3 1468.77 173.443  34
  -2   3   3 1212.67 251.889  20
  -2  -3   3 879.118 207.477  19
   2  -3  -3 1267.72 276.258  17
  -1   3   3 1650.09 201.545  34
   1   3  -3 1540.12 211.810   3
   1   3  -3 1747.00 179.929  20
   1  -3  -3 1830.34 332.799  17
  -1   3   3 2069.38 283.664  20
  -1  -3   3 1648.07 283.875  19
   1  -3  -3 1761.83 223.738   1
   0   3  -3 15096.2 696.480   3
   0  -3  -3 16177.8 1023.01  17
   0   3  -3 15486.9 468.526  20
   0   3   3 17581.9 717.420  20
   0  -3   3 15087.0 861.652  19
   0   3   3 15755.7 879.044  18
   0  -3  -3 15120.8 650.303   1
   0   3   3 16413.0 692.667  34
  -1   3  -3 7249.19 523.473   3
   1   3   3 7843.88 531.323  34
   1  -3   3 6739.90 606.459  19
   1   3   3 7312.91 612.422  18
  -1  -3  -3 8253.11 798.058  17
  -1  -3  -3 7206.90 461.466   1
  -2   3  -3 4709.42 465.384   3
   2  -3   3 4599.76 522.244  19
  -2   3  -3 4185.94 447.989  33
   2   3   3 4452.91 497.587  18
  -2  -3  -3 4405.49 641.655  17
   2   3   3 5598.85 500.538  34
   3   3   3 243.732 132.306  18
   3   3   3 143.216 105.021  34
  -3   3  -3 376.413 144.437   3
  -3   3  -3 392.158 174.158  33
   3  -3   3 284.579 149.111  19
  -3  -3  -3 248.024 182.345  17
  -4  -3  -3 1090.25 153.608  13
  -4  -3  -3 1400.78 169.343  40
  -4   3  -3 1544.84 196.231  39
   4   3   3 981.705 259.161  34
  -4   3  -3 1020.70 254.458   3
   4  -3   3 1001.94 273.191  19
  -4   3  -3 1405.81 347.557  33
  -4   3  -3 1279.05 144.789  31
  -4  -3  -3 1029.38 131.548  31
   4   3   3 681.047 217.969  18
  -4  -3  -3 1023.98 150.916  30
  -4  -3  -3 1233.25 432.396  17
  -4   3  -3 965.254 146.773  29
  -4   3  -3 1239.64 151.021   8
  -4  -3  -3 1158.71 153.041   4
   4  -3   3 1265.91 158.001  27
  -4   3  -3 1285.76 156.017  15
   5   3   3 8850.24 395.224  23
  -5  -3  -3 8567.75 397.068  22
  -5   3  -3 7788.35 753.837   3
   5   3   3 10420.4 905.914  34
  -5   3  -3 9198.23 957.415  33
   5   3   3 8310.10 763.318  18
  -5   3  -3 8025.22 364.449  31
  -5  -3  -3 8671.42 400.264  31
  -5  -3  -3 8130.30 454.745  30
  -5  -3  -3 8326.23 1077.80  17
  -5   3  -3 7998.03 434.174  29
  -5   3  -3 8819.93 461.980  39
  -5   3  -3 8000.90 399.551   8
  -5  -3  -3 7956.46 402.188   4
   5  -3   3 7767.04 402.615  27
  -5   3  -3 8234.36 406.146  15
   5  -3   3 7817.10 829.587  19
   6   3   3 8866.60 403.120  23
  -6  -3  -3 8758.88 408.952  22
  -6   3  -3 9050.87 458.770  39
   6   3   3 7800.67 386.005  37
  -6  -3  -3 8188.36 400.486  31
  -6  -3  -3 7728.99 462.286  30
  -6  -3  -3 8804.15 409.863  29
  -6   3  -3 8949.12 463.434  29
  -6   3  -3 8357.85 414.418   8
  -6  -3  -3 8472.66 430.732   4
   6  -3   3 8466.33 429.879  27
  -6   3  -3 8257.79 412.718  15
   7  -3   3-0.21703 27.7014  43
   7   3   3 59.6088 45.6505  23
  -7  -3  -3-8.91437 52.0062  22
   7   3   3-21.8712 41.0105  37
  -7   3  -3-2.27431 38.5477  39
  -7  -3  -3-7.47078 58.3528  31
  -7  -3  -3-8.16880 55.7932  30
  -7   3  -3 43.9921 51.1074   5
  -7   3  -3 45.7166 65.2945  29
  -7   3  -3 8.57470 40.8769   8
  -7  -3  -3 16.3506 51.2678   4
   7  -3   3 40.0592 63.2761  27
  -7   3  -3 50.5136 48.2548  15
  -8  -3  -3-122.292 64.0948   5
  -8   3  -3 59.9656 50.5685  29
  -8  -3  -3 12.6001 42.3227  31
  -8   3  -3-18.5713 46.6695   8
  -8  -3  -3-26.9254 36.4999   8
  -8  -3  -3 53.1651 43.9027   4
   8  -3   3 80.7319 37.0091  27
   8   3   3-32.9238 44.0406  27
  -8   3  -3 19.6899 37.8875  15
   8   3   3 46.7719 49.1212  37
   8   3   3 27.3759 34.8619  23
  -9   3  -3 48.8421 34.8585  41
   9   3   3-2.29401 33.6904  37
   9  -3   3 7.68839 30.3403  11
  -9  -3  -3 30.1812 37.3133   5
  -9   3  -3 80.5763 40.5720  29
  -9  -3  -3 50.3090 36.3632   8
   9  -3   3 9.69838 32.3177  27
   9   3   3 12.0634 26.6557  27
  -9  -3  -3 6.77859 25.8876  31
  11   4  -3 873.886 90.7798  42
  11   4  -3 935.462 96.3487  24
 -11   4   3 976.364 138.924  39
  11  -4  -3 785.888 86.9082  23
  11  -4  -3 906.441 91.8938  37
 -11   4   3 933.725 120.174  32
 -11  -4   3 805.577 87.2153  31
  11  -4  -3 724.539 104.969  10
 -11  -4   3 831.671 106.686  15
  11  -4  -3 695.080 78.8470  26
  11   4  -3 766.760 67.7254  21
  10   4  -3 861.380 121.625  24
  10   4  -3 857.888 110.108  42
 -10  -4   3 861.449 117.661  22
 -10   4   3 640.139 152.440  39
  10   4  -3 863.827 103.248  21
  10  -4  -3 751.401 106.256  37
 -10  -4   3 1019.86 123.669  31
 -10   4   3 955.304 137.893  29
  10  -4  -3 802.670 120.227   7
  10  -4  -3 853.663 111.534  26
 -10  -4   3 767.033 125.288  15
  10  -4  -3 874.573 114.696  23
   9  -4  -3 9576.50 415.569  23
   9  -4  -3 9429.62 395.924  42
   9   4  -3 10007.7 407.937  42
  -9  -4   3 9929.78 432.650  22
   9   4  -3 9175.30 381.656  12
   9   4  -3 10048.7 386.336  21
   9  -4  -3 9086.72 402.265  37
  -9  -4   3 9819.18 416.722  31
  -9   4   3 8787.57 456.066  29
  -9  -4   3 8162.83 459.782  29
   9  -4  -3 9272.99 425.352   7
   9  -4  -3 9214.63 402.950  26
   8   4  -3 297.457 81.5403  14
   8  -4  -3 319.669 85.4368  42
   8   4  -3 358.182 85.0769  42
   8  -4  -3 318.702 88.1882  23
   8  -4  -3 408.145 99.8823  37
   8   4  -3 276.800 81.7763  21
   8   4  -3 228.054 80.2391  12
   8  -4  -3 394.478 105.083   7
  -8  -4   3 376.131 97.4137  31
  -8  -4   3 296.316 90.2550  22
  -8   4   3 331.648 102.811  29
   8  -4  -3 290.142 74.2739  26
   7  -4  -3 127.830 68.2850   7
   7  -4  -3 136.920 68.0953  42
   7   4  -3 169.160 60.8455  42
   7  -4  -3 54.8881 45.7736  23
  -7  -4   3 121.104 49.6451  22
  -7   4   3-111.049 106.172   2
   7  -4  -3 152.898 69.0114  37
   7   4  -3 105.872 42.3040  21
   7   4  -3 148.486 67.6784  12
   7  -4  -3 132.509 116.669  36
   7   4  -3-27.6137 45.3894  36
   7   4  -3 178.788 60.3334  14
   7  -4  -3 29.4381 64.7773   1
  -7  -4   3-111.796 124.507  35
  -7   4   3 42.0963 98.7116  20
   7   4  -3 545.632 227.388  34
  -7  -4   3 358.527 178.517   2
  -7   4   3 6.86309 177.115  33
  -7  -4   3 201.615 83.0110  31
   7   4  -3 230.297 65.9457  16
   7  -4  -3 173.385 55.8696  26
   6  -4  -3 12862.6 469.150  24
   6   4  -3 15358.8 476.076  14
   6  -4  -3 14985.8 502.117  23
  -6  -4   3 10719.1 928.126   2
   6   4  -3 14323.9 459.699  42
  -6  -4   3 14076.3 522.994  22
   6   4  -3 15452.1 542.022  12
   6  -4  -3 14448.3 482.792  42
   6   4  -3 14592.4 466.257  21
   6  -4  -3 13103.3 786.159   1
   6  -4  -3 14413.3 492.120  37
   6   4  -3 13439.6 843.659  36
  -6  -4   3 14477.6 970.733  35
  -6  -4   3 14326.9 883.376  19
   6   4  -3 14222.5 1089.63  34
  -6   4   3 14671.0 1074.82  33
  -6  -4   3 13246.5 477.848  31
   6   4  -3 14802.0 487.759   9
   6   4  -3 15818.9 467.146  16
  -6   4   3 12420.9 877.456   2
   6  -4  -3 13913.4 489.778   7
   6  -4  -3 14924.8 500.311  26
   6  -4  -3 12448.6 885.368  36
  -5   4   3 1640.04 298.545   2
   5  -4  -3 1595.76 259.800   1
   5   4  -3 1776.59 275.308  36
   5  -4  -3 1467.89 287.921  36
  -5  -4   3 1755.98 319.568  35
  -5  -4   3 1881.18 318.053  19
   5   4  -3 1859.55 375.712  34
  -5   4   3 1690.46 336.799  33
   4  -4  -3 36356.2 1177.68   1
   4  -4  -3 37404.6 1287.01  36
   4   4  -3 36276.2 1174.19  36
  -4  -4   3 38321.4 1399.63  35
  -4   4   3 35385.0 1546.59  20
  -4  -4   3 36023.5 1373.21  19
   4   4  -3 36713.9 1536.39  34
  -4   4   3 40466.3 1532.76  33
  -4   4   3 39617.5 1222.12   2
   4   4  -3 38345.1 1159.83   3
   3  -4  -3 1233.52 213.140   1
   3  -4  -3 1149.69 209.135  36
  -3  -4   3 973.821 230.402  35
  -3   4   3 933.517 240.693  20
  -3  -4   3 1316.93 258.357  19
  -3   4   3 1238.74 254.400  33
   3  -4  -3 1666.77 313.370  17
   3   4  -3 1216.16 199.231   3
   2   4  -3 2342.73 269.178   3
   2  -4  -3 2652.35 298.629   1
  -2   4   3 1935.60 335.200  20
   2   4  -3 2289.65 254.423  20
  -2  -4   3 2427.57 351.961  19
  -2   4   3 2879.44 382.604  33
   2  -4  -3 2801.84 406.888  17
   1   4  -3 2498.28 282.258   3
   1   4  -3 2782.74 259.448  20
  -1   4   3 2128.15 335.681  20
  -1   4   3 2462.41 257.923  34
  -1  -4   3 2713.66 387.858  19
   1  -4  -3 2286.22 384.720  17
   1  -4  -3 2143.53 264.733   1
   0  -4  -3 8885.29 807.244  17
   0   4  -3 7684.20 532.613   3
   0   4  -3 7921.31 407.976  20
   0   4   3 8891.93 582.790  20
   0   4   3 8974.06 545.740  34
   0   4   3 7789.96 683.441  18
   0  -4  -3 8193.48 507.581   1
   0  -4   3 6891.36 617.485  19
  -1   4  -3 7629.44 570.763   3
   1  -4   3 7677.31 678.589  19
   1   4   3 7653.17 680.884  18
  -1  -4  -3 8365.38 857.928  17
  -1  -4  -3 6971.72 471.506   1
   1   4   3 8540.20 595.407  34
   2   4   3 33113.1 1305.50  34
   2  -4   3 30882.8 1419.38  19
  -2   4  -3 29218.7 1210.96   3
   2   4   3 32949.5 1434.98  18
  -2  -4  -3 34553.0 1881.23  17
   3   4   3 243.481 140.405  34
  -3   4  -3 322.200 115.149   3
   3  -4   3 366.796 176.063  19
   3   4   3 199.740 131.473  18
  -3  -4  -3 550.327 335.650  17
  -4  -4  -3 575.352 114.900  13
  -4  -4  -3 748.398 129.414  40
  -4   4  -3 667.507 132.113  39
   4   4   3 428.571 203.611  34
  -4   4  -3 593.045 215.442   3
   4  -4   3 1285.33 315.014  19
  -4   4  -3 686.771 121.903  32
  -4  -4  -3 777.618 118.129  22
  -4  -4  -3 651.197 110.130  31
  -4  -4  -3 516.578 127.948  30
  -4  -4  -3 91.3491 350.213  17
  -4   4  -3 416.005 98.0549  29
  -4   4  -3 633.626 109.034   8
   4   4   3 748.483 269.190  18
   4  -4   3 393.241 98.8030  27
  -4   4  -3 806.003 134.242  15
   5   4   3 3658.20 262.254  23
  -5  -4  -3 3505.15 252.340  22
  -5  -4  -3 3171.29 267.924  40
  -5   4  -3 3075.42 281.626  39
   5   4   3 4557.92 634.112  34
  -5  -4  -3 3135.75 245.388  31
  -5  -4  -3 2972.59 287.786  30
  -5  -4  -3 2999.08 666.485  17
  -5   4  -3 3159.42 269.005  29
  -5   4  -3 3228.10 257.199   8
  -5  -4  -3 3464.68 270.317   4
   5  -4   3 3293.69 270.043  27
  -5   4  -3 3249.97 263.887  15
  -5  -4  -3 3289.36 276.123  13
   6  -4   3 2230.87 210.292  43
  -6  -4  -3 2514.82 217.642  22
  -6   4  -3 2537.73 245.971  39
   6   4   3 2543.86 222.971  37
   6   4   3 2543.94 219.514  23
  -6  -4  -3 2398.22 213.062  31
  -6  -4  -3 1998.34 234.699  30
  -6   4  -3 2278.73 230.282  29
  -6   4  -3 2506.59 227.527   8
  -6  -4  -3 2474.24 232.649   4
   6  -4   3 2358.11 230.008  27
  -6   4  -3 2386.76 224.332  15
   7   4   3 5953.83 308.254  23
   7  -4   3 5423.67 372.456  11
  -7   4  -3 5700.80 334.561  39
  -7  -4  -3 5203.23 360.117   5
  -7  -4  -3 5796.95 311.162  31
  -7  -4  -3 5403.15 366.275  30
  -7  -4  -3 5875.77 309.616  22
   7   4   3 5790.38 312.389  37
  -7   4  -3 5466.93 326.126  29
   7  -4   3 5551.69 288.517  43
  -7   4  -3 5888.93 319.347   8
  -7  -4  -3 5832.41 331.711   4
   7  -4   3 5960.71 334.133  27
  -7   4  -3 5508.50 311.202  15
   8   4   3 284.480 68.3438  37
   8  -4   3 194.689 73.7323  11
  -8  -4  -3 134.981 45.0190  31
  -8  -4  -3 115.140 59.2461   5
  -8   4  -3 139.681 53.5532  29
   8   4   3 293.915 64.8372  23
  -8  -4  -3 306.697 73.1034   8
  -8  -4  -3 223.568 68.1589   4
   8  -4   3 231.199 66.6552  27
   8   4   3 127.806 46.3565  27
  -8   4  -3 178.156 54.4273  15
   9  -4   3 6.02794 30.1066  11
  -9  -4  -3 23.1934 26.1289  31
  -9   4  -3 36.7434 25.0880  29
  -9  -4  -3 50.1480 26.2240   8
   9  -4   3 10.4994 26.3839  27
   9   4   3 59.2990 29.3467  27
  -9   4  -3 13.3000 26.4457  41
  11   5  -3 27.4294 21.4842  42
  11   5  -3 25.9083 24.2433  24
 -11   5   3 89.8013 51.2927  39
  11  -5  -3 39.7102 27.6656  37
 -11   5   3 70.6874 48.3110  32
 -11  -5   3-47.6358 32.1150  31
  11  -5  -3 73.4789 38.9336  10
 -11  -5   3 33.2546 31.4341  15
  10  -5  -3 56.8703 41.4972  23
  10   5  -3-25.8126 36.7551  42
 -10  -5   3 24.5912 45.7402  22
 -10   5   3 102.505 88.1187  39
  10  -5  -3 28.4267 34.8512  37
  10   5  -3 50.9884 28.5495  21
 -10   5   3 20.6097 54.8261  32
 -10  -5   3-63.0387 56.2443  31
  10  -5  -3 58.9226 60.8835  10
  10   5  -3 2.39109 41.7696  24
  10  -5  -3 7.70578 36.4478  26
 -10  -5   3 5.84133 46.4733  15
   9   5  -3 7412.81 336.154  42
  -9  -5   3 7712.71 374.253  22
   9   5  -3 7386.14 340.895  12
  -9   5   3 6238.37 439.755  39
   9   5  -3 7599.34 325.839  21
   9  -5  -3 7423.44 355.591  37
  -9  -5   3 7456.44 357.511  31
   9  -5  -3 7596.64 357.133  23
   9  -5  -3 7395.85 365.786   7
   9  -5  -3 7334.96 333.022  26
   8   5  -3 377.845 81.7057  14
   8  -5  -3 406.107 98.1498  23
   8   5  -3 318.460 80.7185  42
   8  -5  -3 352.108 102.136   7
  -8  -5   3 364.724 108.440  22
   8  -5  -3 279.235 81.8264  37
   8   5  -3 317.315 81.3543  21
   8   5  -3 223.027 70.4929  12
  -8  -5   3 410.278 91.4012  31
  -8  -5   3 360.762 113.655  29
   8  -5  -3 331.529 75.7549  27
   8  -5  -3 227.668 72.0819  26
   7  -5  -3 18064.3 592.111  23
   7   5  -3 18195.3 555.295  42
  -7  -5   3 18203.3 624.285  22
   7   5  -3 18234.9 625.417  12
   7  -5  -3 18079.0 586.778  37
   7   5  -3 18284.4 556.110  21
  -7  -5   3 17354.2 576.415  31
   7   5  -3 18886.5 521.164  16
   7  -5  -3 19419.5 576.391  27
   7  -5  -3 18034.8 595.566   7
   7  -5  -3 17853.3 567.281  26
   7   5  -3 19796.7 563.347  14
   6  -5  -3 62.7704 64.4932   7
   6  -5  -3 110.447 57.0226  23
   6   5  -3 121.628 51.3979  42
  -6   5   3 656.483 213.398   2
  -6  -5   3 128.176 73.4422  22
   6  -5  -3 51.9208 60.9116  37
   6   5  -3 15.2595 32.0209  21
   6   5  -3 22.5842 37.0718  12
   6  -5  -3 129.024 108.055  36
   6   5  -3 194.252 107.445  36
  -6  -5   3 492.844 193.923  35
  -6   5   3-152.763 168.958  20
   6   5  -3 83.3600 131.512  34
  -6  -5   3-366.927 165.062  19
  -6   5   3-231.890 168.597  33
   6  -5  -3 172.796 126.891   1
  -6  -5   3 201.994 163.059   2
  -6  -5   3 26.3384 41.2599  31
   6   5  -3 91.5353 50.8461   9
   6   5  -3 81.9561 45.9286  14
   6   5  -3 6.00618 31.7265  16
   6  -5  -3 115.652 55.5712  27
   6  -5  -3 40.0017 40.4382  26
  -5   5   3 401.343 160.138   2
  -5  -5   3 93.3449 43.2249  22
   5  -5  -3 89.2120 37.0271  37
   5   5  -3 178.707 56.3137  21
   5   5  -3 124.422 49.5258  12
   5  -5  -3 50.1611 70.3747  36
   5   5  -3 102.076 83.8913  36
  -5  -5   3 213.834 127.750  35
  -5   5   3 314.854 180.609  20
   5   5  -3 362.853 191.460  34
  -5  -5   3 598.004 196.407  19
  -5   5   3 127.595 126.999  33
   5  -5  -3 12.7988 66.5087   1
   5   5  -3 124.801 50.9646   9
   5   5  -3 150.443 45.8023  16
   5  -5  -3 187.079 74.4444  26
   4  -5  -3 29020.2 1136.62   1
   4  -5  -3 29468.6 1251.68  36
  -4  -5   3 31921.4 1273.35  35
  -4   5   3 27494.7 1491.33  20
  -4  -5   3 30567.7 1346.75  19
   4   5  -3 30816.1 1077.04   3
   3  -5  -3 1831.13 276.342   1
   3   5  -3 2487.24 318.287  20
  -3  -5   3 2093.30 324.367  35
  -3   5   3 1746.13 359.284  20
  -3  -5   3 2065.60 358.011  19
  -3   5   3 2147.42 367.938  33
   3  -5  -3 2520.69 418.804  17
   3   5  -3 2373.69 290.006   3
   2   5  -3 64365.0 1488.22   3
   2  -5  -3 63603.0 1558.16   1
  -2  -5   3 63818.4 1916.69  19
   2   5  -3 68310.9 1551.84  20
  -2   5   3 62490.6 2039.77  20
  -2  -5   3 64947.1 1764.27  35
   2  -5  -3 68634.3 2144.01  17
   1   5  -3 5367.84 447.577   3
   1   5  -3 5903.43 428.747  20
  -1   5   3 5321.22 550.745  20
  -1  -5   3 5902.83 591.244  19
   1  -5  -3 5305.04 631.680  17
   1  -5  -3 5529.87 457.286   1
   0   5  -3 59261.7 1556.94   3
   0   5  -3 63962.8 1353.18  20
   0   5   3 69447.6 1797.34  20
   0   5   3 68178.1 1638.07  34
   0  -5   3 61604.9 1947.76  19
   0   5   3 63885.4 2134.51  18
   0  -5  -3 65852.4 2341.09  17
   0  -5  -3 61026.5 1486.09   1
  -1   5  -3 681.726 196.244   3
   1   5   3 1252.88 248.927  34
   1  -5   3 604.804 204.348  19
  -1  -5  -3 468.777 144.479   1
   1   5   3 496.335 217.681  18
  -1  -5  -3 542.998 237.846  17
  -2   5  -3 2094.83 350.048   3
   2   5   3 2083.65 349.757  34
   2  -5   3 2561.88 436.100  19
   2   5   3 1724.25 353.787  18
  -2  -5  -3 2653.87 537.042  17
  -3  -5  -3 10871.5 459.954  13
  -3  -5  -3 11499.5 473.597  40
  -3   5  -3 11404.7 505.779  39
  -3   5  -3 10757.3 447.150  38
   3   5   3 11216.1 888.152  34
   3  -5   3 11930.4 952.772  19
   3  -5   3 10283.3 516.469  11
  -3   5  -3 11182.4 471.590  32
   3   5   3 10521.9 885.168  18
  -3  -5  -3 11038.5 1189.07  17
  -3  -5  -3 10505.7 482.187  30
  -3   5  -3 10819.6 814.057   3
  -3   5  -3 10057.5 429.124  29
  -3  -5  -3 12122.3 443.300  28
  -3   5  -3 11623.1 463.939  15
  -3  -5  -3 11507.5 419.559  25
   4  -5   3 4390.63 300.585  43
  -4   5  -3 4518.96 335.897  39
  -4   5  -3 4618.43 292.976  38
   4   5   3 5236.55 664.741  34
   4  -5   3 5797.85 672.411  19
   4  -5   3 4146.47 345.739  11
  -4   5  -3 4930.14 320.079  32
   4   5   3 4579.00 594.405  18
  -4  -5  -3 4111.31 327.895   5
  -4  -5  -3 4429.87 272.436  31
  -4  -5  -3 4250.63 328.499  30
  -4  -5  -3 5139.33 876.269  17
  -4   5  -3 4086.14 289.611  29
  -4   5  -3 4377.08 295.781   8
   4  -5   3 3882.36 276.946  27
  -4   5  -3 3967.75 287.110  15
  -4   5  -3 4328.03 545.097   3
  -4  -5  -3 4451.66 310.355  40
  -4  -5  -3 4174.32 303.648  13
  -5  -5  -3 23239.1 724.411  13
   5   5   3 25390.4 695.957  23
   5  -5   3 22679.6 685.551  43
  -5  -5  -3 22598.5 620.345  22
  -5  -5  -3 23224.4 719.499  40
  -5   5  -3 23649.0 763.949  39
   5  -5   3 22149.1 801.592  11
  -5   5  -3 25779.7 708.133  32
  -5  -5  -3 21952.2 748.470   5
  -5  -5  -3 21566.0 621.697  31
  -5  -5  -3 21933.9 750.760  30
  -5   5  -3 22533.7 682.377  29
  -5   5  -3 22833.8 681.945   8
  -5  -5  -3 22589.8 686.550   4
   5  -5   3 23725.4 701.039  27
  -5   5  -3 23646.7 698.178  15
  -6  -5  -3 116.383 60.2030  22
  -6   5  -3 69.9322 69.0904  39
   6  -5   3 17.7161 73.0809  11
   6   5   3 74.7724 64.9339  37
   6  -5   3 63.4117 55.1860  43
  -6   5  -3 92.7499 52.3426  32
  -6  -5  -3 3.43112 41.5462  31
  -6  -5  -3 0.71351 56.0437  30
  -6  -5  -3 139.444 78.3498   5
  -6   5  -3 207.838 69.3782  29
   6   5   3 18.3757 35.8272  23
   6  -5   3 53.9575 39.8682  27
  -6  -5  -3 101.169 72.1455   4
  -6   5  -3 106.521 64.3104  15
   7   5   3 85.2498 53.0774  23
  -7  -5  -3 104.353 45.3484  22
  -7   5  -3 48.6489 42.4680  39
   7  -5   3-0.63272 49.8359  11
  -7  -5  -3 37.5931 37.1303  31
  -7  -5  -3 73.4407 69.7534  30
  -7  -5  -3 41.1695 55.3673   5
  -7   5  -3 33.8492 52.2950  29
  -7  -5  -3 37.8299 52.6864   4
   7  -5   3 34.4368 45.7877  27
  -7   5  -3 25.4588 54.5747  15
   7   5   3 32.6373 52.7987  37
   8   5   3 1910.38 133.878  23
   8   5   3 1922.37 142.923  37
   8  -5   3 1910.65 172.888  11
  -8  -5  -3 1806.94 134.347  31
  -8   5  -3 1736.76 131.832  29
  -8  -5  -3 2085.99 157.359   4
  -8  -5  -3 1995.40 147.099   8
   8  -5   3 1946.73 148.839  27
  -8   5  -3 2073.76 150.373  15
   8   5   3 1766.48 142.445  27
  -8   5  -3 1908.89 147.464  39
  10   6  -3 87.9646 43.4394  24
  10   6  -3 37.4777 27.4040  42
 -10   6   3 101.403 60.4461  39
  10  -6  -3 130.773 46.2968  37
  10   6  -3 45.3541 34.5561  21
 -10   6   3 52.0633 62.9924  32
 -10  -6   3 78.1104 36.2124  31
  10  -6  -3 83.0642 51.6220  10
  10  -6  -3 13.3099 24.0950  26
 -10  -6   3 60.4440 47.5964  22
 -10  -6   3 66.8648 40.1897  15
   9  -6  -3 305.762 84.3304   7
   9  -6  -3 253.086 71.7827  23
   9   6  -3 236.314 62.5707  42
  -9  -6   3 244.909 76.8541  22
  -9   6   3 229.924 101.026  39
   9  -6  -3 241.004 71.0198  37
   9   6  -3 320.227 68.1718  21
   9   6  -3 233.158 66.1079  12
  -9  -6   3 255.013 74.4734  31
   9  -6  -3 314.138 103.626  10
   9  -6  -3 214.103 60.2816  26
   8   6  -3 6827.30 328.139  42
   8   6  -3 6877.48 369.729  12
   8  -6  -3 6834.54 350.851  37
   8  -6  -3 6593.89 345.238  23
  -8  -6   3 7288.74 361.856  31
   8  -6  -3 6989.68 426.926  10
  -8  -6   3 7327.26 388.801  22
  -8   6   3 6077.21 432.168  39
   8  -6  -3 6777.75 323.646  27
   8  -6  -3 6611.03 351.167   7
   8  -6  -3 6842.15 323.252  26
   8   6  -3 6792.44 326.462  21
   8   6  -3 6661.45 303.946  14
   7  -6  -3 133.572 77.4383   7
   7   6  -3 64.7295 30.5384  14
   7  -6  -3 186.158 72.5043  23
   7   6  -3 20.6451 38.9134  42
  -7  -6   3 66.8337 58.2876  22
   7   6  -3 64.8295 50.4418  21
   7   6  -3 104.654 62.7683  12
  -7  -6   3 68.7398 67.1738  31
   7  -6  -3 68.9230 78.0743  10
   7   6  -3 115.687 49.4022  16
   7  -6  -3 258.814 72.6380  27
   7  -6  -3 81.8776 50.6144  37
   7  -6  -3 83.9918 40.4977  26
  -7   6   3 149.938 112.741  39
   6   6  -3 4706.73 271.537  14
  -6  -6   3 4017.55 599.670   2
   6   6  -3 4784.60 274.864  42
  -6  -6   3 4154.86 306.820  22
   6   6  -3 4378.80 311.122  12
   6  -6  -3 4758.00 534.360   1
   6   6  -3 4788.09 285.135  21
   6  -6  -3 4299.82 290.012  37
   6  -6  -3 4577.55 602.046  36
   6   6  -3 4513.12 523.222  36
   6  -6  -3 4446.66 294.461  23
  -6   6   3 4167.18 688.787  20
   6   6  -3 4664.05 664.554  34
  -6   6   3 5159.84 726.482  33
  -6  -6   3 4466.27 291.964  31
   6  -6  -3 4669.22 362.435  10
   6   6  -3 4602.90 288.432   9
   6   6  -3 4599.14 266.665  16
   6  -6  -3 4722.94 293.042  27
   6  -6  -3 4299.50 288.042   7
   6  -6  -3 4384.60 271.097  26
   5  -6  -3 299.814 82.9351   7
   5   6  -3 576.710 102.542  21
   5  -6  -3 654.913 123.806  37
   5   6  -3 439.958 100.056  12
   5   6  -3 469.485 161.401  36
  -5   6   3 396.148 247.492  20
  -5  -6   3 447.410 180.778  19
   5  -6  -3 556.747 182.195   1
  -5   6   3 368.056 197.865  33
   5   6  -3 484.824 85.9757  32
   5  -6  -3 646.185 137.065  10
   5   6  -3 495.514 95.4698   9
   5   6  -3 580.017 101.476  16
   5  -6  -3 458.333 94.3633  27
  -5  -6   3 553.115 114.841  22
   5  -6  -3 506.200 97.9511  26
   4  -6  -3 373.228 77.4355  25
  -4  -6   3 173.498 82.1825  22
   4  -6  -3 326.369 83.7220  37
   4   6  -3 170.780 55.8830  21
   4   6  -3 89.1175 69.8168   3
   4  -6  -3 70.6847 58.7391   1
  -4   6   3 540.676 248.981  20
  -4  -6   3 636.014 211.058  19
  -4   6   3 356.061 173.782  33
   4   6  -3 236.003 76.0788  12
   4   6  -3 272.747 66.4289  32
   4   6  -3 226.854 63.1188   9
   4   6  -3 196.445 59.5001  16
   4  -6  -3 97.6350 37.8078  27
   4  -6  -3 113.267 43.4119  26
   3  -6  -3 6481.67 550.015   1
   3   6  -3 6491.93 550.950  20
  -3   6   3 6508.54 752.948  20
  -3  -6   3 6162.39 632.022  19
  -3   6   3 7357.02 738.873  33
   3  -6  -3 8309.44 758.692  17
   3   6  -3 6547.20 499.721   3
   2   6  -3 575.599 148.783   3
   2   6  -3 446.921 139.844  20
  -2   6   3 89.2337 134.404  20
  -2  -6   3 628.104 215.450  19
  -2   6   3 208.364 131.346  33
   2  -6  -3 246.166 110.254   1
   2  -6  -3 696.225 249.431  17
   1   6  -3 10305.9 637.485  20
  -1   6   3 11121.8 866.692  20
  -1  -6   3 10039.6 814.282  19
   1   6  -3 9825.23 630.691   3
   1  -6  -3 11898.3 975.620  17
   1  -6  -3 9066.24 619.861   1
   0   6  -3 25.5641 54.9786  20
   0   6  -3 140.683 62.7830   3
   0  -6   3 98.1241 114.821  19
   0   6   3 210.183 124.903  20
   0   6   3 313.277 223.386  18
   0  -6  -3 433.627 220.440  17
   0  -6  -3 16.4084 42.4613   1
  -1   6  -3 3305.18 409.538   3
  -1  -6  -3 3986.94 249.377  43
  -1   6  -3 4114.65 277.917  38
   1   6   3 4659.60 525.375  34
   1  -6   3 4239.69 550.796  19
  -1   6  -3 4522.49 295.760  32
   1   6   3 4359.20 602.234  18
  -1  -6  -3 4287.15 673.708  17
  -1  -6  -3 4170.88 280.000  30
  -1  -6  -3 4029.81 391.453   1
  -1   6  -3 4100.03 259.863  15
  -2  -6  -3 1561.58 168.430  13
  -2  -6  -3 1819.81 174.635  43
  -2   6  -3 1539.90 184.114  39
  -2   6  -3 1497.22 174.699  38
   2  -6   3 1280.36 161.193  43
  -2   6  -3 1391.59 274.135   3
   2   6   3 1029.81 254.746  34
   2  -6   3 1642.23 352.985  19
  -2   6  -3 1763.58 192.883  32
  -2  -6  -3 1832.49 187.609  40
   2   6   3 1725.53 392.262  18
  -2  -6  -3 1603.48 184.457  30
  -2  -6  -3 1904.10 510.016  17
  -2  -6  -3 1738.99 171.156  28
  -2   6  -3 1628.54 174.104  15
  -2  -6  -3 1296.78 168.551  26
   2  -6   3 1398.24 196.492  11
  -2  -6  -3 1656.77 168.567  25
  -3  -6  -3 1515.93 176.039  13
   3  -6   3 1422.35 170.979  43
  -3  -6  -3 1561.26 183.726  40
  -3   6  -3 1460.69 188.378  39
  -3   6  -3 1590.98 182.414  38
   3   6   3 1781.45 387.114  34
  -3   6  -3 1620.99 318.234   3
   3  -6   3 1595.96 221.142  11
   3  -6   3 1816.09 381.868  19
  -3   6  -3 1661.16 196.352  32
   3   6   3 2303.76 427.126  18
  -3  -6  -3 1521.95 192.685  30
  -3  -6  -3 1824.51 522.985  17
  -3  -6  -3 1586.21 169.325  28
  -3   6  -3 1726.52 189.528  15
  -3  -6  -3 1726.94 166.584  25
  -4  -6  -3 14587.9 566.284  13
   4   6   3 15992.9 507.780  42
  -4  -6  -3 14985.8 580.060  40
  -4   6  -3 13843.1 577.533  39
  -4   6  -3 14865.0 537.771  38
   4  -6   3 13470.1 630.784  11
  -4   6  -3 15606.0 578.274  32
   4  -6   3 13686.4 542.186  43
  -4  -6  -3 14047.6 589.430  30
  -4   6  -3 14101.2 505.695  29
   4  -6   3 15158.9 538.617  27
  -4   6  -3 14321.0 540.964  15
  -5  -6  -3 223.421 80.8493  13
   5   6   3 53.7613 47.8722  42
  -5  -6  -3 155.780 72.7067  40
  -5   6  -3 76.8509 65.4707  39
  -5   6  -3 173.292 57.8482  38
  -5   6  -3 202.938 73.6383  32
   5  -6   3 192.230 88.9337  11
  -5  -6  -3 160.496 62.3040  31
  -5  -6  -3 85.8719 70.1066  30
  -5   6  -3 374.685 85.7886  29
   5  -6   3 152.895 62.0064  43
   5   6   3 127.122 66.7145  23
   5  -6   3 223.675 75.9360  27
  -5  -6  -3 167.660 63.6316   4
  -5   6  -3 144.299 75.7861  15
   6  -6   3 750.319 114.450  43
   6   6   3 786.539 123.753  37
  -6   6  -3 730.735 130.071  39
   6   6   3 716.221 108.895  23
   6  -6   3 606.192 134.310  11
  -6   6  -3 676.922 110.388  32
  -6  -6  -3 674.199 103.655  31
  -6  -6  -3 607.326 130.385  30
  -6   6  -3 867.054 121.318  29
   6  -6   3 883.757 129.345  27
  -6   6  -3 804.103 127.268  15
  -6  -6  -3 683.524 114.005   4
   7   6   3 584.725 90.3413  23
  -7   6  -3 468.383 91.3402  39
   7   6   3 542.472 87.7499  37
   7  -6   3 502.844 114.536  11
  -7  -6  -3 649.775 115.918  30
  -7   6  -3 554.306 82.8684  29
  -7  -6  -3 619.492 87.8268  31
   7  -6   3 610.142 95.8255  27
  -7  -6  -3 517.901 89.6698   4
  -7   6  -3 478.417 88.4998  15
  -8   6  -3 1940.93 132.077  39
   8   6   3 1953.69 127.829  37
   8  -6   3 1806.18 141.875  11
  -8  -6  -3 2066.53 134.645   4
   8  -6   3 1707.08 115.647  27
  -8   6  -3 1900.40 125.280  15
   8   6   3 1726.70 118.128  27
  10   7  -3 1960.98 116.407  24
 -10  -7   3 1878.27 129.809  22
 -10   7   3 2184.47 154.030  39
  10   7  -3 1819.55 102.755  21
 -10   7   3 2226.44 155.848  32
 -10  -7   3 2199.53 135.440  31
  10  -7  -3 1825.22 139.927  10
  10  -7  -3 1788.50 119.732  30
  -9  -7   3 3709.70 231.674  22
   9   7  -3 3519.42 192.388  42
  -9   7   3 3813.08 268.771  39
   9   7  -3 3410.00 189.168  21
  -9   7   3 3457.86 257.806  38
   9  -7  -3 3426.74 204.409  37
   9   7  -3 3523.88 211.121  12
  -9   7   3 3752.27 259.264  32
  -9  -7   3 3882.34 223.564  31
   9  -7  -3 3638.31 252.375  10
  -9  -7   3 3211.52 208.450  15
   8   7  -3 7990.11 328.447  42
  -8  -7   3 8259.59 392.033  22
   8   7  -3 8066.17 339.708  21
  -8   7   3 8209.24 445.439  39
   8  -7  -3 8146.48 360.013  37
   8   7  -3 8200.77 381.945  12
  -8   7   3 7880.42 427.777  32
  -8  -7   3 9163.71 382.244  31
   8  -7  -3 8329.54 441.436  10
   8  -7  -3 7084.77 339.815   7
   8  -7  -3 8428.06 340.893  27
   8  -7  -3 7941.17 307.274  26
   7   7  -3 5312.48 283.830  42
  -7  -7   3 5272.17 335.133  22
  -7   7   3 4636.43 355.997  39
   7   7  -3 5258.13 333.767  12
   7   7  -3 5450.24 296.781  21
   7  -7  -3 5290.38 311.658  37
  -7  -7   3 5299.02 308.854  31
   7  -7  -3 5492.62 383.052  10
   7   7  -3 5563.39 271.278  16
   7  -7  -3 5315.73 300.024  27
   7  -7  -3 4821.45 296.184   7
   7  -7  -3 5289.22 274.270  26
   7   7  -3 5948.60 285.295  14
   6   7  -3 335.756 78.4749  14
   6   7  -3 277.709 71.8876  42
  -6  -7   3 311.839 94.6325  22
   6  -7  -3 316.235 80.4406  37
   6   7  -3 452.572 98.8012  21
   6   7  -3 303.212 88.7713  12
  -6  -7   3 212.403 87.5788  11
  -6  -7   3 249.707 88.4693  31
   6  -7  -3 317.567 114.081  10
   6   7  -3 337.962 82.8878   9
   6   7  -3 237.031 66.0962  16
   6  -7  -3 215.211 74.2118  27
   6  -7  -3 272.442 78.6109  26
   6  -7  -3 249.693 91.5216   7
  -6   7   3 427.225 139.253  39
  -5   7   3 13370.7 1114.06  33
  -5  -7   3 11500.5 520.113  22
   5  -7  -3 11991.7 849.389   1
   5   7  -3 12388.0 522.410  12
   5  -7  -3 12408.4 486.459  37
   5   7  -3 12851.1 460.126  21
   5   7  -3 12413.1 873.206  36
  -5  -7   3 13583.4 545.810  11
  -5   7   3 11320.5 1126.07  20
   5  -7  -3 12649.8 584.386  10
  -5  -7   3 12236.6 466.346  31
   5   7  -3 12979.2 475.807   9
   5   7  -3 12397.8 454.670  16
   5  -7  -3 12777.5 491.310  27
   5  -7  -3 11680.7 442.115   7
   5  -7  -3 12355.9 440.049  26
   5  -7  -3 12529.4 449.906  25
   4  -7  -3 33441.7 693.192  43
   4  -7  -3 30094.4 1303.31   1
   4   7  -3 32652.9 812.790  12
   4   7  -3 33539.3 721.754  21
  -4   7   3 29838.6 1751.10  20
  -4  -7   3 33590.0 1563.08  19
  -4   7   3 37028.8 1803.42  33
   4   7  -3 34120.9 709.801  32
  -4  -7   3 32624.5 863.589  11
   4  -7  -3 34527.3 934.450  10
   4  -7  -3 35545.4 833.434  30
   4   7  -3 33865.1 754.073   9
   4   7  -3 32826.3 741.991  16
  -4  -7   3 32673.0 744.248  28
   4  -7  -3 32852.9 780.504  27
   4  -7  -3 33562.7 712.332  26
   4  -7  -3 32897.2 744.520  25
  -4  -7   3 30988.7 836.828  22
   3  -7  -3 4002.65 462.825   1
   3   7  -3 4338.09 289.435  12
   3   7  -3 4021.17 238.971  21
   3   7  -3 4216.17 478.878  20
  -3   7   3 3818.53 601.484  20
   3   7  -3 4274.93 258.402  38
  -3  -7   3 4311.59 316.195  11
  -3  -7   3 3835.47 532.406  19
  -3   7   3 4353.47 605.329  33
   3   7  -3 4211.63 257.056  32
   3  -7  -3 4087.67 323.460  10
   3  -7  -3 4347.16 289.617  30
   3   7  -3 4740.58 283.029  16
  -3  -7   3 3963.65 269.282  28
   3  -7  -3 4139.96 273.182  27
   3  -7  -3 4394.48 256.616  26
   3  -7  -3 4256.74 254.807  43
   3  -7  -3 4356.47 272.567  25
   2  -7  -3 63779.6 987.865  43
   2   7  -3 58835.7 1018.19  12
   2   7  -3 62461.9 1774.92  20
  -2   7   3 58821.0 2238.61  20
  -2  -7   3 62471.7 1209.81  11
  -2  -7   3 62773.7 2123.35  19
  -2   7   3 73142.5 2381.89  33
   2   7  -3 63822.3 1024.95  32
   2  -7  -3 65308.2 1103.52  30
   2   7  -3 65208.1 990.056   6
   2   7  -3 65201.4 1032.57  16
  -2  -7   3 63738.4 1091.97  28
   2  -7  -3 64084.8 1075.42  27
   2  -7  -3 57665.9 1686.93   1
   2   7  -3 60543.4 1580.97   3
   2   7  -3 63647.9 1025.24  38
   2  -7  -3 65328.0 1054.18  25
   1  -7  -3 11103.3 420.729  43
   1   7  -3 10024.8 658.213   3
   1   7  -3 10551.1 433.658  38
   1   7  -3 9766.81 680.107  20
  -1   7   3 9597.97 844.916  20
  -1  -7   3 9617.19 393.654  43
  -1  -7   3 10291.0 501.974  11
  -1  -7   3 9044.42 809.024  19
  -1   7   3 11557.8 935.645  33
   1   7  -3 10945.1 442.543  32
   1  -7  -3 11576.6 1006.03  17
   1  -7  -3 10803.7 450.123  30
   1   7  -3 10724.3 417.248  16
  -1  -7   3 10261.8 446.364  28
   1  -7  -3 10766.5 406.875  26
   1  -7  -3 9227.99 659.920   1
   1   7  -3 10082.0 390.155   6
   1  -7  -3 10869.6 430.364  25
   0  -7   3 32771.1 755.758  43
   0   7  -3 31391.0 1220.69   3
   0   7  -3 30724.8 716.886  39
   0   7  -3 34119.6 805.316  38
   0   7  -3 32046.4 704.120   6
   0   7   3 33185.4 1433.23  20
   0  -7   3 32220.0 903.030  11
   0  -7   3 33378.5 1580.77  19
   0   7  -3 34404.0 815.807  32
   0   7   3 33231.4 1752.09  18
   0  -7  -3 33404.3 737.530  43
   0  -7  -3 37277.8 1922.76  17
   0  -7  -3 34612.7 819.829  30
   0  -7  -3 31260.7 675.244  28
   0   7  -3 31832.7 710.452  16
   0  -7   3 32866.5 814.172  28
   0  -7  -3 31117.4 1174.12   1
   0  -7  -3 31105.9 710.266  26
   0  -7  -3 33675.9 766.074  25
  -1  -7  -3 33406.0 757.731  43
  -1   7  -3 30211.8 1265.30   3
   1  -7   3 34615.1 807.705  43
  -1   7  -3 32397.9 728.385   6
   1  -7   3 33624.8 950.864  11
   1  -7   3 35017.2 1626.81  19
  -1   7  -3 36533.7 870.667  32
   1   7   3 35285.4 1770.04  18
  -1  -7  -3 35098.8 1971.67  17
  -1  -7  -3 34092.3 835.374  30
  -1  -7  -3 33899.7 734.259  28
  -1   7  -3 32722.8 704.923  16
   1  -7   3 32581.3 824.658  28
  -1   7  -3 34542.1 786.396  15
  -1  -7  -3 32695.4 753.847  26
  -1   7  -3 32135.9 806.470  38
  -1   7  -3 33516.9 796.263  39
  -1  -7  -3 33682.1 770.914  25
  -2  -7  -3 2146.96 198.424  43
   2  -7   3 2005.75 206.647  43
  -2  -7  -3 2058.94 207.280  13
  -2  -7  -3 2222.83 219.666  40
  -2   7  -3 2001.67 208.560  39
  -2   7  -3 2172.67 215.251  38
  -2   7  -3 1966.80 185.802   6
  -2   7  -3 2008.03 350.735   3
   2  -7   3 1765.02 230.623  11
   2   7   3 1949.59 378.427  34
   2  -7   3 1661.77 361.780  19
  -2   7  -3 2269.31 227.424  32
   2   7   3 2144.82 431.735  18
  -2  -7  -3 1801.61 203.916  30
  -2  -7  -3 2317.29 525.897  17
  -2  -7  -3 2013.44 192.121  28
   2  -7   3 2028.98 212.259  28
  -2   7  -3 2070.98 200.734  15
  -2  -7  -3 1985.55 184.608  25
   3  -7   3 8176.06 413.275  43
  -3  -7  -3 8566.92 424.478  13
  -3  -7  -3 8055.02 425.328  40
  -3   7  -3 8644.60 424.912  38
   3   7   3 9449.43 373.036  21
  -3   7  -3 8119.94 425.087  39
   3  -7   3 8240.86 489.458  11
  -3   7  -3 8863.73 442.324  32
  -3  -7  -3 8029.29 435.855  30
  -3  -7  -3 9109.70 404.305  28
   3  -7   3 8141.55 418.143  28
  -3   7  -3 8288.48 406.992  15
  -3  -7  -3 8664.90 374.870  25
   4  -7   3 7233.36 385.840  43
  -4  -7  -3 7222.63 397.728  13
   4   7   3 7954.93 359.457  42
  -4   7  -3 7558.59 413.302  39
  -4  -7  -3 7484.46 413.674  40
  -4   7  -3 7181.45 373.076  38
   4  -7   3 6623.10 444.209  11
  -4   7  -3 7354.05 395.284  32
  -4  -7  -3 7062.41 412.487  30
   4  -7   3 7231.28 386.238  28
   4  -7   3 7950.86 375.257  27
  -4   7  -3 7485.21 384.140  15
  -5  -7  -3 1219.30 166.396  13
   5   7   3 1440.39 142.647  42
   5   7   3 1353.25 158.616  23
  -5  -7  -3 1112.59 160.928  40
  -5   7  -3 1226.37 167.215  39
  -5   7  -3 1170.08 141.486  38
   5  -7   3 1209.03 187.413  11
   5  -7   3 1208.14 155.824  43
  -5   7  -3 1346.65 160.229  32
  -5  -7  -3 1132.11 168.142  30
   5  -7   3 1067.30 136.107  28
  -5  -7  -3 1236.12 156.237   4
   5  -7   3 1001.52 135.191  27
  -5   7  -3 1241.36 151.600  15
   6   7   3 9250.25 311.556  42
   6   7   3 9372.10 370.097  23
   6  -7   3 9155.76 357.504  43
  -6   7  -3 8868.97 395.020  39
   6  -7   3 8106.88 420.740  11
  -6   7  -3 9718.10 375.487  32
   6   7   3 8927.41 368.486  37
  -6  -7  -3 8114.32 393.166  30
  -6  -7  -3 9093.67 370.717   4
   6  -7   3 9003.59 352.564  27
  -6   7  -3 8928.38 364.304  15
   7   7   3 1125.88 108.937  23
   7   7   3 1105.09 101.989  12
  -7   7  -3 848.887 82.0552   6
   7   7   3 1033.48 109.327  37
   7  -7   3 1004.20 126.413  11
  -7  -7  -3 836.568 108.259  30
  -7   7  -3 925.174 110.181  39
  -7  -7  -3 1023.12 108.119   4
   7  -7   3 975.047 99.9981  27
  -7   7  -3 1042.59 107.537  15
   9   8  -3 3525.55 175.858  24
  -9  -8   3 3442.95 192.207  22
  -9   8   3 3249.47 181.216  39
  -9   8   3 3541.37 217.067  38
   9   8  -3 3265.52 160.256  21
  -9   8   3 3417.92 204.159  32
  -9  -8   3 3683.50 186.019  31
   9  -8  -3 3283.14 205.988  10
   9  -8  -3 3023.19 171.457  30
   9   8  -3 3229.97 175.385  12
  -8  -8   3 9928.16 389.063  22
  -8   8   3 9060.35 376.495  39
   8   8  -3 9051.40 366.691  12
  -8   8   3 8840.71 419.166  38
  -8   8   3 9216.36 400.606  32
  -8  -8   3 9512.11 349.808  31
   8  -8  -3 9384.02 419.465  10
   8   8  -3 9416.21 331.398  21
   8  -8  -3 9328.48 360.813  30
   7   8  -3 613.907 92.7536  42
  -7  -8   3 737.175 126.769  22
   7   8  -3 628.292 100.585  21
   7   8  -3 667.125 123.873  12
  -7   8   3 654.168 124.399  32
  -7  -8   3 766.927 115.409  31
   7  -8  -3 459.299 117.917  10
   7  -8  -3 580.428 106.895  30
   7   8  -3 562.378 84.3852  16
   7  -8  -3 604.906 130.710  27
   6   8  -3 33362.9 665.792  14
   6   8  -3 30627.8 645.609  42
  -6  -8   3 29003.9 783.301  22
   6   8  -3 30801.0 801.160  12
   6   8  -3 31422.6 704.158  21
  -6  -8   3 34385.4 830.961  11
  -6   8   3 30452.7 820.816  32
   6  -8  -3 31001.3 888.702  10
  -6  -8   3 31308.9 720.323  31
   6   8  -3 29579.7 694.751   9
   6  -8  -3 30316.0 762.994  30
   6   8  -3 30362.0 666.088  16
   6  -8  -3 31100.5 736.566  27
   6  -8  -3 31148.6 659.593  25
   5   8  -3 3644.41 280.345  12
   5   8  -3 3558.90 242.918  21
  -5  -8   3 3901.87 294.970  11
  -5  -8   3 3414.25 283.612  22
  -5   8   3 3180.75 268.082  32
   5  -8  -3 3133.27 292.937  10
  -5  -8   3 3195.93 236.093  31
   5  -8  -3 3703.03 274.894  30
   5   8  -3 3416.01 243.118   9
   5   8  -3 3571.95 245.653  16
  -5  -8   3 3618.33 241.296  28
   5  -8  -3 3174.27 248.658  27
   5  -8  -3 3562.48 242.367  25
   4  -8  -3 16604.0 500.701  43
   4   8  -3 15881.3 573.257  12
   4   8  -3 16631.2 511.558  21
  -4  -8   3 15939.4 610.969  11
   4   8  -3 17239.2 499.967  32
   4  -8  -3 15578.1 653.274  10
   4  -8  -3 16851.8 578.466  30
   4   8  -3 16571.8 534.894   9
  -4  -8   3 15371.9 593.941  22
   4   8  -3 15924.5 527.710  16
  -4  -8   3 16384.2 536.401  28
   4  -8  -3 15352.1 544.941  27
   4  -8  -3 16087.4 531.816  25
   3  -8  -3 11637.2 432.090  43
   3  -8  -3 11382.9 812.964   1
   3   8  -3 11603.5 427.601  38
  -3  -8   3 11036.4 507.693  22
   3   8  -3 11925.9 418.674  21
   3   8  -3 11663.7 834.857  20
  -3   8   3 11363.1 1075.37  20
  -3  -8   3 11886.9 535.642  11
  -3  -8   3 12162.9 982.498  19
  -3   8   3 13272.7 1082.22  33
   3   8  -3 11418.0 427.931  32
   3  -8  -3 10902.3 537.584  10
   3  -8  -3 12183.1 492.221  30
   3   8  -3 11678.0 450.149   9
   3   8  -3 11076.9 444.398  16
  -3  -8   3 11641.2 469.525  28
   3  -8  -3 11417.1 470.566  27
   3  -8  -3 11313.0 453.143  25
   3   8  -3 10813.2 459.622  12
   2  -8  -3 69.1156 53.9696  25
   2  -8  -3 28.2090 56.8448  43
   2  -8  -3-44.1827 59.4931   1
   2   8  -3 27.5841 42.4483  38
   2   8  -3 7.74744 43.2794   6
   2   8  -3-20.5562 58.5950  20
  -2   8   3 313.436 130.850  20
  -2  -8   3 4.49098 107.114  19
  -2   8   3-45.9567 121.067  33
  -2  -8   3 51.0510 84.7363  11
   2   8  -3 33.4502 36.1184  32
   2  -8  -3 86.2920 57.6475  30
  -2  -8   3 41.9809 46.1381  28
   2   8  -3 114.457 49.4166  16
   2  -8  -3 122.600 72.3931  27
   1  -8  -3 18669.7 564.201  43
  -1  -8   3 18144.6 556.415  43
   1   8  -3 19879.7 550.750   6
   1   8  -3 18518.3 588.344  38
   1   8  -3 17709.5 973.434  20
  -1   8   3 19108.0 1231.67  20
  -1  -8   3 18359.7 687.669  11
  -1  -8   3 18857.9 1204.35  19
  -1   8   3 21953.3 1348.53  33
   1   8  -3 19757.5 604.409  32
  -1   8   3 18591.0 1383.16  18
   1  -8  -3 18324.5 608.640  30
   1   8  -3 18523.5 570.037  16
  -1  -8   3 18775.6 622.194  28
   1  -8  -3 17509.8 941.600   1
   1  -8  -3 19197.2 594.284  25
   0   8   3 5380.20 611.334  20
   0  -8   3 6953.65 357.033  43
   0  -8   3 6488.45 420.715  11
   0  -8   3 8589.44 814.550  19
   0   8   3 8937.73 851.344  33
   0   8   3 6585.33 802.202  18
   0  -8  -3 7231.67 852.668  17
   0  -8  -3 6841.42 376.404  30
   0   8  -3 7098.39 331.520   6
   0  -8  -3 6910.65 327.708  28
   0   8  -3 6735.04 337.371  16
   0  -8   3 6440.84 370.329  28
   0   8  -3 7130.69 381.568  32
   0  -8  -3 6908.67 350.968  43
   0   8  -3 6779.59 367.766  38
   0  -8  -3 6789.20 356.983  25
   1  -8   3 2076.53 205.607  43
  -1  -8  -3 1950.44 188.310  43
  -1  -8  -3 1833.73 196.026  40
  -1   8  -3 2119.97 213.787  38
  -1   8  -3 1927.38 174.420   6
   1  -8   3 1847.38 232.136  11
  -1   8  -3 2345.07 230.063  32
  -1  -8  -3 2097.59 219.236  30
  -1  -8  -3 2037.31 187.897  28
  -1   8  -3 1980.68 180.227  16
   1  -8   3 2193.56 221.463  28
  -1   8  -3 2204.49 201.320  39
  -1  -8  -3 1875.97 186.941  25
  -2  -8  -3 32295.8 808.507  13
   2  -8   3 33332.2 822.355  43
  -2  -8  -3 33921.7 847.530  40
  -2   8  -3 32484.5 823.259  38
  -2   8  -3 33959.3 732.171   6
   2  -8   3 31570.3 940.070  11
  -2   8  -3 35479.9 888.817  32
  -2  -8  -3 33039.3 765.067  43
  -2  -8  -3 32263.6 840.510  30
  -2  -8  -3 32262.3 744.012  28
   2  -8   3 32068.7 825.729  28
  -2   8  -3 33354.0 787.660  15
  -2   8  -3 32654.2 799.710  39
  -2  -8  -3 33688.8 762.434  25
  -3  -8  -3 237.731 77.6892  13
  -3  -8  -3 128.684 56.2698  40
  -3   8  -3 284.373 93.4852  39
  -3   8  -3 109.503 55.0057  38
   3   8   3 238.846 67.8954  21
  -3   8  -3 186.598 63.7376   6
   3  -8   3 153.265 83.0270  11
  -3   8  -3 95.2996 44.5763  32
  -3  -8  -3 105.712 65.6222  30
  -3  -8  -3 211.296 68.9277  28
   3  -8   3 275.474 87.4901  28
  -3   8  -3 144.261 62.5855  15
   3  -8   3 223.815 84.6201  43
  -3  -8  -3 143.509 40.2539  25
  -4  -8  -3 20312.5 629.639  13
   4   8   3 21689.4 575.840  42
  -4  -8  -3 20819.7 649.852  40
  -4   8  -3 20769.6 611.702  38
  -4   8  -3 19848.9 519.315   6
   4  -8   3 19777.0 609.604  43
   4  -8   3 19608.1 709.738  11
  -4   8  -3 21820.9 649.760  32
  -4  -8  -3 19472.1 641.460  30
   4  -8   3 20063.6 595.809  28
   4  -8   3 19756.4 537.894  27
  -4   8  -3 19951.9 589.856  15
  -4   8  -3 19666.8 614.287  39
  -5  -8  -3 4027.08 265.861  13
   5   8   3 4186.77 229.266  42
   5   8   3 4424.36 263.057  23
   5  -8   3 3892.13 247.324  43
  -5  -8  -3 4010.80 270.652  40
  -5   8  -3 4041.78 263.313  39
  -5   8  -3 4109.59 243.156  38
  -5   8  -3 3635.66 201.936   6
   5  -8   3 4046.93 302.303  11
  -5   8  -3 4207.50 264.015  32
  -5  -8  -3 3935.82 269.823  30
  -5  -8  -3 4066.72 242.864   4
   5  -8   3 3851.90 222.188  27
  -5   8  -3 4108.36 249.696  15
   6  -8   3 311.301 62.8336  43
   6   8   3 299.943 52.8543  42
   6   8   3 395.699 74.3664  23
  -6   8  -3 236.120 56.6675  41
  -6   8  -3 335.196 71.5151  39
   6   8   3 312.144 68.6312  37
   6  -8   3 261.255 75.4335  11
  -6   8  -3 242.511 59.8320  32
  -6  -8  -3 241.024 70.6148  30
   6  -8   3 216.825 51.7102  27
  -6  -8  -3 383.286 71.7047   4
  -6   8  -3 448.460 78.9285  15
  -7   8  -3 11148.0 291.540  39
   7  -8   3 10414.5 303.538  11
  -9   9   3 3322.10 152.199  38
  -8  -9   3 1695.61 138.780  22
   8   9  -3 1726.76 140.171  12
  -8   9   3 1741.65 158.179  38
   8   9  -3 1797.19 125.213  21
  -8   9   3 1764.01 140.874  32
   8  -9  -3 1676.08 151.998  10
  -8  -9   3 1748.77 124.527  31
   8  -9  -3 1595.37 128.307  30
  -7  -9   3 18328.0 522.790  22
   7   9  -3 18189.1 526.725  12
  -7   9   3 17406.8 567.053  38
   7   9  -3 18488.0 463.073  21
  -7   9   3 18301.1 511.359  32
   7  -9  -3 18077.6 578.991  10
  -7  -9   3 18173.6 457.527  31
   7  -9  -3 18468.3 501.867  30
   7   9  -3 17635.2 386.785  16
   7  -9  -3 17948.2 464.772  27
   6   9  -3 2574.54 215.696  12
  -6   9   3 2433.75 236.755  38
   6   9  -3 2458.06 185.131  21
  -6   9   3 2764.96 213.578  32
   6  -9  -3 2576.43 246.275  10
  -6  -9   3 2474.08 215.114  22
  -6  -9   3 2867.17 196.619  31
   6  -9  -3 2714.60 213.443  30
   6   9  -3 2671.11 184.757  16
   6  -9  -3 2708.11 205.043  27
   5   9  -3 21394.8 516.860  14
  -5  -9   3 19620.5 634.129  22
   5   9  -3 20228.4 622.994  12
  -5   9   3 17778.3 639.334  38
   5   9  -3 20185.5 548.049  21
  -5  -9   3 21971.1 661.653  11
   5  -9  -3 19032.6 685.926  10
  -5  -9   3 19493.6 535.062  31
   5  -9  -3 20094.3 601.309  30
   5   9  -3 21217.9 564.970   9
   5   9  -3 19638.9 545.390  16
  -5  -9   3 21141.6 551.899  28
   5  -9  -3 20383.6 599.799  27
   5  -9  -3 20422.8 560.750  25
   4  -9  -3 58773.3 925.012  43
  -4  -9   3 53832.4 1081.75  22
   4   9  -3 55087.4 1030.81  12
  -4   9   3 53571.3 1097.22  38
   4   9  -3 56325.2 909.999  21
  -4  -9   3 59919.3 1145.06  11
  -4  -9   3 57495.4 913.284  31
   4  -9  -3 56077.5 1037.59  30
   4   9  -3 58411.7 971.523   9
   4   9  -3 55208.0 964.615  16
  -4  -9   3 61116.4 1008.57  28
   4  -9  -3 57741.0 1032.20  27
   4  -9  -3 56133.4 978.275  25
  -3  -9   3 6866.66 395.386  22
   3  -9  -3 7173.39 338.037  43
   3   9  -3 6618.43 346.885  12
   3   9  -3 7040.14 320.731  38
   3   9  -3 6770.31 310.390  21
  -3  -9   3 6789.44 404.248  11
   3   9  -3 7469.23 330.108  32
  -3  -9   3 6800.83 309.136  31
   3  -9  -3 6986.40 370.353  30
   3   9  -3 7539.25 354.205   9
   3   9  -3 6779.90 346.077  16
  -3  -9   3 6815.55 355.503  28
   3  -9  -3 6700.91 363.834  27
   3  -9  -3 6985.33 356.456  25
   2  -9  -3 71210.8 1096.74  43
  -2  -9   3 69629.9 1253.88  22
  -2  -9   3 75674.2 1359.81  11
   2   9  -3 75886.6 1110.33  32
   2  -9  -3 74392.9 1202.25  30
   2   9  -3 72409.0 1135.90  16
  -2  -9   3 74478.0 1203.71  28
   2  -9  -3 71401.4 1154.07  25
   2   9  -3 75116.0 1118.43  38
   1  -9  -3 16527.2 538.001  43
  -1  -9   3 17517.8 540.866  43
   1   9  -3 15979.6 538.195  38
  -1  -9   3 17501.0 668.861  11
   1   9  -3 17243.8 553.318  32
   1  -9  -3 17500.5 593.203  30
   1  -9  -3 17910.2 495.298  28
   1   9  -3 17226.1 551.491  16
  -1  -9   3 16754.9 585.788  28
   1  -9  -3 17440.4 571.648  25
   0  -9  -3 44608.8 883.583  43
   0  -9   3 46158.9 905.767  43
   0   9  -3 42665.6 908.816  38
   0  -9   3 45241.1 1082.71  11
   0   9  -3 45266.8 928.282  32
   0  -9  -3 44931.9 949.436  30
   0  -9  -3 44658.2 818.425  28
   0   9  -3 43017.1 856.759  16
   0  -9   3 44598.0 954.512  28
   0  -9  -3 43918.0 896.774  25
  -1  -9  -3 55427.6 980.177  43
   1  -9   3 53803.1 1000.11  43
  -1   9  -3 51526.2 1008.50  38
  -1  -9  -3 56020.9 1060.36  40
   1  -9   3 54027.2 1185.18  11
  -1   9  -3 55218.6 1041.45  32
  -1  -9  -3 54870.6 1060.11  30
  -1  -9  -3 53434.0 916.645  28
  -1   9  -3 53739.2 912.479  16
   1  -9   3 54211.0 1046.98  28
  -1  -9  -3 55155.1 978.259  25
  -2  -9  -3 3543.31 258.291  13
  -2   9  -3 3768.49 247.546  39
   2  -9   3 3489.37 257.899  43
  -2  -9  -3 3625.81 273.875  40
  -2   9  -3 3932.50 275.835  38
   2  -9   3 4069.22 328.462  11
  -2   9  -3 3754.02 274.244  32
  -2  -9  -3 3528.43 266.645  30
  -2  -9  -3 3642.59 242.639  28
  -2   9  -3 3465.01 216.720  16
   2  -9   3 3796.17 272.412  28
  -2  -9  -3 3808.98 248.590  25
   3  -9   3 27342.0 690.773  43
  -3  -9  -3 27428.1 696.060  13
  -3  -9  -3 26746.9 717.041  40
  -3   9  -3 26823.4 689.823  38
   3   9   3 29603.7 618.742  21
   3  -9   3 26900.8 803.358  11
  -3   9  -3 27211.4 717.555  32
  -3   9  -3 26808.3 652.566  39
  -3  -9  -3 26541.5 706.418  30
  -3  -9  -3 27129.0 647.934  28
   3  -9   3 26972.1 681.463  28
  -3  -9  -3 26692.2 580.875  25
   4  -9   3 6441.00 313.187  43
  -4  -9  -3 6223.67 316.582  13
   4   9   3 6584.28 290.956  42
  -4   9  -3 5607.89 287.827  39
  -4   9  -3 6169.24 304.645  38
   4  -9   3 5455.25 341.540  11
  -4   9  -3 6450.74 323.660  32
  -4  -9  -3 5728.18 309.592  30
   4  -9   3 6152.00 290.416  28
  -4  -9  -3 6301.76 329.022  40
  -5  -9  -3 8220.30 323.744  13
   5   9   3 8975.61 289.977  42
   5   9   3 8958.46 327.008  23
  -5   9  -3 8770.76 308.656  38
  -5  -9  -3 8865.60 349.356  40
  -5   9  -3 8084.56 307.218  39
   5  -9   3 8704.06 374.074  11
  -5   9  -3 9000.42 334.058  32
  -5  -9  -3 8101.96 322.491  30
   5  -9   3 8785.00 316.035  43
   6   9   3 2899.71 149.544  23
   6   9   3 2731.35 152.447  12
   6   9   3 2792.18 151.501  37
   6  -9   3 2779.18 169.681  11
  -6   9  -3 2825.99 143.217  32
  -6   9  -3 2610.96 144.296  39
  -8 -10   3 349.288 53.3220  22
   8  10  -3 422.042 47.8608  21
  -8  10   3 305.245 51.7826  38
   8  10  -3 369.625 52.4164  12
  -7 -10   3 220.216 52.2830  22
  -7  10   3 180.801 55.9968  38
   7  10  -3 137.572 38.8215  21
   7  10  -3 125.707 44.5600  12
   7 -10  -3 122.667 42.7637  30
  -6  10   3 331.431 75.0270  38
  -6 -10   3 363.564 77.3799  22
   6  10  -3 310.482 62.1991  21
   6  10  -3 295.733 67.9380  12
   6 -10  -3 328.780 68.9471  30
   6  10  -3 343.239 62.4873  16
   6 -10  -3 310.783 65.5558  27
  -5 -10   3 1011.88 128.760  13
  -5 -10   3 1057.26 137.590  22
   5  10  -3 1222.47 139.236  12
  -5  10   3 1226.24 143.924  38
   5  10  -3 1027.84 112.521  21
  -5 -10   3 1162.67 140.476  11
   5 -10  -3 996.081 121.085  30
   5  10  -3 1080.26 112.482   9
   5  10  -3 1034.43 116.722  16
  -5 -10   3 985.629 109.865  28
   5 -10  -3 1106.23 125.699  27
   5 -10  -3 1003.68 115.803  25
   4 -10  -3 240.875 65.9231  25
   4 -10  -3 272.229 61.2465  43
  -4 -10   3 349.138 87.5636  22
  -4  10   3 351.233 70.8444  38
   4  10  -3 316.292 74.6788  12
   4  10  -3 221.066 56.7256  21
  -4 -10   3 489.238 102.409  11
   4 -10  -3 361.545 87.1194  30
   4  10  -3 424.379 80.4756   9
  -4 -10   3 258.286 73.3651  28
   4  10  -3 371.362 80.4983  16
   3 -10  -3 427.458 88.7380  25
   3 -10  -3 463.028 86.1009  43
  -3 -10   3 567.181 114.878  11
   3 -10  -3 530.823 103.559  30
   3  10  -3 490.152 78.8445  21
   3  10  -3 528.014 90.7911   9
  -3 -10   3 442.957 90.3252  28
   3  10  -3 470.762 89.6773  16
  -3 -10   3 463.885 96.2040  22
   2 -10  -3 91.6695 49.3403  25
   2 -10  -3 54.1551 40.8727  43
   2  10  -3 25.8543 32.2597  38
  -2 -10   3 36.7042 49.8685  11
   2  10  -3 41.8950 42.1169  32
   2 -10  -3 13.5152 46.0010  30
   2  10  -3 71.3567 41.5005   9
  -2 -10   3 52.2340 52.2701  28
   2  10  -3 33.0889 47.9839  16
  -2 -10   3 85.8019 58.9110  22
   1 -10  -3 647.434 104.232  43
  -1 -10   3 670.247 99.4427  43
  -1 -10   3 572.588 112.276  22
  -1 -10   3 607.437 120.466  11
   1  10  -3 660.373 104.860  38
   1  10  -3 515.948 92.6623  32
   1 -10  -3 714.733 113.788  30
  -1 -10   3 719.321 117.127  28
   1  10  -3 570.689 101.528  16
  -1  10   3 702.924 111.339  16
   1 -10  -3 698.563 115.285  25
   0 -10  -3 4005.53 253.494  43
   0 -10   3 3988.07 248.998  43
   0 -10  -3 3912.30 263.329  40
   0  10  -3 4046.00 262.201  38
   0 -10   3 4437.11 317.479  11
   0  10  -3 4045.39 256.408  32
   0 -10  -3 4321.78 274.776  30
   0 -10  -3 3869.95 225.589  28
   0  10  -3 3891.09 244.678  16
   0 -10   3 3975.47 268.903  28
   0 -10  -3 3687.31 247.324  25
  -1 -10  -3 315.502 77.2116  25
  -1 -10  -3 262.167 72.3429  43
   1 -10   3 208.883 67.7284  43
  -1 -10  -3 204.504 68.1108  40
  -1  10  -3 215.063 70.6192  38
   1 -10   3 193.980 84.3478  11
  -1  10  -3 325.033 78.9746  32
  -1 -10  -3 291.861 74.6485  30
  -1 -10  -3 223.510 62.8737  28
   1 -10   3 257.434 83.9673  28
  -1  10  -3 210.894 57.5162  16
   2 -10   3 32.5871 43.0648  43
  -2 -10  -3 61.2225 55.9704  40
  -2  10  -3-28.5228 57.4611  38
   2  10   3 29.2987 44.0726  21
   2 -10   3 95.4287 64.7372  11
  -2  10  -3 92.5635 54.8084  32
  -2 -10  -3-19.5029 58.2465  30
  -2 -10  -3 7.70684 35.5719  28
   2 -10   3 101.114 58.4804  28
  -2 -10  -3 68.8308 32.3300  25
   3 -10   3 56.1987 45.8947  43
   3  10   3 64.9691 40.1231  42
  -3 -10  -3 33.2124 44.5341  40
  -3  10  -3 111.837 45.1824  38
   3  10   3 51.8747 35.5385  21
   3 -10   3 55.3882 60.5654  11
  -3  10  -3 83.3500 50.0229  32
  -3 -10  -3 51.1377 36.5083  30
   3 -10   3 20.7508 33.4766  28
  -4  10  -3 297.236 56.9181  39
   4 -10   3 207.823 56.0028  43
   4  10   3 207.090 51.5106  42
  -4 -10  -3 256.929 69.4577  40
  -4  10  -3 337.422 70.0521  38
   4 -10   3 287.555 75.9986  11
  -4  10  -3 204.022 54.3129  32
   4  10   3 293.070 65.0918  23
  -4 -10  -3 218.442 60.1649  30
   5 -10   3 1918.79 118.417  43
   5  10   3 1777.40 102.139  42
   5  10   3 2012.90 125.051  23
  -5  10  -3 1841.66 113.338  38
   5  10   3 1989.48 130.935  12
   5 -10   3 1963.20 142.264  11
  -5  10  -3 1917.08 122.481  32
   5  10   3 1891.69 123.402  37
  -6 -11   3 50.2541 32.4381  22
   6  11  -3 37.1467 25.3960  21
   6 -11  -3 92.5948 38.0380  30
  -6  11   3 26.7685 34.2236  16
  -6  11   3 62.8844 45.9102  38
   5 -11  -3 6.63561 25.1396  25
  -5 -11   3 97.3510 42.2191  22
  -5  11   3-13.8211 27.1093  38
   5 -11  -3 38.0184 33.8687  30
  -5 -11   3-17.3616 34.9408  28
   5  11  -3-5.19578 25.9292  16
  -5  11   3 57.4390 39.3354  16
   4 -11  -3 214.106 60.9455  25
  -4 -11   3 238.776 62.8720  22
  -4 -11   3 254.818 68.1878  11
   4 -11  -3 198.140 60.0771  30
   4  11  -3 205.318 42.3422   9
  -4 -11   3 254.149 60.8454  28
   4  11  -3 235.152 57.3226  16
  -4  11   3 192.467 65.7092  16
  -3 -11   3 508.748 90.3199  22
  -3 -11   3 782.274 114.303  11
   3 -11  -3 618.292 84.9866  43
   3 -11  -3 670.384 97.3025  30
   3  11  -3 647.142 83.1392   9
   3  11  -3 587.817 90.3280  16
  -3 -11   3 687.933 93.9981  28
  -3  11   3 622.432 98.6919  16
   3 -11  -3 653.364 99.1652  25
   2 -11  -3 280.530 67.5976  25
   2 -11  -3 298.387 64.0216  43
  -2 -11   3 267.325 73.9749  22
  -2 -11   3 382.949 90.2925  11
   2 -11  -3 380.927 78.3037  30
   2  11  -3 278.220 61.5444   9
  -2 -11   3 262.465 61.9813  28
   2  11  -3 299.885 70.7860  16
  -2  11   3 268.397 66.8938  16
  -1 -11   3 778.389 93.9736  43
   1  11  -3 787.941 97.1925  38
   1 -11  -3 876.755 116.571  40
  -1 -11   3 813.330 109.370  22
   1 -11  -3 874.513 106.443  43
  -1 -11   3 858.573 124.782  11
   1  11  -3 790.788 96.5780  32
   1 -11  -3 865.618 109.103  30
   1  11  -3 900.242 100.301   9
   1  11  -3 817.847 105.743  16
  -1  11   3 884.908 107.868  16
  -1 -11   3 688.613 100.143  28
   1 -11  -3 946.283 115.263  25
   0 -11  -3 56.4098 48.0375  25
   0 -11  -3 132.726 58.3018  43
   0 -11   3 65.3004 34.9488  43
   0 -11  -3 35.1082 41.7349  40
   0  11  -3 141.821 51.7432  38
   0 -11   3 58.2113 39.2333  22
   0 -11   3 62.0293 61.3666  11
   0  11  -3 66.4528 42.9997  32
   0 -11  -3 107.513 47.6717  30
   0  11  -3-11.3363 28.8851   9
   0 -11   3 27.4139 36.5802  28
   0  11  -3 13.3274 33.2665  16
   1 -11   3 591.057 83.6959  43
  -1 -11  -3 692.868 98.3698  40
  -1  11  -3 668.635 95.9682  38
   1  11   3 649.151 90.9614  21
   1 -11   3 679.560 107.028  11
  -1  11  -3 657.913 90.5548  32
  -1 -11  -3 709.226 96.9939  30
  -1  11  -3 714.821 87.8793  16
   1 -11   3 783.447 102.618  28
  -1 -11  -3 586.368 84.1055  25
   2 -11   3-26.2225 27.9880  43
   2  11   3 21.6029 34.2062  42
  -2 -11  -3 14.5812 29.9401  40
  -2  11  -3 55.0719 31.4491  38
   2  11   3 34.4572 24.6983  21
   2 -11   3 53.3909 54.2915  11
  -2  11  -3 8.21584 30.7663  32
  -2 -11  -3-10.4537 37.7019  30
   2 -11   3 12.6260 31.3900  28
  -2 -11  -3-9.74025 27.0601  25
   3 -11   3 370.763 61.5715  43
   3  11   3 399.068 63.4027  42
  -3  11  -3 255.697 53.9251  38
   3  11   3 369.631 51.9335  21
   3 -11   3 295.029 61.6044  11
  -3  11  -3 421.174 65.1001  32
  -3 -11  -3 378.526 67.0499  40
   4 -11   3-5.61126 19.8543  43
   4  11   3 30.5222 24.9081  42
  -4 -11  -3 67.7408 31.1891  40
  -4  11  -3 68.2719 27.8210  38
   4  11   3 51.6142 24.9516  12
   4 -11   3 79.4237 37.1297  11
  -4  11  -3-10.2375 19.3622  32
   4  11   3 77.0026 36.0755  23
  -5  12   3 40.2151 20.1759  16
   4 -12  -3 130.709 35.6464  25
  -4 -12   3 92.1528 30.6032  28
   4  12  -3 70.0934 26.3986  16
  -4  12   3 163.160 39.6039  16
   3 -12  -3 1825.47 111.204  43
  -3 -12   3 1814.91 133.153  11
   3 -12  -3 1699.92 107.996  30
   3  12  -3 1786.16 120.907  16
  -3 -12   3 1803.72 118.664  28
  -3  12   3 1854.83 122.598  16
   3 -12  -3 1713.46 120.868  25
   2 -12  -3 104.847 37.0871  25
   2 -12  -3 87.3529 30.7346  43
  -2 -12   3 52.6822 34.5212  11
   2 -12  -3 42.2556 33.1909  30
  -2 -12   3 86.4708 33.4135  28
   2  12  -3 87.1531 41.2356  16
  -2  12   3 132.591 37.2180  16
  -1  12   3 1601.13 119.027  21
  -1 -12   3 1555.11 133.058  11
   1 -12  -3 1498.54 106.217  30
   1  12  -3 1463.55 114.560  16
  -1  12   3 1405.61 96.3754  16
  -1 -12   3 1624.98 123.083  28
   1 -12  -3 1549.31 116.068  43
   1 -12  -3 1424.85 113.564  25
   0 -12   3 730.634 68.8691  43
   0  12  -3 771.338 73.8262  38
   0  12   3 906.975 89.1804  21
   0 -12   3 877.733 99.6198  11
   0  12  -3 816.550 71.5054  32
   0  12  -3 883.629 83.3950  16
   0 -12   3 999.124 94.5013  28
   0 -12  -3 795.779 81.2659  25
   1 -12   3 370.354 51.3691  43
   1  12   3 400.209 59.5751  42
  -1 -12  -3 298.881 54.4158  40
  -1  12  -3 268.948 51.2405  38
   1  12   3 398.681 55.0433  21
   1 -12   3 368.338 67.6864  11
  -1  12  -3 377.908 52.6085  32
   1 -12   3 354.783 56.6789  28
  -1 -12  -3 249.716 41.7297  25
   2 -12   3 28.9159 21.4808  43
   2  12   3 4.85242 18.5835  42
  -2 -12  -3 26.3474 24.7381  40
   2  12   3 26.3365 17.9424  21
   2 -12   3 29.1799 23.3847  11
  -2  12  -3-15.4955 22.1583  38
 -12   0   4 44.8696 51.3870  29
  11   0  -4-40.9915 35.6268   7
  11   0  -4 191.316 57.2517  24
  11   0  -4 112.458 43.1817  42
 -11   0   4-10.4381 67.6083  29
  11   0  -4 65.4152 38.0806  26
 -11   0   4 101.164 51.6705  15
  10   0  -4 2773.80 222.045  24
  10   0  -4 2856.36 212.248  42
  10   0  -4 2766.16 191.764  21
 -10   0   4 2591.84 280.373  29
  10   0  -4 2695.54 203.402   7
 -10   0   4 2696.91 232.231  15
  10   0  -4 2742.42 217.724  26
   9   0  -4 1718.56 184.352  24
   9   0  -4 1516.07 165.109  42
   9   0  -4 1615.22 177.950   7
  -9   0   4 1374.19 174.108  15
   9   0  -4 1514.76 160.611  21
   8   0  -4 14.5988 49.1245  14
   8   0  -4 40.4265 66.9240  24
   8   0  -4 16.8583 60.4541   7
   8   0  -4 51.7157 43.4131  42
   8   0  -4-11.6091 49.3289  21
  -8   0   4-4.64566 54.0293  15
   7   0  -4 28891.9 714.477  24
   7   0  -4 26820.7 657.607  42
   7   0  -4 28419.6 671.719  21
   7   0  -4 25652.2 1224.88  36
  -7   0   4 27778.1 1497.82  35
   7   0  -4 29325.5 665.214  16
   7   0  -4 30672.3 718.957   7
  -7   0   4 24282.4 1364.90   2
   7   0  -4 26808.6 664.014  14
  -6   0   4 31.3424 91.5483  35
  -6   0   4-73.9254 93.3461   2
   5   0  -4 3891.30 388.257  36
  -5   0   4 4018.43 513.611  35
   5   0  -4 4397.15 346.456   1
  -5   0   4 3632.11 448.799   2
   4   0  -4 46156.0 1169.29  36
   4   0  -4 46136.0 1108.64   1
   4   0  -4 44849.0 1181.83   3
  -4   0   4 42763.9 1362.56   2
   3   0  -4 63044.1 1154.16  36
  -3   0   4 64328.3 1529.35  19
   3   0  -4 62781.1 1301.35   1
   3   0  -4 64157.1 1317.83   3
  -2   0   4 337179. 3872.32  19
   2   0  -4 344805. 3106.75   1
   2   0  -4 356978. 4428.36  17
   2   0  -4 349666. 2986.47   3
  -1   0   4 3199.04 415.890  19
   1   0  -4 3143.17 307.199   1
  -1   0   4 3694.89 316.812  18
   1   0  -4 3473.57 445.884  17
   1   0  -4 3443.10 304.159   3
   0   0  -4 7388.69 472.915   3
   0   0   4 8375.52 496.616  18
   0   0  -4 7823.86 674.830  17
  -1   0  -4 14245.7 716.898   3
   1   0   4 15240.9 712.197  18
  -1   0  -4 15018.6 955.266  17
  -2   0  -4 13516.8 762.371   3
   2   0   4 15977.4 897.028  34
   2   0   4 14459.6 752.696  18
  -2   0  -4 14118.7 964.001  17
  -3   0  -4 13550.9 820.385   3
   3   0   4 16394.6 964.859  34
   3   0   4 14076.8 815.663  18
  -3   0  -4 13448.4 591.355   5
  -3   0  -4 14484.5 488.952  31
  -3   0  -4 14633.3 542.138  29
  -3   0  -4 15378.5 477.963  25
   4   0   4 1734.58 351.417  34
  -4   0  -4 1463.11 292.333   3
  -4   0  -4 1587.91 172.425  31
   4   0   4 1624.91 321.692  18
  -4   0  -4 1542.10 188.091  30
  -4   0  -4 1689.50 202.229  29
  -4   0  -4 1921.21 194.205   4
  -4   0  -4 1713.98 182.263   8
  -5   0  -4 23.4677 49.4534  31
  -5   0  -4 58.4479 47.2582  30
  -5   0  -4 39.9039 69.4493   5
  -5   0  -4 142.990 74.6388  29
  -5   0  -4 26.1132 63.6515   8
  -6   0  -4 212.409 72.3267  31
  -6   0  -4 274.150 107.544   5
  -6   0  -4 234.744 88.8715  29
  -6   0  -4 291.750 98.1740   8
   6   0   4 214.833 77.7349  27
  -7   0  -4 87.2149 57.9638  41
  -7   0  -4 27.2274 41.4162  31
  -7   0  -4 129.650 81.9850   5
  -7   0  -4-13.7581 52.3173  29
  -7   0  -4 82.5949 57.3384   8
   7   0   4 65.6728 52.2928  27
  -8   0  -4 792.312 118.085   5
  -8   0  -4 1061.86 110.359  29
  -8   0  -4 1031.58 110.719   8
   8   0   4 998.754 112.926  27
  12   1  -4 156.910 35.3443  42
  12  -1  -4 101.759 30.4270  26
  11   1  -4 1521.39 138.383  24
  11  -1  -4 1763.02 140.857  42
 -11   1   4 1338.35 181.800  39
  11   1  -4 1518.57 114.208  21
 -11   1   4 1738.46 195.941  29
 -11  -1   4 1706.68 198.538  29
  11  -1  -4 1322.33 121.361   7
 -11   1   4 1736.58 156.467  15
 -11  -1   4 1717.72 164.856  15
  11  -1  -4 1729.39 141.672  26
  11   1  -4 1453.29 124.178  26
  11   1  -4 1566.09 131.277  42
  10  -1  -4 2399.31 205.487  24
  10  -1  -4 2448.68 193.966  42
  10   1  -4 2810.91 207.945  42
  10   1  -4 2601.28 213.516  24
  10   1  -4 2718.80 190.210  21
  10  -1  -4 2637.66 187.324  21
 -10   1   4 2485.84 266.993  29
 -10  -1   4 2884.94 291.345  29
  10  -1  -4 2697.69 207.886   7
  10   1  -4 2862.55 197.231   7
 -10   1   4 2492.02 216.692  15
 -10  -1   4 2678.79 237.768  15
  10  -1  -4 2691.82 216.693  26
  10   1  -4 2844.51 211.938  26
   9   1  -4 1011.92 144.010  24
   9  -1  -4 835.304 128.020   7
   9  -1  -4 917.173 132.160  42
   9   1  -4 889.393 127.460  42
   9  -1  -4 1021.42 133.282  21
   9   1  -4 981.985 129.740  21
   9  -1  -4 754.589 111.003  37
   9   1  -4 1126.79 142.881   7
  -9   1   4 880.391 141.205  15
   9  -1  -4 1076.76 148.461  24
  -9  -1   4 758.608 137.472  15
   8  -1  -4 1871.52 196.604  24
   8   1  -4 1874.87 192.624  24
   8  -1  -4 1711.96 176.330  42
   8   1  -4 1688.78 172.965  42
   8  -1  -4 1670.66 172.142  21
   8   1  -4 1836.19 179.771  21
   8   1  -4 1941.11 170.359  16
   8  -1  -4 1910.99 191.636   7
   8   1  -4 1912.25 186.120   7
  -8   1   4 1477.17 170.456  15
   8   1  -4 1740.01 180.577  14
   7  -1  -4 415.126 87.0666  14
   7   1  -4 327.682 74.8658  14
   7  -1  -4 410.623 93.5038   7
   7  -1  -4 401.426 85.9785  42
   7   1  -4 333.704 75.6450  42
   7   1  -4 392.189 83.3060   7
   7  -1  -4 402.028 89.9337  21
   7   1  -4 391.510 85.8707  21
   7  -1  -4 93.8642 91.4822  36
  -7   1   4 274.685 158.441   2
   7   1  -4 362.690 150.344  36
   7  -1  -4 488.843 96.6174  24
  -7   1   4 646.402 247.258  35
  -7  -1   4 173.898 198.968  35
  -7  -1   4 110.863 104.094   2
   7   1  -4 403.479 87.0797  16
   6  -1  -4 421.063 148.309  36
   6   1  -4 283.637 123.071  36
  -6   1   4 347.834 151.496   2
  -6   1   4 227.463 146.024  35
  -6  -1   4 598.077 220.853  35
  -6  -1   4 668.790 212.400   2
  -5  -1   4 5119.02 556.961   2
   5  -1  -4 5706.90 479.022  36
   5   1  -4 5592.60 466.366  36
  -5   1   4 5814.07 603.249  35
  -5  -1   4 5608.74 617.310  35
  -5   1   4 6853.25 560.653  33
   5  -1  -4 6090.78 437.985   1
  -5   1   4 5542.79 518.163   2
   4  -1  -4 27637.7 928.131  36
   4   1  -4 28471.3 922.755  36
  -4   1   4 27496.4 1233.54  35
  -4  -1   4 27024.0 1307.49  35
   4   1  -4 29488.4 829.752   1
   4  -1  -4 28430.9 929.246   1
   4   1  -4 28001.0 963.887   3
  -4  -1   4 30214.0 1059.94  19
  -4   1   4 29563.3 1053.46   2
  -3   1   4 36024.4 1037.26   2
   3  -1  -4 34834.8 881.742  36
   3   1  -4 35323.4 881.016  36
  -3   1   4 29756.1 1273.78  35
  -3  -1   4 34805.1 1215.19  19
  -3   1   4 38322.9 1150.03  33
   3   1  -4 39587.1 992.746   1
   3  -1  -4 36144.9 1512.91  17
   3  -1  -4 33485.0 1003.31   1
  -3  -1   4 30496.8 1368.69  35
   3  -1  -4 34511.7 925.408   3
   3   1  -4 33549.3 996.692   3
   2   1  -4 11241.8 572.468   3
  -2  -1   4 11734.6 752.639  19
  -2   1   4 11851.2 705.755  19
   2  -1  -4 12272.4 861.347  17
   2  -1  -4 10958.2 572.446   1
   2  -1  -4 11510.8 515.049   3
   1  -1  -4 25679.1 759.224   3
   1   1  -4 23896.8 860.011   3
  -1  -1   4 23432.6 1132.73  19
  -1   1   4 24483.5 1095.55  19
  -1   1   4 27113.8 1029.73  18
   1  -1  -4 24403.0 879.041   1
   1  -1  -4 25699.8 1244.50  17
   1   1  -4 26284.1 1133.80  17
   0  -1  -4 5795.55 378.517   3
   0   1  -4 5909.29 458.373   3
   0  -1   4 6307.49 610.245  19
   0  -1  -4 6340.92 465.584   1
   0   1   4 6424.12 506.271  18
   0  -1  -4 7141.25 680.682  17
   0   1  -4 6556.50 563.311  17
  -1  -1  -4 13680.4 637.909   3
  -1   1  -4 12601.9 719.766   3
   1   1   4 14501.0 797.625  34
   1  -1   4 13413.3 924.378  19
   1   1   4 13862.7 763.457  18
  -1  -1  -4 14582.0 1017.78  17
  -1   1  -4 14557.4 858.114  17
   2   1   4 521.242 169.820  34
  -2  -1  -4 499.619 149.449   3
  -2   1  -4 526.535 154.481   3
   2  -1   4 222.976 157.821  19
   2   1   4 666.397 192.722  18
  -2  -1  -4 474.899 217.846  17
  -3  -1  -4 317.477 87.0852  41
   3  -1   4 251.734 131.567  34
   3   1   4-217.881 139.893  34
  -3   1  -4 23.9446 70.6832   3
   3  -1   4 730.078 248.093  19
   3   1   4 90.3681 102.420  18
  -3   1  -4 155.465 53.4634  31
  -3  -1  -4 145.731 71.7466  31
  -3  -1  -4 260.164 209.752  17
  -3   1  -4 282.533 89.6061   5
  -3  -1  -4 92.9426 61.1360   5
  -3  -1  -4 390.430 91.2663  29
  -3   1  -4 136.250 55.9789  29
  -3   1  -4 214.926 78.3374   8
  -3  -1  -4 110.819 38.4746  25
  -4   1  -4 572.114 119.075  39
   4  -1   4 477.136 147.776  34
   4   1   4 1053.18 272.956  34
  -4   1  -4 917.166 273.039   3
   4  -1   4 371.266 194.467  19
   4   1   4 869.742 223.412  18
  -4   1  -4 681.759 115.653  31
  -4  -1  -4 685.426 120.240  31
  -4   1  -4 498.764 105.436  30
  -4  -1  -4 746.430 139.199  30
  -4   1  -4 458.830 131.817   5
  -4  -1  -4 593.320 117.611  29
  -4   1  -4 821.663 149.837  29
  -4   1  -4 778.248 133.670   8
  -4  -1  -4 605.754 111.780   8
  -4  -1  -4 563.527 111.857   4
  -4  -1  -4 735.356 113.899  25
  -5  -1  -4 3591.45 292.644  41
  -5   1  -4 3523.80 325.739   5
  -5  -1  -4 4119.62 355.681   5
  -5   1  -4 3549.16 257.292  31
  -5  -1  -4 4047.10 280.062  31
  -5  -1  -4 3937.99 315.619  30
  -5  -1  -4 3981.54 301.262  29
  -5   1  -4 3997.36 310.708  29
  -5  -1  -4 3969.26 285.460   4
  -5   1  -4 4073.49 289.693   8
  -5  -1  -4 4448.23 298.761   8
   5  -1   4 4384.56 302.942  27
  -6  -1  -4 188.051 78.9373  41
  -6   1  -4 150.272 67.7038  31
  -6  -1  -4 14.2645 40.6521  31
  -6  -1  -4 96.2314 75.7092  30
  -6   1  -4 189.440 79.1162   5
  -6  -1  -4 136.947 84.4050   5
  -6  -1  -4 142.338 66.4244  29
  -6   1  -4 212.179 91.2303  29
  -6   1  -4 151.835 86.0643   8
  -6  -1  -4 75.1872 42.5392   8
   6  -1   4 62.5876 46.5125  27
   6   1   4 81.4905 53.6034  27
  -7   1  -4 3744.52 273.187  41
  -7   1  -4 3819.49 291.783   5
  -7  -1  -4 4457.66 331.840   5
  -7  -1  -4 3687.05 235.902  31
  -7  -1  -4 4026.23 259.048  29
  -7   1  -4 4134.22 274.017  29
  -7   1  -4 4319.26 268.759   8
  -7  -1  -4 4366.92 266.168   8
   7  -1   4 4096.01 267.569  27
   7   1   4 4550.13 285.385  27
  -8   1  -4 961.452 116.219   5
  -8  -1  -4 831.010 115.777   5
  -8   1  -4 1318.25 128.110  29
  -8   1  -4 1099.27 112.004   8
  -8  -1  -4 1125.80 113.691   8
   8  -1   4 1070.88 116.454  27
   8   1   4 1179.93 122.552  27
  11   2  -4 669.477 92.6133  24
  11  -2  -4 559.028 82.9342   7
  11   2  -4 536.087 75.9579  42
  11   2  -4 640.462 75.2308  21
 -11   2   4 662.790 126.503  39
 -11   2   4 926.239 141.812  29
 -11  -2   4 860.757 141.743  29
 -11  -2   4 794.900 115.680  15
  11  -2  -4 698.101 89.3857  26
  10   2  -4 2044.17 187.388  24
  10  -2  -4 1944.91 172.084  42
  10   2  -4 2080.21 175.288  42
  10   2  -4 2064.63 164.773  21
 -10   2   4 1813.09 223.454  29
 -10  -2   4 2137.54 244.915  29
  10  -2  -4 1755.56 169.480   7
 -10   2   4 2030.82 181.549  15
 -10  -2   4 2055.92 204.924  15
  10  -2  -4 2022.39 186.560  26
  10   2  -4 2068.42 169.989  26
   9  -2  -4 97.4460 75.1453  24
   9  -2  -4 116.995 58.6877   7
   9   2  -4 132.511 63.8260   7
   9  -2  -4 21.8649 43.0583  42
   9   2  -4-42.7408 42.0950  42
   9  -2  -4 9.74475 33.7455  23
   9   2  -4 63.4145 50.8205  24
   9  -2  -4 58.5531 47.3232  21
   9  -2  -4 1.86917 36.9730  37
   9   2  -4 84.8739 51.2664  21
  -9  -2   4 65.7592 47.6895  31
  -9   2   4 106.468 82.5322  29
   9  -2  -4 49.8864 51.4529  26
  -9   2   4 7.52595 46.0342  15
  -9  -2   4 136.326 71.1928  15
   8   2  -4 517.941 101.838  14
   8  -2  -4 415.947 88.6492  24
   8  -2  -4 393.139 97.0827   7
   8   2  -4 376.491 80.7435   7
   8   2  -4 414.133 91.1586  42
   8  -2  -4 318.386 94.2801  42
   8  -2  -4 418.310 96.0184  21
   8  -2  -4 494.930 95.3117  37
   8   2  -4 362.898 85.9334  21
  -8  -2   4 512.852 98.3616  31
   8   2  -4 571.236 98.1166  16
   8  -2  -4 337.337 88.9998  26
   7  -2  -4 30498.3 714.276  42
   7   2  -4 31457.3 707.334  42
   7  -2  -4 30244.3 731.302  24
   7   2  -4 29732.2 743.210  12
   7  -2  -4 30938.1 709.981  21
   7   2  -4 31751.1 721.516  21
   7  -2  -4 30980.4 704.760  37
   7  -2  -4 30250.6 1383.61  36
   7   2  -4 28172.8 1287.14  36
  -7   2   4 29937.0 1536.27  35
  -7  -2   4 31800.0 1621.56  35
  -7  -2   4 28798.3 697.761  31
   7   2  -4 31967.3 698.887  16
  -7   2   4 27821.6 1411.63   2
   7  -2  -4 33003.8 771.652   7
   7   2  -4 33485.8 729.388   7
   7  -2  -4 31836.2 777.111  26
  -7  -2   4 29487.0 1593.96   2
   7   2  -4 31316.3 721.447  14
   6   2  -4 5460.16 285.784  14
  -6  -2   4 4695.10 610.709   2
   6  -2  -4 5564.55 287.286  42
   6  -2  -4 6538.95 349.678  41
   6  -2  -4 5732.82 290.218  21
   6  -2  -4 5433.57 542.278  36
   6   2  -4 4883.07 495.662  36
  -6   2   4 4661.10 552.017  35
  -6  -2   4 4955.94 615.893  35
  -6   2   4 5312.63 592.900  33
   6   2  -4 6347.32 305.264  21
   6   2  -4 4865.87 268.169   9
   6   2  -4 5758.35 286.936  16
  -6   2   4 4703.95 525.975   2
   6  -2  -4 6049.18 312.902   7
   6  -2  -4 5736.56 310.347  26
   6  -2  -4 5345.34 459.049   1
   5  -2  -4 35233.3 1237.21  36
   5   2  -4 35005.1 1180.45  36
  -5   2   4 35776.7 1417.56  35
  -5  -2   4 34711.6 1541.96  35
  -5   2   4 36608.6 1285.57   2
   5  -2  -4 33637.8 1112.53   1
   4  -2  -4 42644.8 1217.63  36
   4   2  -4 42658.9 1167.35  36
  -4   2   4 43118.2 1487.14  35
  -4  -2   4 38840.5 1596.24  35
  -4  -2   4 44351.0 1443.24  19
  -4   2   4 50498.2 1555.71  33
   4  -2  -4 41212.9 1198.60   1
  -4   2   4 48665.5 1300.81   2
   4   2  -4 42931.7 1243.21   3
   3  -2  -4 4766.67 354.843  36
   3   2  -4 5188.30 353.461  36
  -3   2   4 4268.97 452.299  35
  -3  -2   4 4474.21 534.550  35
  -3  -2   4 5381.41 525.257  19
  -3   2   4 6142.26 529.695  33
   3  -2  -4 5469.43 604.451  17
   3  -2  -4 4727.70 400.047   1
   3   2  -4 4909.40 404.455   3
   2   2  -4 155989. 2237.61   3
  -2   2   4 165511. 2600.06  20
  -2  -2   4 157279. 2877.42  19
   2  -2  -4 165259. 3272.63  17
   2  -2  -4 155539. 2272.30   1
   2  -2  -4 165293. 1785.02   3
   1   2  -4 27059.2 964.168   3
  -1  -2   4 31774.3 1351.23  19
  -1   2   4 31135.4 1264.70  18
   1  -2  -4 31748.7 1464.58  17
   1  -2  -4 29022.7 994.573   1
   1  -2  -4 30671.4 748.784   3
   0   2  -4 9229.29 600.125   3
   0   2   4 10042.3 621.231  34
   0  -2   4 9162.38 760.626  19
   0   2   4 9513.96 700.147  18
   0  -2  -4 9173.20 569.244   1
   0  -2  -4 9747.25 851.601  17
   0   2  -4 10022.1 643.530  17
  -1   2  -4 75512.3 1849.24   3
   1  -2   4 73822.4 2248.21  19
   1   2   4 79870.3 2054.28  18
  -1  -2  -4 80718.0 2565.42  17
   2   2   4 2074.80 338.913  34
   2  -2   4 2121.16 406.529  19
   2   2   4 2257.07 362.495  18
  -2  -2  -4 2997.57 529.606  17
  -2   2  -4 2468.16 365.239   3
  -3   2  -4 31371.4 1375.42   3
  -3   2  -4 35757.3 842.227  39
   3  -2   4 41975.8 1516.62  34
   3   2   4 40342.3 1605.85  34
   3  -2   4 34174.2 1687.49  19
  -3   2  -4 34669.3 895.420   5
   3   2   4 36072.8 1491.31  18
  -3  -2  -4 35538.9 975.724   5
  -3   2  -4 35680.3 762.323  31
  -3  -2  -4 34172.2 755.505  31
  -3  -2  -4 36194.5 852.029  30
  -3  -2  -4 37549.8 1958.89  17
  -3  -2  -4 35219.1 797.760  29
  -3   2  -4 34926.3 857.394  29
  -3   2  -4 37120.0 803.518   8
  -3  -2  -4 34999.3 757.956   4
  -3   2  -4 35850.3 765.060  15
  -3  -2  -4 32561.0 811.381  41
  -3  -2  -4 38669.9 773.092  25
  -4   2  -4 1394.44 177.287  39
   4  -2   4 1756.83 324.781  34
   4   2   4 1349.63 322.616  34
  -4   2  -4 987.730 272.948   3
   4  -2   4 1378.01 365.853  19
  -4   2  -4 1307.57 190.920   5
  -4   2  -4 1211.05 149.992  31
  -4  -2  -4 1293.74 157.843  31
   4   2   4 1393.28 306.668  18
  -4  -2  -4 1134.34 158.933  41
  -4  -2  -4 1227.12 173.410  30
  -4  -2  -4 1064.08 268.439  17
  -4  -2  -4 1461.26 174.788  29
  -4  -2  -4 1128.55 197.496   5
  -4   2  -4 968.694 158.833  29
  -4   2  -4 1288.89 163.257   8
  -4  -2  -4 1438.48 169.725   4
   4  -2   4 1249.66 155.869  27
  -4   2  -4 1070.89 144.397  15
  -4  -2  -4 1377.34 151.992  25
  -5  -2  -4 98.3345 68.8384  41
  -5   2  -4 76.9532 40.3395  39
   5   2   4 56.0962 46.4905  37
  -5  -2  -4 43.9990 42.9244  31
  -5  -2  -4-25.8411 52.0149  30
  -5   2  -4-10.1312 74.1507   5
  -5  -2  -4 41.4738 75.1927   5
  -5  -2  -4 61.4386 57.3170  29
  -5   2  -4 91.2705 57.4694  29
  -5   2  -4-25.2541 58.0667   8
  -5  -2  -4-4.36611 44.6801   4
   5  -2   4-155.435 68.3078  27
  -5   2  -4 109.763 53.6601  15
  -6   2  -4 1209.89 148.749  39
   6   2   4 1356.36 149.264  37
  -6   2  -4 1302.22 186.606   5
  -6  -2  -4 1148.04 148.435  31
  -6  -2  -4 1006.70 159.597  30
  -6  -2  -4 1335.10 161.240  29
  -6   2  -4 1313.14 170.024  29
  -6  -2  -4 905.149 175.021   5
  -6  -2  -4 1123.30 151.027   4
  -6   2  -4 1291.10 161.694   8
  -6  -2  -4 1151.68 150.306   8
   6  -2   4 1281.30 166.303  27
  -6   2  -4 1384.26 152.649  15
   7   2   4 433.503 74.2263  37
  -7  -2  -4 488.179 89.6102  31
  -7   2  -4 312.960 82.6304   5
  -7  -2  -4 486.402 115.572   5
  -7   2  -4 394.268 91.8298  29
  -7   2  -4 356.198 82.0066   8
  -7  -2  -4 425.586 82.5017   8
   7  -2   4 480.507 96.5506  27
   7   2   4 629.903 112.926  27
   8  -2   4 287.364 80.3952  11
  -8   2  -4 282.308 62.3969   5
  -8  -2  -4 153.102 51.6505   5
  -8   2  -4 232.879 59.7845  29
  -8  -2  -4 148.203 43.0997   8
  -8   2  -4 205.960 54.0836  41
   8  -2   4 193.545 50.0303  27
   8   2   4 290.392 63.6289  27
  11   3  -4 1931.83 143.645  24
  11   3  -4 1808.25 128.043  42
 -11   3   4 1816.01 199.767  39
  11   3  -4 1780.05 116.338  21
 -11   3   4 1856.99 158.385  29
 -11  -3   4 1858.27 177.299  29
  11  -3  -4 1689.81 130.358   7
 -11  -3   4 2175.84 174.264  15
  11  -3  -4 1812.95 134.287  26
  10   3  -4 10368.0 399.244  24
  10   3  -4 10372.4 370.621  42
  10   3  -4 10026.8 352.689  21
  10  -3  -4 9837.58 352.293  37
 -10  -3   4 10754.8 381.658  31
 -10   3   4 9925.72 458.345  29
 -10  -3   4 8947.26 464.526  29
  10  -3  -4 10241.3 395.962   7
 -10  -3   4 9982.10 439.406  15
  10  -3  -4 9891.48 384.855  26
   9   3  -4 3543.84 259.580  24
   9  -3  -4 3393.66 233.944  23
   9  -3  -4 3496.59 244.014  42
   9   3  -4 3254.52 230.736  42
   9   3  -4 3617.01 239.386  21
   9  -3  -4 3338.65 234.309  37
  -9  -3   4 3526.11 244.514  31
  -9   3   4 2746.62 273.418  29
   9  -3  -4 3182.58 248.845   7
   9  -3  -4 3212.24 244.424  26
   9   3  -4 3239.03 232.400  14
   8  -3  -4 12657.1 493.609  24
   8  -3  -4 14116.2 489.434  23
   8  -3  -4 13365.8 487.507  42
   8   3  -4 14414.3 495.856  42
   8   3  -4 13590.1 506.502  12
   8   3  -4 13857.0 487.971  21
   8  -3  -4 14098.0 494.069  37
  -8  -3   4 13844.2 507.511  31
   8   3  -4 14157.4 458.921  16
   8  -3  -4 14047.2 522.755   7
   8  -3  -4 14314.3 531.070  26
   8   3  -4 13825.4 489.935  14
   7  -3  -4 24.9458 51.6652  24
   7   3  -4 24.9196 41.0029  14
   7  -3  -4 70.5582 66.3344   7
   7  -3  -4-4.97554 42.9775  42
   7   3  -4 85.5099 46.1078  42
   7   3  -4-39.0620 40.5064   7
   7  -3  -4 46.7921 45.5700  37
  -7   3   4 339.816 175.971   2
   7  -3  -4 93.9649 53.1834  21
   7   3  -4 98.8964 60.3118  21
   7   3  -4 4.34255 35.8263  12
   7  -3  -4 26.6353 77.6977  36
   7   3  -4 34.5940 48.3729  36
  -7   3   4-176.148 153.670  35
  -7  -3   4-77.0644 113.793  35
  -7  -3   4 403.276 222.087   2
  -7   3   4-25.6867 72.0909  33
  -7  -3   4-24.0130 40.1904  31
   7   3  -4-7.77568 28.9541  16
   7  -3  -4-24.8756 43.7551  26
   6   3  -4 4687.70 265.561  14
   6  -3  -4 4239.67 258.808  42
  -6  -3   4 3710.14 575.916   2
   6   3  -4 4266.48 287.140  12
   6   3  -4 4457.71 256.104  38
   6   3  -4 4045.84 251.492  21
   6  -3  -4 4351.35 261.004  21
   6  -3  -4 3695.55 238.106  37
   6  -3  -4 3287.83 439.337  36
   6   3  -4 4045.41 458.724  36
  -6   3   4 4419.72 532.574  35
  -6  -3   4 3305.65 485.016  35
  -6   3   4 3864.69 541.421  33
   6   3  -4 3921.86 250.225   9
   6   3  -4 4185.75 250.935  16
  -6   3   4 3380.76 439.562   2
   6  -3  -4 4232.40 269.468   7
   6  -3  -4 4299.64 274.055  26
   6   3  -4 4560.14 257.732   7
   6  -3  -4 3835.68 423.017   1
   5  -3  -4 30453.6 1220.11  36
   5   3  -4 28301.7 1113.13  36
  -5   3   4 31894.5 1285.45  35
  -5  -3   4 28947.0 1422.36  35
  -5  -3   4 29916.7 1256.30  19
  -5   3   4 34097.6 1499.36  33
  -5   3   4 30911.8 1183.50   2
   5  -3  -4 27776.5 1087.48   1
   4  -3  -4 2384.81 310.138  36
   4   3  -4 1954.41 271.225  36
  -4   3   4 2209.24 332.117  35
  -4  -3   4 2197.62 394.452  35
  -4  -3   4 2561.55 382.910  19
  -4   3   4 3047.52 427.661  33
   4   3  -4 2002.48 280.973   3
   4  -3  -4 1876.61 273.494   1
   3   3  -4 67903.2 1396.31  36
  -3   3   4 65446.1 1682.55  35
  -3   3   4 64234.2 1896.26  20
  -3  -3   4 60204.3 2004.68  35
  -3  -3   4 65127.0 1912.67  19
   3  -3  -4 71108.9 2267.93  17
   3  -3  -4 64080.4 1565.48   1
   3   3  -4 63616.1 1514.64   3
   2   3  -4 2585.33 317.051   3
   2   3  -4 2334.22 236.866  36
  -2   3   4 2170.21 325.235  20
  -2   3   4 2395.78 326.988  35
  -2   3   4 2908.94 291.821  34
  -2  -3   4 2362.96 379.767  19
   2  -3  -4 2137.80 397.032  17
   2  -3  -4 2328.52 296.479   1
   1   3  -4 69095.5 1632.05   3
  -1   3   4 83798.3 1703.74  34
  -1  -3   4 73725.7 2132.42  19
  -1   3   4 80858.0 2232.19  18
   1  -3  -4 75865.2 2410.25  17
   1  -3  -4 70142.8 1616.39   1
   0   3  -4 30208.6 1150.57   3
   0   3   4 34832.2 1201.72  34
   0  -3   4 32054.7 1463.85  19
   0   3   4 31950.1 1418.36  18
   0  -3  -4 33662.8 1687.74  17
   0  -3  -4 30218.7 1075.83   1
  -1   3  -4 20626.6 1010.75   3
   1   3   4 21971.6 1034.17  34
   1  -3   4 19779.8 1203.89  19
  -1  -3  -4 20463.3 906.808   1
   1   3   4 21638.3 1179.91  18
  -1  -3  -4 22440.3 1448.18  17
  -2   3  -4 29004.8 1283.65   3
   2   3   4 35349.0 1440.16  34
   2  -3   4 30242.6 1568.93  19
   2   3   4 31518.6 1432.08  18
  -2  -3  -4 33980.2 1892.20  17
  -3  -3  -4 6062.04 337.388  40
  -3   3  -4 5592.54 595.220   3
  -3   3  -4 6487.76 375.713  39
   3  -3   4 8446.66 678.129  34
   3   3   4 6722.51 681.718  34
   3  -3   4 5966.90 727.901  19
  -3  -3  -4 6206.48 410.686   5
   3   3   4 6780.43 681.673  18
  -3  -3  -4 5658.42 310.421  31
  -3  -3  -4 6668.85 377.377  30
  -3  -3  -4 6034.53 835.925  17
  -3   3  -4 6138.93 361.494  29
  -3   3  -4 6409.19 347.641   8
  -3  -3  -4 6440.27 331.935   4
  -3   3  -4 6325.08 335.885  15
  -3  -3  -4 6380.68 323.902  25
  -4   3  -4 19345.0 1162.16   3
  -4   3  -4 21492.7 692.094  39
   4   3   4 23315.9 1357.69  34
   4  -3   4 20029.9 1380.56  19
  -4   3  -4 20508.3 681.949   5
   4   3   4 22743.1 1285.67  18
  -4  -3  -4 20679.7 777.222   5
  -4  -3  -4 20410.8 608.966  31
  -4  -3  -4 20420.1 696.532  30
  -4  -3  -4 20690.4 1595.87  17
  -4   3  -4 20402.7 681.479  29
  -4   3  -4 21275.6 649.539   8
  -4  -3  -4 21323.2 633.824   4
   4  -3   4 20880.4 629.908  27
  -4   3  -4 20743.0 627.070  15
  -4  -3  -4 21929.2 597.889  25
  -5   3  -4 25036.8 731.439  39
   5   3   4 26057.7 674.345  37
  -5   3  -4 22927.6 723.039   5
  -5  -3  -4 22265.4 805.713   5
  -5  -3  -4 24053.7 667.707  31
  -5  -3  -4 23631.9 775.141  30
  -5   3  -4 22858.1 720.541  29
  -5   3  -4 25136.3 714.518   8
  -5  -3  -4 24978.0 700.386   4
   5  -3   4 25130.9 704.773  27
  -5   3  -4 25085.6 680.648  15
  -5  -3  -4 26698.5 627.341  25
  -6   3  -4 3973.95 270.284  39
   6   3   4 4356.44 263.305  37
  -6   3  -4 3186.97 251.414   5
  -6  -3  -4 3535.44 308.410   5
  -6  -3  -4 3556.15 248.705  31
  -6  -3  -4 4189.40 318.072  30
  -6   3  -4 4110.56 291.983  29
  -6   3  -4 4314.37 285.260   8
  -6  -3  -4 4067.91 276.728   4
  -6  -3  -4 4195.53 273.301   8
   6  -3   4 4371.14 285.179  27
  -6   3  -4 3961.96 257.540  15
   7   3   4 12990.5 388.376  37
   7  -3   4 11021.2 476.101  11
  -7  -3  -4 11414.8 479.283   5
  -7  -3  -4 11734.5 395.604  31
  -7  -3  -4 11230.5 460.549  30
  -7   3  -4 11685.4 428.221  29
  -7   3  -4 11913.4 415.726   8
  -7  -3  -4 12216.5 406.841   8
   7  -3   4 11929.6 415.967  27
   7   3   4 12085.4 439.302  27
  -8   3  -4 626.551 91.2158  41
   8  -3   4 488.330 93.0580  11
  -8  -3  -4 582.837 86.3896   5
  -8   3  -4 609.008 79.4898  29
  -8  -3  -4 660.409 76.3322   8
   8  -3   4 824.610 89.2990  27
   8   3   4 667.644 85.9747  27
  11   4  -4 1024.17 98.2826  24
  11   4  -4 1171.46 93.7295  42
 -11   4   4 1257.23 153.014  39
  11   4  -4 986.572 80.6863  21
 -11   4   4 1030.78 127.601  32
 -11  -4   4 1106.64 93.3777  31
 -11  -4   4 1216.97 125.574  15
  11  -4  -4 1016.33 91.7928  26
  10  -4  -4 319.111 84.7381   7
  10   4  -4 137.943 62.2648  24
  10   4  -4 164.173 52.0768  42
 -10   4   4 131.624 99.6799  39
  10  -4  -4 191.863 56.3416  37
  10   4  -4 203.943 55.8417  21
 -10  -4   4 149.794 53.3908  31
 -10  -4   4 246.500 81.0798  29
  10  -4  -4 125.772 50.6421  26
 -10  -4   4 164.641 66.0347  15
   9   4  -4 255.149 66.7991  14
   9  -4  -4 350.374 81.3126  23
   9   4  -4 282.050 71.3693  42
   9  -4  -4 260.705 70.1204  37
   9   4  -4 287.661 73.3566  21
   9   4  -4 278.806 76.9954  12
   9  -4  -4 291.750 91.0847   7
  -9  -4   4 353.274 85.4620  31
  -9  -4   4 252.128 68.0619  22
  -9   4   4 101.728 70.7046  29
  -9  -4   4 249.537 108.819  29
   9   4  -4 180.854 56.5255  16
   9  -4  -4 266.033 76.0751  26
   8  -4  -4 1229.77 153.516  23
   8   4  -4 1062.69 135.492  42
  -8  -4   4 1118.21 155.036  22
   8   4  -4 1192.13 147.634  21
   8  -4  -4 1219.54 149.072  37
  -8  -4   4 1112.92 151.980  31
   8   4  -4 1055.86 125.355  16
   8  -4  -4 960.324 146.139   7
   8  -4  -4 1109.94 151.101  26
   8   4  -4 1083.84 149.122  12
   8   4  -4 935.824 128.773  14
   7  -4  -4 3209.93 238.781  42
   7   4  -4 3104.46 222.770  42
  -7  -4   4 3234.85 261.596  22
   7   4  -4 3625.13 279.637  12
   7   4  -4 3103.45 231.925  21
   7  -4  -4 3416.45 246.638  37
   7  -4  -4 3602.93 507.838  36
  -7  -4   4 3639.69 555.085  35
  -7   4   4 3429.64 543.309  33
  -7  -4   4 2865.25 238.723  31
   7  -4  -4 3325.03 242.188  23
   7   4  -4 3536.27 237.784  16
   7  -4  -4 2923.58 239.761   7
   7  -4  -4 3250.77 248.687  26
   7   4  -4 2975.15 224.954  14
   6   4  -4 724.199 110.264  14
   6  -4  -4 737.068 194.616   1
  -6  -4   4 772.759 135.685  22
   6   4  -4 839.952 120.980  38
   6   4  -4 665.877 113.090  21
   6  -4  -4 454.688 91.6722  37
   6   4  -4 741.013 129.169  12
   6  -4  -4 746.874 217.453  36
   6   4  -4 1156.33 251.100  36
  -6  -4   4 883.834 274.719  35
  -6   4   4 1055.29 323.512  20
  -6   4   4 1319.15 338.468  33
  -6  -4   4 726.238 276.413   2
   6   4  -4 827.319 120.539   9
   6   4  -4 882.272 120.538  16
   6  -4  -4 770.200 128.376   7
   6  -4  -4 733.255 120.828  26
   5  -4  -4 8663.53 646.234   1
   5  -4  -4 11710.6 463.951  41
   5   4  -4 9687.51 433.166  12
   5   4  -4 10308.8 386.584  38
   5   4  -4 9599.04 370.548  21
   5  -4  -4 9267.19 708.695  36
   5   4  -4 9128.81 658.144  36
  -5  -4   4 8455.37 767.119  35
  -5   4   4 7747.00 813.718  20
  -5  -4   4 8876.66 729.470  19
  -5   4   4 10069.2 879.703  33
   5   4  -4 11102.1 405.581  32
   5   4  -4 10412.2 401.032   9
   5   4  -4 10500.5 400.384  16
   5  -4  -4 10443.2 399.541   7
   5  -4  -4 10580.3 419.233  26
   4  -4  -4 2251.31 329.117  36
   4   4  -4 2746.04 335.214  36
  -4  -4   4 2466.45 408.261  35
  -4   4   4 2185.53 408.519  20
  -4  -4   4 2406.05 392.585  19
  -4   4   4 2826.30 447.825  33
   4  -4  -4 3078.78 514.359  17
   4   4  -4 2317.51 315.736   3
   4  -4  -4 2200.71 318.554   1
   3   4  -4 2409.38 284.144  36
  -3  -4   4 2167.81 379.829  35
  -3   4   4 2137.50 395.450  20
  -3  -4   4 2514.73 406.008  19
  -3   4   4 2736.44 422.618  33
   3  -4  -4 2516.34 453.607  17
   3  -4  -4 2401.56 327.296   1
   3   4  -4 2061.88 298.453   3
   2   4  -4 2363.34 314.283   3
  -2   4   4 2567.78 393.790  20
  -2  -4   4 2491.29 398.442  19
  -2   4   4 3538.77 493.061  33
   2  -4  -4 3121.14 515.105  17
   2  -4  -4 2470.32 321.695   1
   1   4  -4 8358.34 603.690   3
  -1   4   4 9470.38 595.067  34
  -1  -4   4 8084.54 739.515  19
  -1   4   4 9126.97 832.082  18
   1  -4  -4 7872.67 827.307  17
   1  -4  -4 8723.65 604.269   1
   0   4  -4 55.9720 73.6453   3
   0   4   4 402.480 165.850  34
   0  -4   4 403.087 185.711  19
   0  -4  -4 43.5149 55.8689   1
   0   4   4 86.9912 115.989  18
   0  -4  -4 77.1541 157.292  17
  -1   4  -4 5245.57 527.527   3
   1   4   4 6027.39 566.128  34
   1  -4   4 5768.57 653.555  19
   1   4   4 5806.52 664.775  18
  -1  -4  -4 5303.87 483.190   1
  -1  -4  -4 6035.73 799.044  17
  -2   4  -4 3117.26 437.274   3
  -2  -4  -4 3780.50 259.251  40
  -2   4  -4 3635.11 278.069  39
  -2   4  -4 3613.70 243.208  38
   2   4   4 3692.54 498.768  34
   2  -4   4 3612.89 545.194  19
   2  -4   4 3107.19 284.439  11
  -2   4  -4 3699.83 256.380  32
  -2  -4  -4 3171.41 277.524   5
   2   4   4 3779.69 541.657  18
  -2  -4  -4 3776.73 278.657  30
  -2  -4  -4 3098.70 621.646  17
  -2   4  -4 3445.38 255.460  29
  -2   4  -4 3523.29 248.074  15
  -2  -4  -4 3362.56 261.893  26
  -2  -4  -4 3938.20 255.079  25
  -3  -4  -4 481.626 103.161  13
  -3  -4  -4 284.662 71.9860  40
  -3   4  -4 404.695 110.604  39
   3   4   4 782.902 253.541  34
  -3   4  -4 35.1573 86.7088   3
   3  -4   4 342.763 189.579  19
  -3   4  -4 313.094 80.4224  32
   3   4   4 622.598 221.146  18
  -3  -4  -4 165.019 62.3783  31
  -3  -4  -4 287.894 92.6130  30
  -3  -4  -4 399.069 102.813   5
  -3   4  -4 393.813 102.572  29
  -3   4  -4 348.867 99.7891   8
  -3  -4  -4 326.459 77.2006   4
  -3   4  -4 374.902 96.3144  15
  -3  -4  -4 291.619 76.5356  25
  -4   4  -4 1410.63 186.909  39
  -4  -4  -4 1456.13 209.235   5
  -4  -4  -4 1345.81 157.376  31
  -4  -4  -4 1368.41 192.694  30
  -4   4  -4 1153.45 158.347  29
  -4   4  -4 1344.49 172.604   8
  -4  -4  -4 1554.93 174.214   4
   4  -4   4 1435.10 165.533  27
  -4   4  -4 1163.90 153.918  15
  -4  -4  -4 1214.99 169.646  40
  -4  -4  -4 1456.69 157.803  25
  -5   4  -4 320.202 97.6660  39
   5   4   4 384.623 96.7511  37
   5  -4   4 376.020 111.070  11
  -5  -4  -4 652.427 110.946  31
  -5  -4  -4 439.032 121.379  30
  -5  -4  -4 313.458 105.274   5
  -5   4  -4 361.538 93.5350  29
  -5   4  -4 455.898 107.757   8
  -5  -4  -4 392.880 100.013   4
   5  -4   4 584.240 108.261  27
  -5   4  -4 419.449 97.1276  15
   6  -4   4 53.7385 50.3155  43
  -6   4  -4-12.6646 44.3407  39
   6   4   4 48.5563 47.5670  37
   6  -4   4-98.9477 72.6565  11
  -6  -4  -4 11.9169 39.5834  31
  -6  -4  -4-18.7298 51.7165  30
  -6  -4  -4 48.0359 58.4597   5
  -6   4  -4 45.0344 51.7307  29
  -6  -4  -4 21.4503 35.8746   8
  -6  -4  -4 35.5083 42.1921   4
   6  -4   4-10.1951 54.9612  27
  -6   4  -4-48.6302 45.8798  15
  -7   4  -4 412.089 91.7936  41
   7   4   4 584.005 84.8494  37
   7  -4   4 413.937 89.0792  11
  -7  -4  -4 571.180 84.5891  31
  -7  -4  -4 425.379 93.6679  30
  -7  -4  -4 449.717 90.3351   5
  -7   4  -4 534.004 92.0494  29
  -7  -4  -4 563.949 88.6572   4
   7  -4   4 555.376 87.3298  27
   7   4   4 502.370 93.5337  27
  -7   4  -4 510.737 79.0445  15
  -8   4  -4 98.7335 41.2165  41
   8  -4   4 93.6194 40.4733  11
  -8   4  -4 137.042 39.7756  29
   8   4   4 116.997 37.8510  27
  11   5  -4 134.515 35.6368  24
 -11   5   4 184.333 63.4727  39
 -11   5   4 120.765 47.1225  32
 -11  -5   4 174.850 49.8198  15
  10  -5  -4 70.4107 50.8231   7
  10   5  -4 42.9132 30.3292  24
 -10  -5   4 68.6713 52.9967  22
 -10   5   4 26.6381 64.3250  39
  10  -5  -4 42.2683 30.9900  37
  10   5  -4-12.3264 35.6085  21
 -10  -5   4 47.5142 47.7488  31
  10  -5  -4 78.2917 37.7937  26
 -10  -5   4 32.7082 46.0681  15
   9   5  -4 2615.30 186.953  42
  -9  -5   4 3005.77 224.851  22
   9   5  -4 2309.44 193.834  12
  -9   5   4 1765.02 238.511  39
   9   5  -4 2289.44 181.050  21
   9  -5  -4 2262.48 184.548  37
  -9  -5   4 2527.95 204.992  31
   9  -5  -4 2378.33 218.920  10
   9  -5  -4 2578.38 211.731   7
   9  -5  -4 2468.94 192.591  26
   9   5  -4 2334.74 178.378  14
   8  -5  -4 1132.75 138.447  23
   8   5  -4 1347.14 146.190  42
  -8  -5   4 1457.81 177.291  22
   8   5  -4 1502.75 159.666  21
   8  -5  -4 1217.70 150.348  37
  -8  -5   4 1175.40 150.966  31
   8  -5  -4 1694.92 204.462  10
   8   5  -4 1201.16 158.322  12
   8   5  -4 1465.71 145.700  16
   8  -5  -4 1070.38 150.410   7
   8  -5  -4 1111.33 148.105  26
   8   5  -4 1234.39 143.949  14
   7   5  -4 7553.43 354.526  14
   7   5  -4 7831.17 345.824  42
  -7  -5   4 7471.94 405.298  22
   7   5  -4 7688.74 409.834  12
   7  -5  -4 7773.45 375.037  37
   7  -5  -4 7577.51 363.238  23
  -7  -5   4 7145.90 374.413  31
   7  -5  -4 8385.82 450.626  10
   7   5  -4 7593.58 364.701  21
   7   5  -4 7833.82 353.424  16
   7  -5  -4 7397.59 375.711   7
   7  -5  -4 7632.08 376.268  26
   6  -5  -4 329.170 94.5396   7
   6   5  -4 466.994 89.6210  14
  -6  -5   4 631.161 124.635  22
   6  -5  -4 412.335 160.939   1
   6   5  -4 581.143 90.1937  38
   6  -5  -4 372.456 87.0045  37
   6   5  -4 541.807 100.023  21
   6   5  -4 336.514 98.5804  12
   6  -5  -4 778.113 232.345  36
   6   5  -4 363.154 157.240  36
  -6  -5   4 18.1577 84.3792  35
  -6   5   4 205.994 178.430  20
  -6  -5   4 674.224 216.370  19
  -6   5   4-149.264 153.776  33
   6   5  -4 419.304 94.2072   9
   6   5  -4 499.869 91.7323  16
   6  -5  -4 514.324 102.936  26
   5  -5  -4 138.800 82.9456   7
   5  -5  -4-49.5597 80.8299   1
  -5  -5   4 11.0142 46.3184  22
   5   5  -4 17.6312 43.2061  38
   5   5  -4 26.6707 39.6894  21
   5   5  -4 46.0944 49.4057  12
   5  -5  -4-30.2231 56.7655  36
   5   5  -4 58.6104 77.8666  36
  -5  -5   4 159.543 125.656  35
  -5   5   4 249.639 190.458  20
  -5  -5   4 354.421 165.803  19
  -5   5   4 276.147 168.613  33
   5   5  -4 8.69014 36.1138  32
   5  -5  -4 31.5027 53.0775  37
   5   5  -4 25.2035 34.9010   9
   5   5  -4-30.0067 55.3055  16
   5  -5  -4 102.293 61.2397  26
   4  -5  -4 2745.01 375.031   1
   4  -5  -4 3445.45 249.922  41
  -4  -5   4 2881.05 249.000  22
   4   5  -4 3400.69 258.516  12
   4   5  -4 3197.15 224.034  38
   4   5  -4 3119.84 206.907  21
   4   5  -4 3277.75 396.665  36
  -4  -5   4 2762.14 449.899  35
  -4   5   4 3357.88 546.424  20
  -4  -5   4 3310.48 473.740  19
  -4   5   4 3031.08 500.191  33
   4   5  -4 3343.66 226.611  32
   4  -5  -4 3520.24 248.833  30
   4  -5  -4 3636.14 560.143  17
   4   5  -4 3343.59 227.566   9
   4   5  -4 3500.08 234.400  16
   4  -5  -4 3250.24 230.809  26
   4   5  -4 2905.57 363.988   3
   3   5  -4 927.978 199.337   3
  -3  -5   4 1033.48 273.333  35
  -3   5   4 730.735 266.502  20
  -3  -5   4 670.351 224.114  19
  -3   5   4 995.633 282.271  33
   3  -5  -4 1379.96 357.336  17
   3  -5  -4 551.908 158.776   1
   2   5  -4 152.995 65.8933   3
  -2   5   4-185.141 127.410  20
  -2   5   4 371.471 173.202  33
  -2  -5   4-45.4904 92.3801  19
   2  -5  -4 251.705 176.568  17
   2  -5  -4 189.754 129.425   1
   1   5  -4 182.156 102.076   3
  -1  -5   4 484.085 202.450  19
  -1   5   4 271.979 173.652  18
   1  -5  -4 74.7100 141.536  17
   1  -5  -4 53.5099 66.3608   1
   0  -5  -4 1107.66 130.230  43
   0   5  -4 1131.12 145.529  39
   0   5  -4 986.910 134.289  38
   0   5  -4 1171.88 136.352   6
   0   5  -4 932.343 225.338   3
   0   5   4 946.978 216.665  34
   0  -5   4 1385.63 324.329  19
   0   5  -4 1182.21 149.200  32
   0  -5  -4 857.104 200.772   1
   0   5   4 957.369 293.395  18
   0  -5  -4 1007.20 137.008  30
   0  -5  -4 1141.79 365.707  17
   0   5  -4 1044.20 128.877  15
   0  -5  -4 1179.82 147.655  26
   0  -5  -4 1095.51 134.557  25
  -1  -5  -4 1640.04 169.578  40
  -1   5  -4 1726.31 176.723  38
  -1   5  -4 1322.24 273.232   3
   1   5   4 1639.61 315.654  34
   1  -5   4 1705.37 214.543  11
   1  -5   4 1905.69 414.197  19
  -1   5  -4 1751.29 183.860  32
  -1  -5  -4 1876.45 288.105   1
   1   5   4 1298.67 336.429  18
  -1  -5  -4 1808.55 197.530  30
  -1  -5  -4 1900.94 482.146  17
  -1   5  -4 1660.23 170.415  29
  -1   5  -4 1758.90 189.188  39
  -1   5  -4 1876.89 180.411  15
  -1  -5  -4 1623.04 180.961  26
  -1  -5  -4 1871.52 175.829  25
  -2   5  -4 3278.37 457.764   3
  -2   5  -4 3036.86 235.259  38
  -2   5  -4 3122.27 266.310  39
   2   5   4 2737.74 452.461  34
   2  -5   4 2742.67 271.824  11
   2  -5   4 2638.62 478.028  19
  -2  -5  -4 2812.72 254.624   5
  -2   5  -4 3336.98 257.239  32
   2   5   4 3785.05 579.986  18
  -2  -5  -4 2785.32 237.224  40
  -2  -5  -4 3231.49 269.496  30
  -2  -5  -4 3396.94 671.335  17
  -2   5  -4 2973.78 239.861  29
  -2   5  -4 2931.93 236.759  15
  -2  -5  -4 2930.38 249.444  26
  -2  -5  -4 3348.53 243.208  25
  -3  -5  -4 8950.58 413.299  13
  -3  -5  -4 8927.16 430.005  40
  -3   5  -4 8206.71 436.668  39
  -3   5  -4 8236.00 379.524  38
   3   5   4 10080.1 903.119  34
   3  -5   4 8848.44 895.971  19
   3  -5   4 8040.71 475.687  11
  -3  -5  -4 7481.15 422.209   5
  -3   5  -4 9080.23 420.567  32
  -3  -5  -4 8447.46 448.769  30
  -3  -5  -4 10662.4 1197.32  17
  -3   5  -4 7873.48 397.255  29
  -3  -5  -4 8221.19 379.007   4
  -3   5  -4 8241.44 400.526  15
  -3  -5  -4 9088.21 392.750  25
   4  -5   4 711.141 130.416  43
  -4  -5  -4 810.758 132.181  40
  -4   5  -4 730.587 133.563  39
  -4   5  -4 1016.78 140.968  32
   4  -5   4 762.181 149.734  11
  -4  -5  -4 763.270 117.348  31
  -4  -5  -4 778.080 142.856  30
  -4  -5  -4 622.922 125.134   5
  -4   5  -4 757.981 132.389  29
   4  -5   4 773.277 120.914  27
  -4  -5  -4 751.755 122.555   4
  -4   5  -4 688.537 122.998  15
  -4  -5  -4 951.308 127.946  25
   5  -5   4 1327.04 164.820  43
  -5   5  -4 1218.76 168.661  39
   5   5   4 1386.84 159.806  37
   5  -5   4 1016.80 169.107  11
  -5  -5  -4 1152.19 135.891  31
  -5  -5  -4 1042.05 169.001  30
  -5  -5  -4 937.247 147.986   5
  -5   5  -4 1239.03 156.548  29
  -5  -5  -4 1186.68 149.845   4
   5  -5   4 1169.33 147.130  27
  -5   5  -4 1240.59 152.820  15
   6  -5   4 214.554 69.4056  43
  -6   5  -4 298.452 79.9130  39
   6   5   4 219.303 60.2489  37
   6  -5   4 120.995 58.1133  11
  -6  -5  -4 122.384 49.1147  31
  -6  -5  -4 105.797 68.6780  30
  -6  -5  -4 152.486 71.6655   5
  -6   5  -4 233.627 70.8237  29
  -6  -5  -4 154.883 60.1243   4
   6  -5   4 240.237 64.7298  27
  -6   5  -4 207.915 60.3985  15
  -7   5  -4-23.1839 36.8285  41
  -7   5  -4 14.7252 34.5693  39
   7   5   4 63.0662 42.1421  37
   7  -5   4-8.21631 49.4326  11
  -7  -5  -4 51.8196 41.7473  30
  -7   5  -4 74.9188 42.4621  29
  -7  -5  -4-41.1686 32.3111   4
   7  -5   4 31.6446 32.7927  27
  -7   5  -4-11.0797 28.8350  15
  10   6  -4 24.2023 32.7698  24
 -10  -6   4 50.8378 39.4100  22
 -10   6   4 72.7589 55.7746  39
 -10   6   4 49.6291 47.8021  38
  10   6  -4 15.9911 27.2435  12
  10   6  -4 7.53769 24.2438  21
 -10   6   4 84.0157 55.1282  32
 -10  -6   4 27.0682 37.7407  31
  10  -6  -4 29.6725 31.8886  30
  10  -6  -4-11.4565 24.2146  26
 -10  -6   4 56.7890 40.8141  15
   9  -6  -4 204.271 66.2066   7
   9   6  -4 194.294 56.7626  14
  -9  -6   4 210.868 82.3002  22
  -9   6   4 230.443 110.359  39
   9  -6  -4 157.076 53.7934  37
   9   6  -4 118.257 41.3611  21
   9   6  -4 162.252 60.5775  12
  -9  -6   4 117.667 51.4519  31
   9  -6  -4 134.694 51.7283  30
   9  -6  -4 166.660 55.7305  26
  -8  -6   4 9642.82 430.660  22
   8   6  -4 9284.12 377.675  21
   8  -6  -4 9218.70 382.963  37
  -8  -6   4 9239.71 400.204  31
   8  -6  -4 9181.32 440.148  10
   8   6  -4 9126.80 417.764  12
   8   6  -4 9264.20 340.681  16
   8  -6  -4 8531.35 383.469   7
   8  -6  -4 8875.53 364.951  26
   8   6  -4 8700.67 348.425  14
   7   6  -4 1144.08 138.304  14
  -7  -6   4 1035.25 155.059  22
   7   6  -4 978.804 132.113  21
   7  -6  -4 1023.10 141.024  37
   7   6  -4 927.464 144.548  12
  -7  -6   4 902.424 136.072  31
   7  -6  -4 1029.99 161.241  10
   7   6  -4 1093.70 132.822  16
   7  -6  -4 1072.49 148.760   7
   7  -6  -4 937.053 129.519  26
   6   6  -4 8231.23 365.971  14
  -6  -6   4 7376.08 416.292  22
   6   6  -4 8218.83 429.308  12
   6   6  -4 8128.59 372.120  21
   6  -6  -4 7513.66 370.198  37
   6  -6  -4 7866.10 393.762  30
   6   6  -4 7337.32 365.018   9
   6   6  -4 8005.36 365.909  16
   6  -6  -4 8297.91 360.705  27
   6  -6  -4 7736.61 369.904   7
   6  -6  -4 7594.04 365.838  26
   5  -6  -4 857.698 124.917   7
   5  -6  -4 937.522 227.995   1
  -5  -6   4 868.427 153.481  22
   5   6  -4 1093.01 132.552  38
   5   6  -4 1089.94 134.866  21
   5   6  -4 876.431 145.269  12
   5   6  -4 727.693 209.209  36
  -5   6   4 1674.62 433.706  20
  -5  -6   4 1217.76 307.849  19
  -5   6   4 934.666 314.615  33
   5   6  -4 875.854 119.861  32
   5   6  -4 1028.36 138.618   9
   5  -6  -4 837.354 134.980  30
   5   6  -4 885.274 125.683  16
   5  -6  -4 1122.99 139.032  27
   5  -6  -4 753.794 119.782  26
   4  -6  -4 1060.39 242.406   1
   4   6  -4 715.490 119.453  38
   4   6  -4 832.935 113.583  21
   4   6  -4 684.928 121.493  12
   4   6  -4 697.456 194.809   3
   4   6  -4 512.639 171.518  36
  -4   6   4 336.862 268.707  20
  -4  -6   4 788.389 250.166  19
  -4   6   4 640.479 256.779  33
   4   6  -4 891.234 126.357  32
   4  -6  -4 934.941 139.346  30
  -4  -6   4 919.079 157.616  22
   4   6  -4 713.869 112.230   9
   4   6  -4 789.046 120.318  16
   4  -6  -4 957.554 125.565  27
   4  -6  -4 746.779 117.806  26
   4  -6  -4 840.824 120.431  25
   3  -6  -4 2308.24 180.764  43
   3   6  -4 2253.94 195.594   6
   3   6  -4 2130.98 207.160  12
   3   6  -4 2055.56 188.457  38
  -3   6   4 1840.51 437.690  20
  -3  -6   4 2553.90 445.849  19
  -3   6   4 2589.04 469.614  33
   3   6  -4 2127.29 189.409  32
   3  -6  -4 2407.60 215.832  30
   3  -6  -4 1786.88 414.616  17
   3   6  -4 2130.32 191.409  16
  -3  -6   4 1959.64 189.432  28
   3  -6  -4 2415.38 202.700  27
   3  -6  -4 2176.66 193.234  26
   3  -6  -4 2033.63 336.505   1
   3   6  -4 2290.99 327.632   3
   3  -6  -4 1923.15 178.770  25
   3   6  -4 1933.51 166.475   7
   2   6  -4 10750.8 414.654  39
   2   6  -4 10304.6 434.182  12
  -2   6   4 9691.26 872.262  20
   2   6  -4 10666.8 433.337  38
   2   6  -4 10860.3 417.151   6
  -2  -6   4 9690.21 878.186  19
  -2   6   4 12111.9 1016.60  33
   2   6  -4 11337.5 444.386  32
   2  -6  -4 10603.9 397.237  43
   2  -6  -4 11388.4 458.749  30
   2  -6  -4 10211.7 982.724  17
   2   6  -4 10280.2 404.166  16
  -2  -6   4 10075.9 439.599  28
   2  -6  -4 9420.86 705.993   1
   2  -6  -4 10810.9 426.063  26
   2  -6  -4 10993.8 428.700  25
   2   6  -4 9508.05 677.223   3
   1  -6  -4 62.7463 47.9439  25
   1  -6  -4 30.4170 37.2882  43
   1   6  -4-11.3759 40.1942  39
   1   6  -4-11.1173 39.1759  38
   1   6  -4 10.5365 36.2568   6
   1   6  -4 56.8882 74.3478   3
  -1  -6   4-518.434 231.123  19
  -1  -6   4 40.5267 56.0661  11
   1   6  -4 46.3245 39.6596  32
  -1   6   4-55.6730 136.884  18
   1  -6  -4 45.8330 70.1382  30
   1  -6  -4 496.460 259.809  17
   1  -6  -4-38.2589 57.4234   1
   1   6  -4 25.5819 35.3501  16
  -1  -6   4-34.9717 59.7769  28
   1  -6  -4 15.4380 47.3021  26
   0   6  -4 4226.02 486.325   3
   0  -6  -4 4844.51 283.981  43
   0   6  -4 4727.30 301.925  39
   0  -6  -4 4678.85 282.236  40
   0   6  -4 4737.32 300.526  38
   0   6  -4 4635.00 281.380   6
   0  -6   4 4366.36 281.729  43
   0  -6   4 4420.37 343.519  11
   0  -6   4 4247.24 600.254  19
   0   6  -4 4938.41 310.917  32
   0   6   4 4389.51 648.670  18
   0  -6  -4 5037.74 765.423  17
   0  -6  -4 4672.59 306.011  30
   0  -6  -4 4154.18 452.480   1
   0  -6  -4 4491.42 253.510  28
   0   6  -4 4354.05 248.695  16
   0  -6  -4 4832.85 299.649  26
   0  -6  -4 4604.04 287.602  25
  -1   6  -4 14961.4 557.115  39
   1  -6   4 15743.8 552.499  43
  -1   6  -4 15109.3 947.986   3
  -1  -6  -4 16496.9 552.934  40
  -1   6  -4 15641.7 549.288  38
  -1   6  -4 15331.6 526.419   6
   1   6   4 16885.5 1040.40  34
   1  -6   4 14593.7 638.148  11
   1  -6   4 15104.3 1154.25  19
  -1   6  -4 16977.9 585.290  32
   1   6   4 16512.3 1252.47  18
  -1  -6  -4 17868.1 1457.26  17
  -1  -6  -4 16156.9 587.774  30
  -1  -6  -4 15735.8 500.770  28
  -1   6  -4 16398.1 551.556  15
  -1  -6  -4 15317.0 544.569  26
  -1  -6  -4 15743.7 535.391  25
   2  -6   4 6306.94 360.742  43
  -2  -6  -4 6582.50 367.070  40
  -2   6  -4 6604.82 383.166  39
  -2   6  -4 6196.89 346.016  38
   2   6   4 6638.46 721.759  34
   2  -6   4 6626.32 790.884  19
   2  -6   4 5803.97 407.351  11
  -2   6  -4 6963.95 377.238  32
  -2  -6  -4 6967.12 400.033  30
  -2  -6  -4 7483.67 982.882  17
  -2   6  -4 6949.79 353.523  29
  -2   6  -4 6776.55 363.705  15
  -2  -6  -4 6772.26 349.591  25
  -3   6  -4 18954.7 653.362  39
   3  -6   4 19033.3 636.671  43
  -3  -6  -4 20431.6 622.470  13
  -3  -6  -4 19881.7 651.648  40
  -3   6  -4 20257.1 608.002  38
   3  -6   4 19368.0 742.317  11
  -3   6  -4 21005.2 646.252  32
  -3  -6  -4 20678.8 697.677  30
  -3   6  -4 19861.3 599.156  29
  -3   6  -4 19366.4 615.526  15
  -3  -6  -4 21852.7 605.519  25
   4  -6   4 3213.24 256.456  43
  -4  -6  -4 2926.64 237.688  13
   4   6   4 3488.61 246.109  23
  -4  -6  -4 2837.81 248.985  40
  -4   6  -4 3329.12 229.311  38
  -4   6  -4 2979.32 256.807  39
   4  -6   4 2720.71 281.480  11
  -4  -6  -4 2684.85 237.016   5
  -4   6  -4 3087.57 237.593  32
  -4  -6  -4 2884.87 264.048  30
  -4   6  -4 2929.80 227.347  29
  -4  -6  -4 3029.72 229.156   4
  -4   6  -4 2878.84 235.412  15
  -4  -6  -4 3308.88 219.979  25
   5  -6   4 2427.67 209.567  43
   5   6   4 2609.69 191.967  23
  -5   6  -4 2282.58 211.394  39
   5  -6   4 2059.88 225.184  11
  -5  -6  -4 2250.99 228.218  30
  -5   6  -4 2286.32 185.479  29
  -5  -6  -4 2197.90 187.806   4
   5  -6   4 2184.07 195.502  28
   5  -6   4 2255.51 178.119  27
  -5   6  -4 2207.90 190.336  15
  -6   6  -4 1684.49 172.337  41
  -6   6  -4 1902.42 167.355  39
   6  -6   4 1688.88 145.050  43
   6   6   4 1892.40 156.460  37
   6  -6   4 1918.74 194.059  11
  -6  -6  -4 1716.97 176.427  30
  -6   6  -4 1696.92 139.669  29
   6  -6   4 1708.60 134.275  27
  -6   6  -4 1808.25 151.574  15
  -7   6  -4 159.771 54.4433  41
  -7   6  -4 144.035 41.8652  39
   7   6   4 221.282 48.9107  37
  -7   6  -4 184.141 45.7674   6
   7  -6   4 162.000 59.0944  11
   7   6   4 201.673 49.4497  27
  -7   6  -4 165.553 43.2443  15
  10   7  -4 1546.92 101.640  24
  10   7  -4 1431.59 88.9815  21
 -10   7   4 1700.65 127.356  38
 -10   7   4 1696.17 127.902  32
 -10  -7   4 1587.19 107.705  31
  10  -7  -4 1375.77 91.4475  30
 -10  -7   4 1478.21 110.683  15
  -9  -7   4 5498.13 262.423  22
  -9   7   4 4736.05 269.731  39
   9   7  -4 4862.28 237.073  12
   9   7  -4 4970.86 220.976  21
  -9   7   4 5513.53 291.693  32
  -9  -7   4 5438.44 250.658  31
   9  -7  -4 4930.18 235.970  30
   9  -7  -4 4288.44 187.089  26
  -8  -7   4 9135.57 392.671  22
  -8   7   4 7927.60 407.121  39
   8   7  -4 9058.95 389.094  12
   8   7  -4 9134.54 348.081  21
  -8   7   4 8492.86 409.994  32
  -8  -7   4 9338.89 373.912  31
   8  -7  -4 9281.84 373.754  30
   8   7  -4 9120.21 309.324  16
   8  -7  -4 7873.98 331.841   7
   8  -7  -4 8701.74 321.518  26
   8   7  -4 8767.74 317.846  14
  -7  -7   4 3854.06 282.780  22
  -7   7   4 2864.83 262.362  39
   7   7  -4 3523.60 272.062  12
   7   7  -4 3944.92 249.691  21
   7  -7  -4 3601.68 277.177  10
  -7  -7   4 3807.14 257.341  31
   7  -7  -4 3422.46 248.113  30
   7   7  -4 3403.44 219.497  16
   7  -7  -4 3526.17 238.971   7
   7  -7  -4 3575.75 230.051  26
   7   7  -4 3720.86 228.778  14
   6   7  -4 5875.62 302.043  14
  -6  -7   4 5699.48 360.290  22
   6   7  -4 5155.81 334.325  12
   6   7  -4 5451.53 298.661  21
   6  -7  -4 6270.06 377.302  10
  -6  -7   4 5213.55 309.354  31
   6  -7  -4 5326.91 324.029  30
   6   7  -4 5066.94 299.385   9
   6   7  -4 5633.41 303.959  16
   6  -7  -4 5814.31 303.331  27
   6  -7  -4 5032.24 286.969   7
   6  -7  -4 5755.88 304.833  26
  -5  -7   4 9212.02 469.327  22
   5   7  -4 9303.94 454.962  12
   5   7  -4 10169.4 384.958  38
   5   7  -4 9604.80 389.828  21
   5   7  -4 10297.5 400.136  32
   5  -7  -4 9461.49 436.169  30
   5   7  -4 9092.54 403.513   9
   5   7  -4 9072.14 400.122  16
   5  -7  -4 9813.82 407.904  27
   5  -7  -4 10585.9 418.968  26
   5  -7  -4 9984.37 395.383  25
  -4  -7   4 9182.57 474.946  22
   4   7  -4 9665.54 452.855  12
   4   7  -4 9875.26 401.974  38
   4   7  -4 9856.73 382.343  21
   4   7  -4 10381.7 413.779  32
   4  -7  -4 9691.46 442.953  30
   4   7  -4 9872.88 423.535   9
   4   7  -4 9335.61 412.761  16
  -4  -7   4 9952.92 417.757  28
   4  -7  -4 10047.3 421.292  27
   4  -7  -4 10203.0 414.261  26
   4  -7  -4 10175.3 417.159  25
   3  -7  -4 12785.7 441.435  43
   3   7  -4 13547.9 478.080   6
   3   7  -4 12821.8 505.696  12
  -3   7   4 12030.6 1057.61  20
  -3  -7   4 13417.6 562.518  11
  -3  -7   4 13229.1 1041.32  19
  -3   7   4 15367.7 1209.59  33
   3   7  -4 12218.9 464.641  32
   3  -7  -4 13316.2 514.877  30
   3   7  -4 13031.0 480.133  16
  -3  -7   4 12521.6 488.595  28
   3  -7  -4 13624.8 479.110  26
   3  -7  -4 12148.1 841.849   1
   3   7  -4 12666.6 471.861  38
   3   7  -4 12713.2 788.025   3
   3  -7  -4 12428.8 471.908  25
   2  -7  -4 1329.16 150.154  43
   2   7  -4 901.140 127.715   6
   2   7  -4 922.669 132.995  12
   2   7  -4 1343.10 254.717   3
  -2   7   4 1646.97 373.953  20
  -2  -7   4 1278.18 333.585  19
  -2   7   4 834.246 292.017  33
   2   7  -4 1190.01 146.423  32
  -2  -7   4 982.050 159.842  11
   2  -7  -4 1167.31 158.458  30
   2  -7  -4 402.189 249.841  17
   2   7  -4 1041.30 140.548  16
  -2  -7   4 1095.97 149.248  28
   2  -7  -4 1126.04 253.008   1
   2  -7  -4 1177.20 146.361  26
   2   7  -4 945.910 136.141  38
   2  -7  -4 1245.74 152.195  25
   1   7  -4 2903.23 389.576   3
   1  -7  -4 3287.80 238.082  43
   1   7  -4 3517.82 249.402  39
  -1  -7   4 3261.98 238.090  43
   1   7  -4 3376.05 259.742  38
   1   7  -4 3215.29 239.335   6
  -1  -7   4 3232.82 291.764  11
  -1  -7   4 2644.52 463.636  19
  -1   7   4 3518.96 574.275  33
   1   7  -4 2986.62 242.230  32
  -1   7   4 3260.95 560.426  18
   1  -7  -4 3214.78 261.988  30
   1  -7  -4 4152.48 652.892  17
   1   7  -4 3164.38 230.613  16
   1  -7  -4 2630.17 377.087   1
  -1  -7   4 2989.25 254.032  28
   1  -7  -4 3295.05 244.183  26
   1  -7  -4 3461.02 255.241  25
   0  -7  -4 20989.0 606.039  43
   0  -7   4 19787.6 609.863  43
   0   7  -4 19629.6 1057.50   3
   0   7  -4 20056.3 612.197  39
   0  -7  -4 20817.2 615.317  40
   0   7  -4 20104.9 591.926   6
   0   7  -4 20229.2 635.635  38
   0  -7   4 20708.8 743.372  11
   0  -7   4 21840.9 1368.09  19
   0   7  -4 21093.1 649.373  32
   0   7   4 22332.9 1519.35  18
   0  -7  -4 20484.3 661.778  30
   0  -7  -4 22277.4 1592.52  17
   0  -7  -4 19518.4 545.135  28
   0   7  -4 19885.1 548.945  16
   0  -7   4 20053.5 667.080  28
   0  -7  -4 20432.5 613.529  26
   0  -7  -4 20684.2 621.643  25
   1  -7   4 82.0127 52.3591  43
  -1  -7  -4 9.82745 36.3860  40
  -1   7  -4 151.543 82.3726  39
  -1   7  -4 97.8699 68.7424  38
  -1   7  -4 155.655 65.0489   6
   1  -7   4 177.393 83.3644  11
  -1   7  -4 205.604 78.6227  32
  -1  -7  -4 79.8424 64.0775  30
  -1  -7  -4 107.945 59.1781  28
   1  -7   4 38.3823 53.5951  28
  -1  -7  -4 191.509 72.7214  26
  -1  -7  -4 207.621 73.5594  25
   2  -7   4 3299.52 260.646  43
  -2  -7  -4 3776.29 278.354  40
  -2   7  -4 3467.71 262.406  38
  -2   7  -4 3582.63 275.098  39
  -2   7  -4 3468.52 251.979   6
   2  -7   4 3559.97 318.050  11
  -2   7  -4 3929.48 286.671  32
  -2  -7  -4 3390.25 280.430  30
   2  -7   4 3217.37 269.143  28
  -2   7  -4 3393.06 257.408  15
  -2  -7  -4 3442.69 248.768  25
   3  -7   4 14292.0 536.876  43
  -3  -7  -4 14063.4 499.590  13
   3   7   4 15571.8 476.137  42
  -3  -7  -4 13908.8 530.871  40
  -3   7  -4 12950.9 518.946  39
  -3   7  -4 13396.2 490.504  38
  -3   7  -4 13505.0 481.366   6
   3  -7   4 12874.1 593.930  11
  -3   7  -4 14509.0 528.591  32
  -3  -7  -4 13456.1 549.756  30
   3  -7   4 13639.8 531.415  28
  -3   7  -4 14377.5 515.130  15
  -3  -7  -4 14370.8 474.620  25
   4  -7   4 1679.83 178.636  43
   4   7   4 1602.55 159.443  23
  -4  -7  -4 1535.63 163.685  13
  -4   7  -4 1440.71 167.237  41
  -4  -7  -4 1614.14 183.417  40
  -4   7  -4 1478.17 171.650  39
  -4   7  -4 1365.06 145.211  38
  -4   7  -4 1464.50 153.107   6
   4  -7   4 1354.15 195.979  11
  -4   7  -4 1755.39 171.680  32
  -4  -7  -4 1507.30 183.672  30
   4  -7   4 1590.37 173.626  28
  -4   7  -4 1618.98 168.739  15
  -4  -7  -4 1751.60 148.715  25
   5   7   4 10131.9 345.720  23
   5  -7   4 9733.01 374.592  43
  -5   7  -4 8857.24 374.383  39
  -5   7  -4 8599.88 326.776   6
   5   7   4 9589.59 369.659  37
  -5   7  -4 8428.54 357.606  41
   5  -7   4 9175.94 430.658  11
  -5  -7  -4 8606.12 396.304  30
   5  -7   4 8786.38 347.079  28
  -5   7  -4 9197.80 356.124  15
   6  -7   4 49.6495 29.0428  43
  -6   7  -4 22.1512 33.2063  41
  -6   7  -4 3.49401 32.1641  39
   6   7   4 0.86266 30.4780  37
  -6   7  -4-20.3589 24.1236   6
   6  -7   4 90.1476 54.4188  11
  -6  -7  -4 32.0115 40.1122  30
  -6   7  -4 42.9866 33.9435  15
   9   8  -4 273.382 52.3304  24
  -9  -8   4 313.893 62.8757  22
  -9   8   4 334.485 69.4857  38
   9   8  -4 245.624 53.2283  12
   9   8  -4 223.021 45.7628  21
  -9   8   4 229.701 58.2460  32
  -9  -8   4 354.832 60.9551  31
   9  -8  -4 219.965 49.6928  30
  -9  -8   4 293.297 56.4368  15
  -8  -8   4 2221.67 178.394  22
   8   8  -4 2093.83 170.162  12
   8   8  -4 2051.73 147.990  21
  -8   8   4 1925.27 168.948  32
  -8  -8   4 2466.39 171.815  31
   8  -8  -4 1964.19 156.217  30
   8   8  -4 1942.37 123.518  16
   8   8  -4 1790.67 120.774  14
   7   8  -4 511.639 81.3313  14
   7   8  -4 624.483 95.8227  21
  -7  -8   4 531.197 103.871  22
   7   8  -4 504.692 96.3403  12
  -7   8   4 520.697 97.9050  32
  -7  -8   4 736.650 111.639  31
   7  -8  -4 579.900 101.617  30
   7   8  -4 640.115 90.1884  16
   7  -8  -4 546.204 82.7618  26
   6   8  -4 265.502 65.2477  14
  -6  -8   4 69.3481 51.1541  22
   6   8  -4 254.698 66.4859  21
   6   8  -4 88.3718 59.8637  12
  -6   8   4 150.353 63.0237  32
  -6  -8   4 208.676 61.7354  31
   6  -8  -4 156.813 72.3457  30
   6   8  -4 238.312 68.7864   9
   6   8  -4 180.508 52.0365  16
   6  -8  -4 240.412 69.4607  27
   6  -8  -4 124.487 58.9699  26
  -5  -8   4 4601.71 323.920  22
   5   8  -4 3950.96 284.588  12
   5   8  -4 4267.09 250.764  21
  -5  -8   4 3875.64 258.507  31
   5  -8  -4 4444.06 293.472  30
   5   8  -4 4106.31 264.569   9
   5   8  -4 4474.27 275.627  16
   5  -8  -4 4805.87 282.353  27
   5  -8  -4 4829.45 264.421  26
   5  -8  -4 4182.08 252.539  25
   4  -8  -4 1742.43 158.622  43
  -4  -8   4 1880.79 215.781  22
   4   8  -4 1741.29 186.955  12
   4   8  -4 1914.83 172.570  38
   4   8  -4 1725.62 158.927  21
  -4  -8   4 2115.57 217.145  11
   4   8  -4 2014.62 179.726  32
   4  -8  -4 1913.42 196.863  30
   4   8  -4 1757.13 179.052   9
   4   8  -4 1883.67 184.886  16
  -4  -8   4 1699.54 170.527  28
   4  -8  -4 1852.31 169.963  26
   4  -8  -4 2050.62 190.193  25
   3  -8  -4 5459.40 293.351  43
   3   8  -4 5569.92 306.683  38
  -3  -8   4 5339.26 360.909  22
   3   8  -4 5518.47 325.859  12
  -3  -8   4 6089.72 377.631  11
   3   8  -4 5862.87 316.800  32
   3  -8  -4 5160.17 323.032  30
   3   8  -4 5701.53 320.905   9
   3   8  -4 5508.36 317.208  16
  -3  -8   4 5744.78 327.602  28
   3  -8  -4 5808.60 305.215  26
   3  -8  -4 5295.33 310.138  25
   2  -8  -4 2741.88 212.956  43
   2   8  -4 2647.37 208.837   6
   2   8  -4 2551.09 220.837  38
  -2  -8   4 2598.48 254.347  11
   2   8  -4 2651.36 222.165  32
   2  -8  -4 2893.04 243.112  30
   2   8  -4 2458.53 211.920  16
  -2  -8   4 2675.96 239.357  28
   2  -8  -4 2944.86 220.924  26
   2  -8  -4 2606.19 222.206  25
   1  -8  -4 5866.60 316.439  43
  -1  -8   4 5103.37 293.948  43
   1  -8  -4 5313.33 300.084  40
   1   8  -4 5668.21 305.675   6
   1   8  -4 5348.78 321.137  38
  -1  -8   4 5514.48 380.640  11
   1   8  -4 5361.54 321.657  32
   1  -8  -4 5635.37 342.759  30
   1   8  -4 5202.00 296.602  16
  -1  -8   4 5496.73 340.630  28
   1  -8  -4 5962.54 316.498  26
   1  -8  -4 5782.70 331.452  25
   0  -8  -4 602.783 108.025  43
   0  -8   4 692.610 114.497  43
   0  -8  -4 701.755 115.188  40
   0   8  -4 734.726 118.888  39
   0   8  -4 698.735 125.204  38
   0  -8   4 676.409 158.573  11
   0   8  -4 708.963 123.155  32
   0  -8  -4 583.743 116.821  30
   0   8  -4 755.740 113.492   6
   0   8  -4 762.557 110.775  16
   0  -8  -4 777.733 110.992  28
   0  -8   4 923.994 152.805  28
   0  -8  -4 833.863 126.718  26
   0  -8  -4 809.458 127.557  25
   1  -8   4 2694.03 226.892  43
  -1  -8  -4 2447.39 217.144  40
  -1   8  -4 2738.64 225.278  39
  -1   8  -4 2321.06 214.362  38
  -1   8  -4 2780.60 214.893   6
   1  -8   4 2603.13 269.334  11
  -1   8  -4 2838.38 238.674  32
  -1  -8  -4 2885.66 249.085  30
  -1  -8  -4 2553.83 199.048  28
   1  -8   4 2493.31 234.527  28
  -1  -8  -4 2637.80 219.142  25
   2  -8   4 635.839 116.554  43
  -2  -8  -4 780.191 130.873  40
  -2   8  -4 636.696 114.752  39
  -2   8  -4 639.545 112.207  38
  -2   8  -4 680.155 103.572   6
   2  -8   4 765.586 146.826  11
  -2   8  -4 665.053 118.035  32
  -2  -8  -4 739.695 132.621  30
   2  -8   4 767.745 133.721  28
  -2  -8  -4 722.844 114.757  25
   3  -8   4 399.790 92.7120  43
   3   8   4 365.526 74.9147  42
  -3  -8  -4 411.811 92.8871  40
  -3   8  -4 398.184 89.3121  39
  -3   8  -4 504.738 98.9299  38
  -3   8  -4 329.696 70.9017   6
   3  -8   4 438.789 114.054  11
  -3   8  -4 404.110 95.6541  32
  -3  -8  -4 414.429 106.607  30
   3  -8   4 369.696 94.1932  28
  -3  -8  -4 337.937 73.7300  25
   4  -8   4 1789.26 167.936  43
   4   8   4 1759.79 152.531  23
  -4  -8  -4 1666.84 168.731  40
  -4   8  -4 1545.13 157.699  39
  -4   8  -4 1571.84 141.885  38
  -4   8  -4 1593.39 139.007   6
   4  -8   4 1452.52 173.695  11
  -4   8  -4 1689.08 156.634  32
  -4  -8  -4 1317.90 156.709  30
   4  -8   4 1567.90 152.722  28
   5   8   4 831.228 90.2010  23
  -5   8  -4 719.055 98.1868  39
  -5   8  -4 699.609 77.8039   6
   5   8   4 667.614 90.0260  37
   5  -8   4 823.230 99.0849  43
   5  -8   4 723.284 109.459  11
  -5  -8  -4 620.670 96.4281  30
   6  -8   4-1.31750 22.5532  43
   6   8   4-26.3996 27.2763  37
   6  -8   4-31.2296 36.8758  11
  -6   8  -4 32.6453 24.2536  39
  -6  -8  -4-13.7819 27.2392  30
  -8  -9   4 1674.57 129.452  22
   8   9  -4 2064.50 149.592  12
   8   9  -4 1596.53 108.030  21
  -8   9   4 1639.28 139.078  38
  -8  -9   4 1690.39 114.620  31
   8  -9  -4 1700.96 121.650  30
   7   9  -4 37.4366 25.0676  14
  -7  -9   4-7.73204 35.0073  22
  -7   9   4 54.5374 50.3565  38
   7   9  -4-4.92778 25.4889  21
   7   9  -4 17.0447 34.5661  12
  -7  -9   4-4.22593 32.4815  31
   7  -9  -4-18.0911 30.6210  30
   7   9  -4 5.88944 21.9485  16
   6   9  -4 791.571 95.2782  14
  -6  -9   4 740.273 113.990  22
   6   9  -4 814.270 101.952  21
  -6   9   4 754.080 126.819  38
  -6  -9   4 806.805 108.375  31
   6   9  -4 796.918 104.062   9
   6  -9  -4 878.262 118.333  30
   6   9  -4 769.810 99.0730  16
   6   9  -4 812.125 122.392  12
   5  -9  -4 34.0922 44.3454  25
   5   9  -4 8.71444 43.9872  14
  -5  -9   4 69.4283 68.7782  22
  -5   9   4 90.8482 65.7219  38
   5   9  -4-30.4135 40.9517  12
   5   9  -4 1.41444 32.7154  21
  -5  -9   4 10.2340 35.0892  31
   5  -9  -4 20.6854 42.1767  30
   5   9  -4-15.7008 41.6372   9
   5   9  -4 21.3404 36.5294  16
   4  -9  -4 3024.36 196.894  43
   4   9  -4 2962.68 226.875  12
   4   9  -4 3167.11 199.839  38
  -4  -9   4 3109.65 244.671  11
   4   9  -4 3208.91 206.925  32
  -4  -9   4 2894.85 202.267  31
   4  -9  -4 2974.55 233.864  30
   4   9  -4 2978.18 219.609   9
  -4  -9   4 3172.69 256.669  22
   4   9  -4 3015.92 222.330  16
  -4  -9   4 3135.93 221.305  28
   4  -9  -4 3132.94 222.915  25
   3  -9  -4 10415.4 388.566  43
  -3  -9   4 10072.1 469.320  22
   3   9  -4 9048.70 380.689  12
  -3  -9   4 10999.5 481.197  11
   3   9  -4 10635.1 399.039  32
   3  -9  -4 10245.1 443.125  30
   3   9  -4 10255.7 409.220   9
   3   9  -4 9963.86 410.358  16
  -3  -9   4 9819.93 411.830  28
   3   9  -4 9992.81 389.821  38
   3  -9  -4 9249.39 399.623  25
   2  -9  -4 376.996 96.1010  25
   2  -9  -4 349.972 73.0785  43
  -2  -9   4 342.805 90.4174  22
   2   9  -4 289.022 78.4750  38
  -2  -9   4 488.354 114.325  11
   2   9  -4 332.920 74.9428  32
   2  -9  -4 370.512 89.4272  30
  -2  -9   4 342.675 93.4544  28
   2   9  -4 184.393 63.9796  16
  -1  -9   4 16066.6 484.982  43
   1  -9  -4 15758.1 497.794  40
   1   9  -4 16839.7 490.216   6
   1   9  -4 15419.6 522.554  38
   1  -9  -4 15551.1 500.934  43
  -1  -9   4 16740.8 622.386  11
   1   9  -4 16747.5 538.794  32
   1  -9  -4 15301.9 551.913  30
   1   9  -4 15357.8 489.918  16
  -1  -9   4 15594.1 549.935  28
   1  -9  -4 15669.2 526.829  25
   0  -9  -4 597.859 105.545  43
   0  -9   4 569.868 102.038  43
   0  -9  -4 550.782 99.1387  40
   0   9  -4 463.388 95.1494  38
   0   9  -4 599.418 93.8380   6
   0  -9   4 585.558 129.723  11
   0   9  -4 513.849 96.3301  32
   0  -9  -4 475.630 103.139  30
   0  -9  -4 601.708 92.9092  28
   0  -9   4 448.541 96.7521  28
   0   9  -4 524.945 92.6830  16
   0  -9  -4 569.970 105.058  25
   1  -9   4 293.625 80.9562  43
  -1  -9  -4 303.766 79.6441  40
  -1   9  -4 376.026 72.5244  39
  -1   9  -4 425.522 89.4990  38
  -1   9  -4 445.102 79.6814   6
   1  -9   4 414.968 104.113  11
  -1   9  -4 503.567 101.421  32
  -1  -9  -4 400.967 98.7795  30
   1  -9   4 383.981 94.1829  28
  -1  -9  -4 403.765 91.7331  25
   2  -9   4 3361.25 232.686  43
  -2  -9  -4 3469.35 240.464  40
  -2   9  -4 3384.01 218.372  39
  -2   9  -4 3194.49 197.172   6
  -2   9  -4 2935.43 216.976  38
   2   9   4 3520.84 203.576  21
   2  -9   4 3388.01 268.859  11
  -2   9  -4 3418.40 234.738  32
  -2  -9  -4 3331.37 248.065  30
   2  -9   4 3104.58 232.449  28
  -2  -9  -4 3186.59 206.329  25
   3  -9   4 529.826 89.3573  43
   3   9   4 552.259 81.9481  42
  -3  -9  -4 468.873 92.1831  40
  -3   9  -4 498.450 89.8366  39
  -3   9  -4 578.199 94.1048  38
  -3   9  -4 512.390 74.2061   6
  -3   9  -4 631.589 98.1043  32
   3  -9   4 678.512 120.904  11
  -3  -9  -4 508.628 90.0084  30
   3  -9   4 542.139 92.3238  28
  -3  -9  -4 563.825 80.2871  25
   4   9   4 5175.71 216.098  23
  -4  -9  -4 4737.42 236.224  40
  -4   9  -4 4674.34 210.977  38
   4  -9   4 4993.91 271.640  11
   4  -9   4 4797.64 229.505  43
  -4   9  -4 4818.29 220.662  32
  -4  -9  -4 4390.59 234.925  30
  -4   9  -4 4480.29 212.851  39
   5  -9   4 1740.37 111.034  43
  -5   9  -4 1837.09 111.566  39
   5   9   4 1860.71 117.439  37
   5  -9   4 1801.77 134.376  11
  -5  -9  -4 1532.27 113.257  30
  -7 -10   4 174.072 53.5733  22
  -7  10   4 144.961 43.7401  38
   7  10  -4 140.240 42.3414  12
   7 -10  -4 179.592 46.7436  30
  -6 -10   4 1947.96 153.176  22
   6  10  -4 2086.33 149.587  12
  -6  10   4 1951.60 142.477  38
   6 -10  -4 2116.70 151.854  30
   6  10  -4 2117.20 134.818  16
   5  10  -4 2862.87 159.517  14
  -5 -10   4 2938.48 207.317  22
   5 -10  -4 2942.45 197.248  30
   5  10  -4 2696.28 172.014   9
   5  10  -4 2663.23 174.272  16
  -4 -10   4 5252.42 276.048  11
   4 -10  -4 5089.92 271.293  30
   4  10  -4 4867.24 246.538   9
   4  10  -4 4885.23 252.078  16
  -4 -10   4 5218.43 247.483  28
   4 -10  -4 4906.13 250.608  25
  -4 -10   4 5160.52 290.494  22
   3 -10  -4 981.862 108.655  43
   3  10  -4 930.263 105.796  38
  -3 -10   4 1015.80 140.076  22
  -3 -10   4 1195.49 142.757  11
   3  10  -4 977.127 111.200  32
   3 -10  -4 1104.37 134.868  30
   3  10  -4 1068.11 124.235   9
   3  10  -4 1128.41 129.373  16
  -3 -10   4 964.410 119.088  28
   3 -10  -4 891.680 115.710  25
   2 -10  -4 1054.41 119.051  43
  -2 -10   4 933.195 131.196  22
   2  10  -4 858.467 112.912  38
  -2 -10   4 1014.36 143.994  11
   2  10  -4 956.801 111.950  32
   2 -10  -4 1053.36 132.463  30
   2  10  -4 938.873 118.332   9
   2  10  -4 1001.33 121.907  16
  -2 -10   4 1006.29 127.164  28
   2 -10  -4 1036.28 128.440  25
   1 -10  -4 7205.68 313.547  43
  -1 -10   4 7029.96 352.823  22
   1  10  -4 6778.37 311.233  38
  -1 -10   4 7109.49 361.950  11
   1  10  -4 6745.54 303.934  32
   1 -10  -4 6680.27 330.295  30
   1  10  -4 6770.84 309.149   9
   1  10  -4 6372.88 289.022  16
  -1 -10   4 6459.38 318.740  28
   1 -10  -4 6610.99 313.399  25
   0 -10   4 1194.53 122.283  43
   0  10  -4 1194.25 135.022  38
   0 -10   4 1310.84 156.832  11
   0  10  -4 1289.30 137.231  32
   0 -10  -4 1260.23 145.797  30
   0  10  -4 1343.02 124.769  16
   0 -10   4 1287.51 147.739  28
   0 -10  -4 1255.01 134.717  25
   1 -10   4 8601.87 322.159  43
  -1 -10  -4 8232.20 329.239  40
   1  10   4 8957.50 318.031  21
  -1  10  -4 8222.46 335.189  38
   1 -10   4 8277.95 378.622  11
  -1  10  -4 8717.86 341.207  32
  -1 -10  -4 8938.45 364.925  30
   1 -10   4 8700.96 353.100  28
  -1 -10  -4 8078.11 314.544  25
   2 -10   4 666.099 91.3269  43
   2  10   4 572.762 79.9144  42
  -2 -10  -4 524.148 85.4831  40
  -2  10  -4 527.086 85.9004  38
   2  10   4 688.301 75.7480  21
   2 -10   4 624.373 102.516  11
  -2  10  -4 567.430 82.1579  32
  -2 -10  -4 582.397 93.6721  30
   2 -10   4 605.362 91.0900  28
  -2 -10  -4 613.326 80.6941  25
   3 -10   4 918.979 94.6260  43
   3  10   4 834.794 77.8984  42
   3  10   4 953.168 90.2342  23
  -3 -10  -4 774.905 89.7642  40
  -3  10  -4 522.738 60.6958  39
  -3  10  -4 881.397 91.7776  38
   3 -10   4 857.246 104.875  11
  -3  10  -4 930.913 96.7521  32
  -3 -10  -4 820.202 96.1569  30
   3 -10   4 810.747 86.8063  28
   4 -10   4 346.485 51.0861  43
   4  10   4 342.648 51.3848  37
  -4  10  -4 405.202 51.7641  32
   4 -10   4 417.471 64.6456  11
  -6 -11   4 2641.22 130.530  22
   6 -11  -4 2523.45 121.189  30
  -6  11   4 2706.68 130.602  16
  -5 -11   4 129.899 44.5798  22
   5 -11  -4 128.468 42.6695  30
   5  11  -4 63.4109 31.9969  16
  -5  11   4 107.262 43.0264  16
   4  11  -4 322.723 45.8097  14
  -4 -11   4 450.000 72.5992  22
  -4 -11   4 381.065 62.3105  11
   4 -11  -4 359.388 64.2234  30
   4  11  -4 318.895 55.2417   9
   4  11  -4 409.132 65.4975  16
  -4 -11   4 343.193 55.0751  28
  -4  11   4 346.426 67.5907  16
   4 -11  -4 349.795 59.5277  25
  -3 -11   4 720.293 90.9017  11
   3 -11  -4 759.326 93.9641  30
   3  11  -4 693.922 84.8165   9
   3  11  -4 823.562 92.2157  16
  -3 -11   4 639.617 81.4350  28
  -3  11   4 662.341 85.0936  16
   3 -11  -4 662.213 86.1793  25
  -3 -11   4 775.901 96.8746  22
  -2 -11   4-0.35600 30.5517  22
   2  11  -4 25.5439 27.6151  38
  -2 -11   4 33.1120 34.3003  11
   2  11  -4-40.2842 28.8630  32
   2 -11  -4 5.18688 29.6283  30
   2  11  -4-21.1063 24.6196   9
  -2 -11   4 6.57309 32.5242  28
   2  11  -4 12.5205 30.1204  16
  -2  11   4 61.5939 42.1317  16
   2 -11  -4 27.6688 28.6160  25
  -1 -11   4 590.528 88.4060  22
   1  11  -4 501.448 71.0099  38
  -1 -11   4 660.441 96.8411  11
   1  11  -4 488.431 71.2691  32
   1 -11  -4 615.738 87.6160  30
   1  11  -4 529.700 73.7821   9
   1  11  -4 532.369 72.5163  16
  -1 -11   4 723.735 91.5959  28
   1 -11  -4 631.087 85.6935  25
   0 -11   4 464.246 61.9812  43
   0 -11   4 593.693 84.3000  22
   0  11  -4 444.139 67.7770  38
   0  11   4 570.148 74.2410  21
   0 -11   4 631.963 92.8869  11
   0  11  -4 510.584 70.4400  32
   0 -11  -4 489.949 76.8585  30
   0  11  -4 568.742 74.2690   9
   0 -11   4 451.331 72.1547  28
   0 -11  -4 517.013 73.3784  25
   1 -11   4 113.479 36.7375  43
   1  11   4 79.7630 42.2929  42
  -1  11  -4 99.0193 35.0481  38
   1  11   4 29.7876 22.2062  21
   1 -11   4 84.3947 45.9072  11
  -1  11  -4 59.7941 27.9468  32
  -1 -11  -4 39.8948 37.8248  30
  -1  11  -4 21.6592 26.1590   9
   1 -11   4 47.8980 26.8916  28
  -1 -11  -4 82.1617 26.9165  25
   2  11   4 2943.90 129.794  42
   2  11   4 3009.33 134.813  23
   2 -11   4 3075.89 138.666  43
   2 -11   4 2962.42 165.294  11
  -2  11  -4 3223.02 150.094  32
  -2 -11  -4 2902.41 145.127  30
   2 -11   4 3022.57 146.372  28
  -2  11  -4 3005.20 148.763  38
  -3  12   4 803.504 68.6315  21
   3  12  -4 741.777 63.6760  16
   3 -12  -4 735.572 64.3103  25
  -2  12   4 107.112 30.3891  21
  -2 -12   4 65.2409 25.7563  28
   2  12  -4 92.4129 24.9831  16
   2 -12  -4 101.567 30.5049  25
  -1  12   4 124.719 28.3029  21
  -1 -12   4 128.098 32.2643  11
  -1 -12   4 66.9384 23.4243  28
   1 -12  -4 106.683 26.5690  25
   0 -12   4 29.4448 17.4898  28
  11   0  -5 45.3293 39.9177   7
  11   0  -5 29.3223 28.6386  42
 -11   0   5 106.325 76.5739  29
  10   0  -5 26.2486 39.1313  24
  10   0  -5-17.9063 48.3909   7
  10   0  -5-9.01744 46.9471  42
  10   0  -5 40.5611 39.7431  21
 -10   0   5 27.1440 69.1891  29
  10   0  -5-7.96470 29.1282  26
 -10   0   5 46.8785 54.5943  15
   9   0  -5 53.9052 48.9240  24
   9   0  -5-44.9722 50.6818   7
   9   0  -5 78.8178 31.9691  42
   9   0  -5 4.75994 41.7429  21
   9   0  -5 5.78684 36.1965  26
  -9   0   5 32.1955 43.8123  15
   8   0  -5 52.7532 49.3864  14
   8   0  -5-18.6977 68.7607  24
   8   0  -5 28.2938 47.1249   7
   8   0  -5 70.7432 46.7710  42
   8   0  -5-28.5884 53.5803  21
   8   0  -5 64.3025 48.8747  26
   7   0  -5 48.3261 36.2472  14
   7   0  -5 46.9626 50.9892  24
   7   0  -5 1.10734 43.1819  42
   7   0  -5-11.0684 48.0990   7
   7   0  -5 3.64044 37.6542  21
  -7   0   5-136.270 120.512   2
  -7   0   5 204.294 182.340  35
   7   0  -5 3.05108 30.8894  16
   7   0  -5 47.5104 48.6674  26
   6   0  -5 86.3487 56.9934  14
   6   0  -5 20.5235 44.6314   7
   6   0  -5 55.9093 53.5341  41
   6   0  -5 74.4496 51.2748  12
   6   0  -5 35.1692 43.3581  21
  -6   0   5 1.24107 170.780  35
  -6   0   5 116.239 111.304   2
   6   0  -5-24.7609 34.1049  16
   6   0  -5 74.7082 44.9877  26
   5   0  -5 89.0706 46.4637   7
   5   0  -5 27.6718 54.2395  41
   5   0  -5-25.4203 39.3084  12
   5   0  -5 114.542 52.8945  21
  -5   0   5 54.3677 114.263  35
   5   0  -5 81.5060 53.3672   5
   5   0  -5 7.52380 39.1460  16
   4   0  -5-118.180 34.7166   3
   4   0  -5 26.1531 52.0171   1
  -4   0   5-35.9833 111.117  35
   3   0  -5 34.3779 47.2256   3
   3   0  -5 46.3469 69.7706   1
   2   0  -5 73.3141 47.8693   3
  -2   0   5 144.767 109.793  19
   2   0  -5 5.31592 125.554  17
   1   0  -5 49.7363 63.0229   3
  -1   0   5 48.1883 87.4014  19
   1   0  -5-93.7270 128.396  17
   0   0  -5 245.050 99.4982   3
   0   0   5 508.430 217.531  19
   0   0  -5 297.723 177.004  17
  -1   0  -5-146.636 68.6307  41
  -1   0  -5-44.3240 39.4176  12
  -1   0  -5 20.9681 54.4195   3
   1   0   5 222.414 161.299  34
   1   0   5-97.1438 129.144  19
  -1   0  -5 57.1895 55.8093   5
  -1   0  -5 77.5720 125.913  17
  -1   0  -5-83.5476 55.6701  29
  -1   0  -5-0.66479 35.6690  25
  -2   0  -5 82.8355 69.2688  41
  -2   0  -5-58.0796 46.5265  12
   2   0   5-84.7894 109.079  34
  -2   0  -5 60.9238 57.7300   5
  -2   0  -5 23.4277 41.6534  29
  -2   0  -5 13.1444 47.1612  25
  -3   0  -5 122.079 85.8586  41
  -3   0  -5 75.9062 61.2824   5
  -3   0  -5-7.60744 49.1551  29
  -3   0  -5 14.0780 45.2645   8
  -4   0  -5-31.6939 51.0218  41
  -4   0  -5 18.7724 62.6249   5
  -4   0  -5 16.4132 49.8291  29
  -4   0  -5 61.2680 48.6399   8
   4   0   5 31.7360 34.7738  27
  -5   0  -5 32.1212 45.5867  41
  -5   0  -5 149.968 78.4582   5
  -5   0  -5 33.8697 49.5047  29
  -5   0  -5 21.3284 37.5436   8
   5   0   5-19.9635 40.0656  27
  -6   0  -5-1.43125 40.5909  41
  -6   0  -5-3.12278 47.5607   5
  -6   0  -5 27.2447 45.2612  29
  -6   0  -5 29.0976 44.8336   8
   6   0   5 7.16390 44.1374  27
  -7   0  -5-4.13532 37.2424   5
  -7   0  -5 16.7303 36.2508  29
  -7   0  -5-0.67616 29.0275   8
   7   0   5 40.6483 35.4673  27
  11   1  -5 568.514 79.1521  24
  11  -1  -5 475.899 72.7006   7
 -11   1   5 421.738 112.891  39
 -11   1   5 693.025 121.329  29
 -11  -1   5 506.834 105.590  29
  11  -1  -5 502.284 70.4877  26
 -11  -1   5 552.945 93.3962  15
  10  -1  -5 1049.56 124.447  24
  10   1  -5 947.894 120.082  24
  10  -1  -5 929.267 112.972  42
  10   1  -5 1073.44 119.283  42
  10   1  -5 1031.29 116.354  21
 -10   1   5 1163.05 181.920  29
 -10  -1   5 1175.64 187.438  29
  10  -1  -5 1060.71 126.647   7
  10   1  -5 781.546 102.472   7
  10  -1  -5 1168.28 132.341  26
 -10  -1   5 884.035 132.115  15
   9  -1  -5 36.9126 40.2484  24
   9   1  -5 109.724 47.3841  24
   9  -1  -5 40.6179 43.6321   7
   9   1  -5 11.2296 48.2338   7
   9  -1  -5-3.13026 39.7838  42
   9   1  -5-7.56512 31.6649  42
   9  -1  -5 134.476 57.2079  21
   9   1  -5-13.6149 34.7469  21
   9  -1  -5 88.0593 57.7365  26
   9   1  -5 59.5218 43.4471  26
  -9  -1   5-96.7417 58.0942  15
   8  -1  -5 2210.21 198.850  24
   8   1  -5 2506.28 215.512  24
   8  -1  -5 2170.08 192.791  42
   8   1  -5 2001.88 179.302  42
   8  -1  -5 2225.17 198.650  21
   8   1  -5 2196.50 196.877  21
   8  -1  -5 2249.08 206.759   7
   8   1  -5 2219.77 196.736   7
   8  -1  -5 1979.27 198.150  26
   8   1  -5 2134.96 190.751  26
   8   1  -5 2206.85 197.472  14
   7  -1  -5 20.2561 37.8776  14
   7   1  -5 7.76873 51.4812  14
   7  -1  -5 106.807 55.2831  24
   7  -1  -5 93.4893 59.6355  42
   7   1  -5 221.223 63.0398  42
   7  -1  -5 44.1732 46.8110   7
   7   1  -5 37.2173 51.1863   7
   7   1  -5-18.7272 51.2175  12
   7  -1  -5 50.9030 43.2906  21
   7   1  -5-3.40821 37.1158  21
  -7   1   5-69.2379 119.316  35
  -7  -1   5-373.622 215.836  35
  -7  -1   5-464.443 231.442   2
   7   1  -5-20.4638 51.0909  16
   7  -1  -5 42.7769 43.4657  26
   7   1  -5 59.4728 55.8199  26
   6  -1  -5 1542.82 151.599  42
   6  -1  -5 1748.16 183.804  41
   6   1  -5 1937.66 185.428  41
   6  -1  -5 1819.63 174.540  12
   6   1  -5 1579.03 174.211  12
   6  -1  -5 1674.60 165.231  21
   6   1  -5 1883.77 172.030  21
   6  -1  -5 1846.50 205.155   5
  -6   1   5 1559.45 330.926   2
  -6   1   5 1817.25 380.869  35
  -6  -1   5 1571.75 366.642  35
  -6  -1   5 1357.32 326.420   2
   6   1  -5 1684.58 165.511  16
   6  -1  -5 1627.40 168.913  26
   6   1  -5 1641.12 165.275  26
   6  -1  -5 1853.00 180.083   7
   6   1  -5 2060.01 188.233   7
   6  -1  -5 1526.25 154.821  14
   6   1  -5 1921.99 175.834  14
   5   1  -5 325.038 63.4275  14
   5  -1  -5 479.471 91.9682   7
   5  -1  -5 393.669 97.0848  41
   5   1  -5 410.105 88.4480  41
   5   1  -5 445.558 90.3494   7
   5  -1  -5 394.461 91.7043  12
   5  -1  -5 526.225 93.4811  21
   5   1  -5 357.007 87.9196  12
   5   1  -5 407.450 75.2735  21
  -5   1   5 240.827 123.160  35
  -5  -1   5 56.7738 124.544  35
  -5  -1   5 543.989 201.889   2
   5   1  -5 476.966 102.373   5
   5  -1  -5 385.461 89.8522   5
   5  -1  -5 234.087 104.820   1
   5  -1  -5 596.876 99.0574  16
   5   1  -5 437.487 86.4956  16
   5  -1  -5 446.703 92.5977  26
   4   1  -5 682.222 168.979   3
  -4   1   5 698.095 246.758  35
  -4  -1   5 481.861 222.293  35
   4  -1  -5 710.098 167.305   1
   3  -1  -5 309.052 110.862   3
   3   1  -5 467.107 132.678   3
  -3   1   5 169.027 141.567  35
  -3  -1   5 94.0723 165.344  35
   3  -1  -5 408.632 144.074   1
  -3  -1   5 841.761 207.498  19
   3  -1  -5 418.216 222.708  17
  -2  -1   5 3417.54 498.776  19
   2  -1  -5 3237.77 369.163   1
   2  -1  -5 3681.17 544.277  17
   2  -1  -5 3543.05 325.852   3
   2   1  -5 3169.88 348.327   3
   1  -1  -5 630.195 147.569   3
   1   1  -5 669.428 172.139   3
  -1  -1   5 398.535 193.985  19
  -1   1   5 954.541 271.008  19
   1  -1  -5 192.133 176.754  17
   1   1  -5 1113.78 279.451  17
   0   1  -5 919.603 205.654   3
   0   1   5 751.099 204.968  34
   0  -1   5 962.720 284.826  19
   0   1   5 703.504 247.289  19
   0  -1  -5 1055.08 320.646  17
   0   1  -5 1050.18 280.206  17
  -1   1  -5 142.733 76.0153  41
  -1   1  -5 126.199 53.6846  39
  -1  -1  -5 68.2188 42.4621  12
  -1  -1  -5 56.6004 42.8065  41
  -1   1  -5 16.6075 58.9688   3
   1   1   5 5.23295 107.954  34
   1  -1   5 248.257 168.072  19
   1   1   5 371.903 191.472  19
  -1   1  -5 192.062 85.0374   5
  -1  -1  -5 122.783 61.5019   5
  -1  -1  -5 435.565 240.944  17
  -1  -1  -5-37.9400 43.0633  29
  -1   1  -5 155.557 69.2722  29
  -1  -1  -5 59.8552 71.7444  26
  -1   1  -5 86.5937 45.8777  25
  -1  -1  -5 87.8263 41.8033  25
  -2  -1  -5 2437.07 219.821  12
  -2  -1  -5 2139.01 227.042  41
  -2   1  -5 1868.75 220.983  41
  -2   1  -5 2327.11 208.956  39
   2  -1   5 2847.72 447.222  34
   2   1   5 3038.65 462.683  34
  -2   1  -5 1996.93 337.238   3
   2  -1   5 3077.06 533.715  19
   2   1   5 2130.63 478.492  19
  -2   1  -5 2180.33 239.523   5
  -2  -1  -5 2165.79 245.317   5
  -2  -1  -5 2257.39 198.117  31
  -2  -1  -5 2493.77 473.488  17
  -2  -1  -5 2115.71 209.303  29
  -2   1  -5 2143.86 218.798  29
  -2   1  -5 2082.87 188.541   8
  -2  -1  -5 2212.18 194.820  25
  -3  -1  -5 490.007 111.648  41
  -3   1  -5 286.440 92.1253  41
   3  -1   5 937.931 285.321  34
   3   1   5 764.642 252.419  34
  -3  -1  -5 424.548 86.8156  31
  -3  -1  -5 328.627 91.4253  30
  -3   1  -5 400.707 119.501   5
  -3  -1  -5 520.488 133.293   5
  -3   1  -5 452.476 99.9245  39
  -3  -1  -5 492.964 110.189  29
  -3   1  -5 566.991 122.536  29
  -3   1  -5 576.513 110.592   8
  -3  -1  -5 405.806 90.8807   8
  -3  -1  -5 411.970 86.7704  25
  -4  -1  -5 2758.12 252.276  41
  -4   1  -5 2860.25 276.585  41
  -4   1  -5 2850.11 275.655   5
  -4  -1  -5 3206.21 307.323   5
  -4  -1  -5 2635.53 223.954  31
  -4  -1  -5 2802.24 245.202  30
  -4  -1  -5 2934.06 246.565  29
  -4   1  -5 3108.79 267.036  29
  -4   1  -5 3134.37 243.360   8
  -4  -1  -5 3061.87 234.068   8
   4  -1   5 3197.43 242.961  27
  -5   1  -5 119.672 65.6370  41
  -5  -1  -5-30.3550 42.2550  41
  -5  -1  -5-20.7207 43.8317  31
  -5  -1  -5 47.9911 50.6788  30
  -5   1  -5 25.7414 46.5511   5
  -5  -1  -5 22.0886 65.8453   5
  -5  -1  -5-1.84320 42.0967  29
  -5   1  -5 88.0372 56.8549  29
  -5   1  -5 32.8274 51.1472   8
  -5  -1  -5-18.5552 35.8591   8
   5  -1   5 87.3246 60.8290  27
   5   1   5 108.479 58.4510  27
  -6   1  -5 1088.70 144.416  41
  -6   1  -5 1175.42 155.665   5
  -6  -1  -5 1006.48 151.384   5
  -6  -1  -5 1164.37 129.138  29
  -6   1  -5 1294.49 147.713  29
  -6   1  -5 1190.40 131.840   8
  -6  -1  -5 1206.69 127.079   8
   6  -1   5 1209.19 137.408  27
   6   1   5 1202.20 139.638  27
   7  -1   5 244.639 68.0822  11
  -7   1  -5 213.046 58.4174   5
  -7  -1  -5 132.190 50.2894   5
  -7   1  -5 223.939 56.6138  29
   7  -1   5 249.524 53.7675  27
   7   1   5 127.719 45.3802  27
  11   2  -5 3630.68 184.933  24
 -11   2   5 3243.53 259.337  39
  11   2  -5 3506.63 162.460  21
 -11   2   5 4119.09 249.517  29
 -11  -2   5 4059.22 269.927  29
  11  -2  -5 3605.23 179.298   7
 -11  -2   5 4263.38 231.806  15
  11  -2  -5 3961.05 187.739  26
  10   2  -5 6547.06 301.465  24
  10   2  -5 6188.92 266.202  42
  10   2  -5 6564.83 283.754  21
 -10   2   5 5427.08 348.864  29
 -10  -2   5 5885.71 380.644  29
  10  -2  -5 5575.11 279.264   7
  10   2  -5 5316.02 234.729   7
 -10  -2   5 6352.46 339.788  15
  10  -2  -5 5937.65 287.093  26
   9  -2  -5 4020.60 255.475  24
   9   2  -5 5195.24 297.912  24
   9  -2  -5 4817.02 275.132  42
   9   2  -5 4551.72 255.329  42
   9   2  -5 4249.63 259.980  21
   9  -2  -5 4938.19 294.904   7
   9   2  -5 4604.61 256.670   7
  -9  -2   5 4269.37 303.415  15
   9  -2  -5 4713.72 289.447  26
   9   2  -5 4251.79 265.516  14
   8  -2  -5 6165.15 324.876  24
   8   2  -5 6758.46 351.586  24
   8  -2  -5 5915.52 312.957  42
   8   2  -5 6533.61 316.487  42
   8   2  -5 6407.37 341.277  12
   8  -2  -5 6002.94 323.703  21
   8   2  -5 6256.82 331.110  21
  -8  -2   5 6586.47 335.339  31
   8   2  -5 6994.11 333.686  16
   8  -2  -5 6312.36 342.871   7
   8   2  -5 7026.38 337.173   7
   8  -2  -5 6116.39 345.364  26
   8   2  -5 6502.16 334.152  14
   7   2  -5 10.8061 38.9696  14
   7  -2  -5-4.67291 33.2097  42
   7  -2  -5-6.24179 42.7517   7
   7   2  -5 17.0691 40.4430   7
   7  -2  -5 12.0236 54.4182  21
   7   2  -5-28.0880 52.1346  12
   7   2  -5 12.9925 47.5227  21
  -7  -2   5 32.3310 63.3840  31
   7   2  -5 8.53684 45.2125  16
   7  -2  -5 57.0080 53.7139  26
   6   2  -5 6994.90 334.248  14
  -6  -2   5 6774.29 763.786   2
   6  -2  -5 6694.88 317.986  42
   6  -2  -5 7603.87 393.460  41
   6   2  -5 6499.98 359.201  12
   6   2  -5 7110.00 337.847  21
  -6   2   5 5790.46 658.199  35
  -6  -2   5 5896.11 737.422  35
   6  -2  -5 7362.54 345.941  21
   6   2  -5 6518.34 315.611   9
   6   2  -5 7385.16 345.246  16
   6  -2  -5 6219.03 528.131   1
   6  -2  -5 7275.00 359.005   7
   6  -2  -5 6914.91 355.109  26
   6   2  -5 7312.11 346.059   7
   5   2  -5 2416.69 187.758  14
   5  -2  -5 2546.19 225.257  41
   5  -2  -5 2533.82 202.160  12
   5   2  -5 2456.78 216.637  12
   5   2  -5 2775.79 210.855  38
   5  -2  -5 2650.39 198.655  21
   5   2  -5 2428.15 187.508  21
   5   2  -5 2684.43 228.402   5
   5  -2  -5 2598.71 225.744   5
  -5   2   5 2141.74 401.686  35
  -5  -2   5 1929.45 408.380  35
  -5  -2   5 2111.12 412.307   2
   5   2  -5 2517.52 185.740   9
   5   2  -5 2592.31 200.947  16
   5  -2  -5 2139.41 309.127   1
   5  -2  -5 2631.97 211.927  26
   5  -2  -5 2596.41 209.014   7
   5   2  -5 2625.96 203.270   7
   4  -2  -5-159.828 61.9710  41
   4   2  -5 63.9195 35.2813   7
   4   2  -5 30.6471 29.4836  38
   4   2  -5 31.5636 51.1146  12
   4   2  -5 24.4723 48.5792   3
  -4  -2   5 117.701 133.139  35
   4  -2  -5 67.9599 48.5923   1
  -3   2   5 12161.7 922.241  35
  -3  -2   5 11842.2 1050.25  35
  -3  -2   5 14376.6 1005.74  19
   3  -2  -5 14666.8 1132.77  17
   3  -2  -5 13724.5 770.883   1
   3   2  -5 12958.9 733.372   3
   2   2  -5 30.6133 71.8753   3
   2  -2  -5 88.6381 77.4873   1
  -2   2   5-421.598 176.057  33
  -2  -2   5 154.132 133.504  19
  -2   2   5-424.396 168.316  18
   2  -2  -5-89.8058 152.156  17
   1  -2  -5 276.976 121.026   1
   1   2  -5 116.203 78.5697   3
  -1   2   5 155.616 102.200  34
  -1  -2   5 430.574 204.924  19
  -1   2   5 287.579 146.161  19
  -1   2   5 77.8896 97.3420  18
   1  -2  -5 260.925 172.854  17
   0   2  -5 1116.50 141.251  39
   0  -2  -5 1138.76 146.219  12
   0   2  -5 1180.30 238.721   3
   0   2   5 833.325 233.453  34
   0  -2   5 689.381 254.349  19
   0   2   5 1318.84 334.154  19
   0   2   5 1434.97 301.659  18
   0   2  -5 1117.43 158.895  41
   0  -2  -5 1060.26 153.568   5
   0   2  -5 1148.50 148.156  29
   0  -2  -5 1357.53 374.794  17
   0  -2  -5 1290.86 138.971  25
  -1   2  -5 3053.58 412.199   3
  -1  -2  -5 3491.72 263.982  12
  -1   2  -5 3215.97 275.411  41
  -1   2  -5 3152.05 244.823  39
   1   2   5 4459.05 524.116  34
   1  -2   5 3846.06 577.965  19
  -1   2  -5 3083.38 262.403   5
  -1  -2  -5 3414.27 296.642   5
   1   2   5 2850.55 400.688  18
  -1  -2  -5 3289.93 243.177  30
  -1  -2  -5 3320.70 266.299  41
  -1  -2  -5 2995.22 549.419  17
  -1  -2  -5 3220.08 233.485  29
  -1   2  -5 3191.03 257.451  29
  -1   2  -5 3473.14 236.102   8
  -1  -2  -5 3419.58 253.989  26
  -1  -2  -5 3809.40 252.188  25
  -2  -2  -5 63.4144 53.4690  41
  -2   2  -5 66.5392 53.5810  41
  -2   2  -5 127.285 52.7590  39
  -2   2  -5 151.364 110.144   3
   2  -2   5 355.972 163.203  34
   2   2   5-87.1019 108.425  34
   2   2   5 113.852 115.435  18
  -2  -2  -5 12.2957 61.0940  31
  -2  -2  -5 3.09893 39.7209  30
  -2   2  -5 54.6312 51.2320   5
  -2  -2  -5 200.808 87.0759   5
  -2  -2  -5 187.783 202.169  17
  -2  -2  -5 112.699 47.2893  29
  -2   2  -5 88.6779 66.4438  29
  -2   2  -5 83.2532 39.6240   8
  -2  -2  -5 157.550 66.5263  25
  -3   2  -5 4179.05 286.563  39
  -3  -2  -5 3640.68 282.819  41
  -3   2  -5 4220.00 324.612   5
  -3  -2  -5 4296.78 354.518   5
  -3  -2  -5 3925.41 266.730  31
  -3  -2  -5 4373.59 309.497  30
  -3  -2  -5 4509.82 292.386  29
  -3   2  -5 4131.07 306.874  29
  -3   2  -5 4276.01 286.203   8
  -3  -2  -5 4334.69 276.257  25
  -3   2  -5 3791.04 323.439  41
  -4   2  -5 1620.71 213.857  41
  -4  -2  -5 1550.61 187.179  41
  -4   2  -5 1672.98 175.520  39
  -4   2  -5 1631.59 202.661   5
  -4  -2  -5 1609.52 219.417   5
  -4  -2  -5 1567.80 171.275  31
  -4  -2  -5 1702.90 202.379  30
  -4  -2  -5 1718.99 180.742  29
  -4   2  -5 1748.28 204.158  29
  -4   2  -5 1887.05 194.139   8
  -4  -2  -5 1799.92 172.455   8
   4  -2   5 1595.72 164.546  27
  -4  -2  -5 1819.32 179.017  25
  -5   2  -5 7372.49 420.455  41
  -5   2  -5 7675.83 400.393   5
  -5  -2  -5 8005.24 456.122   5
  -5  -2  -5 7781.28 359.410  31
  -5  -2  -5 7810.78 402.135  30
  -5   2  -5 7869.21 392.916  29
  -5   2  -5 7953.49 372.188   8
  -5  -2  -5 7831.15 346.113   8
   5  -2   5 7764.48 353.057  27
  -6   2  -5 0.25667 44.0098  41
   6  -2   5 29.8672 48.6556  11
  -6   2  -5 15.2590 40.8340   5
  -6  -2  -5-32.5271 50.1586   5
  -6   2  -5 21.5320 45.5845  29
  -6   2  -5-4.02110 32.5251   8
   6  -2   5 77.5957 46.5011  27
   6   2   5 117.648 56.5116  27
  -7   2  -5 159.611 51.0214  41
   7  -2   5 246.717 64.5043  11
  -7  -2  -5 151.304 55.3432   5
  -7   2  -5 253.228 55.5246  29
   7  -2   5 130.983 42.3845  27
   7   2   5 166.189 55.8093  27
  11   3  -5 543.484 72.3182  24
  11  -3  -5 356.344 62.7742   7
 -11   3   5 345.712 101.874  39
  11   3  -5 452.759 60.0683  21
 -11  -3   5 524.503 98.5229  29
  11  -3  -5 508.190 68.5275  26
 -11  -3   5 461.742 82.9324  15
  10   3  -5 3365.83 211.415  24
  10   3  -5 3256.36 193.499  21
 -10  -3   5 3651.20 204.371  31
 -10   3   5 3146.03 236.888  29
 -10  -3   5 3177.42 268.308  29
  10  -3  -5 3125.43 206.968   7
 -10  -3   5 3148.24 235.850  15
  10  -3  -5 3136.71 204.066  26
   9   3  -5 457.506 87.7211  14
   9   3  -5 545.286 101.138  24
   9  -3  -5 487.532 94.0008   7
   9   3  -5 485.223 82.5326   7
   9   3  -5 396.019 78.9987  12
   9   3  -5 527.057 98.5450  21
  -9  -3   5 432.645 92.4651  31
  -9   3   5 568.965 121.068  29
   9  -3  -5 395.070 87.7049  26
   8   3  -5 323.737 80.3066  14
   8  -3  -5 293.552 85.0892   7
   8   3  -5 284.961 63.4227  42
   8   3  -5 205.673 62.0215   7
   8   3  -5 317.105 78.0852  12
   8   3  -5 293.642 79.3262  21
  -8  -3   5 265.191 77.0957  31
   8   3  -5 361.104 76.5114  16
   8  -3  -5 286.295 80.3218  26
   7   3  -5 1225.44 163.670  12
   7   3  -5 1396.09 158.432  21
  -7  -3   5 1362.48 167.643  31
   7   3  -5 1257.74 146.920  16
   7  -3  -5 1412.45 167.259   7
   7  -3  -5 1281.66 159.875  26
   7   3  -5 1350.18 150.649   7
   7   3  -5 1218.45 151.032  14
   6   3  -5 198.043 69.1650  14
   6  -3  -5 252.869 56.7981   7
   6   3  -5 247.724 78.4940   7
   6  -3  -5 312.131 97.7960  41
   6   3  -5 435.529 90.8178  38
   6   3  -5 328.121 96.4589  12
   6   3  -5 387.585 87.4810  21
  -6  -3   5 84.2342 124.258  35
  -6  -3   5 310.261 194.054   2
   6   3  -5 251.661 65.6881   9
   6  -3  -5 285.004 127.502   1
   6   3  -5 257.299 71.8510  16
   6  -3  -5 219.777 81.2272  26
   5   3  -5 4120.52 253.973  14
   5  -3  -5 4692.97 303.714  41
   5   3  -5 3997.89 285.975  12
   5   3  -5 4604.48 275.297  38
   5   3  -5 4045.10 244.717  21
   5  -3  -5 4845.81 313.737   5
  -5  -3   5 3521.74 559.782  35
  -5   3   5 4424.74 597.897  20
   5   3  -5 3810.50 241.742   9
   5   3  -5 4288.95 262.933  16
   5  -3  -5 3364.49 404.291   1
   5  -3  -5 4106.91 259.690   7
   5  -3  -5 4550.28 287.007  26
   5   3  -5 3984.30 445.653   3
   5   3  -5 4238.01 261.197   7
   4  -3  -5 1529.33 169.674  41
   4  -3  -5 1491.35 158.422  12
   4   3  -5 1382.18 173.379  12
   4   3  -5 1152.89 136.338   6
   4   3  -5 1706.83 164.028  38
   4   3  -5 1003.79 224.514   3
   4  -3  -5 1539.15 177.048   5
  -4  -3   5 1040.24 307.618  35
  -4   3   5 1224.75 327.523  20
  -4  -3   5 1283.47 336.249  19
  -4   3   5 1658.06 343.645  33
   4   3  -5 1676.51 164.444  32
   4   3  -5 1452.45 145.434   9
   4  -3  -5 1134.35 230.402   1
   4   3  -5 1440.33 150.058  16
   4  -3  -5 1530.45 167.707  26
   4  -3  -5 1667.92 156.268   7
   4   3  -5 1376.27 148.594   7
   3  -3  -5 1065.15 142.058  41
   3   3  -5 978.047 128.425  39
   3   3  -5 855.076 118.841   7
   3   3  -5 1125.91 135.798  38
   3   3  -5 916.788 132.292  12
   3   3  -5 752.979 184.294   3
  -3  -3   5 1202.05 341.043  35
  -3   3   5 1225.72 290.671  33
  -3  -3   5 924.173 267.168  19
   3   3  -5 958.433 119.850  32
   3  -3  -5 944.813 221.408   1
   3  -3  -5 789.877 274.913  17
   3  -3  -5 1038.05 129.252  26
   2   3  -5 1899.86 304.251   3
   2   3  -5 1993.83 185.327  39
  -2   3   5 1963.42 277.122  34
  -2   3   5 1771.51 368.615  33
  -2  -3   5 2086.48 414.435  19
  -2   3   5 1878.16 367.896  18
   2  -3  -5 2011.13 314.573   1
   2  -3  -5 1979.28 457.245  17
   1   3  -5 441.718 89.6623  39
   1  -3  -5 508.597 105.051  12
   1   3  -5 297.743 71.4023   6
   1   3  -5 261.616 118.568   3
   1  -3  -5 403.980 155.223   1
  -1   3   5 208.388 112.767  34
  -1  -3   5 304.193 184.375  19
  -1   3   5 518.956 211.169  18
   1  -3  -5 352.052 90.8586   5
   1  -3  -5 504.704 228.807  17
   1   3  -5 475.216 86.3185  29
   1  -3  -5 338.726 88.7787  26
   1  -3  -5 437.368 83.4097  25
   0   3  -5 8319.94 665.620   3
   0  -3  -5 8762.70 412.835  12
   0  -3  -5 7285.06 375.042  41
   0   3  -5 7521.11 402.565  41
   0   3  -5 8542.14 402.087  39
   0   3  -5 8014.33 351.119  38
   0   3  -5 7893.94 365.749   6
   0   3   5 9830.53 738.440  34
   0  -3   5 6951.92 782.354  19
   0  -3  -5 8145.02 435.913   5
   0   3  -5 7941.27 345.571  32
   0   3   5 9448.15 829.607  18
   0  -3  -5 8027.66 370.925  30
   0  -3  -5 9531.07 1003.23  17
   0   3  -5 8576.55 401.893  29
   0  -3  -5 8925.30 400.552  26
   0  -3  -5 8573.93 373.347  25
  -1  -3  -5 613.272 120.079  41
  -1   3  -5 564.544 121.771  41
  -1   3  -5 678.018 130.608  39
  -1  -3  -5 655.082 122.854  12
  -1   3  -5 546.076 97.2984  38
  -1   3  -5 762.472 216.462   3
   1   3   5 594.776 223.661  34
   1  -3   5 485.724 238.272  19
   1   3   5 78.4625 118.460  18
  -1  -3  -5 787.445 146.300   5
  -1  -3  -5 782.921 129.705  30
  -1  -3  -5 389.738 243.979  17
  -1   3  -5 805.611 126.394  29
  -1   3  -5 781.139 117.996  15
  -1  -3  -5 674.885 126.712  26
  -1  -3  -5 811.675 120.524  25
  -2  -3  -5 85.3093 36.6335  41
  -2   3  -5 160.143 88.8212  41
  -2   3  -5 103.267 54.1823  39
  -2   3  -5 107.107 94.0654   3
   2  -3   5 273.703 146.501  34
   2   3   5 336.451 188.093  34
   2  -3   5 122.270 52.4395  11
   2   3   5 255.809 108.182  18
  -2  -3  -5-9.92456 63.5842  31
  -2  -3  -5 92.8164 59.0685  30
  -2  -3  -5-132.911 79.3189   5
  -2  -3  -5-3.40895 107.298  17
  -2   3  -5 109.483 78.5952  29
  -2   3  -5-4.15832 33.4884  15
  -2  -3  -5 51.2752 45.5141  25
  -3   3  -5 4122.17 335.243  41
  -3  -3  -5 4337.14 295.074  41
  -3   3  -5 4653.94 315.690  39
   3  -3   5 4380.04 338.100  11
  -3   3  -5 4350.55 305.560   5
  -3  -3  -5 4136.98 340.734   5
  -3  -3  -5 4700.67 284.646  31
  -3  -3  -5 4796.81 331.824  30
  -3   3  -5 4421.95 312.807  29
  -3   3  -5 4641.74 305.084   8
  -3   3  -5 4813.71 286.660  15
  -3  -3  -5 4907.15 292.371  25
  -4   3  -5 881.776 154.324  41
  -4  -3  -5 1108.65 141.487  31
   4  -3   5 1036.33 167.873  11
  -4  -3  -5 923.829 146.922  30
  -4   3  -5 1067.28 152.934   5
  -4  -3  -5 986.431 173.784   5
  -4   3  -5 1036.87 156.117  29
  -4   3  -5 969.630 137.234   8
  -4  -3  -5 1179.72 147.023   4
  -4   3  -5 1141.95 140.631  15
  -4   3  -5 1042.90 144.603  39
  -4  -3  -5 1149.63 140.495  25
  -5   3  -5 2333.85 233.993  41
  -5   3  -5 2417.50 197.657  39
   5  -3   5 2180.47 228.779  11
  -5  -3  -5 2418.56 242.115   5
  -5  -3  -5 2407.28 193.294  31
  -5  -3  -5 2310.71 221.459  30
  -5   3  -5 2589.25 223.715  29
   5  -3   5 2374.02 186.979  27
   6  -3   5 1009.25 116.997  43
   6  -3   5 974.585 142.547  11
  -6  -3  -5 939.382 134.927   5
  -6   3  -5 908.070 130.461  41
  -6  -3  -5 853.432 119.208  30
  -6   3  -5 923.677 116.739  29
   6  -3   5 791.729 93.4082  27
   6   3   5 978.265 120.599  27
  -7   3  -5 180.055 55.0404  41
   7  -3   5 114.797 42.0374  11
  -7  -3  -5 208.124 54.6019   5
  -7   3  -5 146.890 44.6822  29
   7   3   5 160.510 45.2961  27
  11   4  -5 496.381 61.7291  24
 -11   4   5 676.601 106.768  39
  11   4  -5 531.859 56.1263  21
 -11   4   5 673.833 100.266  32
  11  -4  -5 500.120 62.0870   7
  11  -4  -5 520.143 60.0500  26
 -11  -4   5 557.380 79.5568  15
  10   4  -5 1134.91 118.251  24
 -10   4   5 722.196 145.806  39
  10   4  -5 1094.19 109.265  21
 -10  -4   5 1214.99 118.476  31
 -10  -4   5 1014.30 138.484  29
  10  -4  -5 1173.01 123.419   7
 -10  -4   5 1054.47 137.028  15
  10  -4  -5 1064.70 113.097  26
   9   4  -5 505.097 90.5669  14
   9   4  -5 741.761 114.307  24
   9  -4  -5 378.759 90.0787   7
   9   4  -5 715.237 105.821  21
   9   4  -5 579.699 93.9271  12
  -9  -4   5 544.294 97.6857  31
   9   4  -5 487.564 78.9535  16
   9  -4  -5 604.970 102.772  26
   8   4  -5 1610.90 179.549  12
   8   4  -5 1848.62 177.776  21
   8  -4  -5 1695.75 157.068  37
  -8  -4   5 2061.77 195.375  31
   8  -4  -5 1759.61 170.572  30
   8   4  -5 1965.82 176.472  16
   8  -4  -5 1724.16 176.761   7
   8  -4  -5 1777.30 181.115  26
   8   4  -5 1684.00 168.375  14
   7   4  -5 263.909 75.0748  14
   7  -4  -5 362.320 96.4548   7
   7   4  -5 304.146 74.6460   7
   7  -4  -5 202.776 64.7233  37
   7   4  -5 290.305 75.6070  21
   7   4  -5 199.941 74.5407  12
  -7  -4   5 358.714 92.2885  31
   7  -4  -5 292.663 80.0641  30
   7   4  -5 310.501 80.0868  16
   7  -4  -5 258.283 82.8383  26
   6   4  -5 4335.37 272.965  14
   6   4  -5 4116.41 302.650  12
   6   4  -5 4614.19 275.671  38
   6   4  -5 4041.85 258.666  21
   6  -4  -5 4490.44 280.739  30
   6   4  -5 3726.57 256.110   9
   6   4  -5 4250.35 273.874  16
   6  -4  -5 4241.32 275.869   7
   6  -4  -5 4474.48 292.305  26
   6   4  -5 4389.17 262.061   7
   5  -4  -5 6382.60 359.317  41
   5   4  -5 5266.21 341.798  12
   5   4  -5 5867.16 313.244  38
   5   4  -5 5597.22 291.343  21
  -5  -4   5 5242.80 344.418  22
   5  -4  -5 6081.56 349.357   5
  -5  -4   5 4718.71 653.714  35
  -5   4   5 4866.50 677.078  20
  -5   4   5 5060.71 673.765  33
   5   4  -5 6081.90 322.958  32
   5  -4  -5 6000.25 322.182  30
   5   4  -5 5542.53 303.917   9
   5   4  -5 5785.18 314.616  16
   5  -4  -5 4895.45 514.120   1
   5  -4  -5 5631.41 302.637   7
   5  -4  -5 5713.13 326.125  26
   5   4  -5 5857.66 555.030   3
   5   4  -5 5803.45 305.414   7
   4  -4  -5 4610.93 296.981  41
  -4  -4   5 3926.61 305.408  22
   4   4  -5 4153.23 259.746   6
   4   4  -5 4230.27 298.198  12
   4   4  -5 4248.94 270.134  38
   4  -4  -5 4669.13 302.442   5
  -4  -4   5 4199.75 619.793  35
  -4   4   5 2782.96 486.692  20
  -4  -4   5 3898.83 547.607  19
  -4   4   5 4384.69 601.867  33
   4   4  -5 4294.31 267.681  32
   4  -4  -5 4290.81 269.855  30
   4   4  -5 4065.62 251.292   9
   4   4  -5 4289.73 263.472  16
   4  -4  -5 3454.20 434.990   1
   4  -4  -5 4381.82 251.957   7
   4  -4  -5 4232.61 274.191  26
   4   4  -5 3872.52 438.481   3
   4   4  -5 4238.07 260.633   7
   3  -4  -5 13452.8 501.929  41
   3  -4  -5 13992.1 484.889  12
   3   4  -5 12885.5 474.228  39
   3   4  -5 12269.8 492.338  12
   3   4  -5 13360.8 458.367   6
   3   4  -5 13264.9 476.390  38
  -3  -4   5 10525.1 991.798  35
   3  -4  -5 12854.9 499.583   5
  -3  -4   5 10933.5 942.107  19
  -3   4   5 13801.0 1084.30  33
   3   4  -5 13335.4 466.588  32
   3  -4  -5 12764.2 462.301  30
   3  -4  -5 13171.8 1134.43  17
   3   4  -5 12190.3 430.173  16
   3  -4  -5 11585.2 779.680   1
   3  -4  -5 13520.6 485.756  26
   3  -4  -5 12213.9 426.839  25
   3   4  -5 12396.3 783.734   3
   3   4  -5 13092.6 463.911   7
   2   4  -5 2656.61 371.860   3
   2  -4  -5 3458.89 252.347  41
   2  -4  -5 3157.74 240.387  12
   2   4  -5 3113.79 241.493  12
   2   4  -5 3142.84 233.727  38
   2   4  -5 3433.18 232.919   6
   2   4  -5 3387.33 248.246  39
   2  -4  -5 3149.12 248.354   5
  -2   4   5 3473.93 550.777  33
  -2  -4   5 3007.97 508.191  19
   2   4  -5 3331.13 235.744  32
  -2   4   5 3261.51 530.824  18
   2  -4  -5 3264.63 239.439  30
   2  -4  -5 2436.77 511.944  17
   2  -4  -5 2590.11 373.433   1
   2   4  -5 3051.12 207.240  16
   2  -4  -5 3372.64 243.012  26
   2  -4  -5 3474.03 233.959  25
   1   4  -5 16176.8 933.347   3
   1  -4  -5 18147.0 576.563  41
   1  -4  -5 20031.3 611.097  12
   1   4  -5 18148.6 565.980  12
   1   4  -5 18453.1 593.546  39
   1   4  -5 16408.2 556.850  41
   1   4  -5 18153.6 556.147  38
   1   4  -5 18687.0 560.528   6
  -1  -4   5 17979.5 1259.36  19
   1  -4  -5 18367.2 621.209   5
   1   4  -5 18513.1 553.941  32
  -1   4   5 18616.0 1275.19  18
   1  -4  -5 18893.3 579.040  30
   1  -4  -5 20397.2 1467.48  17
   1  -4  -5 16679.5 930.515   1
   1  -4  -5 20187.8 600.014  26
   1  -4  -5 18298.8 550.733  25
   0  -4  -5 957.834 149.421  12
   0  -4  -5 769.817 122.836  41
   0   4  -5 781.569 135.992  41
   0   4  -5 671.426 120.262  39
   0   4  -5 768.824 121.231  38
   0   4  -5 735.650 120.372   6
   0  -4  -5 552.949 176.548   1
   0   4  -5 510.113 175.430   3
   0   4   5 656.007 202.618  34
   0  -4   5 755.891 272.125  19
   0   4  -5 681.853 112.991  32
   0   4   5 1171.28 315.153  18
   0  -4  -5 884.424 151.204   5
   0  -4  -5 726.081 117.972  30
   0  -4  -5 518.528 337.242  17
   0   4  -5 703.096 119.863  29
   0  -4  -5 687.572 125.202  26
   0  -4  -5 755.605 117.839  25
  -1   4  -5 520.412 112.393  41
  -1   4  -5 576.860 121.405  39
  -1   4  -5 464.642 98.8150  38
  -1   4  -5 525.723 187.425   3
   1   4   5 1090.19 276.960  34
   1  -4   5 892.680 298.611  19
  -1   4  -5 668.725 115.034  32
   1  -4   5 541.625 135.166  11
   1   4   5 1441.33 353.603  18
  -1  -4  -5 570.825 125.544   5
  -1  -4  -5 486.335 116.601  30
  -1  -4  -5 951.850 371.162  17
  -1   4  -5 533.242 111.540  29
  -1   4  -5 557.374 99.0847  15
  -1  -4  -5 532.839 112.993  26
  -1  -4  -5 402.193 84.6034  25
  -2   4  -5 121.943 81.8477  41
  -2  -4  -5 151.104 65.1998  40
  -2   4  -5 141.529 75.3439  39
  -2   4  -5 134.308 52.6587  38
  -2   4  -5 29.3673 36.2687  32
   2  -4   5 90.4599 66.2536  11
  -2  -4  -5 18.4066 50.1487   5
  -2  -4  -5 17.9223 51.5292  30
  -2   4  -5 143.765 74.5359  29
  -2   4  -5 75.3648 44.7953  15
  -2  -4  -5 111.583 58.5779  25
  -3   4  -5 1265.75 179.902  41
  -3   4  -5 1533.80 181.308  39
   3  -4   5 1299.00 199.721  11
  -3  -4  -5 1165.37 178.153   5
  -3  -4  -5 1183.08 138.951  31
  -3  -4  -5 1520.63 190.024  30
  -3   4  -5 1352.17 175.087  29
  -3   4  -5 1367.58 156.792  15
  -3  -4  -5 1632.79 168.380  25
  -4   4  -5 6043.36 386.345  41
  -4   4  -5 6357.97 351.579  39
   4  -4   5 6394.83 403.446  11
  -4  -4  -5 6320.41 392.856   5
  -4  -4  -5 5879.86 300.591  31
  -4  -4  -5 6373.27 376.675  30
  -4   4  -5 6607.39 359.152  29
  -4   4  -5 6706.15 326.277  15
  -4  -4  -5 6915.32 324.500  25
   5  -4   5 1188.30 146.601  43
  -5   4  -5 1145.92 163.218  41
  -5   4  -5 1454.91 152.498  39
   5  -4   5 1220.50 167.422  11
  -5  -4  -5 1167.39 158.287   5
  -5  -4  -5 1147.28 122.034  31
  -5  -4  -5 1354.99 165.950  30
  -5   4  -5 1302.33 147.226  29
   6  -4   5 7.89222 33.4050  43
  -6   4  -5-9.15579 41.8577  41
   6  -4   5-30.0956 38.4348  11
  -6  -4  -5-8.09563 35.3438  30
  -6  -4  -5 41.8320 36.1730   5
  -6   4  -5 20.4187 40.9361  29
   6   4   5-16.0645 33.7895  27
  -7   4  -5 37.8419 25.1802  41
  -7   4  -5 32.3410 20.5338   6
  10   5  -5 2446.56 155.640  24
  10   5  -5 1802.30 112.738  12
 -10   5   5 1921.19 191.695  39
  10   5  -5 2169.02 137.997  21
 -10  -5   5 2391.40 156.020  31
  10  -5  -5 2043.25 143.805   7
 -10  -5   5 2139.87 172.615  15
  10  -5  -5 2181.09 140.816  26
   9  -5  -5 658.288 102.908   7
   9   5  -5 798.503 107.662  12
   9   5  -5 779.054 102.913  21
  -9  -5   5 715.577 103.777  31
   9   5  -5 682.704 85.7394  16
   9  -5  -5 595.127 94.7984  26
   9   5  -5 745.991 98.2406  14
   8   5  -5 35.3288 31.3906  14
   8  -5  -5 46.3535 56.4751   7
  -8  -5   5 58.1464 49.0317  22
   8   5  -5 41.7602 36.2265  12
   8   5  -5 47.3521 36.1234  21
  -8  -5   5 130.317 65.4931  31
   8  -5  -5 45.6888 36.4538  30
   8   5  -5 49.3714 40.2229  16
   8  -5  -5 59.6420 42.7629  26
   7   5  -5 1820.25 175.468  14
  -7  -5   5 2249.71 216.946  22
   7   5  -5 2018.71 212.423  12
   7   5  -5 2119.95 186.358  21
  -7  -5   5 1857.39 193.508  31
   7  -5  -5 2057.93 190.391  30
   7   5  -5 2053.39 184.792  16
   7  -5  -5 1989.60 187.931   7
   7  -5  -5 2011.06 191.559  26
   6   5  -5 438.304 87.0862  14
   6  -5  -5 557.137 107.050   7
   6   5  -5 471.944 81.9126   7
  -6  -5   5 588.858 125.760  22
   6   5  -5 558.769 99.0059  38
   6   5  -5 475.726 91.3743  21
   6   5  -5 454.899 107.558  12
   6  -5  -5 551.256 98.8182  30
   6   5  -5 439.009 92.6169   9
   6   5  -5 443.391 93.7084  16
   6  -5  -5 327.580 82.6832  26
   5  -5  -5 10673.9 463.438  41
  -5  -5   5 9252.20 468.702  22
   5   5  -5 9207.27 454.242  12
   5   5  -5 10436.5 422.301  38
   5   5  -5 9740.93 384.556  21
  -5  -5   5 9667.80 910.023  35
  -5   5   5 10679.5 1039.06  33
   5   5  -5 10197.6 417.361  32
   5  -5  -5 9874.72 425.654  30
   5   5  -5 9801.83 411.039   9
   5   5  -5 10234.9 428.113  16
   5  -5  -5 9739.46 395.601   7
   5  -5  -5 9730.04 424.629  26
   5   5  -5 10490.6 404.135   7
   4  -5  -5 647.755 115.814  41
   4   5  -5 622.256 102.095   7
  -4  -5   5 571.595 124.028  22
   4   5  -5 595.359 108.335  38
   4   5  -5 648.999 110.395   6
   4   5  -5 678.007 133.702  12
   4   5  -5 659.425 184.474   3
  -4  -5   5 216.429 161.750  35
  -4  -5   5 388.022 200.740  19
  -4   5   5 338.087 198.686  33
   4   5  -5 689.524 117.890  32
   4  -5  -5 551.422 105.019   5
   4  -5  -5 763.637 125.836  30
   4   5  -5 604.144 105.882   9
   4   5  -5 562.441 106.432  16
   4  -5  -5 516.090 182.413   1
   4  -5  -5 534.565 99.0124  26
   4  -5  -5 577.684 98.8460  25
   3  -5  -5 1898.83 185.946  41
   3  -5  -5 1947.52 189.507  12
   3   5  -5 1996.61 187.942  39
   3   5  -5 1677.96 189.201  12
   3   5  -5 1764.62 175.643   6
   3   5  -5 1883.45 184.852  38
   3   5  -5 1704.11 303.218   3
   3  -5  -5 2057.07 196.355   5
  -3  -5   5 1576.73 376.708  35
  -3  -5   5 2049.62 419.092  19
  -3   5   5 2106.15 459.469  33
   3   5  -5 1793.09 180.613  32
   3  -5  -5 1820.20 187.788  30
   3  -5  -5 1636.14 307.393   1
   3  -5  -5 2021.78 442.413  17
   3   5  -5 1898.26 178.795  16
   3  -5  -5 1856.21 188.736  26
   3  -5  -5 1897.02 181.153  25
   3   5  -5 1698.65 173.085   7
   2  -5  -5 3477.37 254.000  12
   2  -5  -5 3609.43 258.838  41
   2   5  -5 3459.74 253.917  39
   2   5  -5 3460.62 257.326  12
   2   5  -5 3513.33 253.929   6
  -2  -5   5 3730.37 588.575  35
   2  -5  -5 3669.76 267.929   5
  -2   5   5 2644.84 498.852  33
  -2  -5   5 2958.83 509.944  19
   2   5  -5 3609.63 253.510  32
  -2   5   5 3082.29 561.413  18
   2  -5  -5 3514.97 259.456  30
   2  -5  -5 3226.56 577.701  17
   2  -5  -5 3025.97 418.459   1
   2   5  -5 3321.47 226.188  16
  -2  -5   5 3244.66 257.400  28
   2  -5  -5 3611.52 260.045  26
   2   5  -5 3394.37 252.061  38
   2  -5  -5 3385.47 241.368  25
   2   5  -5 2851.60 397.256   3
   1   5  -5 854.965 141.254  39
   1   5  -5 677.867 115.050  38
   1   5  -5 696.080 111.920   6
   1   5  -5 613.749 191.136   3
  -1  -5   5 678.169 259.968  19
   1  -5  -5 754.983 208.989   1
   1   5  -5 802.764 125.680  32
  -1   5   5 977.061 329.838  18
   1  -5  -5 914.146 141.697   5
   1  -5  -5 927.720 146.615  30
   1  -5  -5 1152.69 369.928  17
   1  -5  -5 779.964 121.471  26
   1  -5  -5 788.902 122.643  25
   0  -5   5 3312.86 249.402  43
   0   5  -5 3715.23 480.763   3
   0   5  -5 3491.00 269.312  39
   0   5  -5 3542.99 257.546  38
   0   5  -5 3489.96 257.493   6
   0  -5  -5 3594.00 282.075   5
   0  -5   5 3518.43 568.084  19
   0   5  -5 3788.02 266.590  32
   0   5   5 4799.38 667.826  18
   0  -5  -5 3807.47 459.394   1
   0  -5  -5 4070.81 287.315  30
   0  -5  -5 5039.28 803.873  17
   0   5  -5 3425.92 254.762  29
   0  -5  -5 3787.80 278.573  26
   0  -5  -5 3740.03 265.090  25
   1  -5   5 2057.08 203.124  43
  -1   5  -5 2269.50 226.018  41
  -1   5  -5 2309.81 226.843  39
  -1   5  -5 2351.20 205.533  38
  -1   5  -5 2399.22 216.200   6
   1  -5   5 2444.38 261.383  11
  -1  -5  -5 2351.11 230.244   5
  -1   5  -5 2470.75 212.397  32
  -1  -5  -5 2337.46 226.564  30
  -1   5  -5 2353.92 215.445  29
  -1  -5  -5 2135.66 219.164  26
  -1  -5  -5 2522.02 219.159  25
   2  -5   5 1220.86 159.836  43
  -2   5  -5 1178.64 174.291  41
  -2  -5  -5 1191.26 149.751  40
  -2   5  -5 1150.67 165.172  39
  -2   5  -5 1117.54 137.757  38
   2  -5   5 1310.70 204.103  11
  -2  -5  -5 1271.32 175.916   5
  -2   5  -5 1141.56 141.332  32
  -2  -5  -5 1179.74 167.374  30
  -2   5  -5 1247.17 159.346  29
  -2   5  -5 1180.08 148.174  15
  -2  -5  -5 1240.49 152.871  25
   3  -5   5 4530.78 304.871  43
  -3   5  -5 4269.94 317.748  41
  -3   5  -5 4755.34 316.660  39
   3  -5   5 4645.11 352.626  11
  -3  -5  -5 4818.56 333.082   5
  -3   5  -5 5060.01 272.898  32
  -3  -5  -5 4445.84 317.684  30
  -3   5  -5 4628.80 298.573  29
  -3   5  -5 4671.14 285.186  15
  -3  -5  -5 4999.69 291.273  25
   4  -5   5 66.4283 61.0255  43
  -4   5  -5-21.8799 55.2237  41
  -4   5  -5 112.918 67.8535  39
   4   5   5-157.476 55.9320  37
   4  -5   5 20.5707 48.4860  11
  -4  -5  -5-52.7232 48.8255   5
  -4  -5  -5 42.9935 68.8252  30
  -4   5  -5 16.1237 47.9756  29
  -4   5  -5 12.3949 38.7221  15
  -4  -5  -5 20.3961 40.8994  25
   5  -5   5 2455.06 189.795  43
  -5   5  -5 2012.01 191.942  41
  -5   5  -5 2231.92 179.466  39
   5   5   5 2385.04 162.892  37
   5  -5   5 1851.46 190.895  11
  -5  -5  -5 1883.41 174.671   5
  -5  -5  -5 2326.04 207.384  30
  -5   5  -5 2089.23 166.533  29
  -5   5  -5 2250.05 162.983  15
   6  -5   5 13.1030 24.8014  43
  -6   5  -5 28.1721 32.3998  41
  -6   5  -5-9.13127 30.3633  39
  -6   5  -5 38.1304 24.6244   6
   6  -5   5-5.58787 43.5933  11
  -6  -5  -5 43.5242 40.5771  30
  -6   5  -5 61.0384 30.3120  29
  10   6  -5 2111.70 127.583  24
 -10   6   5 2117.94 155.510  39
  10   6  -5 2097.81 117.051  21
 -10   6   5 2270.14 162.318  32
 -10  -6   5 2540.95 141.979  31
  10  -6  -5 1914.58 107.077  26
 -10  -6   5 2117.96 148.769  15
   9   6  -5 431.225 70.5685  14
   9  -6  -5 220.142 60.4429   7
  -9  -6   5 333.748 75.5236  22
  -9   6   5 324.409 98.6678  39
   9   6  -5 268.871 61.8198  12
   9   6  -5 347.698 64.9858  21
  -9  -6   5 366.018 69.8731  31
   9   6  -5 266.914 50.9916  16
   9  -6  -5 458.286 72.5781  26
  -8  -6   5 9816.74 400.589  22
   8   6  -5 9390.58 400.657  12
   8   6  -5 9614.52 359.225  21
  -8  -6   5 9791.52 395.374  31
   8  -6  -5 9341.19 359.088  30
   8   6  -5 9938.96 350.601  16
   8  -6  -5 8756.55 353.851   7
   8  -6  -5 9429.76 359.856  26
   8   6  -5 9478.65 351.272  14
   7   6  -5 812.910 115.395  14
   7  -6  -5 639.370 113.926   7
  -7  -6   5 886.431 146.994  22
   7   6  -5 675.331 108.219  21
   7   6  -5 625.524 118.541  12
  -7  -6   5 775.296 125.432  31
   7  -6  -5 773.767 118.912  30
   7   6  -5 723.975 108.834  16
   7  -6  -5 672.126 109.161  26
   6   6  -5 1880.43 176.752  14
  -6  -6   5 1561.28 191.339  22
   6   6  -5 1832.41 199.897  12
   6   6  -5 1843.82 168.288  38
   6   6  -5 1865.88 172.970  21
   6  -6  -5 2021.73 194.998  30
   6   6  -5 1834.91 179.943   9
   6   6  -5 1880.47 181.917  16
   6  -6  -5 1795.32 170.051   7
   6  -6  -5 1814.89 182.237  26
  -5  -6   5 5640.71 374.057  22
   5   6  -5 5700.07 354.833  12
   5   6  -5 6190.80 320.979  38
   5   6  -5 6050.56 298.628  21
   5   6  -5 6203.87 326.133  32
   5  -6  -5 6250.25 345.815  30
   5   6  -5 6058.95 328.791   9
   5   6  -5 5772.52 321.055  16
   5  -6  -5 6086.02 333.189  26
   5   6  -5 6627.93 307.458   7
   4  -6  -5 50.0028 40.9990  25
   4  -6  -5 110.115 49.7884  41
   4   6  -5 150.200 57.5652   7
  -4  -6   5 139.479 81.4506  22
   4   6  -5 148.890 69.2054  38
   4   6  -5 61.4475 62.8779  12
   4   6  -5 142.712 64.0369  32
   4  -6  -5 178.416 61.4120  30
   4   6  -5 138.655 57.9735   9
   4   6  -5 204.966 70.3155  16
   4  -6  -5 85.6197 51.7133  26
   3  -6  -5 13051.3 478.466  41
   3   6  -5 12574.6 470.912  39
   3   6  -5 11267.8 480.330  12
   3   6  -5 12049.7 459.726   6
   3   6  -5 12249.6 479.779  38
   3   6  -5 12424.3 474.190  32
   3  -6  -5 12164.2 486.364  30
   3   6  -5 11983.4 460.580   9
   3   6  -5 11307.5 442.786  16
  -3  -6   5 12387.1 487.353  28
   3  -6  -5 12996.9 490.132  26
   3  -6  -5 12134.7 459.865  25
   3   6  -5 11829.0 446.259   7
   2   6  -5 1913.33 187.421   7
   2   6  -5 1853.52 186.819  39
   2   6  -5 1934.97 191.860  12
   2   6  -5 1989.91 188.767   6
   2   6  -5 1842.17 190.172  38
  -2   6   5 1845.59 427.660  33
   2   6  -5 1917.73 191.713  32
   2  -6  -5 2122.93 206.085  30
   2   6  -5 2014.56 182.776  16
  -2  -6   5 2078.54 208.059  28
   2  -6  -5 2099.68 201.996  26
   2  -6  -5 1850.08 184.855  25
   1   6  -5 9486.47 430.492  39
   1   6  -5 9026.07 419.935  38
   1   6  -5 9464.30 414.871   6
   1   6  -5 9273.98 421.851  32
   1  -6  -5 9645.78 446.165  30
   1   6  -5 9242.62 370.083  16
  -1  -6   5 8771.27 433.967  28
   1  -6  -5 8860.69 418.335  26
   1  -6  -5 9095.82 416.044  25
   0  -6   5 2725.31 226.152  43
   0   6  -5 2713.69 238.693  39
   0   6  -5 2906.49 237.879  38
   0   6  -5 2694.79 226.124   6
   0  -6   5 2946.15 277.355  11
   0   6  -5 3129.80 247.065  32
   0  -6  -5 2839.73 248.182  30
   0  -6   5 2652.58 243.800  28
   0  -6  -5 2369.42 224.985  26
   0  -6  -5 2889.32 235.807  25
   1  -6   5-73.0575 72.1849  43
  -1  -6  -5 116.202 52.4133  40
  -1   6  -5 40.7614 43.0074  39
  -1   6  -5 28.6500 35.9533  38
  -1   6  -5 23.1208 47.8450   6
   1  -6   5-183.878 79.3715  11
  -1   6  -5 34.1566 45.6786  32
  -1  -6  -5 58.7933 79.4805  30
  -1  -6  -5 60.1337 71.8248  26
  -1  -6  -5 1.85445 55.1031  25
   2  -6   5 9525.13 434.353  43
  -2   6  -5 9308.67 432.701  41
  -2  -6  -5 9777.72 418.420  40
  -2   6  -5 9122.45 434.805  39
  -2   6  -5 9588.46 400.670  38
  -2   6  -5 9432.16 416.968   6
   2  -6   5 9968.70 505.668  11
  -2  -6  -5 9307.00 425.671   5
  -2   6  -5 10025.8 414.719  32
  -2  -6  -5 9918.12 469.221  30
  -2   6  -5 10569.3 430.214  29
  -2  -6  -5 10596.1 426.777  25
   3  -6   5 2801.96 232.704  43
  -3   6  -5 2332.92 215.100  41
  -3   6  -5 2614.15 225.563  39
  -3   6  -5 2554.65 188.653  38
  -3   6  -5 2473.80 207.142   6
   3  -6   5 2542.19 250.048  11
  -3   6  -5 2413.06 189.515  32
  -3  -6  -5 2595.08 238.804  30
  -3   6  -5 2472.96 202.283  29
  -3   6  -5 2554.61 204.681  15
  -3  -6  -5 2820.98 206.663  25
   4  -6   5 5727.82 306.563  43
  -4   6  -5 5522.66 306.158  41
  -4   6  -5 6116.10 317.936  39
  -4   6  -5 5770.52 288.879   6
   4   6   5 6295.52 288.324  37
   4  -6   5 5294.35 325.808  11
  -4  -6  -5 5410.04 320.219  30
  -4   6  -5 5831.39 280.330  29
   4  -6   5 5732.41 308.051  28
  -4  -6  -5 6114.99 262.604  25
   5  -6   5 631.090 90.6567  43
  -5   6  -5 532.857 88.2886  41
  -5   6  -5 635.484 89.2526  39
  -5   6  -5 581.255 83.0675   6
   5   6   5 627.675 80.0964  37
   5  -6   5 605.318 101.166  11
  -5  -6  -5 707.818 110.012  30
  -5   6  -5 527.829 73.5595  29
   5  -6   5 539.883 83.9835  28
   6  -6   5 677.321 69.2233  43
  -6   6  -5 499.409 64.8874  41
  -6   6  -5 657.561 69.3466  39
  -6   6  -5 608.326 64.0762   6
   6  -6   5 512.020 76.2514  11
  -6  -6  -5 526.895 73.8035  30
   6   6   5 640.224 76.0734  27
   9   7  -5 830.858 89.2483  24
  -9  -7   5 730.659 83.6771  22
   9   7  -5 653.075 81.6302  12
   9   7  -5 665.741 74.8523  21
  -9   7   5 828.266 103.138  32
  -9  -7   5 849.340 95.6270  31
   9  -7  -5 707.424 72.7652  26
  -8  -7   5 1498.58 146.095  22
   8   7  -5 1521.50 151.389  12
   8   7  -5 1657.32 136.444  21
  -8   7   5 1279.83 142.686  32
  -8  -7   5 1575.43 146.561  31
   8  -7  -5 1508.72 135.936  30
   8   7  -5 1582.38 126.400  16
   8  -7  -5 1348.11 121.945  26
   8   7  -5 1456.50 125.323  14
  -7  -7   5 909.634 134.834  22
   7   7  -5 709.199 99.7239  21
   7   7  -5 715.251 117.353  12
  -7  -7   5 720.760 113.420  31
   7  -7  -5 642.020 104.863  30
   7   7  -5 756.736 103.452  16
   7  -7  -5 716.035 99.8614  26
   7   7  -5 704.995 99.1062  14
   6   7  -5 2448.01 191.739  14
  -6  -7   5 2427.35 228.069  22
   6   7  -5 2296.93 217.234  12
   6   7  -5 2554.66 180.718  38
   6   7  -5 2416.12 181.870  21
  -6  -7   5 2363.17 204.107  31
   6  -7  -5 2391.37 205.230  30
   6   7  -5 2447.50 203.918   9
   6   7  -5 2459.59 198.795  16
   6  -7  -5 2550.76 199.288  26
  -5  -7   5 710.858 141.411  22
   5   7  -5 773.152 114.042  38
   5   7  -5 740.631 104.569  21
   5   7  -5 627.689 114.742  12
   5   7  -5 926.803 127.266  32
   5  -7  -5 896.762 131.919  30
   5   7  -5 777.594 117.934   9
   5   7  -5 884.434 129.214  16
   5  -7  -5 840.421 122.784  26
   5  -7  -5 801.804 109.313  25
  -4  -7   5 14211.6 588.525  22
   4   7  -5 13159.4 515.118  12
   4   7  -5 14149.8 490.350  38
   4   7  -5 14584.7 499.321  32
   4  -7  -5 14681.5 532.860  30
   4   7  -5 13520.9 492.775   9
   4   7  -5 13893.9 494.879  16
   4  -7  -5 14545.6 504.603  26
   4   7  -5 15254.6 463.455   7
   4  -7  -5 14431.6 485.350  25
   3  -7  -5 675.860 111.494  25
   3   7  -5 571.161 98.0100   7
   3   7  -5 580.609 104.049  38
   3   7  -5 480.877 97.3270   6
   3   7  -5 628.433 118.036  12
   3   7  -5 569.430 103.600  32
   3  -7  -5 660.457 123.525  30
   3   7  -5 671.125 115.482   9
   3   7  -5 729.911 119.757  16
  -3  -7   5 644.095 111.607  28
   3  -7  -5 710.323 122.506  26
   2   7  -5 9818.59 408.982   7
   2   7  -5 10750.7 431.799  39
   2   7  -5 10174.3 419.529  12
   2   7  -5 10107.9 420.317   6
   2   7  -5 10070.0 439.089  38
   2   7  -5 10912.4 453.081  32
   2  -7  -5 10513.4 464.179  30
   2   7  -5 9942.45 404.326  16
  -2  -7   5 10253.4 453.401  28
   2  -7  -5 10989.1 447.752  26
   2  -7  -5 9965.83 429.062  25
   1   7  -5 8789.35 402.201  39
   1   7  -5 9155.47 401.862   6
   1   7  -5 8824.53 416.650  38
  -1  -7   5 9621.01 480.097  11
   1   7  -5 9312.41 420.362  32
   1  -7  -5 9927.12 454.917  30
   1   7  -5 8705.11 361.228  16
  -1  -7   5 8796.55 429.552  28
   1  -7  -5 9330.10 417.138  26
   1  -7  -5 8986.07 412.809  25
   0  -7   5 2337.87 206.524  43
   0   7  -5 2360.72 214.991  39
   0   7  -5 2460.49 220.332  38
   0   7  -5 2146.91 199.025   6
   0  -7   5 2422.88 247.804  11
   0   7  -5 2391.19 215.282  32
   0  -7  -5 2219.20 218.509  30
   0  -7   5 2241.88 225.836  28
   0  -7  -5 2454.06 219.478  26
   0  -7  -5 2579.48 224.362  25
   1  -7   5 5277.87 310.156  43
  -1  -7  -5 5003.08 285.259  40
  -1   7  -5 4675.07 300.545  39
  -1   7  -5 4914.04 297.060  38
  -1   7  -5 4704.12 284.921   6
   1  -7   5 4919.92 352.063  11
  -1   7  -5 4906.73 297.483  32
  -1  -7  -5 5326.44 335.625  30
   1  -7   5 4891.59 326.569  28
  -1  -7  -5 5292.82 305.239  25
   2  -7   5 443.773 94.9045  43
  -2  -7  -5 645.195 110.432  40
  -2   7  -5 363.117 87.8374  39
  -2   7  -5 675.810 106.983  38
  -2   7  -5 441.140 91.3926   6
   2  -7   5 542.185 122.043  11
  -2   7  -5 484.009 93.2885  32
  -2  -7  -5 534.972 114.083  30
   2  -7   5 472.083 108.500  28
  -2  -7  -5 594.838 101.620  25
   3  -7   5 117.991 53.6093  43
  -3   7  -5 125.513 52.4579  39
  -3   7  -5 96.0206 45.2485   6
   3  -7   5 58.8546 54.4024  11
  -3   7  -5 102.279 46.5996  32
  -3  -7  -5 135.497 68.1257  30
   3  -7   5 157.405 63.0934  28
  -3  -7  -5 134.425 47.9041  25
   4  -7   5 5274.09 260.692  43
  -4   7  -5 4829.10 252.434  39
  -4   7  -5 5080.56 239.839   6
   4   7   5 5321.82 244.214  37
   4  -7   5 5192.07 289.525  11
  -4  -7  -5 5269.07 286.198  30
  -4   7  -5 4383.35 223.576  41
   4  -7   5 4867.57 256.141  28
  -4  -7  -5 4855.87 197.623  25
   5  -7   5 495.909 70.3684  43
  -5   7  -5 448.234 67.6953  39
  -5   7  -5 514.104 65.6171   6
   5   7   5 421.192 58.7889  37
   5  -7   5 475.089 82.9444  11
  -5  -7  -5 529.514 80.9504  30
   9   8  -5 116.902 37.1735  24
  -9   8   5 167.079 51.8946  38
  -9  -8   5 130.342 34.9492  31
  -9  -8   5 63.2203 28.0285  15
  -8  -8   5 1220.97 116.363  22
   8   8  -5 998.143 105.032  12
   8   8  -5 1230.80 98.2510  21
  -8  -8   5 1246.38 112.147  31
   8  -8  -5 1162.87 105.373  30
   8   8  -5 1139.19 90.8406  16
   8  -8  -5 1129.45 84.9002  26
   8   8  -5 894.094 83.6889  14
   7   8  -5 265.690 49.9948  14
  -7  -8   5 264.431 70.6242  22
   7   8  -5 217.690 71.1245  12
   7   8  -5 297.461 61.6668  21
  -7  -8   5 271.912 64.4223  31
   7  -8  -5 201.463 52.8118  30
   7   8  -5 279.126 63.8546  16
   7  -8  -5 222.460 57.6117  26
   6   8  -5 3562.18 211.805  14
  -6  -8   5 3830.43 264.968  22
   6   8  -5 3347.86 236.383  12
  -6  -8   5 3676.17 229.749  31
   6  -8  -5 3436.95 225.368  30
   6   8  -5 3217.55 213.289   9
   6   8  -5 3545.64 218.859  16
   6  -8  -5 3502.90 207.868  26
   5   8  -5 371.954 77.5264  14
  -5  -8   5 471.125 111.110  22
   5   8  -5 430.935 78.2738  38
   5   8  -5 380.880 89.4603  12
   5  -8  -5 493.389 98.4367  30
   5   8  -5 444.648 87.3836   9
   5   8  -5 430.919 88.8733  16
   5  -8  -5 448.187 88.1682  26
  -4  -8   5 916.727 146.813  22
   4   8  -5 712.000 106.838  38
   4   8  -5 630.595 109.708  12
   4   8  -5 964.409 125.763  32
   4  -8  -5 646.766 112.969  30
   4   8  -5 734.977 114.515   9
   4   8  -5 741.158 112.868  16
   4  -8  -5 878.692 117.830  26
   4  -8  -5 680.348 103.498  25
  -3  -8   5 104.433 60.4846  22
   3   8  -5 24.2349 39.3168  38
   3   8  -5-39.4084 42.0693  12
   3   8  -5 12.0243 34.3836  32
   3  -8  -5 34.5667 49.1391  30
   3   8  -5 94.3285 57.4200   9
   3   8  -5 20.5495 43.4460  16
  -3  -8   5 12.2113 32.8481  28
   3  -8  -5 53.9804 52.7648  26
   3  -8  -5 132.476 68.7839  25
   2   8  -5 103.184 46.9634   7
   2   8  -5 245.197 65.1442  39
   2   8  -5 250.868 79.7454  38
   2   8  -5 162.599 54.7120   6
  -2  -8   5 288.230 86.5104  11
   2   8  -5 206.527 72.5754  32
   2  -8  -5 276.844 86.4082  30
   2   8  -5 174.427 56.2002  16
  -2  -8   5 167.284 67.8232  28
   2  -8  -5 161.092 73.2469  26
   2  -8  -5 264.220 77.1133  25
   1   8  -5 142.159 56.3173   7
   1   8  -5 228.922 70.4191  39
   1   8  -5 301.539 86.6758  38
   1   8  -5 137.316 50.7023   6
  -1  -8   5 182.034 72.0513  11
   1   8  -5 49.1155 39.2646  32
   1  -8  -5 199.142 78.0615  30
   1   8  -5 167.225 59.0237  16
  -1  -8   5 145.839 63.3792  28
   1  -8  -5 108.356 61.1722  26
   1  -8  -5 147.536 61.8206  25
   0  -8   5 1091.32 133.969  43
   0   8  -5 1304.16 148.200  39
   0   8  -5 1032.72 129.246   6
   0   8  -5 1058.91 140.348  38
   0  -8   5 1256.43 174.026  11
   0   8  -5 1151.32 141.959  32
   0  -8  -5 1096.26 150.018  30
   0  -8   5 1050.60 151.170  28
   0  -8  -5 1111.60 138.737  26
   0  -8  -5 1219.75 146.657  25
   1  -8   5-19.3764 39.4261  43
  -1   8  -5 107.879 58.0851  39
  -1   8  -5-4.14727 38.2911  38
  -1   8  -5 20.7915 46.6557   6
   1  -8   5 101.200 63.3172  11
  -1   8  -5 58.9901 42.5828  32
  -1  -8  -5 69.2214 73.0292  30
   1  -8   5 30.3342 40.7410  28
  -1  -8  -5 39.2846 42.1662  25
   2  -8   5 6883.00 315.870  43
  -2   8  -5 6735.98 312.323  39
  -2   8  -5 6395.45 294.692  38
  -2   8  -5 6645.28 292.787   6
   2  -8   5 6421.01 346.556  11
  -2   8  -5 6639.59 300.683  32
  -2  -8  -5 6947.71 351.428  30
   2  -8   5 6884.79 336.413  28
  -2  -8  -5 6812.44 295.629  25
   3  -8   5 121.343 52.3559  43
  -3   8  -5 118.319 48.0501  39
  -3   8  -5 59.7687 39.4814   6
   3  -8   5 79.7839 47.6635  11
  -3   8  -5 103.540 42.7791  32
  -3  -8  -5 69.0196 46.0236  30
   3  -8   5 119.139 57.3029  28
  -3  -8  -5 133.550 35.4446  25
   4  -8   5 836.658 92.0402  43
  -4   8  -5 783.215 87.7439  39
  -4   8  -5 785.990 77.7005   6
   4   8   5 821.668 84.5447  37
   4  -8   5 795.743 101.544  11
  -4  -8  -5 853.914 102.418  30
   4  -8   5 813.952 91.1688  28
   8   9  -5 46.3409 25.0633  12
  -7  -9   5 3664.51 194.319  22
   7   9  -5 3532.07 186.152  12
  -7   9   5 3565.05 189.921  38
  -7  -9   5 3765.99 176.177  31
   7  -9  -5 3709.38 182.971  30
   7   9  -5 3687.59 164.893  16
   7   9  -5 3198.49 144.998  14
   6   9  -5 8830.32 284.134  14
  -6  -9   5 8677.43 340.595  22
   6   9  -5 8129.51 313.532  12
  -6   9   5 7992.84 302.038  38
  -6  -9   5 8967.52 303.194  31
   6  -9  -5 9152.77 325.400  30
   6   9  -5 8845.85 302.694  16
   5   9  -5 2331.96 162.684  14
   5   9  -5 1966.05 163.789  12
   5   9  -5 2153.13 140.409  38
  -5  -9   5 2183.61 191.016  22
  -5  -9   5 2071.45 157.416  31
   5  -9  -5 2066.17 171.401  30
   5   9  -5 2021.76 162.485   9
   5   9  -5 2026.00 159.832  16
   5  -9  -5 2110.41 143.827  26
  -4  -9   5 25975.1 678.186  22
   4   9  -5 25152.9 543.057  38
   4   9  -5 26604.4 563.039  32
  -4  -9   5 23744.6 540.231  31
   4  -9  -5 25569.7 623.845  30
   4   9  -5 24692.2 585.878   9
   4   9  -5 25230.6 583.533  16
  -4  -9   5 25558.4 536.548  28
   4  -9  -5 26358.8 538.986  26
   4  -9  -5 24095.4 552.693  25
  -3  -9   5 1341.91 162.563  22
   3   9  -5 1174.56 131.224  38
   3   9  -5 1242.99 134.617  32
   3  -9  -5 1098.58 136.996  30
   3   9  -5 1302.58 142.198   9
   3   9  -5 1168.25 131.543  16
  -3  -9   5 1246.80 136.027  28
   3  -9  -5 1438.80 135.893  26
   3  -9  -5 1481.08 147.782  25
  -2  -9   5 12679.1 491.622  22
   2   9  -5 12820.6 431.230  38
  -2  -9   5 13107.4 462.957  11
   2   9  -5 13201.4 437.256  32
   2  -9  -5 13436.2 474.544  30
   2   9  -5 12671.9 432.383   9
   2   9  -5 12150.1 397.039  16
  -2  -9   5 12811.5 439.849  28
   2  -9  -5 13590.3 412.445  26
   2  -9  -5 12897.5 436.587  25
   1   9  -5 24205.4 552.094   6
   1   9  -5 22704.5 579.044  38
  -1  -9   5 24139.3 636.258  11
   1   9  -5 23634.5 588.020  32
   1  -9  -5 24085.1 639.590  30
  -1  -9   5 22916.4 600.981  28
   1  -9  -5 22466.4 576.568  25
   1   9  -5 22717.7 512.594   7
   0   9  -5 3238.65 201.302   7
   0  -9   5 3327.25 199.342  43
   0   9  -5 3422.07 197.515  39
   0   9  -5 3539.64 206.463   6
   0   9  -5 3424.45 223.090  38
   0  -9   5 3426.52 242.614  11
   0   9  -5 3553.06 225.593  32
   0  -9  -5 3619.57 249.629  30
   0  -9   5 3598.57 237.755  28
   0  -9  -5 3353.26 216.966  25
   1  -9   5 15071.3 413.993  43
  -1   9  -5 15867.6 409.526   6
  -1   9  -5 15354.2 441.489  38
   1  -9   5 15398.0 486.252  11
  -1   9  -5 15817.7 445.206  32
  -1  -9  -5 15586.8 488.848  30
   1  -9   5 15615.1 469.746  28
  -1  -9  -5 15340.7 426.726  25
  -1   9  -5 15322.7 410.490  39
   2  -9   5 1484.58 125.919  43
  -2   9  -5 1470.78 123.836  39
  -2   9  -5 1400.04 111.313   6
  -2   9  -5 1435.89 122.730  38
   2  -9   5 1685.75 150.743  11
  -2   9  -5 1461.50 124.084  32
  -2  -9  -5 1465.69 143.677  30
   2  -9   5 1484.16 136.403  28
  -2  -9  -5 1336.87 112.397  25
   3  -9   5 4922.94 198.982  43
  -3   9  -5 4725.78 189.191  39
  -3   9  -5 4312.75 159.734   6
   3  -9   5 4824.91 221.321  11
  -3   9  -5 4964.99 189.803  32
  -3  -9  -5 4968.78 229.144  30
   3  -9   5 5058.13 209.696  28
  -6 -10   5 653.627 76.6177  22
   6 -10  -5 677.236 78.6279  30
   6  10  -5 671.948 67.9651  16
   5  10  -5 62.9068 29.2866  14
  -5 -10   5 97.5037 44.7137  22
   5 -10  -5 67.1820 37.8508  30
   5  10  -5 141.042 41.4995   9
   5  10  -5 58.9894 27.1592  16
  -4 -10   5 60.0854 41.5077  22
   4  10  -5 92.2930 28.6019  38
   4 -10  -5 86.0475 37.2458  30
   4  10  -5 75.4753 32.0567   9
   4  10  -5 179.193 48.7092  16
   4  10  -5 101.389 41.3316  14
   4 -10  -5 101.108 35.2228  25
  -3 -10   5 1932.43 163.483  22
   3  10  -5 1737.51 127.405  38
   3  10  -5 1776.06 131.283  32
   3 -10  -5 1731.06 147.771  30
   3  10  -5 1634.92 135.991   9
   3  10  -5 1553.90 128.100  16
  -3 -10   5 1579.89 123.410  28
  -3  10   5 1662.49 126.343  16
   3 -10  -5 1806.55 140.119  25
  -2 -10   5 512.777 89.0245  22
   2  10  -5 473.548 75.0360  38
  -2 -10   5 451.616 78.2338  11
   2  10  -5 554.489 81.1419  32
   2 -10  -5 526.563 83.9120  30
   2  10  -5 404.858 70.4708   9
   2  10  -5 497.895 71.4668  16
  -2 -10   5 513.312 81.1824  28
   2 -10  -5 626.564 88.2430  25
  -1 -10   5 1020.10 121.412  22
   1  10  -5 942.682 102.631  38
  -1 -10   5 947.267 104.402  11
   1  10  -5 898.264 99.0412  32
   1 -10  -5 1157.57 123.406  30
   1  10  -5 1074.77 112.985   9
  -1 -10   5 975.195 109.432  28
   1 -10  -5 1068.14 111.747  25
   0 -10   5 146.042 46.1574  22
   0  10  -5 135.681 48.2841  38
   0  10   5 190.026 41.6989  21
   0 -10   5 190.894 56.5634  11
   0  10  -5 147.946 43.0809  32
   0 -10  -5 149.361 52.2635  30
   0  10  -5 135.893 46.0945   9
   0 -10   5 116.332 43.8745  28
   0 -10  -5 141.458 41.7391  25
   1 -10   5 36.9973 21.1321  43
  -1  10  -5-14.5277 23.1992   7
  -1  10  -5 26.6831 29.4512  38
   1 -10   5 42.4853 32.8754  11
  -1  10  -5 70.7910 29.5731  32
  -1 -10  -5 55.7103 38.7624  30
   1 -10   5 30.2936 33.8454  28
  -1 -10  -5 24.5787 25.2797  25
   2 -10   5 801.776 68.0465  43
  -2  10  -5 765.688 71.7324  38
   2 -10   5 829.008 81.9346  11
  -2  10  -5 922.147 78.2289  32
  -2 -10  -5 848.115 86.9761  30
   2 -10   5 917.216 84.0828  28
  -4 -11   5 5551.61 196.790  22
   4 -11  -5 5668.78 193.118  30
   4  11  -5 5351.75 173.164  16
   3  11  -5 267.688 41.7407  14
  -3 -11   5 290.126 50.6705  22
   3 -11  -5 260.856 49.7148  30
   3  11  -5 225.497 41.4685   9
   3  11  -5 272.511 43.9251  16
   3 -11  -5 250.491 43.6517  25
  -2 -11   5 1667.38 119.097  22
   2  11  -5 1419.85 90.2512  38
   2  11  -5 1498.66 91.8260  32
   2 -11  -5 1488.61 110.098  30
   2  11  -5 1544.03 102.887   9
  -2 -11   5 1589.00 99.2847  28
   2 -11  -5 1506.06 102.744  25
  -1 -11   5 7338.12 235.734  22
   1  11  -5 7288.75 208.952  38
   1  11  -5 7139.40 203.903  32
   1 -11  -5 7519.98 238.097  30
   1  11  -5 7181.20 215.619   9
  -1 -11   5 6992.35 211.211  28
   1 -11  -5 6975.74 212.045  25
   0 -11   5 482.149 57.6165  22
   0  11  -5 458.905 51.9438  38
   0  11  -5 473.793 52.0333  32
   0 -11  -5 440.069 56.1656  30
   0  11  -5 493.470 55.0664   9
   0 -11   5 430.715 53.5778  28
   0 -11  -5 462.195 50.4237  25
 -11   0   6 4893.58 276.805  29
  11   0  -6 3470.95 141.138   7
 -10   0   6 2544.62 244.744  29
  10   0  -6 2447.58 166.019   7
   9   0  -6 28634.2 634.426  21
   9   0  -6 28232.0 636.057   7
   9   0  -6 27391.9 592.288  26
   8   0  -6 3529.19 240.136  21
   8   0  -6 3870.74 253.457   7
   8   0  -6 3230.51 225.356  26
   7   0  -6 46249.0 899.676  12
   7   0  -6 44044.0 849.524  21
   7   0  -6 43240.8 835.030  26
   7   0  -6 45454.6 888.524   7
   7   0  -6 41231.6 808.043  14
   6   0  -6 36838.0 843.500  41
   6   0  -6 35739.2 824.143  12
   6   0  -6 35705.7 751.547  21
   6   0  -6 37540.8 915.493   5
   6   0  -6 35060.5 752.109  26
   6   0  -6 35973.9 792.749   7
   6   0  -6 34298.6 713.354  14
   5   0  -6 3938.08 284.259  41
   5   0  -6 4029.93 282.677  12
   5   0  -6 3690.35 238.473  21
   5   0  -6 3659.50 286.165   5
  -5   0   6 3562.93 609.860  35
   5   0  -6 3665.72 245.974  16
   5   0  -6 3895.18 249.857  26
   5   0  -6 3865.22 264.770   7
   4   0  -6 204136. 2057.22  41
   4   0  -6 202235. 2001.59  12
   4   0  -6 212182. 2152.43   5
   4   0  -6 210696. 1757.03  16
   4   0  -6 210069. 1875.89   7
   3   0  -6 55397.9 1079.05  41
   3   0  -6 53934.9 1034.39  12
   3   0  -6 54294.5 1089.83   5
   3   0  -6 51966.6 831.738  16
   3   0  -6 54026.2 943.970   7
   2   0  -6 121916. 1636.94  41
   2   0  -6 129294. 1599.44  12
   2   0  -6 127619. 1342.65  38
   2   0  -6 124212. 1682.17   5
   2   0  -6 120741. 1299.97  25
   2   0  -6 119638. 2240.69   3
   2   0  -6 119651. 1392.83   7
   1   0  -6 52829.8 1110.28  41
   1   0  -6 56275.3 1052.38  12
   1   0  -6 56217.8 972.982  39
   1   0  -6 52867.9 1127.31   5
  -1   0   6 51742.7 2282.67  19
   1   0  -6 59148.1 2283.93  17
   1   0  -6 53473.5 904.548  25
   1   0  -6 53381.7 923.705   7
   0   0  -6 1116.05 173.917  41
   0   0  -6 1709.79 196.345  12
   0   0  -6 1562.29 166.645  39
   0   0   6 1746.04 343.184  34
   0   0   6 1685.96 426.242  19
   0   0  -6 1140.40 173.065   5
   0   0  -6 1396.91 168.783  29
   0   0  -6 1394.66 161.538  25
   0   0  -6 1441.78 149.485   7
  -1   0  -6 65136.1 1281.59  41
  -1   0  -6 68334.7 1050.56  39
  -1   0  -6 66043.7 1171.00  29
  -1   0  -6 66588.6 1080.27  25
  -2   0  -6 16454.7 644.278  41
  -2   0  -6 16493.1 658.921   5
  -2   0  -6 16908.6 594.215  29
  -3   0  -6 10890.0 502.233  41
  -3   0  -6 11203.0 529.742   5
  -3   0  -6 10935.8 459.870  29
  -4   0  -6 13807.1 522.173  41
  -4   0  -6 13050.7 533.336   5
  -4   0  -6 13570.0 469.022  29
  -5   0  -6 77.3218 37.7795  41
  -5   0  -6 100.032 58.3710   5
  -5   0  -6 47.9079 31.5753  29
  -6   0  -6 2804.80 161.322   5
 -11   1   6 638.887 116.703  39
 -11  -1   6 942.767 130.561  29
 -11   1   6 895.846 118.761  29
  11  -1  -6 715.399 72.0057   7
  10   1  -6 6776.48 267.241  21
 -10   1   6 6046.33 359.254  29
 -10  -1   6 6776.67 390.657  29
  10  -1  -6 6656.56 271.415   7
  10   1  -6 6149.97 247.122   7
  10  -1  -6 6556.77 261.341  26
   9  -1  -6 290.982 73.6720   7
   9   1  -6 306.540 70.0804   7
   9   1  -6 306.872 73.4936  21
   9  -1  -6 367.339 77.4769  26
   8   1  -6 3042.91 220.967  12
   8  -1  -6 2938.45 220.218  21
   8   1  -6 3012.90 220.484  21
   8  -1  -6 3020.49 227.912   7
   8   1  -6 3009.81 222.323   7
   8  -1  -6 2944.75 224.565  26
   8   1  -6 2530.38 202.776  14
   7  -1  -6 5613.74 299.967  12
   7   1  -6 5478.72 320.876  12
   7  -1  -6 5363.03 301.862  21
   7   1  -6 5017.48 288.778  21
   7   1  -6 5760.20 313.787  16
   7  -1  -6 5523.50 311.670   7
   7  -1  -6 5187.66 300.504  26
   7   1  -6 5788.73 315.962   7
   7   1  -6 5103.17 288.624  14
   6  -1  -6 7776.52 398.332  41
   6   1  -6 7496.28 371.660  41
   6  -1  -6 7912.52 378.831  12
   6   1  -6 6814.67 369.013  12
   6  -1  -6 6877.31 333.036  21
   6   1  -6 7314.15 340.258  21
   6  -1  -6 7837.86 418.709   5
   6   1  -6 7312.87 353.146  16
   6  -1  -6 7138.17 353.642  26
   6  -1  -6 7938.55 371.666   7
   6   1  -6 7646.65 364.447   7
   6   1  -6 7175.97 334.770  14
   5   1  -6 9103.62 364.217  14
   5  -1  -6 9550.92 444.658  41
   5   1  -6 10156.3 440.685  41
   5  -1  -6 9830.38 431.245  12
   5   1  -6 9311.13 437.648  12
   5  -1  -6 9419.74 377.262  21
   5   1  -6 9299.55 366.659  21
   5   1  -6 9526.00 454.699   5
   5  -1  -6 9048.79 449.926   5
  -5   1   6 8207.17 900.069  35
  -5  -1   6 7693.40 948.174  35
   5   1  -6 9442.28 390.243  16
   5  -1  -6 10048.7 414.115  26
   5  -1  -6 9625.32 409.563   7
   5   1  -6 9447.30 404.983   7
   4  -1  -6 16890.2 592.661  41
   4   1  -6 16994.5 580.616  41
   4  -1  -6 16338.9 557.849  12
   4   1  -6 15761.8 565.819  12
   4   1  -6 18007.3 547.971  38
   4   1  -6 17244.1 606.445   5
  -4   1   6 13979.1 1175.18  35
  -4  -1   6 12876.4 1227.95  35
   4  -1  -6 16562.5 598.592   5
   4  -1  -6 15531.4 867.438   1
   4   1  -6 16732.0 501.241  16
   4  -1  -6 16319.8 521.639  26
   4   1  -6 15160.4 847.085   3
   4  -1  -6 16829.4 526.677   7
   4   1  -6 17405.0 546.745   7
   3  -1  -6 269.803 77.5892  41
   3   1  -6 300.102 86.8165  41
   3  -1  -6 278.841 78.9498   7
   3   1  -6 317.764 86.9210   7
   3   1  -6 292.325 79.0037  38
   3  -1  -6 318.684 82.3922  12
   3   1  -6 329.644 98.6032  12
   3   1  -6 647.610 172.265   3
  -3   1   6 148.531 161.289  35
  -3  -1   6 270.095 214.170  35
   3   1  -6 307.266 88.8287   5
   3  -1  -6 292.564 87.9010   5
   3   1  -6 317.507 68.2116  16
   3  -1  -6 362.361 92.8461  26
   2  -1  -6 6954.41 391.308  41
   2   1  -6 7371.50 403.828  41
   2  -1  -6 7185.43 381.512  12
   2   1  -6 7125.75 382.368  12
   2   1  -6 7553.87 371.492  39
   2   1  -6 7354.30 335.598  38
   2   1  -6 6738.19 389.313   5
   2  -1  -6 7119.31 407.306   5
   2  -1  -6 8768.81 931.644  17
   2  -1  -6 7608.31 352.674  26
   2   1  -6 7538.83 325.094  25
   2  -1  -6 7064.96 320.711  25
   2  -1  -6 7205.06 330.549   7
   2   1  -6 6385.78 553.962   3
   2   1  -6 6799.77 344.181   7
   1  -1  -6 7269.41 407.170  41
   1   1  -6 6661.69 395.678  41
   1  -1  -6 8117.20 407.632  12
   1   1  -6 7770.38 390.993  12
   1   1  -6 7364.41 366.262  39
   1   1  -6 7124.26 318.359  38
   1   1  -6 6994.00 327.581   6
  -1   1   6 8179.32 713.887  34
   1   1  -6 7347.15 413.328   5
  -1  -1   6 6303.75 787.444  19
   1  -1  -6 7188.44 423.599   5
   1  -1  -6 8337.34 893.999  17
   1  -1  -6 6911.73 342.761  26
   1   1  -6 7668.02 345.730  25
   1  -1  -6 7018.35 334.214  25
   1   1  -6 7213.05 352.007   7
   1   1  -6 6674.74 575.576   3
   0   1  -6 13523.0 839.408   3
   0  -1  -6 14733.9 594.304  41
   0   1  -6 13883.7 590.901  41
   0  -1  -6 15705.4 564.897  12
   0   1  -6 16363.5 562.681  12
   0   1  -6 15211.5 530.972  39
   0   1  -6 15337.3 495.706   6
   0   1   6 16901.0 1070.54  34
   0  -1   6 15343.7 1270.26  19
   0   1   6 12899.3 1189.54  19
   0   1  -6 14146.7 585.577   5
   0  -1  -6 13955.0 605.088   5
   0  -1  -6 16584.7 1269.10  17
   0  -1  -6 16404.7 555.251  29
   0   1  -6 15118.5 565.976  29
   0  -1  -6 14406.9 501.087  26
   0  -1  -6 14697.2 497.950  25
   0   1  -6 13748.4 484.653   7
  -1   1  -6 1308.29 150.978   7
  -1  -1  -6 1454.91 181.467  12
  -1  -1  -6 1367.67 188.248  41
  -1   1  -6 1540.60 171.413  12
  -1   1  -6 1227.63 179.459  41
  -1   1  -6 1344.79 156.434  39
  -1   1  -6 1268.30 146.852   6
  -1   1  -6 1327.63 191.210   5
  -1  -1  -6 1305.25 193.663   5
  -1  -1  -6 1386.90 170.214  29
  -1   1  -6 1227.82 171.216  29
  -1  -1  -6 1270.05 155.894  25
  -2  -1  -6 4836.63 336.084  41
  -2   1  -6 5190.50 367.622  41
  -2   1  -6 5401.45 302.794  39
  -2   1  -6 5196.17 361.813   5
  -2  -1  -6 4919.82 366.960   5
  -2  -1  -6 5515.57 324.710  29
  -2   1  -6 5199.29 337.597  29
  -2  -1  -6 5614.73 323.423  25
  -3  -1  -6 7713.95 408.020  41
  -3   1  -6 7550.92 424.508  41
  -3   1  -6 7005.39 406.331   5
  -3  -1  -6 6985.47 420.869   5
  -3  -1  -6 7684.41 370.618  29
  -3   1  -6 7524.28 390.491  29
  -4  -1  -6 1640.89 174.304  41
  -4   1  -6 1429.58 173.133  41
  -4   1  -6 1616.07 186.800   5
  -4  -1  -6 1526.97 189.972   5
  -4  -1  -6 1823.19 164.512  29
  -4   1  -6 1789.46 173.838  29
   4   1   6 1563.83 150.317  27
  -5   1  -6 7938.25 345.761  41
   5  -1   6 7574.06 320.287  11
  -5   1  -6 7657.46 334.700   5
  -5  -1  -6 7959.65 364.434   5
  -5   1  -6 8576.94 329.600  29
   5   1   6 7833.30 287.353  27
   6  -1   6 1239.49 98.8138  43
  -6  -1  -6 1124.59 106.988   5
  -6   1  -6 1291.18 98.8597  29
 -11   2   6 836.236 123.914  39
 -11  -2   6 778.444 116.620  29
  11  -2  -6 770.715 72.1505   7
  11  -2  -6 703.606 64.7097  26
  10  -2  -6-6.63037 33.5146   7
  10   2  -6-26.2649 33.1296   7
  10   2  -6 22.8622 27.2846  21
 -10   2   6 65.0620 62.1915  29
 -10  -2   6 151.972 88.6610  29
  10  -2  -6 5.21769 29.2130  26
 -10  -2   6 54.4261 42.5286  15
   9  -2  -6 254.316 71.5712   7
   9   2  -6 310.988 67.1112   7
   9   2  -6 356.521 73.4563  12
   9   2  -6 284.239 71.5810  21
   9  -2  -6 423.449 83.7707  26
  -9  -2   6 278.893 83.1995  15
   8   2  -6 1289.57 140.242  24
   8   2  -6 1202.77 147.791  12
   8   2  -6 1058.78 131.691  21
   8   2  -6 1092.27 133.303  16
   8  -2  -6 956.897 135.864   7
   8   2  -6 979.795 127.948   7
   8  -2  -6 896.094 126.251  26
   8   2  -6 992.429 127.831  14
   7   2  -6 8491.57 409.162  12
   7   2  -6 8149.64 362.138  21
   7   2  -6 8153.92 372.379  16
   7  -2  -6 8115.92 378.162   7
   7  -2  -6 7735.50 374.495  26
   7   2  -6 8359.59 373.510   7
   7   2  -6 7691.60 356.012  14
   6   2  -6 500.114 99.1814  14
   6  -2  -6 557.690 99.7024   7
   6   2  -6 454.486 88.9602   7
   6  -2  -6 444.406 100.525  41
   6   2  -6 524.286 106.124  41
   6  -2  -6 510.657 94.5201  12
   6   2  -6 417.074 100.299  12
   6   2  -6 428.096 88.1429  21
   6  -2  -6 633.154 125.421   5
   6   2  -6 428.684 89.8353  16
   6  -2  -6 432.042 96.3243  26
   5   2  -6 104.455 40.3810  14
   5  -2  -6 151.804 65.9091   7
   5  -2  -6 150.576 83.7321  41
   5   2  -6 144.921 59.6590  41
   5   2  -6 182.003 64.0915  38
   5  -2  -6-0.26292 41.8317  12
   5   2  -6 87.7852 64.1510  12
   5   2  -6 165.340 56.9661  21
   5  -2  -6 196.011 106.700   1
   5   2  -6-72.4663 53.7634   5
   5  -2  -6 61.2976 45.1920   5
   5   2  -6 82.4675 53.4059  16
   5   2  -6 71.0136 41.2146   7
   5  -2  -6 171.996 82.5236  26
   4   2  -6 10241.5 382.762  14
   4  -2  -6 10860.9 476.165  41
   4   2  -6 9222.38 420.684  41
   4  -2  -6 10358.1 442.278  12
   4   2  -6 9038.35 445.652  12
   4   2  -6 10538.7 428.820  38
   4   2  -6 10211.9 456.523   5
  -4   2   6 8545.70 860.962  35
  -4  -2   6 7979.09 963.975  35
   4  -2  -6 9940.54 467.613   5
   4  -2  -6 9563.41 706.757   1
   4   2  -6 9585.28 385.912  16
   4  -2  -6 10050.0 425.574  26
   4  -2  -6 9869.71 396.148   7
   4   2  -6 9590.40 701.967   3
   4   2  -6 10734.3 435.407   7
   3  -2  -6 4997.50 325.945  41
   3   2  -6 4834.85 311.711  41
   3  -2  -6 5057.15 313.191  12
   3   2  -6 4638.40 316.001  12
   3   2  -6 5160.59 279.572   6
   3   2  -6 4573.24 278.435  38
   3   2  -6 4977.33 319.341   5
  -3   2   6 3777.55 579.797  35
  -3  -2   6 4414.49 734.848  35
   3  -2  -6 5266.96 343.648   5
   3   2  -6 5224.27 287.117  32
   3  -2  -6 4361.20 487.803   1
   3  -2  -6 4872.19 704.246  17
   3   2  -6 4938.13 263.681  16
   3  -2  -6 5160.46 304.024  26
   3  -2  -6 4875.80 270.279   7
   3  -2  -6 4886.08 260.916  25
   3   2  -6 5166.53 514.956   3
   3   2  -6 5202.35 305.605   7
   2  -2  -6 3647.07 281.623  41
   2   2  -6 3756.06 285.165  41
   2  -2  -6 3734.30 275.544  12
   2   2  -6 3794.69 281.186  12
   2   2  -6 3654.87 267.560  39
   2   2  -6 3499.97 239.031  38
   2   2  -6 3459.48 234.433   6
  -2   2   6 4085.77 469.358  34
   2   2  -6 3625.74 274.649   5
   2  -2  -6 3806.49 300.851   5
  -2  -2   6 3365.13 584.069  19
   2   2  -6 4011.16 245.148  32
   2  -2  -6 4279.86 686.555  17
   2  -2  -6 3656.10 257.840  26
   2  -2  -6 3729.03 239.958  25
   2   2  -6 3267.10 418.615   3
   2   2  -6 3647.79 260.515   7
   1   2  -6 3786.42 266.577   7
   1   2  -6 3780.42 461.217   3
   1  -2  -6 4250.86 306.708  41
   1   2  -6 3416.48 283.207  41
   1  -2  -6 4060.08 299.330  12
   1   2  -6 4425.42 296.834  12
   1   2  -6 4031.75 279.861  39
   1   2  -6 3836.23 246.581  38
   1   2  -6 4214.96 265.633   6
  -1   2   6 4796.42 547.570  34
   1   2  -6 3875.44 289.420   5
   1  -2  -6 4475.37 339.033   5
  -1  -2   6 3902.21 624.354  19
   1  -2  -6 4312.96 283.599  26
   1  -2  -6 3857.03 254.928  25
   0  -2  -6 3054.01 260.735  12
   0  -2  -6 2723.85 247.344  41
   0   2  -6 2791.57 267.676  41
   0   2  -6 3177.05 246.439  12
   0   2  -6 3155.27 248.953  39
   0   2  -6 2974.61 229.577   6
   0   2  -6 1946.43 332.100   3
   0   2   6 3756.29 512.589  34
   0   2  -6 2686.98 247.929   5
   0  -2  -6 2546.90 263.776   5
   0  -2   6 1970.66 457.496  19
   0   2  -6 3033.47 254.924  29
   0  -2  -6 2491.07 513.237  17
   0  -2  -6 2874.32 237.619  26
   0  -2  -6 3066.32 230.643  25
  -1  -2  -6 7087.60 387.401  12
  -1  -2  -6 6831.36 395.583  41
  -1   2  -6 6405.27 407.038  41
  -1   2  -6 7474.24 381.226  39
  -1   2  -6 7011.72 357.104   6
  -1   2  -6 6421.26 384.305   5
  -1  -2  -6 6942.95 434.079   5
  -1  -2  -6 7425.78 358.147  29
  -1   2  -6 7988.91 416.331  29
  -1  -2  -6 7077.88 359.268  25
  -2  -2  -6 214.993 84.2040  41
  -2   2  -6 197.240 70.2141  41
  -2   2  -6 220.141 67.5180  39
  -2   2  -6 247.586 79.1482   5
  -2  -2  -6 175.768 85.4328   5
  -2  -2  -6 229.090 69.9708  29
  -2   2  -6 274.816 79.5472  29
  -2  -2  -6 237.544 70.0544  25
  -3  -2  -6 109.857 56.7130  41
  -3   2  -6 82.2059 48.0710  41
  -3   2  -6 61.4197 43.5979  39
  -3   2  -6-46.9936 46.8694   5
  -3  -2  -6 175.091 92.3559   5
  -3   2  -6 246.159 89.9870  29
  -3  -2  -6 129.282 58.9092  25
  -4   2  -6 89.2816 73.4083  41
   4  -2   6 290.858 98.5273  11
  -4   2  -6 195.386 66.5912   5
  -4  -2  -6 125.663 71.4266   5
  -4   2  -6 140.460 61.2587  29
   4   2   6 197.598 74.2456  27
  -5   2  -6 197.610 64.1196  41
   5  -2   6 257.176 68.5505  11
  -5   2  -6 206.361 57.4172   5
  -5  -2  -6 117.417 54.4700   5
  -5   2  -6 274.199 65.3176  29
   5   2   6 102.153 45.0786  27
   6  -2   6 83.9863 35.7241  43
  -6   2  -6 49.1244 29.6201  41
  -6  -2  -6 104.661 41.8543   5
  -6   2  -6 65.0721 27.7969  29
  10  -3  -6 530.976 79.5971   7
  10   3  -6 605.087 77.8928  21
 -10  -3   6 641.724 115.668  29
  10  -3  -6 590.135 79.3232  26
 -10  -3   6 554.906 92.5790  15
   9  -3  -6 662.939 101.622   7
   9   3  -6 827.388 104.975  21
   9   3  -6 575.725 88.2363  12
  -9  -3   6 742.361 99.8661  31
  -9   3   6 636.231 117.564  29
   9   3  -6 737.449 93.8656   7
   9  -3  -6 624.576 98.3948  26
  -9  -3   6 433.425 93.2973  15
   9   3  -6 663.370 96.9170  14
   8   3  -6 1935.61 169.232  24
   8   3  -6 1892.65 183.475  12
   8   3  -6 2073.60 178.731  21
  -8  -3   6 2093.27 188.578  31
   8   3  -6 2069.44 177.706  16
   8  -3  -6 1924.69 181.703   7
   8   3  -6 2249.61 176.305   7
   8  -3  -6 1790.76 173.898  26
   8   3  -6 1965.23 173.736  14
   7   3  -6 603.820 106.589  14
   7  -3  -6 567.643 108.456   7
   7   3  -6 490.835 90.4905   7
   7   3  -6 551.234 110.789  12
   7   3  -6 380.848 77.6572  21
   7   3  -6 615.630 107.045  16
   7  -3  -6 529.634 102.277  26
   6   3  -6 3517.21 241.290  14
   6  -3  -6 3326.96 264.887  41
   6   3  -6 3486.81 275.155  12
   6   3  -6 3445.55 228.988  21
   6   3  -6 3410.14 228.776   9
   6   3  -6 3655.44 251.215  16
   6  -3  -6 3581.94 246.135   7
   6  -3  -6 3583.19 259.622  26
   6   3  -6 3458.97 243.519   7
   5   3  -6 189.566 66.3140  14
   5  -3  -6 186.551 64.2734   7
   5  -3  -6 86.4087 54.0671  41
   5   3  -6 257.087 74.3856   7
   5   3  -6 199.148 69.3955  38
   5  -3  -6 221.413 73.2069  12
   5   3  -6 242.875 84.7032  12
   5  -3  -6 173.321 69.6379   5
   5   3  -6 270.016 76.1059   9
   5   3  -6 441.295 92.9160  16
   5  -3  -6 224.004 82.3691  26
   4  -3  -6 103.187 53.0081   7
   4  -3  -6 61.0517 51.8891  41
   4   3  -6 58.7584 40.3393   7
   4   3  -6 62.4697 50.4315  38
   4  -3  -6 48.0149 42.5447  12
   4   3  -6 120.964 68.8121  12
   4   3  -6 62.6945 33.2696   6
  -4  -3   6 121.723 132.524  35
   4  -3  -6-125.743 104.904   1
   4   3  -6 76.1831 47.2671  32
   4   3  -6 78.0335 50.2949   5
   4  -3  -6 109.278 59.5117   5
   4   3  -6 7.88836 34.9159   9
   4   3  -6 61.1159 43.8257  16
   4  -3  -6 53.9136 60.9886  26
   3  -3  -6 50.7088 47.2763  41
   3   3  -6-43.5110 44.3140  41
   3   3  -6 120.187 65.0389   7
   3   3  -6 674.565 118.945  39
   3   3  -6 130.498 55.5154  38
   3  -3  -6 215.721 79.6315  12
   3   3  -6 29.3350 46.2230  12
   3   3  -6 93.1163 48.1381   6
   3   3  -6 300.299 131.289   3
   3  -3  -6 184.791 112.279   1
  -3  -3   6 406.418 248.276  35
  -3  -3   6 27.5728 54.0637  19
   3   3  -6 143.009 57.9590  32
   3   3  -6 380.512 89.4034   5
   3  -3  -6 81.5603 60.4912   5
   3  -3  -6 458.106 287.354  17
   3   3  -6 129.113 52.1825  16
   3  -3  -6 167.326 78.6271  26
   3  -3  -6 58.9518 51.9201  25
   2  -3  -6 1023.63 146.888  41
   2  -3  -6 1298.02 168.327  12
   2   3  -6 1042.45 148.337  41
   2   3  -6 1095.06 155.844  12
   2   3  -6 1151.77 155.650  39
   2   3  -6 1241.91 152.633  38
   2   3  -6 984.660 129.094   6
   2  -3  -6 945.630 238.032   1
   2   3  -6 728.961 202.400   3
   2   3  -6 1239.62 159.118   5
   2  -3  -6 1151.66 169.463   5
   2   3  -6 1120.36 138.984  32
   2  -3  -6 1009.54 360.053  17
   2  -3  -6 1023.02 145.682  26
   2  -3  -6 1151.97 140.944  25
   2   3  -6 1123.44 148.744   7
   1   3  -6 1495.71 177.993   7
   1  -3  -6 1693.15 193.223  41
   1  -3  -6 1756.97 196.567  12
   1   3  -6 1757.31 202.185  41
   1   3  -6 1665.53 178.348  12
   1   3  -6 1766.59 191.229  39
   1   3  -6 1505.07 160.805  38
   1   3  -6 1626.87 174.343   6
   1   3  -6 1999.33 340.452   3
   1   3  -6 1801.10 188.831   5
  -1   3   6 1674.67 312.627  34
   1  -3  -6 1795.27 217.044   5
  -1  -3   6 605.049 272.196  19
   1   3  -6 1612.18 158.157  32
   1  -3  -6 1613.49 449.117  17
   1  -3  -6 1660.42 185.281  26
   1  -3  -6 1617.55 168.643  25
   0  -3  -6 1455.93 179.608  12
   0  -3  -6 1370.25 175.690  41
   0   3  -6 1279.39 155.041  12
   0   3  -6 1045.39 160.329  41
   0   3  -6 1361.07 167.831  39
   0   3  -6 1340.70 143.133  38
   0   3  -6 1272.76 155.320   6
   0   3  -6 1433.14 172.608   5
   0  -3  -6 1361.35 190.908   5
   0   3  -6 1086.08 156.503  29
   0  -3  -6 1506.02 181.568  26
   0  -3  -6 1313.00 154.801  25
  -1  -3  -6 318.316 85.8450  41
  -1   3  -6 199.687 76.4395  41
  -1   3  -6 350.654 94.3858  39
  -1   3  -6 366.512 88.9423   6
  -1   3  -6 382.430 92.8182   5
  -1  -3  -6 305.272 90.5794   5
  -1  -3  -6 430.929 96.0368  30
  -1   3  -6 353.956 97.8429  29
  -1  -3  -6 368.957 97.2998  25
  -2  -3  -6 99.0019 56.0824  41
  -2   3  -6 115.796 68.4783  41
  -2   3  -6 109.682 60.9348  39
  -2   3  -6 77.6295 50.0203   6
  -2   3  -6 74.5337 55.5293   5
  -2  -3  -6 46.8709 49.3790   5
  -2  -3  -6 75.9639 44.3321  30
  -2   3  -6 43.2920 59.1573  29
  -2  -3  -6 36.6204 38.3477  25
  -3   3  -6 1152.67 166.795  41
  -3   3  -6 1370.16 153.707  39
  -3   3  -6 1351.05 151.196   6
   3  -3   6 1421.70 172.384  11
  -3  -3  -6 1486.72 191.970   5
  -3  -3  -6 1171.54 148.767  30
  -3   3  -6 1434.09 167.620  29
  -3  -3  -6 1383.07 148.974  25
  -4   3  -6 477.511 103.524  41
  -4   3  -6 644.799 98.1423   6
   4  -3   6 546.959 105.715  11
  -4  -3  -6 420.919 99.4639   5
  -4   3  -6 473.543 92.8235  29
  -5   3  -6 1359.52 139.334  41
  -5   3  -6 1521.67 121.173   6
   5  -3   6 1532.34 136.830  11
  -5  -3  -6 1512.67 148.651   5
  -5   3  -6 1573.74 136.140  29
   5   3   6 1370.36 120.074  27
   5  -3   6 1599.06 137.227  43
  -6   3  -6 34.1185 26.9731  41
  10  -4  -6 85.8821 39.2706   7
 -10   4   6 134.759 77.3748  39
  10   4  -6 11.6976 30.1124  21
  10  -4  -6 35.3672 35.6609  26
   9   4  -6 1388.29 130.905  12
   9   4  -6 1452.88 129.717  21
  -9  -4   6 1554.62 141.888  31
   9  -4  -6 1407.49 136.213   7
   9  -4  -6 1485.69 138.430  26
   9   4  -6 1335.65 127.425  14
   8   4  -6 1566.19 167.180  12
   8   4  -6 1395.15 143.842  21
  -8  -4   6 1863.75 180.816  31
   8   4  -6 1364.26 140.826  16
   8  -4  -6 1320.39 143.853   7
   8   4  -6 1530.45 140.167   7
   8  -4  -6 1419.21 151.442  26
   8   4  -6 1440.72 144.414  14
   7   4  -6 65.0124 69.9216  14
   7  -4  -6 11.6876 52.1507   7
   7   4  -6 38.5139 39.8583   7
   7   4  -6 32.5399 59.0937  12
   7   4  -6 22.4902 38.6947  21
   7   4  -6 18.4201 32.0614  16
   7  -4  -6-115.222 56.0720  26
   6   4  -6 3418.00 238.952  14
   6   4  -6 3270.35 267.885  12
   6   4  -6 3262.75 217.546  21
   6   4  -6 3398.58 234.093   9
   6   4  -6 3149.49 235.381  16
   6  -4  -6 3139.50 226.934   7
   6  -4  -6 3189.07 244.837  26
   6   4  -6 3477.50 235.890   7
   5   4  -6 891.593 123.708  14
   5  -4  -6 812.475 115.572   7
   5  -4  -6 847.809 138.686  41
   5   4  -6 668.294 113.853  38
   5   4  -6 587.656 123.041  12
   5  -4  -6 862.814 137.713   5
   5   4  -6 729.785 113.926   9
   5   4  -6 820.685 124.276  16
   5  -4  -6 849.160 129.888  26
   5   4  -6 876.152 126.801   7
   4  -4  -6 4449.41 303.415  41
   4  -4  -6 4714.79 289.461  12
   4   4  -6 3826.32 288.693  12
   4   4  -6 4600.21 292.401  38
   4  -4  -6 4401.96 301.942   5
   4   4  -6 4549.05 285.696  32
   4   4  -6 4426.83 265.367   9
   4   4  -6 4082.62 261.175  16
   4  -4  -6 4276.74 288.708  26
   4   4  -6 4023.90 268.308   7
   3  -4  -6 473.095 98.6203  41
   3   4  -6 524.665 106.840   7
   3   4  -6 495.772 106.439  39
   3   4  -6 601.379 111.402  38
   3  -4  -6 556.329 114.340  12
   3   4  -6 481.294 105.690  12
   3   4  -6 418.795 87.3511   6
   3   4  -6 452.411 90.1837  32
   3  -4  -6 556.105 116.009   5
   3   4  -6 396.764 81.9078   9
   3   4  -6 629.091 102.624  16
   3  -4  -6 571.458 116.378  26
   3  -4  -6 417.797 85.5156  25
   2  -4  -6 5903.48 342.358  41
   2  -4  -6 5589.77 334.470  12
   2   4  -6 6108.88 342.393  41
   2   4  -6 5614.04 338.404  12
   2   4  -6 5693.31 342.079  39
   2   4  -6 5530.59 319.614  38
   2   4  -6 5629.49 316.171   6
   2  -4  -6 5863.34 358.457   5
   2   4  -6 6082.66 321.900  32
   2  -4  -6 5590.77 312.590  30
   2  -4  -6 5932.93 342.420  26
   2  -4  -6 5585.22 306.748  25
   2   4  -6 5714.45 331.280   7
   1   4  -6 1373.98 165.106   7
   1  -4  -6 1494.34 182.244  12
   1  -4  -6 1386.93 168.703  41
   1   4  -6 1396.07 174.513  41
   1   4  -6 1348.45 161.440  12
   1   4  -6 1309.68 168.181  39
   1   4  -6 1442.19 159.501  38
   1   4  -6 1495.70 167.579   6
   1  -4  -6 1290.59 180.897   5
   1   4  -6 1537.94 160.862  32
   1  -4  -6 1408.42 166.120  30
   1  -4  -6 1442.41 176.934  26
   1  -4  -6 1424.57 164.191  25
   0  -4  -6 2028.69 201.167  41
   0   4  -6 2030.88 212.254  41
   0   4  -6 2107.93 212.609  39
   0   4  -6 2100.07 187.092  38
   0   4  -6 1924.14 189.945   6
   0  -4  -6 2182.91 232.166   5
   0   4  -6 2052.09 180.960  32
   0  -4  -6 1968.39 194.815  30
   0  -4  -6 2010.28 206.673  26
   0  -4  -6 1995.58 193.906  25
  -1  -4  -6 5402.55 310.712  41
  -1   4  -6 5029.36 341.669  41
  -1   4  -6 5057.78 322.329  39
  -1   4  -6 5317.37 279.387  38
  -1   4  -6 4924.08 302.813   6
  -1  -4  -6 5552.01 367.551   5
  -1  -4  -6 5419.99 327.926  30
  -1   4  -6 5145.64 324.384  29
  -1  -4  -6 5259.71 307.673  25
  -2   4  -6 96.1518 72.5685  41
  -2   4  -6 67.5352 52.5606  39
  -2   4  -6 90.9882 51.7389   6
  -2  -4  -6 57.6521 49.6204   5
  -2  -4  -6 61.9126 58.0892  30
  -2   4  -6 59.3205 60.2625  29
  -2  -4  -6 86.4494 51.7956  25
   3  -4   6 3097.97 234.848  43
  -3   4  -6 3013.19 251.422  41
  -3   4  -6 3396.37 238.549  39
  -3   4  -6 3024.25 218.593   6
   3  -4   6 3307.79 256.713  11
  -3  -4  -6 3219.24 257.148   5
  -3  -4  -6 3240.60 240.635  30
  -3   4  -6 3495.58 245.026  29
  -3  -4  -6 3769.56 231.938  25
   4  -4   6 2835.85 199.737  43
  -4   4  -6 2543.05 207.907  41
  -4   4  -6 2884.69 188.696  39
  -4   4  -6 2617.84 181.705   6
   4  -4   6 2591.80 202.143  11
  -4  -4  -6 2494.60 201.015   5
  -4  -4  -6 2904.12 207.082  30
  -4   4  -6 2888.96 199.104  29
   5  -4   6 402.257 69.4111  43
  -5   4  -6 326.991 68.3726  41
  -5   4  -6 418.389 64.4470   6
   5  -4   6 480.266 72.7482  11
  -5  -4  -6 354.822 67.9743   5
  -5   4  -6 477.691 73.8959  29
   5   4   6 374.523 69.5819  27
  10  -5  -6 182.103 41.2464   7
  10   5  -6 159.993 36.1626  21
 -10   5   6 223.853 61.6792  32
  10  -5  -6 181.197 36.4162  26
 -10  -5   6 167.332 51.2438  15
   9   5  -6 2109.06 150.435  12
   9   5  -6 1923.81 135.140  21
  -9  -5   6 2283.55 163.318  31
   9  -5  -6 2052.25 147.360   7
   9  -5  -6 2258.63 153.785  26
   9   5  -6 2103.94 144.972  14
   8   5  -6 77.3533 49.7240  14
   8  -5  -6 122.454 54.2503   7
   8   5  -6 113.130 54.2356  12
   8   5  -6 102.768 47.7770  21
  -8  -5   6 22.1774 39.4467  31
   8   5  -6 77.3894 50.0499  16
   8  -5  -6 6.40878 39.1844  26
   7   5  -6 1592.62 177.697  12
   7   5  -6 1822.81 156.980  21
  -7  -5   6 1746.24 179.756  31
   7   5  -6 1843.34 169.221  16
   7  -5  -6 1799.27 164.015   7
   7  -5  -6 1879.50 176.458  26
   7   5  -6 1791.16 145.843   7
   7   5  -6 1923.08 173.439  14
   6   5  -6-37.1513 36.1344  14
   6  -5  -6-121.231 53.1965   7
   6   5  -6 19.1344 38.9544   7
   6   5  -6 39.6348 50.2896  38
   6   5  -6 2.08047 48.4568  12
   6   5  -6 126.633 45.4337  21
   6  -5  -6-22.1654 44.4649  30
   6   5  -6 12.2520 37.9615   9
   6   5  -6 14.7918 35.1101  16
   6  -5  -6-31.7581 41.1262  26
   5   5  -6 144.564 54.2377  14
   5  -5  -6 79.7630 64.1496  41
   5   5  -6 156.641 63.8218   7
   5   5  -6 37.9673 37.8971  38
   5   5  -6 84.3155 72.6763  12
   5  -5  -6 105.835 64.4987   5
   5  -5  -6-51.0572 45.9404  30
   5   5  -6 68.1087 42.4409   9
   5   5  -6 89.1985 50.0549  16
   5  -5  -6 84.1766 55.8178  26
   4  -5  -6 579.312 107.810  41
   4   5  -6 413.734 91.6153   7
  -4  -5   6 498.494 119.924  22
   4  -5  -6 667.477 118.435  12
   4   5  -6 546.122 110.061  38
   4   5  -6 482.014 109.694  12
   4   5  -6 549.191 105.989  32
   4  -5  -6 478.789 104.045   5
   4  -5  -6 430.986 84.9298  30
   4   5  -6 597.845 103.563   9
   4   5  -6 502.032 93.7815  16
   4  -5  -6 643.418 112.557  26
   4  -5  -6 457.715 85.3046  25
   3  -5  -6 1995.83 198.739  12
   3  -5  -6 1686.34 177.200  41
   3   5  -6 1526.70 181.826  12
   3   5  -6 1593.80 172.981   6
   3   5  -6 1685.45 178.188  38
   3  -5  -6 1654.56 184.875   5
   3   5  -6 1789.54 182.624  32
   3  -5  -6 1758.92 176.005  30
   3   5  -6 1838.62 173.984   9
   3   5  -6 1814.00 169.772  16
   3  -5  -6 1629.34 177.589  26
   3  -5  -6 1519.00 157.507  25
   3   5  -6 1737.45 180.967   7
   2  -5  -6 10.2958 33.0123  41
   2   5  -6 18.8866 51.9152   7
   2   5  -6-15.0987 41.7690  39
   2   5  -6-32.5032 41.7650  38
   2   5  -6 35.3317 65.9032  12
   2   5  -6 9.01719 40.5100   6
   2   5  -6-13.5517 50.1369  32
   2  -5  -6-99.2984 56.9424   5
   2  -5  -6-2.41192 54.6922  30
   2   5  -6 23.3188 32.3962  16
  -2  -5   6-17.0671 43.8983  28
   2  -5  -6-7.59740 52.8548  26
   2  -5  -6 23.5231 36.5610  25
   1  -5  -6 993.621 134.179  41
   1   5  -6 919.045 145.552  39
   1   5  -6 841.948 131.550   7
   1   5  -6 922.723 132.081  38
   1   5  -6 922.676 130.613   6
   1   5  -6 943.303 130.843  32
   1  -5  -6 733.866 128.153   5
   1  -5  -6 998.044 146.591  30
  -1  -5   6 920.184 145.287  28
   1  -5  -6 921.780 141.538  26
   1  -5  -6 915.703 135.424  25
   0  -5   6 3850.04 261.171  43
   0   5  -6 4328.65 290.562  41
   0   5  -6 4129.20 292.309  39
   0   5  -6 3994.52 258.884  38
   0   5  -6 4361.11 283.685   6
   0  -5  -6 4230.88 302.345   5
   0   5  -6 4206.82 262.004  32
   0  -5  -6 4211.98 290.375  30
   0  -5  -6 4294.96 294.908  26
   0  -5  -6 3845.78 267.899  25
   1  -5   6 1278.36 154.978  43
  -1   5  -6 1194.36 161.177  41
  -1   5  -6 1221.31 157.334  39
  -1   5  -6 1331.06 142.877  38
  -1   5  -6 1093.25 140.157   6
  -1  -5  -6 1287.05 163.283   5
  -1   5  -6 1135.83 129.977  32
  -1  -5  -6 1192.85 152.633  30
  -1  -5  -6 1521.29 163.480  25
   2  -5   6 4839.52 287.231  43
  -2   5  -6 4833.73 304.607  41
  -2   5  -6 4836.12 295.821  39
  -2   5  -6 5029.58 288.689   6
   2  -5   6 4541.07 300.237  11
  -2  -5  -6 4500.66 296.430   5
  -2  -5  -6 5070.64 304.617  30
  -2  -5  -6 5239.49 287.346  25
   3  -5   6 390.965 84.8883  43
  -3   5  -6 434.767 89.5257  41
  -3   5  -6 621.456 99.9126  39
  -3   5  -6 470.298 83.7856   6
   3  -5   6 649.947 112.761  11
  -3  -5  -6 497.842 93.6048   5
  -3  -5  -6 506.634 97.8672  30
  -3   5  -6 568.539 94.7479  29
  -3  -5  -6 560.523 86.7490  25
   4  -5   6 326.030 70.6186  43
  -4   5  -6 208.779 63.2478  41
  -4   5  -6 302.888 63.9374  39
  -4   5  -6 257.355 56.6790   6
   4  -5   6 339.067 69.7591  11
  -4  -5  -6 321.500 82.7623  30
   4  -5   6 307.763 68.4079  28
   5  -5   6 180.391 42.2108  43
  -5   5  -6 169.222 50.0238  41
  -5   5  -6 228.684 42.3453   6
   5  -5   6 198.466 43.8112  28
   9   6  -6 6145.64 228.392  12
   9   6  -6 5790.44 200.575  21
  -9   6   6 5443.48 234.185  32
   9  -6  -6 6238.33 217.686  26
   9   6  -6 5542.12 205.289  14
   8   6  -6 2204.94 172.956  12
   8   6  -6 2312.67 150.580  21
  -8  -6   6 2151.76 169.870  31
   8   6  -6 2223.56 153.450  16
   8  -6  -6 2335.79 163.322  26
   8   6  -6 2199.24 154.307  14
   7   6  -6 2136.72 192.452  12
  -7  -6   6 2554.92 201.582  31
   7   6  -6 2500.06 184.275  16
   7  -6  -6 2502.59 187.195  26
   7   6  -6 2479.61 181.533  14
   6   6  -6 5315.70 280.151  14
  -6  -6   6 4714.19 297.703  22
   6   6  -6 5160.24 314.779  12
   6  -6  -6 5218.93 272.799  30
   6   6  -6 5298.93 283.005   9
   6   6  -6 5542.27 292.748  16
   6  -6  -6 5429.05 291.528  26
   6   6  -6 5525.71 255.079   7
   5   6  -6 1793.76 171.763  14
  -5  -6   6 1769.70 200.195  22
   5   6  -6 1567.70 180.473  12
   5   6  -6 1775.11 171.388  38
   5  -6  -6 1813.51 175.914  30
   5   6  -6 1830.42 173.358   9
   5   6  -6 1510.16 157.188  16
   5  -6  -6 1825.39 179.051  26
   5   6  -6 1735.55 156.595   7
   4  -6  -6 11462.4 442.644  41
   4   6  -6 10013.3 445.200  12
  -4  -6   6 9541.53 478.154  22
   4   6  -6 10402.3 428.392  38
   4   6  -6 11214.4 437.105  32
   4  -6  -6 10454.0 422.608  30
   4   6  -6 10318.0 416.220   9
   4   6  -6 10022.7 401.884  16
   4  -6  -6 10126.0 427.372  26
   4  -6  -6 10105.9 381.582  25
   4   6  -6 10708.3 408.404   7
   3  -6  -6 1524.82 159.632  41
   3   6  -6 1457.88 170.294  12
   3   6  -6 1299.63 153.841   6
   3   6  -6 1113.77 146.663  38
   3   6  -6 1469.97 165.764  32
   3  -6  -6 1399.95 167.046  30
   3   6  -6 1384.45 152.764   9
   3   6  -6 1343.96 147.046  16
   3  -6  -6 1121.22 151.416  26
   3  -6  -6 1382.30 153.795  25
   3   6  -6 1532.00 162.435   7
   2   6  -6 2169.50 196.014  12
   2   6  -6 2457.90 213.648  39
   2   6  -6 2281.42 199.113   6
   2   6  -6 2056.99 198.768  38
   2   6  -6 2112.58 192.954  32
   2  -6  -6 2280.12 208.915  30
   2   6  -6 2321.82 177.890  16
  -2  -6   6 2137.62 202.886  28
   2  -6  -6 2145.62 204.820  26
   2  -6  -6 2420.50 206.531  25
   2   6  -6 2133.61 195.659   7
   1   6  -6 4966.01 300.286   7
   1   6  -6 5067.67 310.432  39
   1   6  -6 5206.55 301.033   6
   1   6  -6 5210.49 302.403  38
   1  -6  -6 5317.32 299.776   5
   1   6  -6 5156.12 295.681  32
   1  -6  -6 5258.19 315.793  30
  -1  -6   6 5093.93 317.694  28
   1  -6  -6 4849.53 307.840  26
   1  -6  -6 5542.99 309.269  25
   0  -6   6 150.578 56.7976  43
   0   6  -6 57.4524 57.5321  39
   0   6  -6 151.924 56.2792  38
   0   6  -6 121.916 61.4211   6
   0   6  -6 38.1431 39.6665  32
   0  -6  -6 95.2490 61.3586  30
   0  -6   6 177.030 77.3311  28
   0  -6  -6 84.5919 66.9389  26
   0  -6  -6 102.194 52.5550  25
   1  -6   6 128.173 74.4758  43
  -1   6  -6 88.3636 51.7867  39
  -1   6  -6 163.609 61.0256  38
  -1   6  -6 158.883 62.8363   6
  -1   6  -6 70.7954 41.8505  32
  -1  -6  -6 91.2411 63.4873  30
   1  -6   6 143.408 65.6110  28
  -1  -6  -6 65.2526 37.5981  25
   2  -6   6 9022.87 363.595  43
  -2   6  -6 7967.25 339.366  41
  -2   6  -6 8663.41 370.370  39
  -2   6  -6 8340.61 345.758   6
   2  -6   6 8130.48 367.908  11
  -2  -6  -6 8796.37 386.617  30
   2  -6   6 8448.53 375.321  28
  -2  -6  -6 8863.03 343.820  25
   3  -6   6 104.182 45.2641  43
  -3   6  -6 119.969 51.9513  41
  -3   6  -6 113.725 49.0728  39
  -3   6  -6 190.540 55.2331   6
   3  -6   6 146.074 60.5918  11
  -3  -6  -6 116.348 54.8024  30
   3  -6   6 92.0233 52.4415  28
  -3  -6  -6 103.932 41.7618  25
  -4   6  -6 1973.18 124.140   7
   4  -6   6 2554.51 152.352  43
  -4   6  -6 1953.61 129.793  41
  -4   6  -6 2511.92 149.372  39
  -4   6  -6 2402.75 141.573   6
   4  -6   6 2246.31 139.440  11
  -4  -6  -6 2348.37 158.712  30
   4  -6   6 2554.92 156.871  28
   8   7  -6-31.2521 31.9432  14
   8   7  -6-69.9742 41.1113  12
  -8  -7   6 17.1677 33.6223  31
   8   7  -6 6.28091 21.9152  16
   8  -7  -6 17.9162 25.3661  26
   7   7  -6 462.084 71.4338  14
  -7  -7   6 548.361 85.2253  22
   7   7  -6 494.168 87.0287  12
  -7  -7   6 475.715 80.8724  31
   7   7  -6 491.958 78.9857  16
   7  -7  -6 483.907 79.4051  26
   6   7  -6 9.36027 31.5066  14
  -6  -7   6 92.8243 73.8942  22
   6   7  -6 6.35937 40.4379  12
  -6  -7   6 30.4112 44.3686  31
   6  -7  -6-2.05718 32.8509  30
   6   7  -6 17.0920 27.9523   9
   6   7  -6 14.1098 27.0208  16
   6  -7  -6 57.6016 39.0990  26
   5   7  -6 219.960 63.4850  14
   5   7  -6 136.182 45.5893   7
  -5  -7   6 329.954 92.8450  22
   5   7  -6 140.171 56.0389  38
   5   7  -6 152.039 66.6219  12
   5  -7  -6 220.693 65.3749  30
   5   7  -6 126.587 50.8609   9
   5   7  -6 95.4785 56.9146  16
   5  -7  -6 127.720 54.0482  26
   4   7  -6 1132.21 136.864  12
  -4  -7   6 944.088 145.373  22
   4   7  -6 1375.74 149.620  38
   4   7  -6 1260.90 141.572  32
   4  -7  -6 1358.30 149.815  30
   4   7  -6 1264.82 140.811   9
   4   7  -6 1304.35 140.831  16
   4  -7  -6 1355.65 151.743  26
   4   7  -6 1336.83 136.030   7
   4  -7  -6 1159.12 126.608  25
   3   7  -6 2564.09 201.067  12
  -3  -7   6 2748.08 243.892  22
   3   7  -6 2713.24 213.839  38
   3   7  -6 3384.71 235.677  32
   3  -7  -6 2870.90 221.416  30
   3   7  -6 2799.14 209.648   9
   3   7  -6 2878.16 201.067  16
   3  -7  -6 3063.89 225.069  26
   3  -7  -6 2693.94 203.523  25
   3   7  -6 3232.74 216.944   7
   2   7  -6 185.008 63.1212   7
   2   7  -6 270.922 76.8030  39
   2   7  -6 203.918 66.0981  38
   2   7  -6 97.4128 49.5861   6
   2   7  -6 246.208 67.3937  32
   2  -7  -6 288.235 82.7462  30
   2   7  -6 214.079 66.5447   9
  -2  -7   6 203.189 69.1415  28
   2  -7  -6 153.486 63.2119  26
   2  -7  -6 164.991 62.9375  25
   1   7  -6 1335.39 149.918  39
   1   7  -6 1114.44 135.603   6
   1   7  -6 1146.22 135.403  38
   1   7  -6 1147.17 136.500  32
   1  -7  -6 1192.06 152.611  30
  -1  -7   6 1165.33 148.372  28
   1  -7  -6 1062.67 136.312  26
   1  -7  -6 1159.97 137.012  25
   1   7  -6 1125.24 136.339   7
   0   7  -6 992.385 127.871   7
   0  -7   6 1135.55 124.795  43
   0   7  -6 1150.38 138.129  39
   0   7  -6 1070.18 128.757   6
   0   7  -6 1054.81 128.083  38
   0   7  -6 1180.49 132.287  32
   0  -7  -6 1185.14 149.677  30
   0  -7   6 1150.57 148.124  28
   0  -7  -6 1090.87 129.463  25
   1  -7   6 1447.63 138.561  43
  -1   7  -6 1317.92 140.536  39
  -1   7  -6 1339.57 130.174  38
  -1   7  -6 1461.71 141.806   6
  -1   7  -6 1413.14 133.791  32
  -1  -7  -6 1399.74 155.485  30
   1  -7   6 1352.14 146.868  28
  -1  -7  -6 1413.35 138.287  25
   2  -7   6 3322.99 195.408  43
  -2   7  -6 3270.61 205.706  39
  -2   7  -6 3322.89 195.697   6
   2  -7   6 3076.04 199.837  11
  -2  -7  -6 3450.68 224.193  30
   2  -7   6 3286.56 212.120  28
  -2  -7  -6 3567.50 198.590  25
   3  -7   6 1337.02 113.374  43
  -3   7  -6 1286.36 113.391  39
  -3   7  -6 1263.51 106.496   6
   3  -7   6 973.136 98.7019  11
  -3  -7  -6 1271.49 122.956  30
   3  -7   6 1376.45 122.689  28
  -3  -7  -6 1122.51 92.0344  25
   4  -7   6 346.425 49.2967  43
  -4   7  -6 430.913 51.6484  39
  -4   7  -6 409.432 47.9670   6
   8   8  -6 50.7331 29.2823  12
  -8  -8   6 87.1035 30.5455  31
   7   8  -6 382.297 60.2822  14
  -7  -8   6 423.723 64.9925  22
  -7   8   6 566.301 79.6673  38
   7   8  -6 451.062 71.5200  12
  -7  -8   6 470.165 71.8220  31
   7   8  -6 442.832 64.1048  16
   7  -8  -6 503.679 64.7450  26
   6   8  -6 2363.95 154.970  14
  -6  -8   6 2399.60 172.923  22
   6   8  -6 2459.18 170.812  12
  -6  -8   6 2659.66 171.558  31
   6  -8  -6 2578.57 164.107  30
   6   8  -6 2715.04 166.753  16
   6  -8  -6 2565.57 156.865  26
   5   8  -6 3144.34 193.372  14
  -5  -8   6 3264.99 224.089  22
   5   8  -6 2969.92 195.339  12
   5   8  -6 3607.21 195.522  38
   5  -8  -6 3414.54 206.289  30
   5   8  -6 3149.42 196.577   9
   5   8  -6 3196.97 194.653  16
   5  -8  -6 3533.53 200.642  26
  -4  -8   6 57.0441 59.2309  22
   4   8  -6-21.8433 33.1117  38
   4   8  -6 5.60882 28.3245  32
   4  -8  -6 1.20936 35.8713  30
   4   8  -6 47.8663 34.6308   9
   4   8  -6-95.7419 43.1875  16
   4  -8  -6-4.89547 37.5362  26
   3   8  -6-19.6652 44.1520   7
  -3  -8   6 38.5510 58.0239  22
   3   8  -6 63.8515 47.8725  38
   3   8  -6 20.6246 42.9337  32
   3  -8  -6 122.485 47.6024  30
   3   8  -6 44.3942 37.3383   9
   3   8  -6-3.67438 26.0029  16
  -3  -8   6 16.2128 46.1222  28
   3  -8  -6 11.5288 45.5631  26
   3  -8  -6 28.8917 33.7836  25
  -2  -8   6 1803.57 187.458  22
   2   8  -6 1825.59 162.061  38
   2   8  -6 1818.77 158.208  32
   2  -8  -6 1975.47 173.007  30
   2   8  -6 1990.18 165.434   9
  -2  -8   6 1641.19 151.330  28
   2  -8  -6 2094.89 172.631  26
   2  -8  -6 1807.74 157.089  25
   2   8  -6 2060.05 159.843   7
   1   8  -6 3655.84 211.076  39
   1   8  -6 3675.90 218.064   6
   1   8  -6 3454.10 216.246  38
   1   8  -6 3500.55 214.813  32
   1  -8  -6 3481.91 230.508  30
   1   8  -6 3708.50 218.847   9
  -1  -8   6 3610.19 226.112  28
   1  -8  -6 3571.42 218.663  26
   1  -8  -6 3555.66 218.329  25
   1   8  -6 3300.62 204.591   7
   0   8  -6 141.451 48.8295   7
   0   8  -6 217.918 60.1868  39
   0   8  -6 178.541 55.6292  38
   0   8  -6 171.822 53.3050   6
   0   8  -6 168.925 50.6757  32
   0  -8  -6 173.736 61.8200  30
   0  -8   6 187.053 62.5769  28
   0  -8  -6 109.742 50.7752  25
   1  -8   6-2.07559 26.0871  43
  -1   8  -6 64.9354 36.7420   7
  -1   8  -6-6.39454 27.4411  39
  -1   8  -6 54.8799 35.2235  38
  -1   8  -6 37.6853 25.5826   6
  -1   8  -6 31.7543 27.6184  32
  -1  -8  -6-7.66487 33.7492  30
   1  -8   6 48.7056 37.4815  28
  -1  -8  -6 4.26445 34.8795  25
  -2   8  -6 586.507 75.3146   7
   2  -8   6 552.407 68.1391  43
  -2   8  -6 564.103 72.3849  39
  -2   8  -6 596.583 72.4847   6
  -2  -8  -6 485.408 77.6367  30
   2  -8   6 605.212 81.5247  28
  -2  -8  -6 523.368 63.8399  25
  -3   8  -6 200.963 39.9619   7
  -3   8  -6 347.598 47.9461  39
  -3  -8  -6 343.127 56.8140  30
   3  -8   6 290.217 46.8194  28
  -6  -9   6 2716.61 146.302  22
  -6  -9   6 2874.05 140.719  31
   6  -9  -6 2653.70 137.722  30
   6   9  -6 3066.94 144.769  16
   6   9  -6 2992.49 139.971  14
   5   9  -6 3769.10 175.818  14
  -5  -9   6 3580.30 193.908  22
  -5  -9   6 3726.20 173.339  31
   5  -9  -6 3508.42 179.854  30
   5   9  -6 3666.25 180.487   9
   5   9  -6 3637.79 173.018  16
   5  -9  -6 3748.30 158.354  26
   4   9  -6 1311.35 113.904  14
  -4  -9   6 1192.54 123.331  22
   4   9  -6 1233.13 104.383  38
  -4  -9   6 1092.82 99.5015  31
   4  -9  -6 1295.55 119.489  30
   4   9  -6 1320.88 116.846   9
   4   9  -6 1409.25 113.094  16
   4  -9  -6 1385.94 108.261  26
  -3  -9   6 38.7146 36.2907  22
   3   9  -6 46.2595 33.9697  38
   3   9  -6 99.5709 35.5251  32
   3  -9  -6 47.2958 33.6421  30
   3   9  -6 63.4049 37.1377   9
   3  -9  -6 105.165 41.3186  26
   3  -9  -6 50.7566 33.4857  25
  -2  -9   6 5296.83 263.723  22
   2   9  -6 5095.48 229.657  38
   2   9  -6 5045.98 227.182  32
   2  -9  -6 5494.00 254.580  30
   2   9  -6 4949.13 227.550   9
  -2  -9   6 4911.29 217.091  28
   2  -9  -6 5061.26 226.358  25
   2   9  -6 4616.93 182.451   7
   1   9  -6 46.9519 31.7761   7
  -1  -9   6-4.91290 40.1308  22
   1   9  -6 60.0450 32.5892  38
   1   9  -6 46.4795 34.0178  32
   1  -9  -6 126.585 48.7265  30
   1   9  -6 25.7376 28.0346   9
  -1  -9   6 107.359 43.5731  28
   1  -9  -6 55.2015 36.5718  25
   0   9  -6 5096.33 210.687  38
   0   9  -6 5376.41 212.812  32
   0  -9  -6 5066.20 231.394  30
   0   9  -6 5130.20 210.070   9
   0  -9   6 4897.65 212.886  28
   0  -9  -6 4879.68 204.834  25
   0   9  -6 4352.14 182.254   7
  -1   9  -6 1.71086 26.9133   7
  -1   9  -6 6.25110 19.0630  38
  -1   9  -6-17.3617 16.7417  32
  -1  -9  -6 74.5317 42.0559  30
  -1   9  -6 2.56347 19.9065   9
   1  -9   6-34.1880 34.1959  28
  -1  -9  -6 18.2516 24.7068  25
   4  10  -6 4366.11 155.298  14
  -4 -10   6 4380.43 174.178  22
   4 -10  -6 4285.94 168.391  30
   4  10  -6 4000.33 156.357   9
   3  10  -6 305.687 48.1366  14
  -3 -10   6 349.638 57.4322  22
   3  10  -6 325.128 46.5276  38
   3 -10  -6 245.781 46.0300  30
   3  10  -6 284.865 44.4223   9
   3 -10  -6 317.960 45.9952  25
  -2 -10   6 4125.93 179.372  22
   2  10  -6 4109.17 159.672  38
   2 -10  -6 4362.42 182.432  30
   2  10  -6 4213.15 167.484   9
   2 -10  -6 4042.02 159.444  25
  -1 -10   6 169.744 38.4565  22
   1  10  -6 168.486 37.2835  38
   1  10  -6 192.822 35.5668  32
   1 -10  -6 186.242 41.3956  30
   1  10  -6 157.997 35.8885   9
   1 -10  -6 215.334 38.4581  25
  10   0  -7 1.83154 30.0507   7
 -10   0   7 124.410 81.4438  29
   9   0  -7-10.7024 36.5317   7
   8   0  -7 26.7043 39.5724   7
   8   0  -7 3.24467 36.8602  12
   7   0  -7-24.7850 51.3788   7
   7   0  -7 0.68261 40.1711  12
   6   0  -7 23.8341 52.3840   7
   6   0  -7 19.8001 36.1644  41
   6   0  -7-35.1819 50.5106  12
   5   0  -7-11.9894 38.8037   7
   5   0  -7 35.8603 47.0162  41
   5   0  -7-13.5889 45.4339  12
   5   0  -7 16.8663 46.8155   5
   4   0  -7-26.1198 52.5980   7
   4   0  -7-153.708 69.2592  41
   4   0  -7 5.26764 52.1824  12
   4   0  -7-34.5940 63.5834   5
   3   0  -7 21.3121 45.5117  41
   3   0  -7 11.9326 35.6621   7
   3   0  -7 106.653 71.0894  12
   3   0  -7 20.7411 46.7888   5
   2   0  -7 36.2823 55.7668  41
   2   0  -7-96.2111 51.3773   7
   2   0  -7 33.9484 55.2194  12
   2   0  -7 17.6185 50.2331   5
   1   0  -7 23.6502 52.1455  41
   1   0  -7 18.9989 47.1828   7
   1   0  -7 9.20482 52.8709  12
   1   0  -7-46.4512 47.5633   5
   0   0  -7 36.6821 38.1468  41
   0   0  -7 20.4219 69.1018  12
   0   0  -7-24.1235 56.3901   5
  -1   0  -7-1.25905 50.2731  41
  -1   0  -7 86.1173 52.7322   5
  -2   0  -7 23.9603 39.4791  41
  -2   0  -7 102.341 60.0609   5
  -3   0  -7 37.8457 39.5811  41
  -3   0  -7 152.102 61.0026   5
  -4   0  -7 40.7429 31.4152  41
  -4   0  -7-5.55677 39.9954   5
  10  -1  -7 381.079 58.0490   7
  10   1  -7 410.557 56.1770   7
 -10   1   7 491.249 106.379  29
 -10  -1   7 434.088 91.9117  29
   9  -1  -7 471.654 80.3974   7
   9   1  -7 469.453 76.6727   7
   8   1  -7 1658.74 149.538  12
   8   1  -7 1670.36 145.882  21
   8  -1  -7 1802.37 161.500   7
   8   1  -7 1883.84 161.058   7
   7  -1  -7 1580.43 154.388  12
   7   1  -7 997.234 130.377  12
   7   1  -7 1100.61 120.775  21
   7  -1  -7 1061.41 122.422  26
   7  -1  -7 1086.36 135.491   7
   7   1  -7 1180.71 140.492   7
   7   1  -7 1003.15 119.927  14
   6  -1  -7 3543.05 260.787  41
   6   1  -7 3531.49 247.452  41
   6  -1  -7 3470.12 245.606  12
   6   1  -7 2948.91 237.233  12
   6  -1  -7 3455.44 271.832   5
   6  -1  -7 3200.72 220.364  26
   6  -1  -7 3328.14 234.204   7
   6   1  -7 3358.43 237.899   7
   6   1  -7 3128.04 203.186  14
   5  -1  -7 570.233 108.535   7
   5   1  -7 637.873 114.262   7
   5  -1  -7 545.953 110.639  41
   5   1  -7 565.402 107.346  41
   5  -1  -7 552.690 109.982  12
   5   1  -7 625.616 117.959  12
   5   1  -7 614.508 117.102   5
   5  -1  -7 603.304 116.136   5
   5  -1  -7 612.875 106.445  26
   4  -1  -7 1364.00 173.674  41
   4   1  -7 1413.21 172.731  41
   4  -1  -7 1227.22 159.292  12
   4   1  -7 1140.52 161.509  12
   4   1  -7 1455.00 179.753   5
   4  -1  -7 1326.16 178.260   5
   4  -1  -7 1338.51 148.478  26
   4  -1  -7 1366.73 146.930   7
   4   1  -7 1205.52 153.874   7
   3  -1  -7 2861.95 258.089  41
   3   1  -7 2924.65 255.298  41
   3  -1  -7 3338.59 263.246  12
   3   1  -7 2786.60 242.081  12
   3   1  -7 3070.26 260.472   5
   3  -1  -7 2973.24 265.669   5
   3  -1  -7 3002.64 219.784  26
   3  -1  -7 3101.63 218.870   7
   3   1  -7 3105.88 233.038   7
   2  -1  -7 1555.65 195.406  41
   2   1  -7 1533.40 191.637  41
   2  -1  -7 1808.48 197.222  12
   2   1  -7 1664.17 185.201  12
   2   1  -7 1644.66 194.571   5
   2  -1  -7 2006.75 222.259   5
   2  -1  -7 1553.89 160.546  26
   2  -1  -7 1726.30 157.764   7
   2  -1  -7 1686.63 160.704  25
   2   1  -7 1621.21 167.329   7
   1  -1  -7 8667.92 446.598  41
   1   1  -7 9029.36 461.614  41
   1  -1  -7 9137.90 426.602  12
   1   1  -7 9318.16 426.399  12
   1   1  -7 8664.86 444.789   5
   1  -1  -7 8791.66 468.831   5
   1  -1  -7 8662.52 366.854  26
   1  -1  -7 8597.38 370.147  25
   1   1  -7 8712.27 377.150   7
   0  -1  -7 288.619 84.7900  41
   0   1  -7 394.955 112.505  41
   0   1  -7 380.948 75.6144   7
   0   1  -7 414.446 86.4007  39
   0  -1  -7 571.434 121.853  12
   0   1  -7 299.074 76.5865  12
   0   1  -7 277.326 94.5942   5
   0  -1  -7 311.885 110.645   5
   0  -1  -7 318.365 79.8568  25
  -1  -1  -7 6761.18 375.529  41
  -1   1  -7 7328.31 404.438  41
  -1   1  -7 6491.74 370.276   5
  -1  -1  -7 6359.10 388.364   5
  -2  -1  -7 242.156 76.7075  41
  -2   1  -7 174.940 71.1103  41
  -2   1  -7 111.085 62.0388   5
  -2  -1  -7 275.879 92.2980   5
  -3  -1  -7 2640.63 191.692  41
  -3   1  -7 2325.64 192.485  41
  -3   1  -7 2351.37 184.669   5
  -3  -1  -7 2360.87 199.716   5
  -4   1  -7 151.952 51.0194  41
  -4   1  -7 145.506 47.5665   5
  -4  -1  -7 132.144 50.8044   5
 -10  -2   7 5900.36 304.457  29
  10  -2  -7 5161.46 191.432   7
   9  -2  -7-20.7093 34.6607   7
   9   2  -7 48.2086 37.6587   7
   9   2  -7 86.5546 42.3052  12
   9   2  -7 52.6313 34.0300  21
  -9   2   7 63.3091 60.0716  29
   9  -2  -7 52.1059 28.6993  26
   8   2  -7 7911.79 324.881  12
   8   2  -7 7795.41 295.174  21
   8  -2  -7 7730.56 321.397   7
   8   2  -7 8023.28 315.775   7
   8  -2  -7 7581.86 304.961  26
   8   2  -7 6974.62 289.888  14
   7   2  -7 4265.60 269.258  12
   7   2  -7 3966.74 220.257  21
   7  -2  -7 4409.40 255.598   7
   7  -2  -7 4109.78 244.508  26
   7   2  -7 4434.42 257.116   7
   7   2  -7 3815.16 227.600  14
   6  -2  -7 1145.52 154.785  41
   6   2  -7 1347.18 145.809  41
   6  -2  -7 1296.69 146.817  12
   6   2  -7 1294.47 164.139  12
   6   2  -7 1146.06 134.982  16
   6  -2  -7 991.517 126.681  26
   6  -2  -7 1306.78 144.801   7
   6   2  -7 1198.78 148.577   7
   6   2  -7 1224.22 132.058  14
   5  -2  -7 20374.3 641.709  41
   5   2  -7 19545.7 582.634  41
   5  -2  -7 19816.6 593.183  12
   5   2  -7 17932.5 601.559  12
   5   2  -7 20416.5 632.691   5
   5  -2  -7 19219.4 641.685   5
   5   2  -7 18663.0 526.098  16
   5  -2  -7 18432.8 553.146  26
   5  -2  -7 18585.7 533.869   7
   5   2  -7 19116.4 572.036   7
   5   2  -7 19273.7 508.105  14
   4  -2  -7 2272.54 221.679  41
   4   2  -7 2227.85 208.738  41
   4  -2  -7 2224.33 208.104  12
   4   2  -7 2139.79 211.889  12
   4   2  -7 2343.84 216.086   5
   4  -2  -7 2128.28 223.164   5
   4   2  -7 2186.08 176.271  16
   4  -2  -7 2206.82 195.642  26
   4  -2  -7 2287.24 186.607   7
   4   2  -7 2189.00 200.796   7
   3  -2  -7 15222.6 575.400  41
   3   2  -7 15933.6 573.261  41
   3  -2  -7 15335.2 552.136  12
   3   2  -7 15682.3 561.641  12
   3   2  -7 15728.3 470.839   6
   3   2  -7 15330.2 496.600  38
   3   2  -7 16558.1 579.981   5
   3  -2  -7 16122.3 612.944   5
   3  -2  -7 15373.1 513.954  26
   3  -2  -7 15987.0 465.051   7
   3  -2  -7 15292.6 457.466  25
   3   2  -7 15278.9 524.238   7
   2  -2  -7 6953.48 391.265  41
   2   2  -7 6631.47 384.326  41
   2  -2  -7 7102.08 380.512  12
   2   2  -7 6834.83 371.388  12
   2   2  -7 7168.34 324.691   6
   2   2  -7 7195.73 328.557  38
   2   2  -7 7562.15 392.462   5
   2  -2  -7 6676.73 403.690   5
   2  -2  -7 7101.74 348.642  26
   2  -2  -7 6786.49 320.981  25
   2   2  -7 7075.01 355.850   7
   1  -2  -7 92.0243 76.0317  41
   1   2  -7 17.0139 50.3820  41
   1   2  -7 25.1914 51.1562   7
   1   2  -7-13.1326 40.6503  39
   1   2  -7 28.2987 26.2585  38
   1  -2  -7 77.1531 60.6601  12
   1   2  -7 82.6278 57.9656  12
   1   2  -7 36.0565 51.5769   6
   1   2  -7-5.98000 55.1458   5
   1  -2  -7-20.0461 53.4291   5
   1  -2  -7 51.4093 53.8211  26
   1  -2  -7-36.0289 44.9332  25
   0  -2  -7 11892.1 480.665  12
   0  -2  -7 11155.0 479.359  41
   0   2  -7 11157.3 501.673  41
   0   2  -7 11696.8 438.299  12
   0   2  -7 11452.9 443.199  39
   0   2  -7 11534.1 407.687   6
   0   2  -7 10995.5 469.643   5
   0  -2  -7 11275.7 522.415   5
   0  -2  -7 11825.9 438.766  25
   0   2  -7 11422.4 422.888   7
  -1  -2  -7 3766.84 266.702  41
  -1   2  -7 3617.89 283.072  41
  -1   2  -7 3649.60 235.555  39
  -1   2  -7 3369.21 214.298   6
  -1   2  -7 3533.04 253.936   5
  -1  -2  -7 3920.50 300.746   5
  -1  -2  -7 3790.02 243.744  25
  -1   2  -7 3590.74 222.280   7
  -2  -2  -7 1084.17 133.206  41
  -2   2  -7 842.806 129.256  41
  -2   2  -7 956.924 126.678   5
  -2  -2  -7 875.609 139.277   5
  -3   2  -7 10899.5 405.348  41
  -3   2  -7 10166.5 336.547   5
  -3  -2  -7 10504.5 407.571   5
   4  -2   7 135.141 45.4823  43
  -4   2  -7 25.5878 31.3704  41
  -4  -2  -7 70.0669 36.8072   5
 -10  -3   7 655.910 100.689  29
  10  -3  -7 515.817 61.3795   7
   9  -3  -7-37.9011 37.3705   7
   9   3  -7 46.7545 31.8278   7
   9   3  -7 52.4358 35.7674  12
   9  -3  -7 91.0782 38.7651  26
   8   3  -7 26.7676 33.0092  14
   8  -3  -7-46.1596 44.4007   7
   8   3  -7 5.72095 33.3830   7
   8   3  -7 62.9685 49.6514  12
   8  -3  -7 57.7916 44.4410  26
   7   3  -7 1222.42 150.202  12
  -7  -3   7 1024.96 132.760  31
   7   3  -7 1232.20 134.986  16
   7  -3  -7 1163.75 129.057   7
   7  -3  -7 1343.09 141.081  26
   7   3  -7 1252.97 131.180   7
   7   3  -7 1297.91 131.810  14
   6   3  -7 474.172 84.8443  14
   6  -3  -7 555.205 96.4572   7
   6   3  -7 447.034 90.9160   7
   6  -3  -7 578.751 109.670  41
   6  -3  -7 389.386 75.5059  12
   6   3  -7 501.961 104.559  12
   6   3  -7 512.826 91.7129  16
   6  -3  -7 578.294 105.751  26
   5   3  -7 422.679 73.6854  14
   5  -3  -7 455.729 86.0449   7
   5  -3  -7 550.713 110.853  41
   5   3  -7 599.176 106.443   7
   5  -3  -7 542.875 98.5355  12
   5   3  -7 499.359 108.493  12
   5  -3  -7 601.928 118.711   5
   5   3  -7 520.191 91.4871  16
   5  -3  -7 584.655 103.975  26
   4   3  -7 333.691 65.0742  14
   4  -3  -7 277.313 65.0669   7
   4  -3  -7 379.924 94.7097  41
   4   3  -7 260.721 72.3815  41
   4   3  -7 291.155 78.3469   7
   4   3  -7 374.843 86.6477  38
   4  -3  -7 370.589 94.8176  12
   4   3  -7 367.171 95.1909  12
   4   3  -7 362.300 70.4372   5
   4  -3  -7 341.994 87.5517   5
   4   3  -7 313.387 70.6491  16
   4  -3  -7 242.559 77.7192  26
   3  -3  -7 1394.10 173.407  41
   3   3  -7 1366.82 163.050  41
   3  -3  -7 1354.15 166.696  12
   3   3  -7 1190.60 155.164  12
   3   3  -7 1340.91 146.076   6
   3   3  -7 1307.32 145.985  38
   3   3  -7 1416.72 160.503   5
   3  -3  -7 1241.81 168.692   5
   3  -3  -7 1204.47 148.766  26
   3  -3  -7 1371.63 140.450  25
   3   3  -7 1304.15 159.903   7
   2  -3  -7 3142.22 254.081  41
   2  -3  -7 3308.13 261.644  12
   2   3  -7 3138.57 251.564  41
   2   3  -7 3082.89 243.259  12
   2   3  -7 3143.68 222.559   6
   2   3  -7 3365.29 233.702  38
   2   3  -7 3166.39 235.027   5
   2  -3  -7 3094.09 267.353   5
   2  -3  -7 3365.12 248.113  26
   2  -3  -7 3113.79 219.692  25
   2   3  -7 3255.67 245.738   7
   1  -3  -7 132.215 62.7935  41
   1   3  -7 77.1438 58.5209  41
   1   3  -7 116.906 63.3541   7
   1   3  -7 45.7620 38.2680  39
   1   3  -7 158.709 52.7087  38
   1  -3  -7 237.324 90.0146  12
   1   3  -7 141.832 59.8213  12
   1   3  -7 129.757 52.3190   6
   1   3  -7 85.7354 54.1514   5
   1  -3  -7 24.0396 59.8583   5
   1  -3  -7 210.984 83.8679  26
   1  -3  -7 140.553 63.5918  25
   0  -3  -7 609.289 107.388  41
   0   3  -7 603.971 120.513  41
   0   3  -7 626.426 105.739   7
   0   3  -7 704.531 111.470  39
   0   3  -7 644.615 102.040   6
   0   3  -7 550.298 98.9906   5
   0  -3  -7 744.425 140.211   5
   0  -3  -7 563.651 99.4647  25
  -1  -3  -7 834.908 118.669  41
  -1   3  -7 818.725 131.736  41
  -1   3  -7 796.074 113.217  39
  -1   3  -7 684.419 100.573   7
  -1   3  -7 850.242 112.325   6
  -1  -3  -7 724.879 125.599   5
  -1  -3  -7 795.301 114.427  25
  -2   3  -7 173.668 65.7827  41
  -2   3  -7 224.147 58.9024  39
  -2   3  -7 155.798 46.1595   6
  -2  -3  -7 195.805 73.7760   5
   3  -3   7 4089.77 216.192  43
  -3   3  -7 3745.09 225.139  41
  -3  -3  -7 3898.36 231.448   5
   4  -3   7 201.808 44.2435  43
  -4   3  -7 199.048 47.1884  41
  -4  -3  -7 152.341 42.6778   5
   9  -4  -7 16.8378 29.4927   7
   9   4  -7-17.4395 31.8640  12
   9  -4  -7 52.5646 33.3555  26
   8   4  -7 39.7995 26.6830  14
   8  -4  -7 121.176 43.9041   7
   8   4  -7 121.036 44.0668   7
   8   4  -7 121.956 57.5587  12
  -8  -4   7 40.2757 35.9529  31
   8  -4  -7 86.0073 39.5935  26
   7   4  -7 882.943 125.077  12
  -7  -4   7 772.656 113.745  31
   7   4  -7 938.553 111.345  16
   7  -4  -7 805.453 111.176  26
   7   4  -7 818.074 101.971   7
   7   4  -7 719.264 100.532  14
   6   4  -7 1407.51 162.727  12
   6   4  -7 1443.78 144.825  16
   6  -4  -7 1682.98 165.626  26
   6   4  -7 1378.98 142.907   7
   6   4  -7 1524.62 145.662  14
   5   4  -7 9543.33 364.066  14
   5  -4  -7 9820.99 420.762  41
   5  -4  -7 9312.41 366.790  12
   5   4  -7 8607.61 405.378  12
   5  -4  -7 9752.67 420.170   5
   5   4  -7 8871.89 356.063  16
   5  -4  -7 9173.24 392.912  26
   5   4  -7 9410.30 384.619   7
   4   4  -7 3752.37 229.402  14
   4  -4  -7 3787.94 262.777  41
   4  -4  -7 3971.46 259.615  12
   4   4  -7 3513.34 259.830  12
   4   4  -7 3909.22 256.076  38
   4  -4  -7 3747.43 269.235   5
   4   4  -7 3599.10 219.558  16
   4  -4  -7 3525.31 248.786  26
   4   4  -7 3730.80 251.731   7
   3   4  -7 13000.0 412.241  14
   3  -4  -7 13513.0 499.699  41
   3  -4  -7 13735.3 497.229  12
   3   4  -7 12904.3 490.109  12
   3   4  -7 13248.3 454.236   6
   3   4  -7 13389.8 470.163  38
   3  -4  -7 13509.2 518.172   5
   3  -4  -7 13085.6 478.177  26
   3  -4  -7 12792.7 420.403  25
   3   4  -7 13578.9 486.445   7
   2  -4  -7 4774.15 294.047  41
   2   4  -7 4848.18 286.843  41
   2   4  -7 4553.79 281.613  12
   2   4  -7 4485.11 266.700   6
   2   4  -7 4717.80 271.677  38
   2  -4  -7 4671.55 309.989   5
   2   4  -7 4957.95 267.228  32
   2  -4  -7 4470.24 284.095  26
   2  -4  -7 4586.35 264.625  25
   2   4  -7 4648.42 288.617   7
   1  -4  -7 5314.79 300.137  41
   1   4  -7 5124.59 303.417  41
   1   4  -7 5543.42 318.221  39
   1   4  -7 5094.68 282.488   6
   1   4  -7 4901.48 264.365  38
   1  -4  -7 5324.47 332.834   5
  -1  -4   7 4679.45 291.900  28
   1  -4  -7 4917.62 294.824  26
   1  -4  -7 5117.96 282.324  25
   1   4  -7 4984.97 294.417   7
   0  -4   7 1214.51 131.262  43
   0  -4  -7 1617.62 157.904  41
   0   4  -7 1531.32 167.921  41
   0   4  -7 1449.27 158.798  39
   0   4  -7 1387.89 145.754   6
   0  -4  -7 1227.04 157.302   5
   0  -4  -7 1406.43 147.974  25
   0   4  -7 1581.25 161.487   7
   1  -4   7 2135.58 171.923  43
  -1   4  -7 2119.16 190.033  41
  -1   4  -7 2753.01 202.678  39
  -1   4  -7 2251.77 172.694   6
  -1  -4  -7 2487.51 211.246   5
  -1  -4  -7 2536.56 191.155  25
  -1   4  -7 2238.44 177.112   7
   2  -4   7 6014.48 267.863  43
  -2   4  -7 5770.34 289.430  41
  -2   4  -7 6396.85 274.594  39
  -2   4  -7 6028.11 257.311   6
  -2  -4  -7 5773.44 292.463   5
  -2  -4  -7 6065.10 265.270  25
  -2   4  -7 5987.49 252.399   7
   3  -4   7 1764.90 131.718  43
  -3   4  -7 1576.70 135.060  41
  -3   4  -7 1667.17 116.311   6
  -3  -4  -7 1608.63 136.655   5
   9   5  -7 297.873 48.5335  12
   9  -5  -7 374.433 52.8769  26
   8   5  -7 1358.20 123.510  12
  -8  -5   7 1354.39 123.144  31
   8  -5  -7 1359.94 115.938  26
   8   5  -7 1142.51 103.305  14
   7   5  -7 5951.66 287.204  12
  -7  -5   7 6417.29 299.899  31
   7   5  -7 6493.59 270.288  16
   7  -5  -7 6376.30 277.642  26
   7   5  -7 6286.48 244.650   7
   7   5  -7 6127.52 261.884  14
   6   5  -7 2114.11 185.695  12
   6   5  -7 2200.76 168.956  16
   6  -5  -7 1991.95 168.926  26
   6   5  -7 2306.62 166.609   7
   6   5  -7 2161.00 168.306  14
   5   5  -7 2608.85 188.855  14
   5   5  -7 2080.62 191.931  12
   5   5  -7 2536.73 196.660  38
   5   5  -7 2262.48 173.620  16
   5  -5  -7 2575.76 202.020  26
   5   5  -7 2234.47 177.205   7
   4   5  -7 1447.71 140.264  14
   4  -5  -7 1487.87 156.852  41
   4   5  -7 1303.97 152.741  12
   4   5  -7 1464.57 154.180  38
   4  -5  -7 1532.84 159.279   5
   4   5  -7 1381.81 131.583  16
   4  -5  -7 1646.71 165.475  26
   4   5  -7 1523.45 154.106   7
   3  -5  -7 631.189 100.308  41
   3   5  -7 710.915 111.925   7
   3   5  -7 683.700 107.315  38
   3   5  -7 770.381 118.048  12
   3  -5  -7 720.894 112.873   5
   3  -5  -7 877.113 126.960  26
   3  -5  -7 644.197 95.7646  25
   2  -5  -7 158.014 55.3726  41
   2   5  -7 101.585 49.6601   7
   2   5  -7 134.027 56.2981  38
   2   5  -7 132.745 54.2843   6
   2   5  -7 94.5119 39.4386  32
   2  -5  -7 95.1892 59.3450   5
   2  -5  -7 177.529 74.9979  26
   2  -5  -7 94.3297 54.6761  25
   1   5  -7 10907.5 424.974  39
   1   5  -7 10557.4 390.912   6
   1   5  -7 9809.65 363.316  38
   1  -5  -7 10214.6 415.025   5
   1   5  -7 10754.4 361.755  32
  -1  -5   7 9735.46 396.272  28
   1  -5  -7 9962.31 403.418  26
   1  -5  -7 10195.9 381.257  25
   1   5  -7 9935.54 395.128   7
   0   5  -7 16.4533 39.3822  41
   0   5  -7-2.53630 37.5450   7
   0   5  -7-47.0478 40.3444  39
   0   5  -7 10.6997 26.7907   6
   0  -5  -7 46.1198 38.6166   5
   0  -5   7-29.6249 41.5835  28
   0  -5  -7 65.3646 46.5313  25
   1  -5   7 2521.09 170.568  43
  -1   5  -7 2599.99 184.055  41
  -1   5  -7 2931.87 198.252  39
  -1   5  -7 2699.77 180.756   6
  -1  -5  -7 2738.30 195.856   5
   1  -5   7 2714.91 197.040  28
  -1  -5  -7 2935.86 189.409  25
  -1   5  -7 2622.37 182.509   7
   2  -5   7 6.36662 27.3710  43
  -2   5  -7 88.2062 44.6526  41
  -2   5  -7 30.9393 28.3774   7
  -2   5  -7 6.37270 28.7326  39
  -2   5  -7 43.7148 21.7710   6
   2  -5   7 66.3861 42.0976  28
  -2  -5  -7 34.5201 33.4626  25
   3  -5   7 415.981 57.1371  43
  -3   5  -7 327.201 51.4767  41
  -3   5  -7 492.143 60.5293  39
  -3   5  -7 446.600 56.0188   6
   3  -5   7 495.428 68.3394  28
   8   6  -7 2948.55 154.786  12
  -8  -6   7 3309.44 163.929  31
   8  -6  -7 2939.91 145.398  26
   8   6  -7 2857.76 142.255  14
   7   6  -7 2444.70 166.094  12
  -7  -6   7 2588.56 172.502  31
   7   6  -7 2533.77 152.943  16
   7  -6  -7 2473.43 156.471  26
   7   6  -7 2484.33 153.546  14
   6   6  -7 113.431 43.1046  14
   6   6  -7 99.1050 40.7438   7
   6   6  -7 107.866 56.1356  12
   6   6  -7 116.568 45.3637  16
   6  -6  -7 102.789 45.1108  26
   5   6  -7 7480.65 298.336  14
   5   6  -7 6847.07 315.338  12
   5   6  -7 7541.51 309.510  38
   5   6  -7 7155.71 282.612   9
   5   6  -7 6768.85 277.710  16
   5  -6  -7 7366.57 312.506  26
   5   6  -7 7418.41 285.783   7
   4   6  -7 1350.19 129.270  14
   4   6  -7 1312.18 137.926  12
   4   6  -7 1456.85 143.742  38
   4  -6  -7 1433.60 144.652  26
   4   6  -7 1417.51 139.203   7
   3   6  -7 8250.64 339.894  38
   3   6  -7 8286.53 333.839  32
   3  -6  -7 8297.22 353.127  26
   3  -6  -7 7389.39 298.350  25
   3   6  -7 8515.44 339.646   7
   2   6  -7 4713.62 250.372   6
   2   6  -7 4484.50 245.523  38
   2   6  -7 4209.73 229.213  32
   2  -6  -7 4457.94 259.041  26
   2  -6  -7 4200.19 233.584  25
   2   6  -7 4530.92 252.540   7
   1   6  -7 1063.33 125.288  39
   1   6  -7 1102.41 121.120   6
   1   6  -7 1098.91 116.503  38
   1   6  -7 1036.26 109.849  32
  -1  -6   7 976.286 121.281  28
   1  -6  -7 1009.24 129.541  26
   1  -6  -7 992.527 115.269  25
   1   6  -7 1146.55 126.911   7
   0   6  -7 6859.80 298.749  39
   0   6  -7 6142.31 268.891   6
   0  -6   7 6018.50 277.983  28
   0  -6  -7 6997.11 284.041  25
   0   6  -7 6448.97 283.671   7
   1  -6   7 2312.15 138.270  43
  -1   6  -7 2587.33 170.454  39
  -1   6  -7 2478.33 157.886   6
   1  -6   7 2387.86 165.648  28
  -1  -6  -7 2643.36 163.334  25
  -1   6  -7 2324.40 156.310   7
   2  -6   7 6700.93 209.201  43
  -2   6  -7 7980.29 253.429  39
  -2   6  -7 7478.06 234.412   6
   2  -6   7 7273.43 251.453  28
  -2  -6  -7 7553.17 232.950  25
  -2   6  -7 6600.18 221.052   7
   7   7  -7 12.8193 21.3231  14
   7   7  -7 7.44782 26.2831  12
  -7  -7   7 33.7338 29.5921  31
   7   7  -7 30.3153 25.9063  16
   7  -7  -7 29.4496 24.4864  26
   6   7  -7 2070.90 144.141  12
  -6  -7   7 2027.26 144.776  31
   6   7  -7 1953.52 128.483  16
   6  -7  -7 2195.88 140.684  26
   6   7  -7 2204.01 137.644  14
   5   7  -7 81.4883 36.8437  14
   5   7  -7 69.0269 35.9995   7
   5   7  -7 80.6467 41.6755  12
   5   7  -7 54.2386 21.3617   9
   5   7  -7 123.794 39.3640  16
   5  -7  -7 97.0831 40.0143  26
   4   7  -7 2608.59 165.214  14
  -4  -7   7 2424.18 173.135  22
   4   7  -7 2794.02 176.735  38
   4   7  -7 2812.90 166.921   9
   4  -7  -7 2481.66 169.396  26
   4   7  -7 2536.57 155.774   7
   3   7  -7 1292.46 116.274  14
  -3  -7   7 1019.74 125.303  22
   3   7  -7 1218.14 121.859  38
   3  -7  -7 1371.51 131.339  26
   3  -7  -7 1209.57 111.765  25
   3   7  -7 1163.49 114.712   7
   2   7  -7 555.274 84.5343   7
   2   7  -7 578.380 82.9973  38
  -2  -7   7 455.968 87.8255  22
   2   7  -7 524.205 76.2688  32
   2  -7  -7 596.371 92.5574  26
   2  -7  -7 529.734 79.6929  25
   1   7  -7 1290.65 115.849   6
   1   7  -7 1336.48 116.414  38
   1   7  -7 1313.55 109.803  32
  -1  -7   7 1170.08 111.469  28
   1  -7  -7 1230.42 112.747  25
   1   7  -7 1218.92 115.760   7
   0   7  -7 27.3662 29.4706   7
   0   7  -7 16.5298 26.1973   6
   0  -7   7 52.8293 31.0059  28
   0  -7  -7 12.2799 23.7203  25
  -1   7  -7 47.8933 31.3742   7
  -1   7  -7 43.7711 23.7341   6
   1  -7   7 75.9524 40.5459  28
  -1  -7  -7 49.2615 23.2294  25
  -6  -8   7 664.727 67.8789  31
   6   8  -7 630.562 58.8996  16
   6   8  -7 628.260 61.5913  14
   5   8  -7 1862.42 114.126  14
  -5  -8   7 1983.48 123.769  31
   5  -8  -7 1928.30 116.612  26
   4   8  -7 694.878 75.3893  14
  -4  -8   7 746.159 82.0277  22
   4   8  -7 771.718 81.8049  38
   4   8  -7 651.886 69.9320   9
   4  -8  -7 806.405 83.6751  26
   3   8  -7 505.472 64.2667  14
   3   8  -7 444.962 59.3884   7
  -3  -8   7 473.723 70.5557  22
   3   8  -7 456.140 63.6813  38
   3  -8  -7 507.452 70.2791  26
  -2  -8   7 1666.31 126.178  22
   2   8  -7 1705.54 119.464  38
   2  -8  -7 1630.80 112.193  25
   2   8  -7 1738.16 111.866   7
   1   8  -7 77.5267 34.6446   7
  -1  -8   7 108.208 41.0371  22
   1   8  -7 157.330 39.3604  38
  -1  -8   7 111.469 37.9987  28
   1  -8  -7 150.321 38.3494  25
   0   8  -7 22.6174 23.5082   7
   0  -8   7 63.3047 31.0212  22
   0  -8  -7 48.3347 23.3002  25
   9   0  -8 7889.00 225.468   7
   8   0  -8 2163.45 123.588  12
   8   0  -8 2170.35 143.046   7
   7   0  -8 296.304 64.7181   7
   7   0  -8 324.005 68.2938  12
   6   0  -8 19711.6 521.155  41
   6   0  -8 19666.2 494.242   7
   5   0  -8 18366.7 537.263  41
   5   0  -8 17035.4 515.314  12
   5   0  -8 18829.8 572.708   5
   5   0  -8 16867.1 468.724   7
   4   0  -8 44216.4 868.751  41
   4   0  -8 41625.5 830.418  12
   4   0  -8 45275.1 904.290   5
   4   0  -8 42520.8 740.343   7
   3   0  -8 15649.8 533.379  41
   3   0  -8 15267.7 507.211  12
   3   0  -8 16499.8 554.907   5
   3   0  -8 15299.2 432.221   7
   2   0  -8 1392.80 164.974  41
   2   0  -8 1219.44 145.364  12
   2   0  -8 1298.54 159.697   5
   1   0  -8 16515.5 490.795  12
   1   0  -8 15767.4 524.381  41
   1   0  -8 14975.0 511.858   5
   0   0  -8 7285.64 338.916  41
   0   0  -8 6661.76 323.165   5
  -1   0  -8 8196.04 324.050  41
  -1   0  -8 7571.01 307.714   5
  -2   0  -8 6733.89 246.819  41
  -2   0  -8 6866.91 245.649   5
   9  -1  -8-20.2716 27.1942   7
   9   1  -8-7.62754 22.2600   7
   8  -1  -8 227.457 51.2048   7
   8   1  -8 240.169 52.0903   7
   8   1  -8 188.748 43.5455  12
   7  -1  -8 2477.28 158.475  12
   7   1  -8 2703.85 178.515  12
   7  -1  -8 2583.65 166.398   7
   7   1  -8 2774.83 177.060   7
   6   1  -8 6013.03 274.347  41
   6  -1  -8 6154.12 299.465  41
   6  -1  -8 5914.69 279.754  12
   6   1  -8 5780.31 286.757  12
   6  -1  -8 5824.90 263.195   7
   6   1  -8 6320.66 281.652   7
   5  -1  -8 122.355 40.7567   7
   5   1  -8 72.1648 47.6486   7
   5  -1  -8 34.8464 50.5611  41
   5   1  -8 33.1176 45.1503  41
   5  -1  -8 46.4905 49.4420  12
   5   1  -8 19.3275 44.2020  12
   5   1  -8-1.16842 41.5065   5
   5  -1  -8 105.921 62.0821   5
   4  -1  -8 658.537 117.564  41
   4   1  -8 499.937 86.3329   7
   4   1  -8 614.081 102.890  41
   4  -1  -8 612.161 110.159  12
   4   1  -8 557.310 103.656  12
   4   1  -8 505.719 98.6862   5
   4  -1  -8 565.939 106.437   5
   3   1  -8 45.9703 35.8856   7
   3  -1  -8 244.948 78.3292  41
   3   1  -8 103.292 50.6097  41
   3  -1  -8 95.2790 52.4217  12
   3   1  -8 173.706 72.1636  12
   3   1  -8 104.090 40.8520   5
   3  -1  -8 218.917 76.9420   5
   2  -1  -8 5394.27 312.345  41
   2   1  -8 4597.65 288.760  41
   2  -1  -8 5302.82 293.476  12
   2   1  -8 5191.64 283.511  12
   2   1  -8 5580.06 308.029   5
   2  -1  -8 4592.34 300.544   5
   2   1  -8 5324.15 253.148   7
   1  -1  -8 2227.12 185.867  12
   1  -1  -8 2287.12 199.023  41
   1   1  -8 2373.36 183.316  12
   1   1  -8 2271.86 200.849  41
   1   1  -8 2202.68 188.155   5
   1  -1  -8 2340.83 208.780   5
   0  -1  -8 3111.26 215.960  41
   0   1  -8 2898.95 213.322  41
   0   1  -8 3062.72 207.942   5
   0  -1  -8 2959.98 219.555   5
  -1  -1  -8 680.435 94.8122  41
  -1   1  -8 696.474 98.0943  41
  -1   1  -8 762.636 96.4040   5
  -1  -1  -8 811.668 104.867   5
   2  -1   8 1126.61 92.0897  43
  -2   1  -8 1273.26 111.278  41
  -2   1  -8 1122.05 91.4393   5
  -2  -1  -8 1224.08 109.376   5
   8   2  -8 1477.06 111.718  12
   8  -2  -8 1398.58 109.824   7
   8   2  -8 1517.94 112.264   7
   7   2  -8 1507.68 134.809  12
   7  -2  -8 1461.04 120.443   7
   7   2  -8 1436.31 123.941   7
   6   2  -8 3737.14 195.991  41
   6  -2  -8 3877.73 234.335  41
   6  -2  -8 3327.41 195.891  12
   6   2  -8 3649.23 224.874  12
   6   2  -8 3813.33 217.843   7
   5  -2  -8 2811.44 210.896  41
   5   2  -8 2683.11 185.585  41
   5  -2  -8 2321.06 181.703  12
   5   2  -8 2311.83 192.382  12
   5  -2  -8 2613.72 211.011   5
   5   2  -8 2650.06 189.508   7
   4  -2  -8 5761.45 311.230  41
   4   2  -8 5680.33 290.080  41
   4  -2  -8 5488.37 290.297  12
   4   2  -8 5364.98 294.017  12
   4   2  -8 6044.32 299.102   5
   4  -2  -8 5942.60 324.079   5
   4   2  -8 5537.99 275.385   7
   3  -2  -8 3558.00 245.824  41
   3   2  -8 3639.53 240.296  41
   3  -2  -8 3055.20 222.175  12
   3   2  -8 3543.28 237.506  12
   3   2  -8 3750.81 237.015   5
   3  -2  -8 3708.07 259.179   5
   3   2  -8 3491.20 217.083   7
   2  -2  -8 129.267 50.4763  41
   2   2  -8 176.165 66.7355  41
   2   2  -8 145.670 47.4529   7
   2  -2  -8 118.217 64.7999  12
   2   2  -8 115.895 61.4436  12
   2   2  -8 181.678 59.5450   5
   2  -2  -8 79.4955 46.8501   5
   1  -2  -8 4215.89 252.781  41
   1   2  -8 4019.81 253.231  41
   1   2  -8 4315.66 239.301   5
   1  -2  -8 4341.80 272.912   5
   0  -2  -8 1518.83 144.644  41
   0   2  -8 1327.45 139.369  41
   0   2  -8 1487.57 130.180   5
   0  -2  -8 1506.80 156.383   5
   1  -2   8 1054.39 95.2361  43
  -1   2  -8 1407.43 132.733  41
  -1   2  -8 1159.48 97.6960   5
  -1  -2  -8 1272.27 128.045   5
  -2   2  -8 39.4744 24.9325  41
  -2  -2  -8 33.1506 29.5007   5
   8   3  -8 33.3687 29.8332   7
   8   3  -8 47.1808 30.0288  12
   7   3  -8 1457.62 127.389  12
   7   3  -8 1583.54 122.362   7
   6   3  -8 96.4437 43.6047   7
   6  -3  -8 26.7659 39.6577  12
   6   3  -8 33.1576 45.4927  12
   6  -3  -8 44.1927 34.5573  26
   5  -3  -8 2572.97 194.903  41
   5  -3  -8 2341.85 171.139  12
   5   3  -8 2361.02 186.181  12
   5  -3  -8 2823.31 209.070   5
   5  -3  -8 2206.81 158.884  26
   5   3  -8 2502.81 175.884   7
   4  -3  -8 196.145 53.8668  41
   4   3  -8 167.539 45.2365  41
   4   3  -8 128.728 48.0170   7
   4  -3  -8 169.937 60.0193  12
   4   3  -8 198.482 66.1884  12
   4  -3  -8 260.571 74.5381   5
   4  -3  -8 186.330 53.4271  26
   3  -3  -8 2422.40 189.934  12
   3  -3  -8 2678.11 199.680  41
   3   3  -8 2467.43 179.986  41
   3   3  -8 2511.10 189.958  12
   3  -3  -8 2853.99 219.792   5
   3  -3  -8 2563.09 176.394  26
   3   3  -8 3183.68 205.618   7
   2   3  -8 688.327 101.711  41
   2  -3  -8 469.770 86.6092  41
   2   3  -8 579.105 86.1463   7
   2   3  -8 563.633 92.3019  12
   2  -3  -8 617.359 102.560   5
   1  -3  -8 699.609 97.0594  41
   1   3  -8 540.515 89.2280  41
   1   3  -8 577.952 82.1820   7
   1  -3  -8 710.382 107.719   5
   0   3  -8 245.731 59.7845  41
   0  -3  -8 373.068 70.8090   5
   0  -3   8 296.361 66.2731  28
  -1   3  -8 672.627 85.7317  41
  -1  -3  -8 841.447 94.9629   5
   1  -3   8 661.573 83.5293  28
  -2   3  -8 188.109 40.2451  41
  -2  -3  -8 157.110 35.2786   5
   8   4  -8 17.3710 23.2554  12
   7   4  -8 738.377 88.9680  12
  -7  -4   8 527.317 73.7214  31
   7  -4  -8 628.949 74.9731  26
   7   4  -8 640.653 73.6962   7
   6   4  -8 94.6388 37.8100   7
   6   4  -8-9.66888 32.9088  12
   6  -4  -8 17.3781 35.9829  26
   5   4  -8 183.128 47.4019   7
   5   4  -8 215.859 62.6299  12
   5  -4  -8 225.188 59.6587  26
   4  -4  -8 468.222 79.3193  41
   4   4  -8 379.684 72.2437   7
   4   4  -8 451.679 78.6354  12
   4  -4  -8 433.166 79.4026   5
   4  -4  -8 503.034 82.7869  26
   3  -4  -8 2.34621 29.6308  41
   3   4  -8-30.4868 40.7882   7
   3   4  -8 81.8475 40.0112  12
   3  -4  -8 33.7036 35.3432   5
   3  -4  -8 41.8523 40.3375  26
   2  -4  -8 653.724 88.2112  41
   2   4  -8 578.811 80.4732  41
   2  -4  -8 562.718 87.4839   5
   2   4  -8 615.255 88.7800   7
   1   4  -8 560.816 77.7473  41
   1  -4  -8 648.465 92.8212   5
   1  -4  -8 523.831 74.7848  25
   1   4  -8 538.399 79.3682   7
   0   4  -8 56.9150 37.7081  41
   0   4  -8 46.2284 29.2245   7
   0  -4  -8 37.3782 30.4296   5
   0  -4   8 22.0850 34.1348  28
  -1   4  -8 1166.75 91.5829  41
  -1  -4  -8 1232.54 100.194   5
   7   5  -8-8.26801 24.8016  12
   7  -5  -8 58.6720 24.4804  26
   6   5  -8-12.0677 34.3221   7
   6   5  -8 61.0227 39.7604  12
  -6  -5   8 18.1298 37.2479  31
   6  -5  -8 81.7833 38.2664  26
   5   5  -8 79.8694 35.7895   7
   5   5  -8 43.1528 31.7042  12
   5  -5  -8 46.4561 34.1458  26
   4   5  -8-5.06976 34.1912   7
   4   5  -8-19.5241 29.1309  12
   4  -5  -8 36.8266 37.6422  26
   3   5  -8 64.3095 37.2437   7
   3  -5  -8 127.015 51.6146  26
   2   5  -8 75.6305 34.9850   7
   1   5  -8 96.8018 36.8947   7
   1  -5  -8 105.383 40.1793  25
   0   5  -8 2044.67 117.594   7
   6   6  -8 570.618 61.2997  12
  -6  -6   8 753.197 73.1711  31
   6  -6  -8 699.497 67.6419  26
   5   6  -8 50.5764 26.8248   7
   5  -6  -8 70.2573 33.2178  26
   4   6  -8 24.9060 27.7921   7
   4  -6  -8 47.6728 32.6760  26
   3   6  -8 278.713 53.6218   7
   2   6  -8-12.1919 23.9112   7
   1   6  -8 386.422 51.3926   7
   1  -6  -8 451.340 53.0666  25
  -4  -7   8 174.258 35.5206  31
   6   0  -9 35.1642 26.0744  12
   5   0  -9 39.7430 36.4474  41
   5   0  -9 50.5515 36.2194  12
   4   0  -9 31.7240 30.0924  41
   4   0  -9 10.0990 34.0728  12
   3   0  -9 25.0402 27.6009  41
   3   0  -9-2.04391 29.9982   5
   2   0  -9 5.86075 29.2334  41
   2   0  -9 4.15816 27.0784   5
   1   0  -9 30.0178 27.0507  41
   1   0  -9 8.45680 26.7039   5
   6  -1  -9 3283.40 141.000  12
   6   1  -9 3680.07 160.243  12
   6   1  -9 3758.90 148.877   7
   5   1  -9 1200.68 94.2282  41
   5  -1  -9 1033.16 96.4909  41
   5  -1  -9 979.562 93.3225  12
   5   1  -9 1077.46 99.7064  12
   4  -1  -9 2644.73 158.310  41
   4   1  -9 2777.70 151.505  41
   4  -1  -9 2530.11 150.010  12
   4   1  -9 2486.04 148.970  12
   3  -1  -9 885.210 92.3944  41
   3   1  -9 957.216 93.9414  41
   3   1  -9 903.097 89.7591  12
   3  -1  -9 1088.02 104.095   5
   2  -1  -9-15.6752 26.8801  41
   2   1  -9 30.8581 28.6418  41
   2   1  -9-7.87271 25.7749   5
   2  -1  -9 2.82694 27.7298   5
   1  -1  -9 630.962 68.0989  41
   1   1  -9 562.121 64.7599  41
   1  -1  -9 565.145 63.0773   5
   6   2  -9 85.4903 27.7062   7
   6   2  -9 117.579 35.0207  12
   5   2  -9 10.8963 20.8634   7
   5   2  -9 49.1622 33.4226  12
   4   2  -9 393.082 52.5560   7
   4  -2  -9 398.321 60.5778  41
   4   2  -9 360.520 57.9384  12
   3  -2  -9 282.512 53.8339  41
   3   2  -9 240.883 46.9842  41
   3  -2  -9 198.016 44.0515   5
   2  -2  -9 716.757 75.4217  41
   2   2  -9 635.779 66.2283  41
   2  -2  -9 665.312 77.2353   5
   1  -2  -9 166.775 36.0314   5
   5   3  -9 85.9913 27.9006   7
   5   3  -9 54.9051 27.5445  12
   4   3  -9 70.4829 27.0934   7
   4   3  -9 18.8957 19.6941  12
   3  -3  -9 56.0956 27.7232  41
   3  -3  -9 31.5745 24.3159   5
   2  -3  -9 673.031 67.7602   5
   0   0   0    0.00    0.00   0
TITL Lippe2 in P2(1)/c
REM P2(1)/c (#14 in standard setting)
CELL 1.54184   9.655216  10.720334   7.448013  90.0000 108.6051  90.0000
ZERR    4.00   0.000141   0.000122   0.000114   0.0000   0.0017   0.0000
LATT  1
SYMM -x, y+1/2,-z+1/2
SFAC C H N O
UNIT 24.00 36.00 12.00 4.00
TREF
HKLF 4
END
;
_shelx_hkl_checksum              41737
_shelx_res_file
;
TITL Lippe2 in P2(1)/c
    shelx.res
    created by SHELXL-2017/1 at 10:29:51 on 12-Feb-2018
REM P2(1)/c (#14 in standard setting)
CELL 1.54184   9.655216  10.720334   7.448013  90.0000 108.6051  90.0000
ZERR    4.00   0.00028   0.00024   0.00022   0.0000   0.0034   0.0000
LATT  1
SYMM -x, y+1/2,-z+1/2
SFAC C H N O
UNIT 24.00 36.00 12.00 4.00
SIZE 0.28 0.13 0.06
TEMP -171
ACTA 150
CONF
BOND $H
FMAP   2
PLAN   10
L.S.   4
SADI N1 H01 N1 H02 N3 H03 N3 H04
EQIV $1 x,-y+3/2,z+1/2
EQIV $2 x,-y+3/2,z-1/2
EQIV $3 x, -1+y, z
HTAB N1 N11
HTAB N3 N11
HTAB N1 O1_$1
HTAB N3 O1_$2
HTAB C14 O1_$3
MPLA N11 C12 C13 C14 C15 C16
MPLA O1 N1 C2 N3
MPLA O1_$1 N1_$1 C2_$1 N3_$1
RTAB ANGL C14 N11 C2
WGHT    0.042700    0.158900
FVAR       9.38693
O1    4    0.305998    0.778043    0.538189    11.00000    0.04534    0.02001 =
         0.02494   -0.00002    0.01408   -0.00037
N1    3    0.295693    0.595327    0.687597    11.00000    0.05681    0.02018 =
         0.02487   -0.00125    0.01727   -0.00323
H01   2    0.292532    0.514189    0.678385    11.00000    0.03563
H02   2    0.295691    0.633103    0.790935    11.00000    0.03412
C2    1    0.303385    0.661444    0.537599    11.00000    0.02905    0.02281 =
         0.02356   -0.00006    0.00817   -0.00081
N3    3    0.308181    0.594676    0.386485    11.00000    0.04605    0.01960 =
         0.02423   -0.00008    0.01417   -0.00081
H03   2    0.306593    0.514088    0.393332    11.00000    0.03496
H04   2    0.313263    0.631789    0.284143    11.00000    0.03221
N11   3    0.252848    0.329526    0.522247    11.00000    0.04361    0.02439 =
         0.04256    0.00038    0.01451   -0.00228
C12   1    0.112629    0.300747    0.439718    11.00000    0.04067    0.03864 =
         0.04403    0.00449    0.01443    0.00792
AFIX  43
H12   2    0.043954    0.366894    0.402065    11.00000   -1.20000
AFIX   0
C13   1    0.061792    0.179335    0.405970    11.00000    0.03364    0.05247 =
         0.04576   -0.00732    0.01114   -0.00894
AFIX  43
H13   2   -0.039217    0.162908    0.346599    11.00000   -1.20000
AFIX   0
C14   1    0.160661    0.082983    0.460240    11.00000    0.05003    0.02936 =
         0.04008   -0.00953    0.02363   -0.01201
AFIX  43
H14   2    0.128978   -0.001263    0.440054    11.00000   -1.20000
AFIX   0
C15   1    0.305599    0.110721    0.543901    11.00000    0.04369    0.02630 =
         0.03100    0.00310    0.01761    0.00221
AFIX  43
H15   2    0.376443    0.046177    0.581111    11.00000   -1.20000
AFIX   0
C16   1    0.346482    0.234270    0.572953    11.00000    0.03413    0.02996 =
         0.03510    0.00125    0.00787   -0.00367
AFIX  43
H16   2    0.446981    0.252687    0.632429    11.00000   -1.20000
AFIX   0
HKLF 4
REM  Lippe2 in P2(1)/c
REM R1 =  0.0339 for    1431 Fo > 4sig(Fo)  and  0.0358 for all    1530 data
REM    107 parameters refined using      6 restraints
END
WGHT      0.0426      0.1586
REM Highest difference peak  0.197,  deepest hole -0.206,  1-sigma level  0.041
Q1    1   0.1147  0.1336  0.3905  11.00000  0.05    0.20
Q2    1   0.0701  0.2392  0.3655  11.00000  0.05    0.16
Q3    1   0.2336  0.1134  0.5009  11.00000  0.05    0.13
Q4    1   0.3221  0.1684  0.5907  11.00000  0.05    0.11
Q5    1   0.4072  0.5917  0.7164  11.00000  0.05    0.10
Q6    1  -0.0452  0.1786  0.2248  11.00000  0.05    0.09
Q7    1   0.4513  0.2652  0.7466  11.00000  0.05    0.09
Q8    1   0.4535  0.1220  0.8019  11.00000  0.05    0.08
Q9    1  -0.1744  0.2548  0.2480  11.00000  0.05    0.08
Q10   1   0.4210  0.6160  0.3097  11.00000  0.05    0.08
;
_shelx_res_checksum              64986
loop_
_space_group_symop_operation_xyz
'x, y, z'
'-x, y+1/2, -z+1/2'
'-x, -y, -z'
'x, -y-1/2, z-1/2'
loop_
_atom_site_type_symbol
_atom_site_label
_atom_site_fract_x
_atom_site_fract_y
_atom_site_fract_z
_atom_site_U_iso_or_equiv
_atom_site_adp_type
_atom_site_calc_flag
_atom_site_occupancy
O O1 0.30600(8) 0.77804(6) 0.53819(9) 0.0294(2) Uani d 1
N N1 0.29569(11) 0.59533(8) 0.68760(12) 0.0329(2) Uani d 1
H H01 0.2925(14) 0.5142(11) 0.6784(18) 0.036(3) Uiso d 1
H H02 0.2957(14) 0.6331(12) 0.7909(17) 0.034(3) Uiso d 1
C C2 0.30338(10) 0.66144(9) 0.53760(13) 0.0252(2) Uani d 1
N N3 0.30818(10) 0.59468(8) 0.38648(12) 0.0293(2) Uani d 1
H H03 0.3066(14) 0.5141(11) 0.3933(18) 0.035(3) Uiso d 1
H H04 0.3133(14) 0.6318(11) 0.2841(17) 0.032(3) Uiso d 1
N N11 0.25285(11) 0.32953(8) 0.52225(14) 0.0367(2) Uani d 1
C C12 0.11263(13) 0.30075(11) 0.43972(18) 0.0409(3) Uani d 1
H H12 0.043954 0.366894 0.402065 0.049 Uiso calc 1
C C13 0.06179(13) 0.17934(13) 0.40597(18) 0.0443(3) Uani d 1
H H13 -0.039217 0.162908 0.346599 0.053 Uiso calc 1
C C14 0.16066(13) 0.08298(11) 0.46024(16) 0.0376(3) Uani d 1
H H14 0.128978 -0.001263 0.440054 0.045 Uiso calc 1
C C15 0.30560(12) 0.11072(10) 0.54390(15) 0.0323(3) Uani d 1
H H15 0.376443 0.046177 0.581111 0.039 Uiso calc 1
C C16 0.34648(12) 0.23427(10) 0.57295(16) 0.0338(3) Uani d 1
H H16 0.446981 0.252687 0.632429 0.041 Uiso calc 1
loop_
_atom_site_aniso_label
_atom_site_aniso_U_11
_atom_site_aniso_U_22
_atom_site_aniso_U_33
_atom_site_aniso_U_12
_atom_site_aniso_U_13
_atom_site_aniso_U_23
O1 0.0453(4) 0.0200(4) 0.0249(4) -0.0004(3) 0.0141(3) 0.0000(2)
N1 0.0568(6) 0.0202(4) 0.0249(4) -0.0032(4) 0.0173(4) -0.0012(3)
C2 0.0290(5) 0.0228(5) 0.0236(5) -0.0008(3) 0.0082(4) -0.0001(3)
N3 0.0460(5) 0.0196(4) 0.0242(4) -0.0008(3) 0.0142(4) -0.0001(3)
N11 0.0436(5) 0.0244(4) 0.0426(5) -0.0023(4) 0.0145(4) 0.0004(4)
C12 0.0407(6) 0.0386(6) 0.0440(7) 0.0079(5) 0.0144(5) 0.0045(5)
C13 0.0336(6) 0.0525(7) 0.0458(7) -0.0089(5) 0.0111(5) -0.0073(5)
C14 0.0500(7) 0.0294(5) 0.0401(6) -0.0120(5) 0.0236(5) -0.0095(4)
C15 0.0437(6) 0.0263(5) 0.0310(5) 0.0022(4) 0.0176(5) 0.0031(4)
C16 0.0341(5) 0.0300(5) 0.0351(5) -0.0037(4) 0.0079(4) 0.0013(4)
loop_
_atom_type_symbol
_atom_type_description
_atom_type_scat_dispersion_real
_atom_type_scat_dispersion_imag
_atom_type_scat_source
C C 0.0181 0.0091 'International Tables Vol C Tables 4.2.6.8 and 6.1.1.4'
H H 0.0000 0.0000 'International Tables Vol C Tables 4.2.6.8 and 6.1.1.4'
N N 0.0311 0.0180 'International Tables Vol C Tables 4.2.6.8 and 6.1.1.4'
O O 0.0492 0.0322 'International Tables Vol C Tables 4.2.6.8 and 6.1.1.4'
loop_
_geom_angle_atom_site_label_1
_geom_angle_atom_site_label_2
_geom_angle_atom_site_label_3
_geom_angle
C2 N1 H01 118.0(9)
C2 N1 H02 120.4(9)
H01 N1 H02 121.6(12)
O1 C2 N1 122.03(9)
O1 C2 N3 121.88(9)
N1 C2 N3 116.09(9)
C2 N3 H03 118.4(9)
C2 N3 H04 120.8(8)
H03 N3 H04 120.8(12)
C12 N11 C16 116.73(10)
N11 C12 C13 123.39(11)
N11 C12 H12 118.3
C13 C12 H12 118.3
C14 C13 C12 118.64(11)
C14 C13 H13 120.7
C12 C13 H13 120.7
C15 C14 C13 118.84(10)
C15 C14 H14 120.6
C13 C14 H14 120.6
C14 C15 C16 118.64(10)
C14 C15 H15 120.7
C16 C15 H15 120.7
N11 C16 C15 123.76(10)
N11 C16 H16 118.1
C15 C16 H16 118.1
loop_
_geom_bond_atom_site_label_1
_geom_bond_atom_site_label_2
_geom_bond_distance
O1 C2 1.2502(12)
N1 C2 1.3450(13)
N1 H01 0.872(11)
N1 H02 0.870(11)
C2 N3 1.3470(12)
N3 H03 0.866(11)
N3 H04 0.875(11)
N11 C12 1.3323(16)
N11 C16 1.3360(15)
C12 C13 1.3854(17)
C12 H12 0.9500
C13 C14 1.3767(18)
C13 H13 0.9500
C14 C15 1.3706(16)
C14 H14 0.9500
C15 C16 1.3793(15)
C15 H15 0.9500
C16 H16 0.9500
loop_
_geom_hbond_atom_site_label_D
_geom_hbond_atom_site_label_H
_geom_hbond_atom_site_label_A
_geom_hbond_site_symmetry_A
_geom_hbond_distance_DH
_geom_hbond_distance_HA
_geom_hbond_distance_DA
_geom_hbond_angle_DHA
_geom_hbond_publ_flag
N1 H01 N11 . 0.872(11) 2.266(12) 3.0793(12) 155.2(12) yes
N3 H03 N11 . 0.866(11) 2.329(12) 3.1197(12) 151.9(11) yes
N1 H02 O1 4_576 0.870(11) 2.047(12) 2.9164(11) 177.4(12) yes
N3 H04 O1 4_575 0.875(11) 2.053(11) 2.9252(11) 175.0(12) yes
C14 H14 O1 1_545 0.95 2.87 3.5317(14) 127.4 yes
loop_
_geom_torsion_atom_site_label_1
_geom_torsion_atom_site_label_2
_geom_torsion_atom_site_label_3
_geom_torsion_atom_site_label_4
_geom_torsion
C16 N11 C12 C13 0.16(18)
N11 C12 C13 C14 0.04(19)
C12 C13 C14 C15 -0.59(18)
C13 C14 C15 C16 0.92(16)
C12 N11 C16 C15 0.21(17)
C14 C15 C16 N11 -0.76(17)

_cod_database_fobs_code 2021051
