#------------------------------------------------------------------------------
#$Date: 2019-07-10 07:33:04 +0300 (Wed, 10 Jul 2019) $
#$Revision: 216917 $
#$URL: file:///home/coder/svn-repositories/cod/cif/2/02/17/2021713.cif $
#------------------------------------------------------------------------------
#
# This file is available in the Crystallography Open Database (COD),
# http://www.crystallography.net/. The original data for this entry
# were provided by IUCr Journals, http://journals.iucr.org/.
#
# The file may be used within the scientific community so long as
# proper attribution is given to the journal article from which the
# data were obtained.
#
data_2021713
loop_
_publ_author_name
'Priya Vadhana, K. T.'
'Parveen, S.'
'Ushadevi, B.'
'Selvakumar, R.'
'Sangeetha, S.'
'Vairam, S.'
_publ_section_title
;
 New barium, strontium and strontium-doped barium squarates: synthesis,
 crystal structures and DNA/BSA binding, antioxidant and <i>in vitro</i>
 cytotoxicity studies
;
_journal_coeditor_code           LF3099
_journal_issue                   8
_journal_name_full               'Acta Crystallographica Section C'
_journal_page_first
;
;
_journal_paper_doi               10.1107/S2053229619009082
_journal_volume                  75
_journal_year                    2019
_chemical_formula_iupac          '[Ba (C4 O4) (H2 O)3], H2 O'
_chemical_formula_moiety         'C4 H6 Ba O7, H2 O'
_chemical_formula_sum            'C4 H8 Ba O8'
_chemical_formula_weight         321.44
_chemical_name_systematic
;
Poly[[triaqua(\m-1,2-dioxocyclobut-3-ene-1,2-diolato)barium] monohydrate]
;
_space_group_crystal_system      triclinic
_space_group_IT_number           2
_space_group_name_Hall           '-P 1'
_space_group_name_H-M_alt        'P -1'
_symmetry_space_group_name_Hall  '-P 1'
_symmetry_space_group_name_H-M   'P -1'
_atom_sites_solution_hydrogens   difmap
_audit_creation_method           SHELXL-2014/7
_cell_angle_alpha                95.146(8)
_cell_angle_beta                 106.652(8)
_cell_angle_gamma                108.317(7)
_cell_formula_units_Z            2
_cell_length_a                   6.82160(10)
_cell_length_b                   8.18150(10)
_cell_length_c                   8.80830(10)
_cell_measurement_reflns_used    9964
_cell_measurement_temperature    296(2)
_cell_measurement_theta_max      34.80
_cell_measurement_theta_min      2.62
_cell_volume                     438.30(4)
_computing_cell_refinement
;
APEX2 and SAINT (Bruker, 2004)
;
_computing_data_collection
;
APEX2 (Bruker, 2004)
;
_computing_data_reduction
;
SAINT and XPREP (Bruker, 2004)
;
_computing_molecular_graphics
;
ORTEP-3 (Farrugia, 2012) and Mercury (Macrae <i>et al.</i>,
2008)
;
_computing_publication_material
;
SHELXL2014 (Sheldrick, 2015b)
;
_computing_structure_refinement
;
SHELXL2014 (Sheldrick, 2015b)
;
_computing_structure_solution
;
SHELXT2014 (Sheldrick, 2015a)
;
_diffrn_ambient_temperature      296(2)
_diffrn_measured_fraction_theta_full 1.000
_diffrn_measured_fraction_theta_max 0.990
_diffrn_measurement_device_type  'Bruker Kappa APEXII CCD'
_diffrn_measurement_method       '\w and \f scan'
_diffrn_radiation_monochromator  graphite
_diffrn_radiation_source         'fine-focus sealed tube'
_diffrn_radiation_type           MoK\a
_diffrn_radiation_wavelength     0.71073
_diffrn_reflns_av_R_equivalents  0.0474
_diffrn_reflns_av_unetI/netI     0.0352
_diffrn_reflns_limit_h_max       10
_diffrn_reflns_limit_h_min       -9
_diffrn_reflns_limit_k_max       12
_diffrn_reflns_limit_k_min       -12
_diffrn_reflns_limit_l_max       13
_diffrn_reflns_limit_l_min       -13
_diffrn_reflns_number            17140
_diffrn_reflns_theta_full        25.242
_diffrn_reflns_theta_max         31.999
_diffrn_reflns_theta_min         2.462
_exptl_absorpt_coefficient_mu    4.545
_exptl_absorpt_correction_T_max  0.7451
_exptl_absorpt_correction_T_min  0.5472
_exptl_absorpt_correction_type   multi-scan
_exptl_absorpt_process_details
;
(SADABS; Bruker, 2004)
;
_exptl_crystal_colour            colourless
_exptl_crystal_density_diffrn    2.436
_exptl_crystal_description       BLOCK
_exptl_crystal_F_000             304
_exptl_crystal_size_max          0.100
_exptl_crystal_size_mid          0.100
_exptl_crystal_size_min          0.050
_refine_diff_density_max         1.102
_refine_diff_density_min         -0.860
_refine_ls_extinction_method     none
_refine_ls_goodness_of_fit_ref   1.136
_refine_ls_hydrogen_treatment    refall
_refine_ls_matrix_type           full
_refine_ls_number_parameters     150
_refine_ls_number_reflns         3008
_refine_ls_number_restraints     12
_refine_ls_restrained_S_all      1.135
_refine_ls_R_factor_all          0.0309
_refine_ls_R_factor_gt           0.0249
_refine_ls_shift/su_max          0.001
_refine_ls_shift/su_mean         0.000
_refine_ls_structure_factor_coef Fsqd
_refine_ls_weighting_details
'w=1/[\s^2^(Fo^2^)+(0.0145P)^2^+0.3502P] where P=(Fo^2^+2Fc^2^)/3'
_refine_ls_weighting_scheme      calc
_refine_ls_wR_factor_gt          0.0466
_refine_ls_wR_factor_ref         0.0486
_reflns_number_gt                2693
_reflns_number_total             3008
_reflns_threshold_expression     'I > 2\s(I)'
_cod_data_source_file            lf3099sup1.cif
_cod_data_source_block           BSANEW30-4
_cod_original_cell_volume        438.30(3)
_cod_database_code               2021713
_shelx_space_group_comment
;
The symmetry employed for this shelxl refinement is uniquely defined
by the following loop, which should always be used as a source of
symmetry information in preference to the above space-group names.
They are only intended as comments.
;
_shelx_estimated_absorpt_t_min   0.659
_shelx_estimated_absorpt_t_max   0.805
_shelx_hkl_file
;
  -1   0   0 1052.29   49.99
  -1   0   0  909.11   65.09
  -1   0   0  986.00   33.00
  -1   0   0 1012.90   32.50
  -1   0   0 1010.80   49.30
  -1   0   0 1065.79   52.49
  -1   0   0 1018.10   31.80
  -1   0   0 1041.90   31.70
   1   0   0  990.80   31.60
   1   0   0 1036.40   49.90
   1   0   0 1034.30   49.80
   1   0   0 1022.80   31.80
   1   0   0 1040.60   66.89
   1   0   0  971.00   33.00
   1   0   0 1053.19   32.90
   1   0   0 1043.10   52.59
  -2   0   0 3422.56  220.98
  -2   0   0 4075.69  115.39
  -2   0   0 3933.91  112.49
  -2   0   0 3879.81  176.58
  -2   0   0 4319.17  199.58
  -2   0   0 3304.77  171.28
  -2   0   0 4058.89  112.59
  -2   0   0 3705.03  115.89
   2   0   0 3897.81  112.19
   2   0   0 3959.70  112.59
   2   0   0 3965.80  176.58
   2   0   0 3868.81  224.88
   2   0   0 3743.63  116.19
   2   0   0 4000.10  174.18
   2   0   0 3871.31  184.38
   2   0   0 3786.42  115.19
  -3   0   0 2129.19  108.09
  -3   0   0 1867.31  115.29
  -3   0   0 2088.79   68.79
  -3   0   0 2036.40   72.09
   3   0   0 2199.18  150.18
   3   0   0 2116.89  106.69
   3   0   0 2120.29   68.49
   3   0   0 2157.58  115.69
   3   0   0 2008.20   70.59
  -4   0   0 2151.18  122.59
  -4   0   0 2148.09  116.99
  -4   0   0 2114.29   78.79
  -4   0   0 1990.30   74.19
   4   0   0 2227.18  127.69
   4   0   0 2104.89   74.09
   4   0   0 2167.38  162.98
   4   0   0 2184.88   77.99
  -5   0   0   16.10   10.90
  -5   0   0   49.99   13.80
  -5   0   0   27.40   17.30
  -5   0   0   26.50   11.00
   5   0   0   26.90   19.10
   5   0   0   28.80   11.70
   5   0   0   44.50   12.50
   5   0   0   43.60   37.10
  -6   0   0    4.20    9.70
  -6   0   0   -9.00   14.40
  -6   0   0  -16.20    8.90
   6   0   0   -2.30   16.60
   6   0   0    0.50   10.00
   6   0   0    1.20   10.50
   6   0   0   -5.50    5.00
   6   0   0   -0.50   34.60
  -7   0   0  512.95   40.50
  -7   0   0  538.05   38.80
  -7   0   0  448.56   60.19
   7   0   0  518.75   42.10
   7   0   0  496.25   73.29
   7   0   0  482.75  110.39
   7   0   0  493.95   33.80
   7   0   0  503.75   38.30
  -8   0   0 1099.49   66.29
  -8   0   0 1190.18   65.19
   8   0   0 1090.89  160.48
   8   0   0 1202.48   60.49
   8   0   0 1078.09  114.39
   8   0   0 1167.48   69.69
   8   0   0 1082.89   62.79
   9   0   0  -47.60   44.20
   9   0   0   21.80   17.00
   9  -1   0  330.37   70.69
   9  -1   0  212.28   84.49
   9  -1   0  349.57   42.60
   9  -1   0  340.47   35.10
  -9   1   0  359.66   39.70
   8  -1   0  212.98   28.50
   8  -1   0  195.48   31.50
   8  -1   0  119.09   54.99
   8  -1   0  204.78   52.29
   8  -1   0  178.68   28.20
  -8   1   0  182.28   28.80
  -8   1   0  232.78   31.50
   7  -1   0  440.86   34.60
   7  -1   0  435.86   35.60
   7  -1   0  437.66  105.69
   7  -1   0  520.35   67.99
   7  -1   0  411.46   30.10
  -7   1   0  444.26   34.30
  -7   1   0  482.85   38.90
  -7   1   0  376.26   52.59
   6  -1   0 1826.12  128.19
   6  -1   0 1826.02   77.89
   6  -1   0 1794.72   73.59
   6  -1   0 1884.31  175.38
   6  -1   0 1916.91   68.69
  -6   1   0 1884.71   75.59
  -6   1   0 1813.32  111.19
  -6   1   0 1960.10   80.49
   5  -1   0  822.72   70.09
   5  -1   0  796.52   35.50
   5  -1   0  818.62  106.09
   5  -1   0  718.03   39.80
   5  -1   0  779.72   38.80
  -5   1   0  817.72   42.90
  -5   1   0  804.82   51.19
  -5   1   0  785.62   60.19
  -5   1   0  751.92   39.20
   4  -1   0   19.00   23.60
   4  -1   0    2.30    4.60
   4  -1   0   -1.90    4.30
   4  -1   0    4.50    6.60
   4  -1   0    1.50    5.80
   4  -1   0   -0.20   10.00
  -4   1   0   -1.30    4.70
  -4   1   0    1.70    8.90
  -4   1   0    0.40    5.50
  -4   1   0    5.40    6.30
   3  -1   0 1377.06   82.49
   3  -1   0 1470.65  109.29
   3  -1   0 1370.86   51.19
   3  -1   0 1344.47   47.30
   3  -1   0 1334.57   49.30
   3  -1   0 1389.96   71.99
   3  -1   0 1551.04   80.39
  -3   1   0 1293.27   47.40
  -3   1   0 1333.77   71.89
  -3   1   0 1294.77   50.29
  -3   1   0 1472.35   48.40
  -3   1   0 1343.17   77.29
   2  -1   0 4205.28  118.29
   2  -1   0 3958.50  120.49
   2  -1   0 4284.57  213.58
   2  -1   0 3943.71  233.18
   2  -1   0 4087.49  117.79
   2  -1   0 3885.21  104.39
   2  -1   0 4059.99  122.09
   2  -1   0 4428.86  183.38
   2  -1   0 4426.86  184.68
  -2   1   0 4209.48  183.38
  -2   1   0 4029.50  117.99
  -2   1   0 4129.59  121.99
  -2   1   0 4262.57  118.09
  -2   1   0 4161.68  210.68
  -2   1   0 4175.78  120.39
   1  -1   0 1184.28   72.79
   1  -1   0 1138.09   35.70
   1  -1   0 1174.18   35.10
   1  -1   0 1192.38   34.50
   1  -1   0 1173.38   34.20
   1  -1   0 1131.29   30.60
   1  -1   0 1119.19   63.69
  -1   1   0 1128.19   35.50
  -1   1   0 1230.68   34.40
  -1   1   0 1148.89   63.89
  -1   1   0 1153.58   34.50
  -1   1   0 1192.48   30.80
  -1   1   0 1205.48   35.10
   0  -1   0   35.80    3.80
   0  -1   0   21.40    3.60
   0  -1   0   34.00    3.50
   0  -1   0   27.50    6.10
   0  -1   0   30.20    3.20
   0  -1   0   22.80    3.00
   0  -1   0   31.30    5.80
   0   1   0   39.20    3.50
   0   1   0   33.70    4.20
   0   1   0   24.30    3.10
   0   1   0   27.60    3.30
   0   1   0   29.80    4.00
   0   1   0   30.00    6.20
  -1  -1   0 3108.49   94.39
  -1  -1   0 3347.06   94.29
  -1  -1   0 2957.10  177.98
  -1  -1   0 3155.58  138.49
  -1  -1   0 3122.09  146.29
  -1  -1   0 3271.47   91.69
  -1  -1   0 3182.98   91.59
   1   1   0 3271.87  139.39
   1   1   0 3192.58   91.59
   1   1   0 3240.08   94.39
   1   1   0 3314.37   91.79
   1   1   0 2996.80  150.68
   1   1   0 3124.19   94.39
   1   1   0 3084.09  145.89
   1   1   0 3069.49  179.78
  -2  -1   0 3572.54  167.28
  -2  -1   0 3312.17  161.58
  -2  -1   0 3500.35  104.59
  -2  -1   0 3235.98  105.09
  -2  -1   0 3362.46  154.78
  -2  -1   0 3136.99  210.68
  -2  -1   0 3432.06  101.39
  -2  -1   0 3366.26  101.59
   2   1   0 3407.96  105.79
   2   1   0 3421.66  161.68
   2   1   0 3498.45  205.98
   2   1   0 3533.95  156.88
   2   1   0 3437.06  105.19
   2   1   0 2957.80  167.48
   2   1   0 3439.36  101.59
   2   1   0 3430.96  101.59
  -3  -1   0   98.19   11.60
  -3  -1   0   75.29   12.70
  -3  -1   0   57.09   15.20
   3   1   0   82.09   12.40
   3   1   0   55.29   28.40
   3   1   0   76.79   20.80
   3   1   0   83.79   11.60
  -4  -1   0  305.77   41.50
  -4  -1   0  254.57   24.00
  -4  -1   0  270.57   21.20
   4   1   0  345.97   72.39
   4   1   0  230.38   20.90
   4   1   0  283.27   42.80
   4   1   0  263.27   22.10
  -5  -1   0 1522.25   66.29
  -5  -1   0 1626.84  107.39
  -5  -1   0 1687.03   71.89
   5   1   0 1592.84   69.69
   5   1   0 1483.35  115.19
   5   1   0 1697.23  157.88
   5   1   0 1626.84   66.39
  -6  -1   0  897.71   50.59
  -6  -1   0  928.91   54.89
  -6  -1   0  810.42   79.29
   6   1   0  891.81   90.79
   6   1   0  864.11   49.20
   6   1   0  932.01   54.19
   6   1   0  847.82   43.40
   6   1   0  955.70  126.39
  -7  -1   0   26.50   15.70
  -7  -1   0  -27.70   21.80
  -7  -1   0   33.50   17.40
   7   1   0  -15.40   34.80
   7   1   0   -1.40    9.00
   7   1   0    0.40    9.50
   7   1   0    6.80    9.90
   7   1   0   -1.00   26.30
  -8  -1   0  217.28   29.70
  -8  -1   0  202.68   34.70
   8   1   0  235.18   38.00
   8   1   0  179.68   29.80
   8   1   0  147.39   52.89
   8   1   0  231.68   28.50
   8   1   0  150.28   65.39
   9   1   0  444.46   41.20
  10  -2   0   20.70   14.30
   9  -2   0  387.06   67.99
   9  -2   0  143.59   75.69
   9  -2   0  245.78   35.20
   9  -2   0  270.17   30.70
  -9   2   0  267.67   35.60
   8  -2   0  790.42   89.19
   8  -2   0  681.93   43.10
   8  -2   0  677.43   47.70
   8  -2   0  664.43  131.89
  -8   2   0  648.84   44.50
  -8   2   0  711.03   47.90
   7  -2   0  609.54   72.89
   7  -2   0  567.84   40.50
   7  -2   0  598.24   36.30
   7  -2   0  543.05   36.60
   7  -2   0  543.75  100.09
  -7   2   0  587.24   40.60
  -7   2   0  538.15   36.80
  -7   2   0  574.94   38.90
   6  -2   0   51.99   34.20
   6  -2   0   72.99   26.20
   6  -2   0   96.29   16.40
   6  -2   0   73.89   14.30
   6  -2   0   63.59   15.60
  -6   2   0   84.59   16.70
  -6   2   0   92.89   18.20
  -6   2   0   82.99   17.20
   5  -2   0 2318.97  141.29
   5  -2   0 2361.96   80.99
   5  -2   0 2399.56   74.79
   5  -2   0 2399.46  187.58
   5  -2   0 2278.87   84.19
  -5   2   0 2285.77  129.29
  -5   2   0 2389.16   82.59
  -5   2   0 2398.86   86.19
   4  -2   0 2015.10  130.09
   4  -2   0 2329.77   80.79
   4  -2   0 2190.38   77.19
   4  -2   0 2294.37   74.99
   4  -2   0 2508.45  112.49
   4  -2   0 2345.47  168.18
   4  -2   0 2270.87   68.39
  -4   2   0 2329.67  126.89
  -4   2   0 2304.87   79.29
  -4   2   0 2201.88   75.19
  -4   2   0 2241.18   76.39
  -4   2   0 2440.26   75.99
   3  -2   0  373.26   18.40
   3  -2   0  388.06   19.60
   3  -2   0  405.56   35.70
   3  -2   0  357.16   17.30
   3  -2   0  389.16   25.60
   3  -2   0  367.26   50.99
   3  -2   0  382.76   20.60
  -3   2   0  395.86   19.90
  -3   2   0  391.96   20.40
  -3   2   0  361.26   18.80
  -3   2   0  396.26   31.80
  -3   2   0  380.76   18.70
   2  -2   0 1950.10   57.29
   2  -2   0 1930.11   51.79
   2  -2   0 1916.21  107.99
   2  -2   0 1966.10   59.19
   2  -2   0 1920.61  124.29
   2  -2   0 1951.70   57.79
   2  -2   0 1935.81   60.49
  -2   2   0 1859.01   59.49
  -2   2   0 1892.01  107.49
  -2   2   0 1952.40   57.59
  -2   2   0 1846.22   57.69
  -2   2   0 1975.70   58.79
  -2   2   0 1920.51   59.89
   1  -2   0 4394.26  229.98
   1  -2   0 4390.36  194.88
   1  -2   0 4478.85  125.89
   1  -2   0 3986.80  125.89
   1  -2   0 4419.86  121.59
  -1   2   0 4615.64  122.99
  -1   2   0 3995.20  124.59
  -1   2   0 4428.46  124.69
  -1   2   0 4731.93  122.89
  -1   2   0 4736.53  125.09
   0  -2   0 4537.75  130.29
   0  -2   0 4509.45  187.98
   0  -2   0 4393.66  129.19
   0  -2   0 4331.37  202.78
   0  -2   0 4835.62  208.28
   0  -2   0 4520.25  125.89
   0  -2   0 4533.25  126.19
   0   2   0 4541.55  125.99
   0   2   0 4430.26  188.28
   0   2   0 4404.66  126.09
   0   2   0 4468.55  131.19
   0   2   0 4259.17  202.38
   0   2   0 4708.03  129.39
  -1  -2   0  925.61   35.30
  -1  -2   0  934.61   33.90
  -1  -2   0  915.31   57.79
  -1  -2   0  880.01   35.30
  -1  -2   0  936.91   34.10
  -1  -2   0  913.41   75.59
  -1  -2   0  932.01   49.40
  -1  -2   0  891.41   56.09
   1   2   0  934.11   33.70
   1   2   0  961.80   34.60
   1   2   0  973.90   50.59
   1   2   0  929.41   35.90
   1   2   0  881.51   55.49
   1   2   0  971.00   57.39
   1   2   0  933.31   35.60
  -2  -2   0 2911.01   91.79
  -2  -2   0 2876.81   95.49
  -2  -2   0 2908.31  147.99
  -2  -2   0 2577.74  150.08
  -2  -2   0 3058.99  138.49
   2   2   0 2894.71  153.58
   2   2   0 3046.80  188.48
   2   2   0 2965.00   95.59
   2   2   0 2985.40   91.99
  -3  -2   0 3782.52  118.29
  -3  -2   0 3837.22  179.68
  -3  -2   0 3717.33  123.09
  -3  -2   0 3703.23  189.48
   3   2   0 3379.66  196.98
   3   2   0 4066.99  246.78
   3   2   0 3472.55  116.69
   3   2   0 3825.52  123.29
  -4  -2   0  845.02   42.90
  -4  -2   0  920.51   48.10
  -4  -2   0  892.71   73.79
   4   2   0  911.11   44.50
   4   2   0  857.91   46.30
   4   2   0  872.81   81.19
   4   2   0  975.60  105.29
  -5  -2   0   -0.20   13.50
  -5  -2   0    8.00    9.10
  -5  -2   0    1.20    8.30
   5   2   0    8.80    9.20
   5   2   0    6.10   22.10
   5   2   0    6.90   23.90
   5   2   0    8.50   11.00
  -6  -2   0  717.73   48.90
  -6  -2   0  756.42   46.20
  -6  -2   0  664.43   78.09
   6   2   0  740.33   46.80
   6   2   0  721.83   88.39
   6   2   0  679.93  114.79
   6   2   0  739.13   50.19
  -7  -2   0  650.53   48.80
  -7  -2   0  766.62   53.39
  -7  -2   0  543.75   81.19
   7   2   0  661.23   46.80
   7   2   0  750.82   54.99
   7   2   0  738.63   44.90
   7   2   0  739.23  126.99
   7   2   0  613.54   96.59
  -8  -2   0  167.38   30.70
  -8  -2   0  144.89   30.50
   8   2   0  164.18   26.80
   8   2   0  162.48   32.90
   8   2   0  129.49   28.60
   8   2   0   77.59   48.30
  10  -3   0  465.05   42.20
   9  -3   0  280.27   57.69
   9  -3   0  170.18   30.10
   9  -3   0   33.00   63.89
   9  -3   0  190.28   28.10
  -9   3   0  172.18   30.00
   8  -3   0   55.69   16.60
   8  -3   0   54.89   29.20
   8  -3   0  -28.70   44.30
   8  -3   0   48.80   15.70
  -8   3   0   43.30   17.10
  -8   3   0   49.70   15.80
   7  -3   0 1265.07  105.19
   7  -3   0 1213.18   56.09
   7  -3   0 1154.78  149.19
   7  -3   0 1188.08   59.29
   7  -3   0 1239.98   54.29
  -7   3   0 1236.38   59.49
  -7   3   0 1239.28   57.99
  -7   3   0 1248.98   58.89
   6  -3   0 1227.88   51.59
   6  -3   0 1205.18  135.79
   6  -3   0 1205.58   49.00
   6  -3   0 1124.29   53.59
   6  -3   0 1235.88   97.39
  -6   3   0 1157.78   53.69
  -6   3   0 1134.49   52.19
  -6   3   0 1198.18   52.89
   5  -3   0   35.10    8.60
   5  -3   0   44.10   17.90
   5  -3   0   49.50   10.70
   5  -3   0   65.39   12.50
   5  -3   0   49.80   10.50
   5  -3   0   41.60   29.80
  -5   3   0   76.79   13.50
  -5   3   0   73.09   13.00
  -5   3   0   47.10   11.40
   4  -3   0  384.26   27.30
   4  -3   0  403.56   23.90
   4  -3   0  365.56   21.60
   4  -3   0  405.36   21.10
   4  -3   0  412.96   43.10
   4  -3   0  378.16   61.09
   4  -3   0  402.56   20.50
  -4   3   0  407.16   36.00
  -4   3   0  430.66   23.60
  -4   3   0  390.96   22.90
  -4   3   0  411.16   22.30
  -4   3   0  423.66   21.80
   3  -3   0 1800.12  111.29
   3  -3   0 1845.52   58.19
   3  -3   0 1879.51   62.99
   3  -3   0 1864.11   60.59
   3  -3   0 1865.31  134.79
   3  -3   0 1849.61   53.69
  -3   3   0 1942.91   61.39
  -3   3   0 1857.81   59.39
  -3   3   0 1792.22  109.99
  -3   3   0 1853.31   62.39
  -3   3   0 1930.71   59.09
   2  -3   0 1808.22  109.39
   2  -3   0 1838.52   54.39
   2  -3   0 1773.02   86.59
   2  -3   0 1935.11   56.79
   2  -3   0 1823.82   58.09
   2  -3   0 1852.61   56.79
  -2   3   0 1763.62   59.19
  -2   3   0 1760.12   56.19
  -2   3   0 1841.82   55.59
  -2   3   0 1718.23   57.09
  -2   3   0 1848.12   55.09
  -2   3   0 1864.41   67.09
   1  -3   0 2546.95   72.09
   1  -3   0 2537.55   71.89
   1  -3   0 2441.16  141.09
   1  -3   0 2446.46  117.89
   1  -3   0 2537.05   75.09
   1  -3   0 2294.37   76.29
  -1   3   0 2423.56   73.69
  -1   3   0 2071.19   73.19
  -1   3   0 2583.14   72.99
  -1   3   0 2470.25   76.09
  -1   3   0 2537.15   83.99
  -1   3   0 2390.86   72.99
   0  -3   0 1281.07   42.70
   0  -3   0 1275.27   44.80
   0  -3   0 1287.77   43.50
   0  -3   0 1395.46   46.40
   0  -3   0 1220.98   72.99
   0  -3   0 1275.17   59.99
   0  -3   0 1374.66   74.99
   0   3   0 1321.17   43.10
   0   3   0 1253.47   60.89
   0   3   0 1232.08   72.09
   0   3   0 1284.07   50.29
   0   3   0 1279.57   47.60
   0   3   0 1316.07   44.50
   0   3   0 1305.27   43.70
  -1  -3   0 7854.71  365.66
  -1  -3   0 8079.09  233.68
  -1  -3   0 8088.19  340.57
  -1  -3   0 8110.99  234.48
  -1  -3   0 7972.70  227.28
   1   3   0 8292.67  342.27
   1   3   0 7869.81  234.38
   1   3   0 8095.49  370.26
   1   3   0 8072.09  249.28
   1   3   0 7926.41  227.88
   1   3   0 8123.09  227.38
  -2  -3   0  827.12   53.39
  -2  -3   0  821.12   36.80
  -2  -3   0  809.02   63.49
  -2  -3   0  817.32   39.40
   2   3   0  832.32   37.40
   2   3   0  855.31   39.30
   2   3   0  815.12   62.59
  -3  -3   0  345.57   47.70
  -3  -3   0  402.26   41.30
  -3  -3   0  359.26   26.90
  -3  -3   0  307.77   24.90
   3   3   0  442.86   52.59
   3   3   0  371.86   26.70
   3   3   0  387.96   28.60
  -4  -3   0 1459.15   66.39
  -4  -3   0 1459.65   62.49
  -4  -3   0 1469.55  105.39
   4   3   0 1391.36   61.49
   4   3   0 1437.46  110.69
   4   3   0 1412.96   65.59
  -5  -3   0  628.34   44.80
  -5  -3   0  600.44   40.70
  -5  -3   0  521.65   69.89
   5   3   0  479.85   76.69
   5   3   0  649.04   41.80
   5   3   0  643.84   43.40
  -6  -3   0   72.89   20.60
  -6  -3   0   19.20   21.60
  -6  -3   0   65.79   19.80
   6   3   0  -14.10   28.80
   6   3   0   45.50   18.40
   6   3   0   49.80   18.00
  -7  -3   0   43.30   21.30
  -7  -3   0   62.99   23.00
  -7  -3   0  -40.10   27.20
   7   3   0    2.40   15.10
   7   3   0   38.70   16.60
   7   3   0  -39.10   32.70
   7   3   0    6.90   13.70
  -8  -3   0  432.96   45.80
   8   3   0  390.96   49.99
   8   3   0  367.86   35.10
   8   3   0  321.77   41.60
  10  -4   0  102.39   23.60
   9  -4   0  549.74   72.49
   9  -4   0  382.06   34.50
   9  -4   0  365.36   37.50
   9  -4   0  183.58   85.19
  -9   4   0  391.56   37.00
   8  -4   0  819.52   90.69
   8  -4   0  687.93   46.50
   8  -4   0  818.32   44.40
   8  -4   0  611.84  131.09
  -8   4   0  708.13   46.00
  -8   4   0  663.03   42.70
   7  -4   0    6.00    7.40
   7  -4   0   12.30   10.70
   7  -4   0   -6.60   34.80
   7  -4   0   14.10   17.40
  -7   4   0   17.90   11.70
  -7   4   0   10.90    8.80
   6  -4   0  872.11   42.70
   6  -4   0  660.73   71.89
   6  -4   0  819.12  111.49
   6  -4   0  850.01   39.20
   6  -4   0  817.92   37.60
  -6   4   0  861.11   41.30
  -6   4   0  836.22   41.00
  -6   4   0  842.32   42.30
   5  -4   0 1629.84  144.29
   5  -4   0 1670.13   58.59
   5  -4   0 1570.64   64.59
   5  -4   0 1641.54   55.59
   5  -4   0 1589.34   61.19
   5  -4   0 1605.74   78.69
   5  -4   0 1685.03  115.69
  -5   4   0 1678.13   61.29
  -5   4   0 1667.23   59.29
  -5   4   0 1639.64   60.19
  -5   4   0 1586.44   62.49
   4  -4   0 1112.79   39.50
   4  -4   0 1165.18   58.69
   4  -4   0 1166.48   84.09
   4  -4   0 1107.39  108.49
   4  -4   0 1136.99   44.00
   4  -4   0 1181.18   47.10
   4  -4   0 1154.58   41.60
  -4   4   0 1139.09   43.10
  -4   4   0 1173.18   42.60
  -4   4   0 1141.19   43.40
  -4   4   0 1153.78   46.90
   3  -4   0  147.09   11.10
   3  -4   0  105.19   30.40
   3  -4   0  148.89   12.10
   3  -4   0  147.09   15.10
   3  -4   0  149.19   10.30
   3  -4   0  145.19   26.30
  -3   4   0  150.08   16.40
  -3   4   0  144.99   10.90
  -3   4   0  143.29   11.10
  -3   4   0  146.39   13.60
  -3   4   0  145.19   11.30
   2  -4   0 2593.84  155.28
   2  -4   0 2638.14   82.39
   2  -4   0 2597.04  125.69
   2  -4   0 2609.84   76.19
   2  -4   0 2615.54   80.99
  -2   4   0 2577.64   93.09
  -2   4   0 2660.93   77.79
  -2   4   0 2515.35   79.29
  -2   4   0 2596.64   83.59
  -2   4   0 2542.95   77.99
   1  -4   0 3376.36  202.18
   1  -4   0 3654.13  172.18
   1  -4   0 3577.14  105.49
   1  -4   0 3486.55  110.89
   1  -4   0 3428.36  153.78
   1  -4   0 3695.73  108.59
  -1   4   0 3600.24  120.79
  -1   4   0 3766.32  105.19
  -1   4   0 3671.13  108.09
  -1   4   0 3285.87  107.09
   0  -4   0 1013.80   67.89
   0  -4   0 1053.79   41.20
   0  -4   0 1059.69   52.59
   0  -4   0 1075.79   42.10
   0  -4   0 1072.09   40.30
   0   4   0 1069.39   40.50
   0   4   0 1068.59   39.10
   0   4   0 1100.69   48.50
   0   4   0 1030.50   44.50
  -1  -4   0 1183.48   62.79
  -1  -4   0 1152.08   48.10
  -1  -4   0 1097.29   44.40
  -1  -4   0 1180.48   78.79
   1   4   0 1189.98   49.60
   1   4   0 1148.99   53.39
   1   4   0 1104.49   62.39
   1   4   0 1222.88   76.89
   1   4   0 1164.28   46.20
  -2  -4   0 2915.91  103.49
  -2  -4   0 2903.81   98.69
  -2  -4   0 2888.01  163.68
  -2  -4   0 3031.20  144.29
   2   4   0 2951.10   99.89
   2   4   0 3098.69  162.98
   2   4   0 3013.40  104.59
  -3  -4   0  893.01   48.90
  -3  -4   0  944.91   82.29
  -3  -4   0  905.31   45.90
   3   4   0  935.41   47.00
   3   4   0  924.01   49.30
   3   4   0  971.10   82.19
  -4  -4   0   38.70   12.70
  -4  -4   0   27.40   22.60
  -4  -4   0   31.10   13.30
   4   4   0   42.60   28.00
   4   4   0   43.70   16.00
   4   4   0   36.40   13.70
  -5  -4   0  373.86   42.20
  -5  -4   0  259.47   27.80
  -5  -4   0  244.88   51.99
  -5  -4   0  286.17   33.70
   5   4   0  219.38   50.79
   5   4   0  277.67   30.80
   5   4   0  286.47   31.30
  -6  -4   0  728.13   55.09
  -6  -4   0  762.72   52.29
  -6  -4   0  656.83   91.99
   6   4   0  743.93   98.49
   6   4   0  835.72   58.69
   6   4   0  687.33   51.09
  -7  -4   0  237.28   37.90
  -7  -4   0  205.68   36.40
   7   4   0  264.17   42.40
   7   4   0  293.17   29.40
   7   4   0  210.08   36.00
   8   4   0   14.10   15.40
 -10   5   0  367.66   43.00
   9  -5   0    3.90   12.00
   9  -5   0  -54.79   46.20
   9  -5   0   -9.10    8.40
  -9   5   0    1.90   13.00
  -9   5   0  -11.20   12.00
   8  -5   0  270.87   80.19
   8  -5   0  460.35   31.60
   8  -5   0  416.26   34.50
   8  -5   0  463.75   66.79
  -8   5   0  405.36   33.40
  -8   5   0  417.46   32.90
   7  -5   0 1072.99   53.89
   7  -5   0 1195.88  150.98
   7  -5   0 1194.18   50.49
  -7   5   0 1184.28   53.89
  -7   5   0 1102.59   54.69
   6  -5   0 1076.59   48.70
   6  -5   0 1048.70  122.79
   6  -5   0 1125.79   45.40
   6  -5   0  985.90   93.59
  -6   5   0 1113.29   48.20
  -6   5   0 1100.19   51.49
   5  -5   0  587.04   27.80
   5  -5   0  606.24   89.69
   5  -5   0  595.84   64.99
   5  -5   0  553.54   32.90
   5  -5   0  569.64   31.40
   5  -5   0  543.65   29.50
  -5   5   0  554.74   38.60
  -5   5   0  588.44   33.00
  -5   5   0  591.34   30.00
  -5   5   0  615.84   29.50
   4  -5   0 2069.69   69.79
   4  -5   0 2051.59   99.79
   4  -5   0 2072.39   73.19
   4  -5   0 2003.90  163.78
   4  -5   0 2038.80   65.69
   4  -5   0 2133.69  137.29
  -4   5   0 2074.49   74.99
  -4   5   0 2109.39   68.49
  -4   5   0 2191.68   68.49
  -4   5   0 2089.29   85.69
  -4   5   0 1972.60   66.89
   3  -5   0 1219.58   94.59
   3  -5   0 1377.76   71.49
   3  -5   0 1279.47   42.60
   3  -5   0 1267.47   45.80
   3  -5   0 1250.07   48.10
  -3   5   0 1358.96   46.80
  -3   5   0 1266.67   58.79
  -3   5   0 1244.38   51.39
  -3   5   0 1241.88   44.60
   2  -5   0  488.55   27.00
   2  -5   0  485.25   40.00
   2  -5   0  536.35   26.90
   2  -5   0  533.95   21.70
   2  -5   0  525.05   55.09
  -2   5   0  503.55   24.50
  -2   5   0  481.35   27.30
  -2   5   0  515.15   32.20
  -2   5   0  526.35   24.90
   1  -5   0  673.63   36.80
   1  -5   0  636.04   51.59
   1  -5   0  676.23   30.70
   1  -5   0  704.53   32.80
   1  -5   0  615.24   61.79
   1  -5   0  710.03   31.60
  -1   5   0  697.43   38.90
  -1   5   0  676.33   33.30
  -1   5   0  724.93   32.20
  -1   5   0  731.23   29.50
   0  -5   0  591.04   30.90
   0  -5   0  581.14   60.09
   0  -5   0  631.04   30.60
   0  -5   0  652.53   36.30
   0  -5   0  649.04   31.90
   0  -5   0  580.24   53.49
   0   5   0  663.03   29.60
   0   5   0  650.83   37.90
   0   5   0  529.35   33.10
   0   5   0  648.64   31.40
  -1  -5   0 2234.78   78.09
  -1  -5   0 2131.39   81.49
  -1  -5   0 2380.16  109.69
  -1  -5   0 2251.77  134.19
   1   5   0 2212.98   84.49
   1   5   0 2329.97   92.89
   1   5   0 2322.57   80.19
   1   5   0 2173.98  109.59
  -2  -5   0  641.94   49.60
  -2  -5   0  647.84   39.20
  -2  -5   0  651.83   68.69
  -2  -5   0  633.14   35.50
   2   5   0  608.34   35.50
   2   5   0  673.63   61.99
   2   5   0  629.44   38.30
  -3  -5   0 1400.06   62.19
  -3  -5   0 1328.57  107.69
  -3  -5   0 1376.56   66.19
  -3  -5   0 1413.26  107.69
   3   5   0 1534.05  105.79
   3   5   0 1432.36   67.49
   3   5   0 1439.36   63.79
  -4  -5   0 1216.68   65.39
  -4  -5   0 1210.58   61.99
  -4  -5   0 1325.77  103.99
  -4  -5   0 1281.77  110.89
   4   5   0 1243.98   66.39
   4   5   0 1247.48   63.59
   4   5   0 1249.68  103.19
  -5  -5   0  170.08   40.80
  -5  -5   0  327.57   37.20
  -5  -5   0  261.57   31.30
   5   5   0  205.88   51.29
   5   5   0  250.97   29.70
   5   5   0  268.77   32.40
  -6  -5   0   44.50   23.00
  -6  -5   0   23.60   17.50
   6   5   0   49.50   16.30
   6   5   0    6.40   17.20
   6   5   0   50.59   20.90
  -7  -5   0  454.25   44.90
   7   5   0  366.16   45.80
   7   5   0  447.66   38.10
 -10   6   0  282.87   38.70
   9  -6   0  274.17   85.79
   9  -6   0  424.76   37.30
   9  -6   0  545.85   74.89
  -9   6   0  363.06   33.10
  -9   6   0  340.27   40.70
   8  -6   0  104.39   21.10
   8  -6   0   79.79   29.60
   8  -6   0   88.79   57.49
  -8   6   0  107.49   19.60
  -8   6   0  101.39   20.40
  -8   6   0  112.69   27.40
   7  -6   0   70.59   44.80
  -7   6   0  125.09   18.80
  -7   6   0   81.09   20.60
   6  -6   0 1031.40   47.20
   6  -6   0 1047.30  125.69
   6  -6   0 1040.90   98.69
  -6   6   0 1056.19   46.40
  -6   6   0 1102.09   52.59
  -6   6   0 1067.09   61.69
   5  -6   0 1296.37  102.99
   5  -6   0 1195.08   49.60
   5  -6   0 1237.08   64.39
   5  -6   0 1314.77  135.19
  -5   6   0 1255.67   55.79
  -5   6   0 1171.68   63.59
  -5   6   0 1273.57   48.90
   4  -6   0   97.59   12.40
   4  -6   0   63.39   22.30
   4  -6   0   98.49   16.10
   4  -6   0   63.09   33.00
   4  -6   0  104.19   12.10
   4  -6   0  106.39   10.00
  -4   6   0  100.49   12.90
  -4   6   0   87.49   11.90
  -4   6   0   87.79   18.80
  -4   6   0  109.99   17.70
  -4   6   0   99.99    8.70
   3  -6   0 1345.27   44.70
   3  -6   0 1306.57  104.59
   3  -6   0 1333.77   77.79
   3  -6   0 1307.77   49.30
   3  -6   0 1320.27   53.49
  -3   6   0 1356.46   47.70
  -3   6   0 1322.77   55.89
  -3   6   0 1275.27   62.99
  -3   6   0 1277.57   44.10
   2  -6   0 1790.42   74.09
   2  -6   0 2058.39  146.49
   2  -6   0 2211.38   67.99
   2  -6   0 2219.58  119.09
   2  -6   0 2041.60   76.69
  -2   6   0 2269.57   73.89
  -2   6   0 2279.17   70.89
  -2   6   0 2093.89   87.99
   1  -6   0  533.75   50.49
   1  -6   0  526.95   30.00
   1  -6   0  554.64   30.10
   1  -6   0  523.55   28.40
   1  -6   0  539.45   29.60
   1  -6   0  501.65   59.29
  -1   6   0  535.25   29.10
  -1   6   0  526.65   31.40
  -1   6   0  529.85   36.30
  -1   6   0  559.04   27.10
   0  -6   0    4.90    8.00
   0  -6   0    4.00    8.10
   0  -6   0    6.50    7.60
   0  -6   0   -6.50   11.70
   0  -6   0    2.50   10.40
   0   6   0    4.10    6.20
   0   6   0    5.60    8.90
   0   6   0   22.90   11.90
   0   6   0    8.40   10.20
  -1  -6   0 1202.88   52.39
  -1  -6   0 1244.38   56.59
  -1  -6   0 1260.87   67.09
  -1  -6   0 1225.08   93.89
  -1  -6   0 1193.58  103.09
   1   6   0 1168.18   72.49
   1   6   0 1181.88   64.39
   1   6   0 1196.18   58.59
   1   6   0 1259.77   54.69
  -2  -6   0 1343.77   63.69
  -2  -6   0 1360.16  110.89
  -2  -6   0 1343.87  107.39
  -2  -6   0 1251.67   57.49
   2   6   0 1271.77   59.89
   2   6   0 1278.67   63.29
  -3  -6   0  174.08   41.30
  -3  -6   0  320.57   30.70
  -3  -6   0  429.06   56.69
  -3  -6   0  264.37   27.30
   3   6   0  298.67   30.70
   3   6   0  323.87   31.10
   3   6   0  240.98   49.99
  -4  -6   0  126.49   24.50
  -4  -6   0   99.99   23.10
  -4  -6   0   63.39   28.80
   4   6   0   97.59   23.10
   4   6   0  145.39   25.20
   4   6   0   62.69   30.20
  -5  -6   0  652.53   53.19
  -5  -6   0  638.44   48.90
  -5  -6   0  486.15   93.59
   5   6   0  627.34   52.99
   5   6   0  618.54   83.59
   5   6   0  633.84   50.09
  -6  -6   0  244.28   37.80
  -6  -6   0  288.17   45.20
   6   6   0  267.97   42.20
   6   6   0  265.17   38.70
   6   6   0  284.07   29.80
   7   6   0   18.70   15.10
 -10   7   0   41.10   22.80
   9  -7   0  124.09   23.10
   9  -7   0  129.79   72.49
  -9   7   0  148.79   34.90
  -9   7   0  160.48   24.40
   8  -7   0  809.72  133.29
   8  -7   0  828.62   47.70
  -8   7   0  845.02   62.49
  -8   7   0  940.81   47.60
  -8   7   0  844.62   50.79
   7  -7   0  458.75   31.50
   7  -7   0  522.85   97.99
  -7   7   0  462.25   35.60
  -7   7   0  463.05   43.80
  -7   7   0  504.75   31.50
   6  -7   0    7.40    8.60
   6  -7   0    0.70   27.30
   6  -7   0   -1.90   17.50
  -6   7   0    5.80   10.20
  -6   7   0    1.60    7.70
  -6   7   0   -0.90   12.20
   5  -7   0  737.93   78.39
   5  -7   0  710.23   98.59
   5  -7   0  677.73   33.70
  -5   7   0  693.53   32.90
  -5   7   0  683.03   40.70
  -5   7   0  705.73   48.60
   4  -7   0 1535.95   58.69
   4  -7   0 1635.14  126.69
   4  -7   0 1571.34   89.89
   4  -7   0 1644.94  153.58
  -4   7   0 1602.24   78.79
  -4   7   0 1704.73   58.59
  -4   7   0 1705.53   69.69
   3  -7   0  538.05   29.00
   3  -7   0  514.95   66.39
   3  -7   0  536.45   46.70
  -3   7   0  546.05   27.60
  -3   7   0  472.15   37.60
   2  -7   0   -3.20    9.80
   2  -7   0    3.80    3.90
   2  -7   0   -6.60    8.50
   2  -7   0    0.40    5.40
   2  -7   0   -0.30    7.20
  -2   7   0   -3.00    9.30
  -2   7   0   -0.50    2.50
  -2   7   0    3.90    8.90
  -2   7   0   14.40    6.90
   1  -7   0 1293.27   55.29
   1  -7   0 1261.07   56.39
   1  -7   0 1239.78   52.49
   1  -7   0 1257.07  108.99
   1  -7   0 1369.66   94.09
  -1   7   0 1277.67   67.09
  -1   7   0 1108.79   54.69
  -1   7   0 1294.67   53.29
   0  -7   0 1998.40   79.39
   0  -7   0 2129.59  135.59
   0  -7   0 1990.80  151.18
   0   7   0 2073.09   79.49
   0   7   0 2082.19   95.29
  -1  -7   0  179.38   20.80
  -1  -7   0  172.48   22.70
  -1  -7   0  205.28   47.60
  -1  -7   0  132.89   33.00
   1   7   0  212.08   22.00
   1   7   0  193.28   32.90
   1   7   0  176.88   24.70
  -2  -7   0  334.37   56.99
  -2  -7   0  194.68   24.30
  -2  -7   0  109.29   34.20
  -2  -7   0  196.48   23.40
   2   7   0  213.98   28.00
   2   7   0  183.48   25.70
  -3  -7   0 1179.48  107.39
  -3  -7   0 1096.79  111.79
  -3  -7   0 1046.80   62.59
  -3  -7   0 1027.60   57.09
   3   7   0 1061.89   60.39
   3   7   0 1029.50   63.59
  -4  -7   0  211.38   52.09
  -4  -7   0  344.57   38.90
   4   7   0  347.97   38.30
  -5  -7   0  -33.20   24.70
  -5  -7   0    1.70   18.80
   5   7   0  -10.20   16.90
   6   7   0  101.29   21.10
 -10   8   0  191.78   40.80
   9  -8   0  335.27   34.00
  -9   8   0  352.86   44.70
  -9   8   0  404.56   32.20
   8  -8   0   -0.50   10.20
   8  -8   0   10.10   32.50
  -8   8   0    5.40    9.40
  -8   8   0   14.50   18.70
  -8   8   0    2.70   11.10
   7  -8   0  656.53  110.89
   7  -8   0  604.04   36.60
   7  -8   0  500.35   85.09
  -7   8   0  681.23   54.99
  -7   8   0  604.94   34.00
  -7   8   0  625.84   42.70
   6  -8   0 1013.70  103.89
   6  -8   0  982.70   46.00
   6  -8   0 1060.29  137.59
  -6   8   0  980.00   54.49
  -6   8   0 1033.90   44.50
  -6   8   0 1043.10   66.29
   5  -8   0  308.47   22.20
   5  -8   0  306.67   58.59
   5  -8   0  352.36   80.79
  -5   8   0  268.87   33.40
  -5   8   0  274.07   27.70
  -5   8   0  287.77   20.90
   4  -8   0  356.26   24.10
   4  -8   0  430.26   65.99
   4  -8   0  407.56   40.60
  -4   8   0  400.56   24.00
  -4   8   0  403.26   38.50
   3  -8   0 1214.88   52.49
   3  -8   0 1199.18   82.59
   3  -8   0 1099.39  106.79
  -3   8   0 1160.48   68.19
  -3   8   0 1200.38   48.40
   2  -8   0  619.54   79.49
   2  -8   0  634.14   60.89
   2  -8   0  521.55   36.70
  -2   8   0  642.04   47.40
  -2   8   0  603.54   36.60
   1  -8   0   12.00   15.20
   1  -8   0    9.80   15.10
   1  -8   0   24.10   11.40
  -1   8   0   19.50   12.90
  -1   8   0    2.80   12.10
   0  -8   0  287.97   27.10
   0  -8   0  235.58   45.30
   0  -8   0  285.07   59.49
   0   8   0  281.77   28.70
   0   8   0  254.87   33.40
  -1  -8   0  574.64   76.29
  -1  -8   0  576.04   41.10
  -1  -8   0  574.64   75.99
   1   8   0  577.34   41.00
   1   8   0  541.35   49.00
  -2  -8   0  562.34   44.30
  -2  -8   0  493.35   82.79
  -2  -8   0  616.84   80.89
   2   8   0  581.14   43.90
  -3  -8   0  -30.80   26.50
  -3  -8   0   19.60   16.70
   3   8   0    9.40   14.80
  -4  -8   0  342.07   43.20
   4   8   0  356.96   41.50
 -10   9   0    3.80   20.90
   9  -9   0  357.86   33.90
  -9   9   0  331.77   45.70
   8  -9   0  661.23  123.79
   8  -9   0  410.66   31.90
  -8   9   0  434.16   37.90
  -8   9   0  355.06   43.50
  -8   9   0  371.66   28.10
   7  -9   0   97.69   53.89
   7  -9   0   61.29   14.70
  -7   9   0   60.39   25.30
  -7   9   0   65.29   13.30
  -7   9   0   59.49   18.50
   6  -9   0   94.49   34.80
   6  -9   0  120.99   51.89
   6  -9   0  103.69   16.40
  -6   9   0  113.39   30.40
  -6   9   0  110.19   15.10
  -6   9   0  103.79   23.00
   5  -9   0 1045.60  107.59
   5  -9   0  886.71   42.60
   5  -9   0  868.31  121.29
  -5   9   0  893.01   63.29
   4  -9   0  782.62   39.80
   4  -9   0  845.32   97.29
  -4   9   0  809.02   59.79
   3  -9   0    3.00   13.30
   3  -9   0   48.30   26.90
   3  -9   0   30.70   11.70
  -3   9   0   33.60   11.80
  -3   9   0   28.60   14.10
   2  -9   0  589.44   66.29
   2  -9   0  515.25   39.30
   2  -9   0  728.03   91.79
  -2   9   0  634.24   40.00
  -2   9   0  659.83   53.69
   1  -9   0 1228.28   61.79
   1  -9   0 1356.46  129.89
   1  -9   0 1225.38  104.09
  -1   9   0 1120.19   62.29
  -1   9   0 1303.47   78.69
   0  -9   0  408.26   34.70
   0  -9   0  475.85   76.59
   0  -9   0  316.67   62.19
   0   9   0  376.86   43.80
   0   9   0  430.56   37.80
  -1  -9   0   18.70   11.50
  -1  -9   0   23.70   22.60
   1   9   0   10.90   16.20
   1   9   0   29.60   16.70
  -2  -9   0  559.74   75.99
  -2  -9   0  383.46   84.19
  -2  -9   0  471.45   43.70
   2   9   0  456.35   42.70
  -3  -9   0  582.04   51.59
   3   9   0  541.55   50.09
  -9  10   0   17.20   18.30
  -8  10   0  103.49   32.10
  -8  10   0   98.29   24.90
   7 -10   0  604.74   37.00
   7 -10   0  727.03  120.19
   7 -10   0  664.13  100.49
  -7  10   0  518.85   53.39
   6 -10   0  350.86   72.09
   6 -10   0  327.57   26.10
   6 -10   0  549.95  100.89
  -6  10   0  311.37   40.40
   5 -10   0    2.50   16.60
   5 -10   0   -0.70    8.10
  -5  10   0   -6.00    6.80
  -5  10   0   16.60   15.30
   4 -10   0  452.45   30.90
   4 -10   0  473.25   80.99
  -4  10   0  443.96   27.80
  -4  10   0  421.06   46.20
   3 -10   0  918.11   86.09
   3 -10   0 1083.29  120.29
   3 -10   0  960.10   52.39
  -3  10   0  870.61   68.39
  -3  10   0 1047.50   48.20
   2 -10   0   53.79   26.60
   2 -10   0  249.48   63.79
   2 -10   0  111.89   23.30
  -2  10   0  131.09   23.60
  -2  10   0  134.89   33.90
   1 -10   0   62.59   28.40
   1 -10   0   23.40   23.80
   1 -10   0   81.99   21.00
  -1  10   0   67.79   24.50
  -1  10   0   41.50   20.00
   0 -10   0  450.65   40.20
   0 -10   0  406.66   76.99
   0  10   0  462.25   42.40
   0  10   0  483.35   52.39
  -1 -10   0  470.75   42.20
  -1 -10   0  401.36   85.19
   1  10   0  460.75   52.49
   1  10   0  451.85   43.40
  -2 -10   0   18.50   17.30
   2  10   0  -26.10   17.30
  -9  11   0  286.07   53.59
  -8  11   0  232.18   48.30
   7 -11   0   23.30   32.20
  -7  11   0   47.80   24.90
   6 -11   0  511.85   86.69
  -6  11   0  353.86   48.10
   5 -11   0  743.83  110.19
   5 -11   0  595.14   89.59
   5 -11   0  524.95   35.00
  -5  11   0  518.95   54.69
   4 -11   0   91.19   18.10
   4 -11   0   93.39   37.80
  -4  11   0  107.39   31.10
   3 -11   0  286.37   72.69
   3 -11   0  205.28   25.90
  -3  11   0  185.88   23.00
  -3  11   0  205.18   42.90
   2 -11   0  479.35   79.79
  -2  11   0  416.96   52.09
  -2  11   0  398.86   36.20
   1 -11   0  268.47   54.69
   1 -11   0  407.76   39.80
  -1  11   0  427.56   50.69
  -1  11   0  408.76   41.00
   0 -11   0   40.50   21.20
   0 -11   0  -34.00   28.50
   0  11   0   18.10   22.30
   0  11   0    0.80   16.20
  -8  12   0  133.39   39.90
  -7  12   0  424.36   56.39
  -6  12   0   -6.90   16.40
  -5  12   0  185.08   43.90
  -4  12   0  265.47   50.59
   3 -12   0  346.47   35.00
  -3  12   0  324.97   57.79
  -2  12   0   -7.70   19.10
  -2  12   0   13.30   14.80
  -1  12   0  210.28   46.50
  -1  12   0  166.78   31.80
   0  12   0  102.49   35.20
  -6  13   0  261.77   55.49
  -5  13   0  228.68   52.59
  -4  13   0   -9.00   21.20
  -3  13   0  235.18   51.89
  -2  13   0  445.86   61.09
  -1  13   0   37.30   31.00
  -1  13  -1  316.57   62.39
  -2  13  -1  255.87   55.99
  -3  13  -1   22.40   25.10
  -4  13  -1  200.68   49.70
  -5  13  -1  435.56   58.49
  -6  13  -1  136.09   41.90
   0  12  -1  182.78   45.50
  -1  12  -1   -3.50   17.70
   1 -12   1  -16.50   16.20
  -2  12  -1  154.28   40.30
  -3  12  -1  602.24   65.09
  -4  12  -1   52.99   26.90
  -5  12  -1    2.60   17.70
  -6  12  -1  224.28   48.40
  -7  12  -1  465.35   58.39
  -8  12  -1   16.60   18.70
   1  11  -1    4.80   18.90
  -1 -11   1   25.20   17.70
   0  11  -1  450.25   54.09
   0  11  -1  390.76   41.70
   0 -11   1  403.66   73.29
   0 -11   1  481.55   41.40
  -1  11  -1  354.46   35.60
  -1  11  -1  368.06   49.60
   1 -11   1  315.27   36.00
   1 -11   1  312.57   69.89
   1 -11   1  520.05   78.39
  -2  11  -1   -4.00   10.30
  -2  11  -1   10.70   19.00
   2 -11   1   42.00   21.50
   2 -11   1  -13.30   17.00
  -3  11  -1   -2.90   14.00
   3 -11   1   -0.20    9.00
  -4  11  -1  487.55   52.09
   4 -11   1  599.44   89.09
  -5  11  -1  853.91   70.69
   5 -11   1  927.01  112.29
   5 -11   1 1191.38  139.59
  -6  11  -1    9.10   20.30
  -7  11  -1  177.58   40.80
  -8  11  -1  525.05   56.49
   2  10  -1  470.85   45.60
  -2 -10   1  561.84   47.10
   1  10  -1  477.65   55.49
   1  10  -1  529.35   43.90
  -1 -10   1  547.45   43.40
  -1 -10   1  457.15   82.99
   0  10  -1  131.69   27.70
   0  10  -1  141.29   35.90
   0 -10   1   83.99   31.40
   0 -10   1  147.29   25.90
   0 -10   1  239.48   53.19
  -1  10  -1  220.38   29.60
  -1  10  -1  295.77   41.40
   1 -10   1  155.68   38.10
   1 -10   1  213.18   28.00
  -2  10  -1 1010.30   72.79
   2 -10   1  838.92   52.09
   2 -10   1 1046.20   93.49
   2 -10   1 1144.99  121.29
  -3  10  -1  310.37   22.40
  -3  10  -1  373.26   43.90
   3 -10   1  367.46   27.20
   3 -10   1  406.96   70.79
   3 -10   1  323.17   50.99
  -4  10  -1    4.70   11.20
   4 -10   1   10.60    7.60
   4 -10   1   32.70   19.80
  -5  10  -1  332.17   41.10
   5 -10   1  450.65   73.09
   5 -10   1  596.44   97.29
  -6  10  -1  648.64   59.69
  -6  10  -1  670.63   50.99
   6 -10   1  875.31  121.39
   6 -10   1  688.43   91.89
  -7  10  -1  161.38   30.70
  -7  10  -1  222.78   44.70
  -8  10  -1    2.60   13.20
  -8  10  -1    7.10   18.10
  -9  10  -1  214.18   46.00
   3   9  -1  319.87   37.80
  -3  -9   1  314.87   38.30
  -3  -9   1  197.48   50.59
   2   9  -1   12.60   17.30
  -2  -9   1   38.40   17.30
   1   9  -1  231.18   31.20
   1   9  -1  211.58   41.30
  -1  -9   1  254.97   28.60
  -1  -9   1  354.26   64.09
  -1  -9   1  271.67   56.19
   0   9  -1 1138.19   59.19
   0   9  -1 1209.28   77.39
   0  -9   1 1213.88  120.29
   0  -9   1 1146.89   57.89
   0  -9   1 1127.49  104.59
  -1   9  -1  495.95   38.00
  -1   9  -1  624.84   51.49
   1  -9   1  554.24   78.09
   1  -9   1  572.74   38.30
   1  -9   1  553.64   67.49
  -2   9  -1   45.60   19.80
  -2   9  -1   46.20   13.40
   2  -9   1   31.50   17.00
   2  -9   1   37.80   13.40
   2  -9   1   27.80   21.40
  -3   9  -1  804.02   35.00
  -3   9  -1  757.82   57.69
   3  -9   1  807.82   39.70
   3  -9   1  842.42   71.39
   3  -9   1  867.51   97.39
  -4   9  -1  837.32   33.90
  -4   9  -1  823.02   60.49
   4  -9   1  855.41   37.70
   4  -9   1  914.31   97.69
   4  -9   1  869.71   69.69
  -5   9  -1  111.99   24.10
  -5   9  -1  121.49   29.50
  -5   9  -1  113.09   11.50
   5  -9   1  170.28   41.30
   5  -9   1  107.89   13.60
   5  -9   1  282.67   70.69
  -6   9  -1   57.19   19.60
  -6   9  -1   51.79   22.70
   6  -9   1   85.59   41.80
   6  -9   1   65.19   12.50
   6  -9   1   81.09   30.00
  -7   9  -1  587.54   54.79
  -7   9  -1  589.54   45.60
   7  -9   1  792.82  117.79
   7  -9   1  545.35   33.10
  -8   9  -1  407.56   47.90
  -8   9  -1  415.76   39.60
   8  -9   1  556.64  105.59
  -9   9  -1   24.00   16.50
  -9   9  -1   -7.00   15.30
 -10   9  -1   83.19   30.50
   4   8  -1    4.90   16.60
  -4  -8   1    1.40   16.50
  -4  -8   1  -29.30   19.40
   3   8  -1  465.95   40.30
  -3  -8   1  424.46   82.49
  -3  -8   1  439.66   41.20
   2   8  -1 1237.68   63.69
  -2  -8   1 1268.07  118.79
  -2  -8   1 1343.47   68.09
  -2  -8   1 1300.17  120.99
   1   8  -1  470.55   35.00
   1   8  -1  461.25   44.40
  -1  -8   1  446.66   67.39
  -1  -8   1  453.75   66.89
  -1  -8   1  455.35   34.80
   0   8  -1  338.77   29.70
   0   8  -1  300.97   36.10
   0  -8   1  349.77   62.19
   0  -8   1  316.57   26.40
   0  -8   1  293.47   51.29
  -1   8  -1 1154.28   68.19
  -1   8  -1 1073.39   53.39
   1  -8   1 1235.78  113.99
   1  -8   1 1169.58   92.19
   1  -8   1 1185.18   53.19
  -2   8  -1  580.64   47.10
  -2   8  -1  734.13   34.60
   2  -8   1  592.44   35.80
   2  -8   1  648.04   76.99
   2  -8   1  677.93   62.29
  -3   8  -1  102.39   12.30
  -3   8  -1  129.39   25.80
   3  -8   1   96.79   29.60
   3  -8   1  119.49   25.80
   3  -8   1   97.89   13.00
  -4   8  -1   29.20    7.20
  -4   8  -1   22.40   13.20
  -4   8  -1   39.50   17.90
   4  -8   1   11.10   14.80
   4  -8   1   31.20    8.60
   4  -8   1   33.50   11.10
  -5   8  -1  775.62   32.30
  -5   8  -1  723.93   54.49
  -5   8  -1  785.92   48.20
   5  -8   1  802.72  107.89
   5  -8   1  816.92   87.89
   5  -8   1  853.31   36.30
  -6   8  -1 1059.29   59.39
  -6   8  -1 1073.79   43.20
  -6   8  -1 1097.09   68.59
   6  -8   1 1278.07  145.69
   6  -8   1 1060.09   46.70
   6  -8   1 1174.58  108.49
  -7   8  -1   55.39   12.30
  -7   8  -1   72.69   20.30
  -7   8  -1   48.40   20.30
   7  -8   1   70.79   45.30
   7  -8   1   65.19   13.90
  -8   8  -1  440.36   29.10
  -8   8  -1  425.86   46.10
  -8   8  -1  393.66   37.40
   8  -8   1  394.76   30.70
   8  -8   1  516.05  111.69
  -9   8  -1  531.45   52.69
  -9   8  -1  525.05   44.40
   9  -8   1  564.24   41.50
 -10   8  -1   71.39   26.70
   6   7  -1   82.79   19.40
   5   7  -1  297.07   38.00
   5   7  -1  299.07   26.90
  -5  -7   1  156.78   52.79
  -5  -7   1  321.07   41.70
   4   7  -1  308.87   24.70
   4   7  -1  263.77   32.70
  -4  -7   1  185.88   47.80
  -4  -7   1  275.47   34.60
   3   7  -1  330.27   33.40
  -3  -7   1  434.56   61.69
  -3  -7   1  368.06   36.20
   2   7  -1  186.88   24.30
   2   7  -1  172.98   24.70
  -2  -7   1  182.78   40.30
  -2  -7   1  172.38   24.00
  -2  -7   1  150.38   30.40
  -2  -7   1  122.99   31.80
  -2  -7   1  167.58   20.60
   1   7  -1  698.13   44.00
   1   7  -1  821.82   55.29
   1   7  -1  795.62   42.30
  -1  -7   1  776.12   43.60
  -1  -7   1  811.42   84.39
  -1  -7   1  818.12   55.39
  -1  -7   1  810.52   40.80
  -1  -7   1  813.72   79.69
   0   7  -1 1286.87   53.89
   0   7  -1 1207.18   54.49
   0   7  -1 1367.96   70.79
   0  -7   1 1288.97   54.39
   0  -7   1 1248.68   93.99
   0  -7   1 1143.89   51.09
   0  -7   1 1288.47  112.19
  -1   7  -1  238.88   16.40
  -1   7  -1  308.87   25.00
  -1   7  -1  362.16   20.80
  -1   7  -1  306.67   31.30
   1  -7   1  318.47   20.60
   1  -7   1  343.67   51.89
   1  -7   1  330.77   28.20
   1  -7   1  318.77   22.40
   1  -7   1  323.47   43.00
  -2   7  -1 1572.94   75.69
  -2   7  -1 1551.84   51.79
  -2   7  -1 1633.44   54.99
   2  -7   1 1562.64  122.39
   2  -7   1 1588.54   98.99
   2  -7   1 1506.45   83.59
   2  -7   1 1284.17   57.09
  -3   7  -1 1205.88   64.49
  -3   7  -1 1285.57   43.40
  -3   7  -1 1228.78   42.80
  -3   7  -1 1253.07   58.19
   3  -7   1 1204.28  104.49
   3  -7   1 1226.18   45.40
   3  -7   1 1193.98   79.69
  -4   7  -1  572.84   24.50
  -4   7  -1  571.24   41.60
  -4   7  -1  629.84   38.50
   4  -7   1  531.35   43.60
   4  -7   1  516.25   25.40
   4  -7   1  532.55   84.19
   4  -7   1  555.64   65.39
  -5   7  -1   -7.80    8.60
  -5   7  -1   -2.50    8.20
  -5   7  -1   -2.80    5.30
   5  -7   1   10.50   13.40
   5  -7   1    8.20   21.30
   5  -7   1   -4.80    4.50
  -6   7  -1  989.90   53.79
  -6   7  -1  943.41   60.69
  -6   7  -1  974.90   41.40
   6  -7   1  985.90   94.99
   6  -7   1  937.51   43.10
   6  -7   1 1081.49  132.99
  -7   7  -1  460.75   42.90
  -7   7  -1  481.95   30.00
  -7   7  -1  406.66   35.10
   7  -7   1  593.84  106.49
   7  -7   1  447.66   30.70
  -8   7  -1  185.48   36.50
  -8   7  -1  227.18   27.70
  -8   7  -1  197.78   23.00
   8  -7   1  199.68   23.60
   8  -7   1  363.16   58.59
   8  -7   1  118.19   56.99
  -9   7  -1   30.30   14.80
  -9   7  -1    5.60   16.10
  -9   7  -1   10.50   11.70
   9  -7   1  -22.10   43.40
   9  -7   1   11.00   13.80
 -10   7  -1  444.66   48.70
   7   6  -1  195.78   30.00
   6   6  -1  518.55   48.60
   6   6  -1  443.66   35.00
  -6  -6   1  276.27   65.89
  -6  -6   1  455.55   46.00
  -6  -6   1  545.05   49.90
   5   6  -1   70.79   23.40
   5   6  -1   73.29   16.60
   5   6  -1   26.70   19.00
  -5  -6   1   74.29   20.80
  -5  -6   1   50.19   17.50
  -5  -6   1    8.80   30.20
   4   6  -1  285.97   31.00
   4   6  -1  309.57   33.00
  -4  -6   1  352.66   35.90
  -4  -6   1  243.28   55.09
  -4  -6   1  303.47   28.90
   3   6  -1  922.21   52.39
   3   6  -1  967.70   51.59
  -3  -6   1  854.21   86.49
  -3  -6   1  952.30   71.39
  -3  -6   1  962.90   49.40
  -3  -6   1  915.91   52.69
   2   6  -1 1210.18   55.79
   2   6  -1 1149.39   57.99
  -2  -6   1 1284.97   78.59
  -2  -6   1 1182.98   99.39
  -2  -6   1 1251.27   59.39
  -2  -6   1 1275.57   54.39
   1   6  -1  113.69   17.00
   1   6  -1  122.69   19.60
   1   6  -1  115.19   23.90
  -1  -6   1   89.39   19.20
  -1  -6   1  104.69   14.40
  -1  -6   1   53.09   20.60
  -1  -6   1  102.29   14.40
   0   6  -1 1582.74   55.39
   0   6  -1 1485.85   56.69
   0   6  -1 1637.34   73.69
   0  -6   1 1511.05   79.69
   0  -6   1 1486.35   56.49
   0  -6   1 1426.96   57.39
   0  -6   1 1520.65   57.69
   0  -6   1 1463.05   99.59
  -1   6  -1 3216.38   95.59
  -1   6  -1 3090.19  100.49
  -1   6  -1 3173.08  120.29
   1  -6   1 3108.09  145.79
   1  -6   1 3181.88  100.19
   1  -6   1 2884.91  195.58
   1  -6   1 3239.18   96.39
   1  -6   1 3240.08  100.89
   1  -6   1 3090.89  167.08
  -2   6  -1 1346.57   64.29
  -2   6  -1 1349.07   57.39
  -2   6  -1 1372.66   46.40
   2  -6   1 1322.27  104.49
   2  -6   1 1357.96   84.89
   2  -6   1 1366.26   50.29
   2  -6   1 1378.56   42.40
   2  -6   1 1305.67   50.29
  -3   6  -1  366.26   18.00
  -3   6  -1  398.26   28.00
  -3   6  -1  372.36   30.60
   3  -6   1  362.36   34.90
   3  -6   1  385.56   18.70
   3  -6   1  386.06   14.70
   3  -6   1  383.36   22.00
   3  -6   1  365.16   49.70
  -4   6  -1 1900.41   60.69
  -4   6  -1 1844.72   82.89
  -4   6  -1 1894.81   74.69
   4  -6   1 1851.41  100.69
   4  -6   1 1962.10   66.79
   4  -6   1 1855.91   62.79
   4  -6   1 1819.92  158.38
   4  -6   1 1829.42  130.59
   4  -6   1 1918.41   57.79
  -5   6  -1  600.24   28.60
  -5   6  -1  589.54   42.30
  -5   6  -1  635.74   38.30
   5  -6   1  643.64   41.70
   5  -6   1  581.54   64.19
   5  -6   1  596.64   84.99
   5  -6   1  574.14   29.10
  -6   6  -1  324.47   32.60
  -6   6  -1  305.07   28.00
  -6   6  -1  322.37   23.10
   6  -6   1  319.37   53.99
   6  -6   1  337.97   24.10
   6  -6   1  355.06   73.79
  -7   6  -1   86.59   16.30
  -7   6  -1  105.99   21.40
  -7   6  -1   73.99   20.90
   7  -6   1   56.79   41.60
   7  -6   1   68.69   26.90
   7  -6   1   64.49   13.00
   7  -6   1   86.19   16.60
  -8   6  -1  804.82   44.90
  -8   6  -1  740.03   54.69
  -8   6  -1  707.13   48.40
   8  -6   1  712.83   45.70
   8  -6   1  805.72   43.30
   8  -6   1  911.51   96.99
   8  -6   1  668.63  134.59
  -9   6  -1  309.27   33.20
  -9   6  -1  344.27   32.40
  -9   6  -1  319.17   38.10
   9  -6   1  221.88   78.89
   9  -6   1  329.27   33.80
   7   5  -1   23.10   20.70
   7   5  -1    0.40   13.00
   7   5  -1    2.20   11.40
  -7  -5   1    4.30   12.90
  -7  -5   1    3.80   18.90
   6   5  -1  185.08   34.00
   6   5  -1  207.08   25.20
   6   5  -1  168.88   30.70
  -6  -5   1  189.48   33.00
  -6  -5   1  198.48   27.80
   5   5  -1  968.80   60.19
   5   5  -1  927.61   56.19
   5   5  -1  962.80   47.00
   5   5  -1  906.91   84.39
  -5  -5   1  929.01   94.29
  -5  -5   1  921.91   55.09
  -5  -5   1 1003.10   60.19
   4   5  -1  491.15   37.10
   4   5  -1  532.65   38.70
   4   5  -1  444.96   54.99
  -4  -5   1  510.15   35.20
  -4  -5   1  490.95   54.19
  -4  -5   1  479.95   63.29
  -4  -5   1  483.35   37.90
   3   5  -1   31.90   12.60
   3   5  -1   10.80   17.30
   3   5  -1   10.50   11.00
  -3  -5   1   21.20   12.60
  -3  -5   1    0.90   16.70
  -3  -5   1   22.90   10.70
  -3  -5   1    7.90   13.20
   2   5  -1  649.74   36.10
   2   5  -1  693.23   38.80
  -2  -5   1  649.43   63.09
  -2  -5   1  661.83   38.70
  -2  -5   1  703.03   52.99
  -2  -5   1  675.43   35.10
   1   5  -1 2253.57   79.59
   1   5  -1 2404.06   96.69
   1   5  -1 2423.46   84.99
   1   5  -1 2376.66   79.19
  -1  -5   1 2145.79  134.79
  -1  -5   1 2549.04   79.99
  -1  -5   1 2397.66   83.99
  -1  -5   1 2367.86  117.59
   0   5  -1  669.73   35.80
   0   5  -1  834.22   34.50
   0   5  -1  812.22   44.90
   0   5  -1  870.01   33.40
   0  -5   1  880.21   50.39
   0  -5   1  828.42   33.90
   0  -5   1  877.51   35.40
   0  -5   1  811.62   63.39
   0  -5   1  827.72   35.40
  -1   5  -1  293.67   21.20
  -1   5  -1  293.57   15.30
  -1   5  -1  277.77   23.30
  -1   5  -1  251.27   19.60
  -1   5  -1  262.37   13.70
  -1   5  -1  281.87   18.20
   1  -5   1  290.67   25.70
   1  -5   1  282.77   32.10
   1  -5   1  269.57   14.80
   1  -5   1  278.87   16.40
   1  -5   1  274.07   15.90
  -2   5  -1 2453.65   72.59
  -2   5  -1 2523.65   94.19
  -2   5  -1 2458.95   84.79
  -2   5  -1 2434.96   78.29
   2  -5   1 2362.46  153.18
   2  -5   1 2550.64  128.09
   2  -5   1 2200.88   77.49
   2  -5   1 2583.04   69.89
  -3   5  -1 1689.43   56.89
  -3   5  -1 1626.14   63.49
  -3   5  -1 1664.03   51.89
  -3   5  -1 1689.63   70.99
   3  -5   1 1671.43   53.49
   3  -5   1 1572.74  111.59
   3  -5   1 1695.33   49.50
   3  -5   1 1624.54   55.59
   3  -5   1 1611.34   89.69
  -4   5  -1    6.80    7.80
  -4   5  -1    3.70    5.40
  -4   5  -1    0.70    2.80
  -4   5  -1   11.00    8.60
  -4   5  -1    5.30    5.10
   4  -5   1    2.80    3.90
   4  -5   1   -0.10    7.50
   4  -5   1    1.10    4.50
   4  -5   1   -6.60   17.10
   4  -5   1    8.00    5.20
  -5   5  -1  317.17   28.40
  -5   5  -1  255.07   23.40
  -5   5  -1  288.37   19.90
   5  -5   1  315.47   18.50
   5  -5   1  270.77   65.19
   5  -5   1  289.87   20.30
   5  -5   1  262.07   18.60
   5  -5   1  294.27   42.90
  -6   5  -1  933.51   49.80
  -6   5  -1  953.90   54.79
  -6   5  -1 1029.80   45.10
   6  -5   1 1044.80   42.70
   6  -5   1  867.91   82.49
   6  -5   1  931.41  113.19
   6  -5   1  997.10   45.60
  -7   5  -1  664.23   46.30
  -7   5  -1  675.33   39.20
  -7   5  -1  636.74   42.30
   7  -5   1  636.14   35.80
   7  -5   1  701.03   81.09
   7  -5   1  594.34   38.20
   7  -5   1  620.34  112.49
  -8   5  -1   -7.10    9.00
  -8   5  -1   -4.50   10.30
  -8   5  -1    0.40   11.80
   8  -5   1   -4.20    8.30
   8  -5   1  -42.40   35.00
   8  -5   1  -13.50    8.30
   8  -5   1   45.00   24.70
  -9   5  -1  320.37   35.80
  -9   5  -1  260.37   31.80
  -9   5  -1  321.87   32.80
   9  -5   1  138.79   73.19
   9  -5   1  292.47   30.20
   9  -5   1  498.95   77.39
   9  -5   1  320.17   34.80
  10  -5   1  406.46   37.40
   8   4  -1  304.77   32.20
   7   4  -1  478.15   45.60
   7   4  -1  522.25   49.90
   7   4  -1  498.75   37.30
  -7  -4   1  566.24   51.19
  -7  -4   1  526.85   47.20
   6   4  -1  380.96   29.70
   6   4  -1  396.66   36.00
   6   4  -1  361.46   63.49
   6   4  -1  406.86   41.20
  -6  -4   1  364.46   37.60
  -6  -4   1  381.36   37.20
   5   4  -1  121.79   17.90
   5   4  -1  139.29   26.40
   5   4  -1   85.19   31.10
   5   4  -1   86.79   19.00
  -5  -4   1  123.09   23.40
  -5  -4   1  124.09   25.10
  -5  -4   1   59.49   28.30
   4   4  -1 1463.35   65.59
   4   4  -1 1573.14   70.89
   4   4  -1 1632.94  107.89
  -4  -4   1 1530.95   65.99
  -4  -4   1 1521.65  113.29
  -4  -4   1 1488.55   99.49
  -4  -4   1 1566.04   71.99
   3   4  -1 1430.76   61.79
   3   4  -1 1470.15   94.29
   3   4  -1 1384.16   59.39
  -3  -4   1 1473.25   58.99
  -3  -4   1 1357.76   62.59
  -3  -4   1 1421.56   89.29
  -3  -4   1 1417.16  101.59
   2   4  -1  371.56   24.30
   2   4  -1  362.56   25.30
   2   4  -1  336.77   37.40
  -2  -4   1  354.86   43.80
  -2  -4   1  379.96   37.30
  -2  -4   1  353.36   25.60
  -2  -4   1  400.76   24.10
   1   4  -1 1339.07   47.60
   1   4  -1 1284.37   71.39
   1   4  -1 1266.47   58.19
   1   4  -1 1293.27   47.90
   1   4  -1 1305.47   50.39
  -1  -4   1 1306.67   47.10
  -1  -4   1 1311.27   50.59
  -1  -4   1 1244.18   82.99
  -1  -4   1 1359.76   49.80
  -1  -4   1 1310.07   71.79
   0   4  -1 3636.74  108.29
   0   4  -1 3560.64  106.09
   0   4  -1 3650.93  124.39
   0   4  -1 3780.02  105.99
   0   4  -1 3195.88  110.19
   0  -4   1 3695.53  109.29
   0  -4   1 3625.54  105.99
   0  -4   1 3623.74  179.58
   0  -4   1 3654.23  162.48
   0  -4   1 3637.34  109.49
  -1   4  -1 2351.86   57.29
  -1   4  -1 2341.67   77.59
  -1   4  -1 2432.06   67.29
  -1   4  -1 2344.07   67.39
  -1   4  -1 2067.09   70.29
  -1   4  -1 2251.07   85.19
   1  -4   1 2485.15   68.19
   1  -4   1 2448.16   72.89
   1  -4   1 2438.16   71.39
   1  -4   1 2266.37  120.29
  -2   4  -1  107.39    8.10
  -2   4  -1   96.29    7.30
  -2   4  -1  100.39   11.30
  -2   4  -1   90.79   13.20
   2  -4   1  102.79   22.00
   2  -4   1   96.59    7.10
   2  -4   1  103.79    5.70
   2  -4   1   98.39    7.70
   2  -4   1  101.09    6.10
  -3   4  -1 1773.52   56.09
  -3   4  -1 1847.62   71.79
  -3   4  -1 1832.42   55.89
  -3   4  -1 1823.22   65.79
  -3   4  -1 1810.72   53.59
  -3   4  -1 1889.41   54.89
   3  -4   1 1791.32   54.59
   3  -4   1 1786.42   59.69
   3  -4   1 1804.62  136.39
   3  -4   1 1797.52   57.49
   3  -4   1 1720.83  112.49
   3  -4   1 1865.61   52.09
  -4   4  -1 2098.19   75.29
  -4   4  -1 2566.14   77.39
  -4   4  -1 2524.05   93.29
  -4   4  -1 2391.96   85.19
  -4   4  -1 2445.36   77.49
   4  -4   1 2541.65  124.49
   4  -4   1 2458.35  178.08
   4  -4   1 2537.65  146.59
   4  -4   1 2485.35   82.59
   4  -4   1 2434.56   79.29
   4  -4   1 2424.16   70.99
   4  -4   1 2553.54   76.29
  -5   4  -1 1000.50   40.20
  -5   4  -1  909.41   45.40
  -5   4  -1  975.30   49.80
  -5   4  -1  972.50   41.00
   5  -4   1  897.01   60.39
   5  -4   1  961.30   41.80
   5  -4   1  954.30   44.90
   5  -4   1  944.61   38.30
   5  -4   1  888.31  104.19
   5  -4   1  961.80   75.79
   5  -4   1  965.20   39.00
  -6   4  -1   12.20    9.60
  -6   4  -1    8.70    9.30
   6  -4   1   22.00    9.20
   6  -4   1   11.70    8.90
   6  -4   1   14.80   15.10
   6  -4   1    9.50   27.10
   6  -4   1   16.50    9.60
  -7   4  -1  837.62   49.30
  -7   4  -1  892.91   46.90
   7  -4   1  950.20   94.39
   7  -4   1  850.81  127.29
   7  -4   1  822.42   42.50
   7  -4   1  844.12   47.70
  -8   4  -1  871.01   53.89
  -8   4  -1  871.21   50.09
  -8   4  -1  831.72   52.29
   8  -4   1  922.71   99.09
   8  -4   1  829.82   46.20
   8  -4   1  738.83  137.39
   8  -4   1  741.03   49.70
  -9   4  -1   96.59   23.60
  -9   4  -1   78.39   22.70
   9  -4   1   88.29   20.70
   9  -4   1  -12.70   58.09
   9  -4   1   96.29   24.50
   9  -4   1  130.19   41.60
  10  -4   1   66.49   21.00
   8   3  -1   76.29   26.10
   8   3  -1   93.29   27.50
   8   3  -1   77.69   21.50
  -8  -3   1  123.49   30.10
  -8  -3   1  132.69   32.70
   7   3  -1  140.39   29.00
   7   3  -1  165.58   31.40
   7   3  -1  148.09   24.20
  -7  -3   1  174.28   29.30
  -7  -3   1  137.49   29.50
  -7  -3   1   54.89   34.50
   6   3  -1  780.02   41.70
   6   3  -1  701.73   82.89
   6   3  -1  705.43   47.80
   6   3  -1  858.01   54.79
  -6  -3   1  713.53   50.29
  -6  -3   1  807.72   50.19
  -6  -3   1  698.93   82.69
   5   3  -1  536.55   38.30
   5   3  -1  620.24   42.50
   5   3  -1  588.14   68.29
   5   3  -1  630.94   33.60
  -5  -3   1  544.55   38.30
  -5  -3   1  582.54   68.09
  -5  -3   1  515.55   39.30
   4   3  -1  248.08   46.80
   4   3  -1  250.27   23.60
   4   3  -1  221.98   21.70
  -4  -3   1  264.57   42.20
  -4  -3   1  238.38   44.40
  -4  -3   1  240.38   22.10
  -4  -3   1  275.47   25.40
   3   3  -1  343.77   40.10
   3   3  -1  317.47   23.60
   3   3  -1  291.57   23.00
  -3  -3   1  299.87   25.00
  -3  -3   1  311.07   23.30
  -3  -3   1  324.97   39.30
  -3  -3   1  309.77   42.20
   2   3  -1 2494.55  123.89
   2   3  -1 2306.97   77.99
   2   3  -1 2439.16   81.29
  -2  -3   1 1989.00  124.59
  -2  -3   1 2412.36  130.39
  -2  -3   1 2453.35   78.39
  -2  -3   1 2401.36   82.19
  -2  -3   1 2399.76  118.99
   1   3  -1 3046.30   92.99
   1   3  -1 2936.81  141.49
   1   3  -1 3203.48   92.99
   1   3  -1 3086.49  106.99
   1   3  -1 3044.00   95.79
  -1  -3   1 3203.08  151.78
  -1  -3   1 3050.09   92.39
  -1  -3   1 2971.60  154.18
  -1  -3   1 3155.48  142.39
  -1  -3   1 3068.29   95.49
  -1  -3   1 3048.99   96.49
   0   3  -1 1139.79   38.70
   0   3  -1 1113.69   36.10
   0   3  -1 1098.59   36.50
   0   3  -1 1096.39   35.60
   0   3  -1 1147.89   46.30
   0  -3   1 1070.99   57.49
   0  -3   1 1073.69   34.90
   0  -3   1 1020.00   37.10
   0  -3   1 1113.09   37.30
   0  -3   1 1158.48   35.90
   0  -3   1 1070.39   64.99
  -1   3  -1 3811.02  121.99
  -1   3  -1 3715.73  111.49
  -1   3  -1 3641.44  103.99
  -1   3  -1 3878.31  103.29
   1  -3   1 3429.36  106.69
   1  -3   1 3775.12  101.79
   1  -3   1 3857.71  105.89
   1  -3   1 3815.72  104.19
  -2   3  -1 6887.11  189.38
  -2   3  -1 6495.05  191.28
  -2   3  -1 6433.26  183.08
  -2   3  -1 6685.33  186.38
  -2   3  -1 6605.74  207.28
   2  -3   1 6975.30  183.28
   2  -3   1 6645.93  187.28
   2  -3   1 6598.74  188.48
   2  -3   1 6807.32  182.28
   2  -3   1 6942.91  347.07
   2  -3   1 6568.24  163.08
  -3   3  -1  489.05   20.40
  -3   3  -1  487.95   20.50
  -3   3  -1  503.55   21.30
  -3   3  -1  455.05   24.80
  -3   3  -1  484.25   26.80
   3  -3   1  464.95   39.20
   3  -3   1  489.95   22.80
   3  -3   1  488.65   20.10
   3  -3   1  476.05   21.10
   3  -3   1  497.75   56.19
   3  -3   1  488.25   20.00
  -4   3  -1  854.11   40.30
  -4   3  -1  937.21   36.10
  -4   3  -1  852.21   35.50
  -4   3  -1  870.01   35.90
   4  -3   1  881.81   56.49
   4  -3   1  891.91   62.99
   4  -3   1  886.61   39.00
   4  -3   1  854.21   33.40
   4  -3   1  898.61   35.10
   4  -3   1  846.42   36.40
   4  -3   1  937.61   91.99
  -5   3  -1 1311.57   52.69
  -5   3  -1 1344.77   57.69
  -5   3  -1 1320.17   52.29
   5  -3   1 1368.66   98.69
   5  -3   1 1329.47   51.19
   5  -3   1 1361.76  127.79
   5  -3   1 1199.78   80.39
   5  -3   1 1276.97   53.39
   5  -3   1 1314.37   48.10
  -6   3  -1  353.06   26.20
  -6   3  -1  360.76   27.50
  -6   3  -1  332.07   28.60
   6  -3   1  366.36   26.30
   6  -3   1  333.57   79.49
   6  -3   1  389.06   25.90
   6  -3   1  364.06   54.69
   6  -3   1  342.77   27.40
  -7   3  -1  116.09   20.80
  -7   3  -1   99.99   20.60
   7  -3   1  111.99   22.60
   7  -3   1   77.19   49.30
   7  -3   1  147.29   39.60
   7  -3   1  103.09   17.10
  -8   3  -1   65.19   19.80
  -8   3  -1   40.20   16.80
   8  -3   1   30.40   16.50
   8  -3   1   36.60   15.00
   8  -3   1   46.70   29.50
   8  -3   1  -14.50   45.20
  -9   3  -1  471.45   41.80
  -9   3  -1  458.15   42.20
   9  -3   1  404.86   34.70
   9  -3   1  541.05   81.69
   9  -3   1  443.06   43.90
  10  -3   1  354.86   38.00
   9   2  -1    4.40   15.30
  -9  -2   1   44.40   21.40
   8   2  -1  618.24   53.29
   8   2  -1  592.44   47.00
   8   2  -1  615.74   44.60
   8   2  -1  568.34  127.09
  -8  -2   1  616.24   50.49
  -8  -2   1  568.94   51.39
   7   2  -1  601.04   46.80
   7   2  -1  469.75   77.49
   7   2  -1  591.74  121.09
   7   2  -1  636.94   44.70
   7   2  -1  629.54   39.40
  -7  -2   1  513.65   75.09
  -7  -2   1  668.03   51.09
  -7  -2   1  633.24   46.60
   6   2  -1   10.70   25.70
   6   2  -1   27.00   15.50
   6   2  -1   15.50   11.70
   6   2  -1   18.20   13.60
   6   2  -1    2.60   29.40
  -6  -2   1   -2.40   19.40
  -6  -2   1   21.90   12.00
  -6  -2   1   23.10   13.70
   5   2  -1 1062.89   53.89
   5   2  -1 1024.60   51.09
   5   2  -1  895.81   85.49
   5   2  -1 1116.39  131.99
   5   2  -1 1001.40   44.40
  -5  -2   1  985.30   50.79
  -5  -2   1 1059.19   54.99
  -5  -2   1 1042.40   82.99
   4   2  -1 3789.82  261.37
   4   2  -1 3831.82  124.29
   4   2  -1 3294.87  201.38
   4   2  -1 4056.39  130.39
  -4  -2   1 3940.01  125.49
  -4  -2   1 4041.60  200.38
  -4  -2   1 3800.82  190.48
  -4  -2   1 3811.12  130.59
   3   2  -1   78.19   13.80
   3   2  -1   49.60   25.10
   3   2  -1   67.89   11.30
   3   2  -1   90.99   22.10
  -3  -2   1   49.80   15.10
  -3  -2   1   75.49   12.40
  -3  -2   1   68.19   13.40
  -3  -2   1   72.69   19.30
   2   2  -1 1055.89   41.80
   2   2  -1 1029.10   39.80
   2   2  -1  972.70   91.19
   2   2  -1 1039.30   39.30
   2   2  -1 1126.09   64.29
  -2  -2   1 1046.30   66.69
  -2  -2   1 1012.00   62.49
  -2  -2   1 1048.50   42.80
  -2  -2   1 1061.79   62.69
  -2  -2   1 1017.50   39.40
  -2  -2   1 1115.59   41.60
   1   2  -1 1362.16   47.00
   1   2  -1 1332.57   44.80
   1   2  -1 1399.26   70.79
   1   2  -1 1448.96   70.89
   1   2  -1 1440.46   45.20
   1   2  -1 1406.26   46.70
   1   2  -1 1298.27   75.09
  -1  -2   1 1292.27   75.39
  -1  -2   1 1445.96   46.70
  -1  -2   1 1431.96   71.39
  -1  -2   1 1321.37   96.19
  -1  -2   1 1335.47   47.00
  -1  -2   1 1411.26   45.10
  -1  -2   1 1382.86   44.40
  -1  -2   1 1539.65   73.49
   0   2  -1 4189.18  123.99
   0   2  -1 4791.92  127.29
   0   2  -1 4567.14  128.19
   0   2  -1 4597.84  124.39
   0  -2   1 4594.34  123.89
   0  -2   1 4438.56  195.28
   0  -2   1 4560.74  124.09
   0  -2   1 4508.15  127.59
   0  -2   1 4309.97  204.78
   0  -2   1 4639.24  127.39
  -1   2  -1  595.04   18.00
  -1   2  -1  647.44   18.10
  -1   2  -1  647.04   25.10
   1  -2   1  599.24   18.40
   1  -2   1  621.54   18.30
  -2   2  -1   55.79    5.60
  -2   2  -1   84.79    6.60
  -2   2  -1   78.59    9.20
  -2   2  -1   75.59    6.80
  -2   2  -1   81.59    6.10
   2  -2   1   76.59    6.40
   2  -2   1   85.39    6.50
   2  -2   1   79.29    6.80
   2  -2   1   52.79   16.30
   2  -2   1   69.69   12.20
   2  -2   1   70.89    6.10
  -3   2  -1 5661.63  155.78
  -3   2  -1 5261.87  155.38
  -3   2  -1 5264.47  158.78
  -3   2  -1 5380.86  160.98
   3  -2   1 5600.74  246.78
   3  -2   1 5332.57  310.67
   3  -2   1 5736.73  277.57
   3  -2   1 5328.77  154.68
   3  -2   1 5199.68  158.88
   3  -2   1 5585.64  161.78
  -4   2  -1 3762.52  112.49
  -4   2  -1 3597.34  115.29
  -4   2  -1 3470.25  111.99
   4  -2   1 3400.26  114.59
   4  -2   1 3608.84  194.38
   4  -2   1 3620.44  118.19
   4  -2   1 3780.32  186.58
   4  -2   1 3781.22  112.09
   4  -2   1 3721.13  236.38
  -5   2  -1   43.50   12.00
  -5   2  -1   39.10   11.40
   5  -2   1   60.19   33.10
   5  -2   1   33.00   20.00
   5  -2   1   48.90   10.40
   5  -2   1   37.20   10.80
   5  -2   1   42.90   12.00
  -6   2  -1  632.84   38.50
  -6   2  -1  625.14   37.60
   6  -2   1  628.54   36.30
   6  -2   1  646.84   35.00
   6  -2   1  606.94   37.80
   6  -2   1  628.64   70.49
   6  -2   1  651.03   94.19
  -7   2  -1 1071.49   56.29
  -7   2  -1  982.90   57.69
  -7   2  -1 1080.09   55.89
   7  -2   1 1050.29  129.69
   7  -2   1 1045.50   52.99
   7  -2   1 1026.60   49.99
   7  -2   1 1045.90  100.89
   7  -2   1  971.60   55.19
  -8   2  -1  429.36   38.10
  -8   2  -1  400.76   38.60
   8  -2   1  416.96   32.70
   8  -2   1  394.86   38.80
   8  -2   1  379.26   69.19
  -9   2  -1    8.80   15.30
  -9   2  -1   12.50   17.90
   9  -2   1   32.40   20.50
   9  -2   1  -80.39   45.60
   9  -2   1   40.70   31.10
   9  -2   1   23.90   14.90
   9   1  -1  218.58   37.10
   9   1  -1  283.67   33.60
   8   1  -1  -11.30   29.50
   8   1  -1  -13.70   12.90
   8   1  -1  -41.80   36.10
   8   1  -1   -3.60   10.50
   8   1  -1    4.00    9.40
  -8  -1   1   -2.40   13.50
  -8  -1   1    8.70   15.00
   7   1  -1  496.35   72.49
   7   1  -1  529.05   38.80
   7   1  -1  480.85  113.79
   7   1  -1  527.15   43.70
   7   1  -1  533.95   36.60
  -7  -1   1  516.15   42.20
  -7  -1   1  361.26   65.49
  -7  -1   1  529.45   41.30
   6   1  -1 1443.06   69.09
   6   1  -1 1477.15  153.58
   6   1  -1 1272.27  109.89
   6   1  -1 1412.96   63.89
   6   1  -1 1444.96   57.59
  -6  -1   1 1410.46   68.89
  -6  -1   1 1318.27   99.19
  -6  -1   1 1375.76   64.79
   5   1  -1  740.13  110.09
   5   1  -1  673.03   37.40
   5   1  -1  682.43   40.80
   5   1  -1  653.33   33.60
   5   1  -1  621.64   65.49
  -5  -1   1  605.24   37.60
  -5  -1   1  722.03   43.10
  -5  -1   1  712.53   62.39
   4   1  -1  199.48   35.50
   4   1  -1  187.08   17.40
   4   1  -1  199.38   18.70
   4   1  -1  242.08   57.99
   4   1  -1  215.28   16.00
  -4  -1   1  221.18   33.10
  -4  -1   1  230.38   37.30
  -4  -1   1  192.58   21.00
  -4  -1   1  196.58   19.30
   3   1  -1 2436.66   77.99
   3   1  -1 2335.47  127.19
   3   1  -1 2305.67   79.99
   3   1  -1 2359.06  166.38
  -3  -1   1 2323.97   77.79
  -3  -1   1 2411.16  121.99
  -3  -1   1 2444.66  121.79
  -3  -1   1 2294.97  121.69
  -3  -1   1 2278.77   81.49
   2   1  -1 6400.96  190.68
   2   1  -1 6760.02  285.17
   2   1  -1 6826.22  185.28
   2   1  -1 5562.14  356.66
   2   1  -1 6812.52  190.08
   2   1  -1 6613.94  293.17
   2   1  -1 6608.44  184.88
  -2  -1   1 6832.02  189.48
  -2  -1   1 6317.87  292.37
  -2  -1   1 7086.99  185.98
  -2  -1   1 6681.23  184.48
  -2  -1   1 6531.95  283.77
  -2  -1   1 5520.65  355.56
  -2  -1   1 6508.15  191.18
  -2  -1   1 6822.52  295.67
   1   1  -1  759.02   58.39
   1   1  -1  767.92   26.20
   1   1  -1  784.12   42.70
   1   1  -1  738.43   27.50
   1   1  -1  749.92   26.70
   1   1  -1  836.12   39.20
   1   1  -1  744.23   22.30
   1   1  -1  747.03   26.00
   1   1  -1  710.63   43.00
  -1  -1   1  699.03   38.70
  -1  -1   1  783.92   26.90
  -1  -1   1  764.12   25.70
  -1  -1   1  710.33   42.90
  -1  -1   1  772.12   57.59
  -1  -1   1  746.13   25.90
  -1  -1   1  806.92   43.60
  -1  -1   1  725.53   27.60
   0   1  -1 1747.13   48.10
   0   1  -1 1730.23   49.30
   0  -1   1 1713.93   49.10
   0  -1   1 1702.53   48.10
   0  -1   1 1773.62   49.80
   0  -1   1 1765.52   48.00
  -1   1  -1 3739.83  104.09
  -1   1  -1 3873.01  105.99
  -1   1  -1 3859.91  104.19
  -1   1  -1 3332.37  201.98
   1  -1   1 3831.52  103.99
   1  -1   1 3700.13  106.39
   1  -1   1 3715.33  202.38
   1  -1   1 3967.30  104.29
   1  -1   1 3888.71  106.89
  -2   1  -1 3672.33  222.08
  -2   1  -1 3754.72  112.69
  -2   1  -1 3870.21  115.89
  -2   1  -1 4060.19  113.19
  -2   1  -1 4038.90  115.29
   2  -1   1 3971.10  112.89
   2  -1   1 3841.42  190.58
   2  -1   1 3933.21  223.18
   2  -1   1 4214.48  181.68
   2  -1   1 4057.19  117.19
   2  -1   1 3924.41  115.89
   2  -1   1 3878.91  112.59
   2  -1   1 3980.30  199.98
  -3   1  -1    3.70    4.80
  -3   1  -1    3.50    5.60
  -3   1  -1    8.90    9.10
  -3   1  -1   -0.80    5.30
   3  -1   1    7.50    5.30
   3  -1   1   13.60   17.20
   3  -1   1   -2.20    7.20
   3  -1   1    7.20    4.70
   3  -1   1    2.00    5.10
   3  -1   1    3.20    7.70
  -4   1  -1  959.50   41.30
  -4   1  -1  932.61   66.19
  -4   1  -1  928.11   42.70
   4  -1   1  974.30   74.59
   4  -1   1  921.41   41.90
   4  -1   1  951.10   40.00
   4  -1   1 1060.89   98.09
  -5   1  -1 1830.42   72.29
  -5   1  -1 1763.82  106.89
  -5   1  -1 1722.43   67.89
   5  -1   1 1911.01  154.78
   5  -1   1 1779.22   67.99
   5  -1   1 1749.03   71.39
   5  -1   1 1707.73  118.79
  -6   1  -1  530.75   36.30
  -6   1  -1  572.54   37.10
   6  -1   1  525.55   31.80
   6  -1   1  596.34   39.40
   6  -1   1  520.55   34.70
   6  -1   1  480.05   94.39
   6  -1   1  560.44   68.59
  -7   1  -1   68.79   18.40
  -7   1  -1   87.59   19.80
   7  -1   1   61.29   20.00
   7  -1   1   23.40   41.50
   7  -1   1   64.49   15.00
   7  -1   1   63.89   33.20
   7  -1   1   63.69   17.00
  -8   1  -1  433.66   39.50
   8  -1   1  252.47   76.29
   8  -1   1  382.76   37.40
   8  -1   1  328.67   69.89
   8  -1   1  408.46   34.60
  -9   1  -1  368.26   40.40
   9  -1   1  374.56   83.79
   9  -1   1  218.38   81.09
   9  -1   1  364.56   36.80
   9   0  -1  187.98   81.19
   9   0  -1  352.96   40.60
   9   0  -1  387.36   37.20
  -9   0   1  341.47   40.60
   8   0  -1  960.50   52.59
   8   0  -1  906.11   58.59
   8   0  -1  791.02  146.19
   8   0  -1  774.92   94.29
   8   0  -1  871.81   54.89
  -8   0   1  884.91   56.39
  -8   0   1  932.01   60.49
   7   0  -1    9.30   44.00
   7   0  -1   38.10   14.00
   7   0  -1   54.89   18.60
   7   0  -1   50.19   28.10
   7   0  -1   70.69   17.20
  -7   0   1   46.20   15.10
  -7   0   1   35.00   17.30
  -7   0   1   -7.50   18.90
   6   0  -1  637.24   38.90
   6   0  -1  626.14   34.20
   6   0  -1  627.94  110.39
   6   0  -1  612.24   40.90
   6   0  -1  657.13   67.39
  -6   0   1  686.23   42.80
  -6   0   1  637.54   39.80
  -6   0   1  559.54   60.09
   5   0  -1  986.90   76.39
   5   0  -1  936.61   46.90
   5   0  -1 1071.49  116.09
   5   0  -1  975.20   45.70
   5   0  -1  946.31   40.20
  -5   0   1  970.50   49.80
  -5   0   1 1001.10   70.39
  -5   0   1  892.41   45.20
   4   0  -1 1513.95   58.99
   4   0  -1 1508.45  129.29
   4   0  -1 1588.04   93.69
   4   0  -1 1459.25   49.60
   4   0  -1 1501.05   56.29
  -4   0   1 1237.48   97.49
  -4   0   1 1502.05   56.89
  -4   0   1 1497.85   89.69
  -4   0   1 1503.65   60.99
  -4   0   1 1554.54   86.09
   3   0  -1  152.98   18.30
   3   0  -1  176.58   14.10
   3   0  -1  157.78   12.70
   3   0  -1  172.28   22.00
   3   0  -1  154.18   11.90
   3   0  -1  104.19   31.50
  -3   0   1  144.79   29.70
  -3   0   1  168.28   14.90
  -3   0   1  167.68   27.30
  -3   0   1  152.38   14.00
  -3   0   1  137.19   19.40
   2   0  -1 3465.15   99.69
   2   0  -1 3388.26  153.98
   2   0  -1 3498.35  155.18
   2   0  -1 3489.75  158.78
   2   0  -1 3419.56  103.59
   2   0  -1 3348.86  101.79
   2   0  -1 3494.85   99.39
   2   0  -1 2922.11  197.28
   2   0  -1 3389.26   87.59
  -2   0   1 3216.28  153.08
  -2   0   1 3446.46   98.99
  -2   0   1 3201.98  197.78
  -2   0   1 3285.47  103.39
  -2   0   1 3490.65  101.59
  -2   0   1 3466.65   99.79
  -2   0   1 3565.94  183.58
  -2   0   1 3557.74  155.18
   1   0  -1 3539.35  100.39
   1   0  -1 3401.16  101.49
   1   0  -1 3881.11  183.28
   1   0  -1 3462.55   97.99
   1   0  -1 3482.75   98.29
   1   0  -1 3431.96   86.39
   1   0  -1 3441.06  151.28
  -1   0   1 3507.65  151.68
  -1   0   1 3611.94  182.58
  -1   0   1 3490.65   98.39
  -1   0   1 3435.66  100.19
  -1   0   1 3364.76  188.28
  -1   0   1 3462.95   86.39
  -1   0   1 3533.15   97.99
  -1   0   1 3370.66  101.49
   0   0  -1 4104.79  175.38
   0   0  -1 3912.91  109.79
   0   0  -1 3947.71  107.59
   0   0  -1 3915.71  110.49
   0   0  -1 3464.15  195.08
   0   0   1 3979.40  109.79
   0   0   1 3925.21  174.88
   0   0   1 3963.80  110.69
   0   0   1 3489.35  195.08
   0   0   1 3914.51  106.99
  -1   0  -1  461.55   33.40
  -1   0  -1  416.26   18.40
  -1   0  -1  453.95   25.50
  -1   0  -1  446.56   17.60
  -1   0  -1  478.25   32.60
  -1   0  -1  428.86   38.60
  -1   0  -1  414.26   18.00
  -1   0  -1  429.66   17.70
   1   0   1  409.56   24.50
   1   0   1  403.36   31.60
   1   0   1  454.55   18.10
   1   0   1  417.56   17.00
   1   0   1  493.65   32.10
   1   0   1  422.76   18.10
   1   0   1  432.56   18.30
   1   0   1  501.45   40.30
  -2   0  -1 5789.42  269.67
  -2   0  -1 5444.56  161.88
  -2   0  -1 5344.37  166.28
  -2   0  -1 5534.05  314.37
  -2   0  -1 5562.44  257.67
  -2   0  -1 5784.32  162.38
  -2   0  -1 5371.06  285.27
   2   0   1 5644.04  269.87
   2   0   1 6583.14  318.77
   2   0   1 5890.41  258.47
   2   0   1 5845.22  167.98
   2   0   1 5667.73  162.18
   2   0   1 5590.54  166.68
  -3   0  -1 2555.84  131.89
  -3   0  -1 2487.05  128.89
  -3   0  -1 2499.15   85.59
  -3   0  -1 2528.85   82.39
  -3   0  -1 2417.16  127.59
   3   0   1 2571.44   85.69
   3   0   1 2840.22  174.38
   3   0   1 2603.54   82.49
   3   0   1 2465.15  140.19
  -4   0  -1  623.74   33.60
  -4   0  -1  627.04   34.50
  -4   0  -1  670.03   36.30
  -4   0  -1  682.13   57.39
  -4   0  -1  614.54   34.20
   4   0   1  669.63   62.29
   4   0   1  718.93   87.19
   4   0   1  654.33   35.70
   4   0   1  625.54   32.30
  -5   0  -1  813.72   45.30
  -5   0  -1  759.12   68.49
  -5   0  -1  811.42   43.00
   5   0   1  863.51   45.90
   5   0   1  753.52   76.39
   5   0   1  833.32   41.70
   5   0   1  807.52   98.69
  -6   0  -1 1168.58   91.89
  -6   0  -1 1218.18   59.19
  -6   0  -1 1202.18   61.09
   6   0   1 1199.68   57.69
   6   0   1 1012.00  100.49
   6   0   1 1272.27  139.89
   6   0   1 1220.88   61.39
  -7   0  -1  321.57   34.20
  -7   0  -1  265.07   31.30
   7   0   1  178.68   59.99
   7   0   1  285.07   33.20
   7   0   1  278.97   30.00
   7   0   1  188.68   51.19
   7   0   1  286.37   26.40
  -8   0  -1   77.79   21.10
   8   0   1   76.59   21.60
   8   0   1   80.99   18.50
   8   0   1   43.60   36.50
   8   0   1    0.80   43.90
   9   0   1   52.79   46.70
   9   0   1  121.29   26.80
  10  -1  -1  345.17   39.10
   9  -1  -1   -6.30   10.00
   9  -1  -1    8.90   26.30
   9  -1  -1   -2.80    8.80
   9  -1  -1  -77.39   47.10
  -9   1   1  -13.50   13.80
   8  -1  -1   51.69   19.60
   8  -1  -1   77.09   19.60
   8  -1  -1    8.60   49.99
   8  -1  -1   81.09   34.50
   8  -1  -1   63.49   18.60
  -8   1   1   75.99   19.70
  -8   1   1   84.89   22.80
   7  -1  -1 1354.26   63.39
   7  -1  -1 1421.16   68.89
   7  -1  -1 1444.46  112.59
   7  -1  -1 1341.37  155.98
   7  -1  -1 1454.65   60.79
  -7   1   1 1430.86   66.99
  -7   1   1 1413.06   70.19
  -7   1   1 1329.67   92.49
   6  -1  -1 1320.47  149.09
   6  -1  -1 1400.96  100.19
   6  -1  -1 1331.97   61.29
   6  -1  -1 1316.47   57.99
   6  -1  -1 1305.47   53.19
  -6   1   1 1316.37   62.29
  -6   1   1 1274.17   58.09
  -6   1   1 1284.07   83.49
   5  -1  -1   17.70   25.00
   5  -1  -1   -3.80    9.70
   5  -1  -1    4.50    8.30
   5  -1  -1    3.20    5.30
   5  -1  -1    4.20    6.40
  -5   1   1   -4.80   10.50
  -5   1   1    8.70    7.60
  -5   1   1   -2.60    9.80
  -5   1   1   -2.20    5.80
   4  -1  -1 1433.86   53.69
   4  -1  -1 1472.25  125.69
   4  -1  -1 1404.06   88.69
   4  -1  -1 1417.96   48.20
   4  -1  -1 1502.25   56.59
   4  -1  -1 1423.56   76.39
  -4   1   1 1446.06   88.49
  -4   1   1 1494.85   54.99
  -4   1   1 1478.15   78.09
  -4   1   1 1476.65   58.39
  -4   1   1 1538.65   92.89
   3  -1  -1 7967.50  198.28
   3  -1  -1 8097.39  232.28
   3  -1  -1 6979.60  435.06
   3  -1  -1 6708.63  221.88
   3  -1  -1 8036.80  345.07
   3  -1  -1 8040.80  409.26
   3  -1  -1 8164.68  229.88
  -3   1   1 7935.91  231.78
  -3   1   1 8518.95  224.38
  -3   1   1 8404.66  407.06
  -3   1   1 8075.19  345.67
  -3   1   1 8101.99  224.78
  -3   1   1 8235.88  345.37
   2  -1  -1 1833.02   55.29
   2  -1  -1 1742.73  104.19
   2  -1  -1 1776.52   54.59
   2  -1  -1 1864.51   86.59
   2  -1  -1 1765.52   55.99
   2  -1  -1 1739.63   48.60
   2  -1  -1 1521.95  110.99
   2  -1  -1 1741.83   57.79
  -2   1   1 1820.72   55.89
  -2   1   1 1844.82  101.59
  -2   1   1 1704.43   77.69
  -2   1   1 1761.52   55.09
  -2   1   1 1700.03  111.69
  -2   1   1 1782.92   54.39
  -2   1   1 1753.32   57.79
  -2   1   1 1716.03   85.09
   1  -1  -1 1723.53   51.69
   1  -1  -1 1630.04   74.39
   1  -1  -1 1646.54   52.29
   1  -1  -1 1635.84   49.40
   1  -1  -1 1436.56   96.19
   1  -1  -1 1694.83   50.29
   1  -1  -1 1677.03   93.29
  -1   1   1 1704.83   51.49
  -1   1   1 1643.44   92.69
  -1   1   1 1649.73   74.59
  -1   1   1 1692.13   49.50
  -1   1   1 1734.43   74.59
  -1   1   1 1712.13   52.59
  -1   1   1 1700.43   50.39
   0  -1  -1 2280.37   70.59
   0  -1  -1 2271.67  105.69
   0  -1  -1 2201.08   66.89
   0  -1  -1 2247.68  109.39
   0  -1  -1 2181.98  119.99
   0  -1  -1 2234.38   68.19
   0  -1  -1 2319.27   67.19
   0   1   1 2135.19   70.19
   0   1   1 2273.57   67.09
   0   1   1 2231.28  105.09
   0   1   1 2375.86   67.29
   0   1   1 2326.87   68.49
   0   1   1 2178.58  119.69
   0   1   1 2364.16  110.39
  -1  -1  -1 4548.35  249.88
  -1  -1  -1 5442.06  152.08
  -1  -1  -1 5245.78  151.68
  -1  -1  -1 5527.45  156.48
  -1  -1  -1 5417.16  156.48
  -1  -1  -1 5653.03  243.78
  -1  -1  -1 5237.98  288.67
  -1  -1  -1 5132.09  270.47
   1   1   1 5617.24  156.78
   1   1   1 5506.75  152.48
   1   1   1 5725.33  243.78
   1   1   1 5679.43  289.87
   1   1   1 5386.36  156.68
   1   1   1 4648.53  251.37
   1   1   1 5528.55  151.98
  -2  -1  -1  849.41   36.80
  -2  -1  -1  921.31   60.39
  -2  -1  -1  870.21   35.60
  -2  -1  -1  842.42   53.39
   2   1   1  937.61   38.40
   2   1   1  936.51   75.99
   2   1   1  916.51   36.00
   2   1   1  812.02   64.29
  -3  -1  -1  554.24   29.40
  -3  -1  -1  542.35   30.20
  -3  -1  -1  580.44   51.69
   3   1   1  493.55   29.10
   3   1   1  595.44   71.29
   3   1   1  543.55   28.10
   3   1   1  504.15   53.79
  -4  -1  -1 1663.23   95.69
  -4  -1  -1 1668.13   66.49
  -4  -1  -1 1771.32  110.29
  -4  -1  -1 1735.13   70.49
   4   1   1 1691.13   65.69
   4   1   1 1872.21  145.39
   4   1   1 1840.12   71.19
   4   1   1 1488.85  114.69
  -5  -1  -1 1291.57   60.79
  -5  -1  -1 1222.18   56.29
  -5  -1  -1 1177.98   92.69
  -5  -1  -1 1160.58   69.29
   5   1   1 1370.86  133.89
   5   1   1 1200.58   55.39
   5   1   1 1237.58   60.59
   5   1   1 1069.79   99.79
  -6  -1  -1   13.60   10.80
  -6  -1  -1   14.50   13.70
  -6  -1  -1  -16.00   18.80
   6   1   1    0.20   11.10
   6   1   1    6.30   24.20
   6   1   1   -0.30   30.70
   6   1   1   21.10   11.50
  -7  -1  -1  406.26   36.60
  -7  -1  -1  422.86   41.30
   7   1   1  461.45   35.80
   7   1   1  438.86   42.40
   7   1   1  459.75   79.69
   7   1   1  457.55   39.30
   7   1   1  424.26  101.39
  -8  -1  -1  437.76   43.50
   8   1   1  325.57   37.50
   8   1   1  341.47   43.20
   8   1   1  316.27   33.90
   8   1   1  278.17   69.79
   8   1   1  234.38   71.69
   9   1   1  200.18   32.40
  10  -2  -1  102.19   24.60
   9  -2  -1  664.03   45.90
   9  -2  -1  641.34   51.89
   9  -2  -1  736.33   86.69
  -9   2   1  669.53   49.99
   8  -2  -1  452.65   38.00
   8  -2  -1  541.45   72.19
   8  -2  -1  313.47   87.89
   8  -2  -1  482.65   35.50
   8  -2  -1  430.86   32.80
  -8   2   1  475.75   37.20
  -8   2   1  460.55   39.00
   7  -2  -1   25.70   11.60
   7  -2  -1   11.50   32.70
   7  -2  -1   15.60   17.20
   7  -2  -1   10.20    8.30
   7  -2  -1   22.40   11.20
  -7   2   1   10.40   12.00
  -7   2   1   10.50    7.60
  -7   2   1   27.40   14.40
   6  -2  -1 1328.07   52.19
   6  -2  -1 1239.28   57.59
   6  -2  -1 1318.87   96.79
   6  -2  -1 1160.48   53.19
   6  -2  -1 1356.56  141.59
  -6   2   1 1223.88   55.89
  -6   2   1 1291.87   52.79
  -6   2   1 1337.57   60.69
   5  -2  -1 3210.98  229.78
   5  -2  -1 3479.05  182.48
   5  -2  -1 2948.80  104.89
   5  -2  -1 3051.49   92.19
   5  -2  -1 3017.40  145.59
   5  -2  -1 3167.28  102.29
  -5   2   1 2999.80   98.29
  -5   2   1 3096.39  103.19
  -5   2   1 3115.19  108.09
   4  -2  -1    7.00   12.20
   4  -2  -1   -0.20    2.20
   4  -2  -1    1.80    4.30
   4  -2  -1    4.90   18.50
   4  -2  -1    6.20    4.70
   4  -2  -1   -0.30    4.90
  -4   2   1    3.20    6.40
  -4   2   1    1.60    3.90
  -4   2   1    4.20    6.80
  -4   2   1   -4.30    6.20
   3  -2  -1 1296.07   49.10
   3  -2  -1 1432.66   88.89
   3  -2  -1 1197.18  100.29
   3  -2  -1 1321.27   45.20
   3  -2  -1 1257.57   41.00
   3  -2  -1 1318.07   47.00
  -3   2   1 1286.37   82.09
  -3   2   1 1318.97   72.89
  -3   2   1 1349.56   45.50
  -3   2   1 1262.17   48.00
  -3   2   1 1357.36   43.50
  -3   2   1 1301.47   46.20
   2  -2  -1  812.62   29.50
   2  -2  -1  755.62   43.50
   2  -2  -1  780.42   30.60
   2  -2  -1  777.82   55.79
   2  -2  -1  765.32   27.60
   2  -2  -1  758.32   28.50
   2  -2  -1  679.73   62.29
  -2   2   1  789.72   28.10
  -2   2   1  750.22   53.89
  -2   2   1  762.32   28.70
  -2   2   1  793.52   44.00
  -2   2   1  796.42   29.20
  -2   2   1  760.72   30.20
   1  -2  -1 3174.58  131.29
   1  -2  -1 3228.88   95.49
   1  -2  -1 3073.39  169.18
   1  -2  -1 3274.27  141.59
   1  -2  -1 3137.89   91.09
   1  -2  -1 2825.42   94.69
   1  -2  -1 2782.62   92.09
  -1   2   1 3256.37  131.09
  -1   2   1 3089.49  168.88
  -1   2   1 3118.09  140.79
  -1   2   1 3134.89   92.99
  -1   2   1 3229.78   92.09
  -1   2   1 3197.38   94.89
  -1   2   1 3153.38   94.59
   0  -2  -1    3.30    5.30
   0  -2  -1    8.60    5.10
   0  -2  -1    1.80    4.70
   0  -2  -1    5.20    7.90
   0  -2  -1    2.70    4.00
   0  -2  -1   -3.60    6.30
   0  -2  -1    0.50    9.30
   0   2   1    1.80    3.30
   0   2   1    5.40    5.40
   0   2   1    6.70    5.50
   0   2   1    1.80    4.80
   0   2   1   -3.90    4.90
   0   2   1   11.10    9.00
   0   2   1   -3.10    3.60
   0   2   1   10.30    4.10
  -1  -2  -1  513.85   41.00
  -1  -2  -1  525.95   24.90
  -1  -2  -1  565.54   55.99
  -1  -2  -1  506.75   41.70
  -1  -2  -1  565.94   27.10
  -1  -2  -1  511.85   44.50
  -1  -2  -1  593.14   26.90
   1   2   1  613.34   48.60
   1   2   1  562.84   24.60
   1   2   1  577.64   35.50
   1   2   1  549.85   25.00
   1   2   1  508.15   26.80
  -2  -2  -1 2888.01   91.99
  -2  -2  -1 2893.91  148.89
  -2  -2  -1 2691.63  155.98
  -2  -2  -1 2891.51   95.69
   2   2   1 2851.31   95.79
   2   2   1 2890.91   92.09
   2   2   1 2748.93  157.88
  -3  -2  -1 2378.26   87.69
  -3  -2  -1 2338.57  137.29
  -3  -2  -1 2484.75  138.89
  -3  -2  -1 2407.16   84.19
   3   2   1 2366.96  149.19
   3   2   1 2293.97   83.59
   3   2   1 2460.95   89.29
   3   2   1 2631.94  177.88
  -4  -2  -1   79.59   16.80
  -4  -2  -1   95.89   16.90
  -4  -2  -1   83.79   19.30
  -4  -2  -1   79.19   25.80
   4   2   1  112.39   19.20
   4   2   1   77.59   32.50
   4   2   1   93.09   33.60
   4   2   1  104.59   18.60
  -5  -2  -1 1214.48   62.19
  -5  -2  -1 1130.09   95.69
  -5  -2  -1 1105.79   55.79
   5   2   1 1157.08   61.39
   5   2   1 1209.78  129.39
   5   2   1 1168.68  108.19
   5   2   1 1081.39   55.89
  -6  -2  -1 1025.70   61.69
  -6  -2  -1  988.50   55.49
  -6  -2  -1  896.31   92.59
   6   2   1 1073.09  111.39
   6   2   1  933.31   58.39
   6   2   1 1007.70  129.19
   6   2   1  989.00   56.29
  -7  -2  -1   -6.60   27.70
  -7  -2  -1   60.19   18.80
  -7  -2  -1   76.09   21.40
   7   2   1   80.79   22.90
   7   2   1   43.80   42.40
   7   2   1   62.19   42.50
   7   2   1  114.49   20.90
   7   2   1   73.09   22.10
  -8  -2  -1  130.49   31.20
  -8  -2  -1  174.38   35.40
   8   2   1   40.30   53.39
   8   2   1  184.88   30.00
   8   2   1   92.49   26.70
   8   2   1  147.09   35.20
  10  -3  -1  120.69   26.00
   9  -3  -1   92.99   24.10
   9  -3  -1  -15.30   59.89
   9  -3  -1  115.19   36.50
   9  -3  -1   89.39   20.80
  -9   3   1  118.69   25.70
   8  -3  -1  793.82   51.29
   8  -3  -1  652.63  138.89
   8  -3  -1  809.22   45.70
   8  -3  -1  824.42   87.19
  -8   3   1  800.62   49.20
   7  -3  -1  920.11   47.40
   7  -3  -1  889.41   50.79
   7  -3  -1 1029.80   90.39
   7  -3  -1  958.70  141.59
   7  -3  -1  956.90   46.10
  -7   3   1 1072.39   53.49
  -7   3   1  969.50   45.70
  -7   3   1  862.11   47.50
   6  -3  -1  161.08   17.80
   6  -3  -1  133.59   16.20
   6  -3  -1  172.28   37.70
   6  -3  -1  159.38   19.50
   6  -3  -1  115.69   43.80
  -6   3   1  122.79   14.10
  -6   3   1  152.58   20.30
  -6   3   1  140.09   18.80
   5  -3  -1  747.23   35.10
   5  -3  -1  782.02   98.49
   5  -3  -1  733.13   32.70
   5  -3  -1  673.23   72.29
   5  -3  -1  771.82   37.70
  -5   3   1  755.82   36.00
  -5   3   1  780.92   33.90
  -5   3   1  768.42   38.50
   4  -3  -1 2090.59   68.79
   4  -3  -1 1948.61  155.28
   4  -3  -1 2043.40   74.69
   4  -3  -1 2109.99   71.99
   4  -3  -1 2036.80   63.09
   4  -3  -1 2157.78  133.69
  -4   3   1 2060.09   68.09
  -4   3   1 2101.09   73.59
  -4   3   1 2151.88   69.59
  -4   3   1 2130.99   70.59
   3  -3  -1 3624.64  202.18
   3  -3  -1 3638.34  106.79
   3  -3  -1 3701.13  113.49
   3  -3  -1 3161.38  219.58
   3  -3  -1 3639.74  110.29
  -3   3   1 3632.34  111.79
  -3   3   1 3685.33  107.29
  -3   3   1 3685.83  106.99
  -3   3   1 3651.53  108.39
   2  -3  -1  617.54   51.89
   2  -3  -1  634.64   27.00
   2  -3  -1  588.94   34.50
   2  -3  -1  645.64   36.30
   2  -3  -1  622.54   24.30
   2  -3  -1  631.34   27.50
  -2   3   1  597.24   25.60
  -2   3   1  640.34   27.30
  -2   3   1  609.44   25.30
  -2   3   1  547.85   29.10
  -2   3   1  590.24   34.40
  -2   3   1  657.43   25.60
   1  -3  -1 4702.93  156.08
   1  -3  -1 5239.68  150.68
   1  -3  -1 5267.97  279.07
   1  -3  -1 5340.57  235.88
   1  -3  -1 5286.97  155.08
  -1   3   1 5635.94  156.88
  -1   3   1 4782.82  151.88
  -1   3   1 5548.64  153.28
  -1   3   1 5521.45  164.48
  -1   3   1 4751.42  150.28
  -1   3   1 5285.37  235.58
   0  -3  -1 6141.09  284.67
   0  -3  -1 6035.90  327.77
   0  -3  -1 6135.79  182.98
   0  -3  -1 6635.24  187.08
   0  -3  -1 6112.59  179.08
   0   3   1 6343.97  193.18
   0   3   1 6058.19  257.77
   0   3   1 6432.26  179.88
   0   3   1 6430.36  178.88
   0   3   1 6466.65  293.97
   0   3   1 5716.93  186.38
  -1  -3  -1 1289.87   50.89
  -1  -3  -1 1157.38   84.99
  -1  -3  -1 1278.27   80.29
  -1  -3  -1 1268.97   48.20
   1   3   1 1319.97   49.60
   1   3   1 1300.37   52.79
   1   3   1 1340.27   84.99
   1   3   1 1366.36   68.09
   1   3   1 1366.26   52.89
  -2  -3  -1  380.26   24.60
  -2  -3  -1  314.27   37.20
  -2  -3  -1  333.37   40.00
  -2  -3  -1  315.87   25.10
   2   3   1  333.57   22.90
   2   3   1  372.06   49.99
   2   3   1  359.86   27.10
  -3  -3  -1 1420.26   97.89
  -3  -3  -1 1484.15   64.79
  -3  -3  -1 1481.35  103.09
  -3  -3  -1 1474.25   60.89
   3   3   1 1577.24   66.79
   3   3   1 1461.45   61.49
   3   3   1 1470.85  111.49
  -4  -3  -1 1020.80   55.19
  -4  -3  -1  995.00   88.69
  -4  -3  -1 1030.20   76.39
  -4  -3  -1 1076.19   52.99
   4   3   1  959.60   96.69
   4   3   1  987.70   54.39
   4   3   1 1053.39   52.39
  -5  -3  -1  167.88   38.90
  -5  -3  -1  285.57   30.00
  -5  -3  -1  252.17   29.10
   5   3   1  246.58   28.40
   5   3   1  319.37   31.90
   5   3   1  205.68   53.79
  -6  -3  -1   56.99   32.30
  -6  -3  -1  140.79   27.10
  -6  -3  -1  124.89   24.00
   6   3   1  159.78   31.10
   6   3   1  159.58   29.10
   6   3   1  100.39   48.40
  -7  -3  -1  617.34   52.49
  -7  -3  -1  542.55   45.40
   7   3   1  581.14   52.79
   7   3   1  372.06   81.89
   7   3   1  604.34   41.70
   7   3   1  506.65   46.30
  -8  -3  -1  278.77   44.90
   8   3   1  289.67   34.10
  10  -4  -1  832.02   93.29
   9  -4  -1  287.77   34.50
   9  -4  -1  497.55   68.29
   9  -4  -1  371.06   33.30
   9  -4  -1  181.78   85.19
  -9   4   1  313.67   34.30
   8  -4  -1   44.70   16.60
   8  -4  -1   18.40   52.49
   8  -4  -1   29.90   13.80
   8  -4  -1   55.69   25.20
  -8   4   1   71.19   18.90
   7  -4  -1  461.95   94.39
   7  -4  -1  467.75   60.39
   7  -4  -1  455.75   30.60
   7  -4  -1  431.86   55.99
   7  -4  -1  458.25   33.70
   7  -4  -1  471.85   30.80
  -7   4   1  429.56   28.90
  -7   4   1  460.05   33.10
  -7   4   1  480.75   33.40
   6  -4  -1 1766.22   66.09
   6  -4  -1 1743.13  164.08
   6  -4  -1 1431.66  125.29
   6  -4  -1 1769.72   70.39
   6  -4  -1 1806.42   63.19
  -6   4   1 1804.12   66.29
  -6   4   1 1868.91   71.19
  -6   4   1 1799.52   68.79
   5  -4  -1  414.76   26.40
   5  -4  -1  438.36   77.89
   5  -4  -1  455.65   25.60
   5  -4  -1  486.95   59.39
  -5   4   1  425.06   25.00
  -5   4   1  431.26   26.80
  -5   4   1  447.96   26.80
   4  -4  -1   -0.10   13.80
   4  -4  -1    3.40    5.50
   4  -4  -1   12.90    6.90
   4  -4  -1    5.40   10.80
   4  -4  -1    6.70    6.30
  -4   4   1    5.50    6.00
  -4   4   1    4.30    6.70
  -4   4   1    7.00    5.80
  -4   4   1   14.10    6.00
   3  -4  -1 1399.96   52.49
   3  -4  -1 1361.96   97.29
   3  -4  -1 1248.08  111.89
   3  -4  -1 1417.66   67.59
   3  -4  -1 1408.16   74.59
   3  -4  -1 1413.36   47.60
   3  -4  -1 1417.76   50.39
  -3   4   1 1400.56   48.60
  -3   4   1 1409.66   50.99
  -3   4   1 1383.46   49.99
  -3   4   1 1369.96   49.10
   2  -4  -1 3242.18  137.59
   2  -4  -1 3112.69  184.68
   2  -4  -1 3234.88  102.09
   2  -4  -1 3137.49  148.19
   2  -4  -1 3112.09   94.19
  -2   4   1 3039.20   97.39
  -2   4   1 3097.49  148.19
  -2   4   1 3093.89   98.79
  -2   4   1 3148.68  109.79
  -2   4   1 3214.68   97.89
   1  -4  -1  396.66   35.40
   1  -4  -1  441.86   24.10
   1  -4  -1  379.66   42.60
   1  -4  -1  370.26   22.30
   1  -4  -1  388.36   25.00
  -1   4   1  460.75   23.30
  -1   4   1  379.56   24.00
  -1   4   1  426.96   25.20
  -1   4   1  406.96   25.70
   0  -4  -1  103.09   26.00
   0  -4  -1  114.19   13.70
   0  -4  -1  117.49   14.30
   0  -4  -1  110.39   13.30
   0   4   1  108.99   12.40
   0   4   1  100.69    9.40
   0   4   1  110.69   13.90
   0   4   1   93.69   15.90
   0   4   1  111.39   14.00
  -1  -4  -1 2733.23  150.78
  -1  -4  -1 2731.93   95.29
  -1  -4  -1 2721.63   90.89
  -1  -4  -1 2588.24  164.98
   1   4   1 2689.23   97.09
   1   4   1 2671.53   91.89
   1   4   1 2817.52  127.79
   1   4   1 2974.50  155.18
   1   4   1 2751.72  100.39
  -2  -4  -1 1532.35   62.49
  -2  -4  -1 1487.25  108.89
  -2  -4  -1 1618.54   66.99
  -2  -4  -1 1553.44  107.49
   2   4   1 1780.92   70.79
   2   4   1 1733.23  112.69
   2   4   1 1576.44   63.79
  -3  -4  -1   10.80   12.00
  -3  -4  -1    1.50    9.60
  -3  -4  -1   16.80   11.60
  -3  -4  -1    7.40   18.80
   3   4   1   18.40   25.90
   3   4   1    4.30   10.70
   3   4   1    3.90   11.20
  -4  -4  -1  425.56   48.60
  -4  -4  -1  400.86   33.70
  -4  -4  -1  377.66   57.09
  -4  -4  -1  387.36   35.90
   4   4   1  470.55   39.40
   4   4   1  359.06   32.70
   4   4   1  425.66   70.49
  -5  -4  -1  815.42   51.69
  -5  -4  -1  720.03   90.19
  -5  -4  -1  742.23   53.49
   5   4   1  826.32   56.79
   5   4   1  944.01   54.59
   5   4   1  705.33   96.19
  -6  -4  -1  314.37   39.20
  -6  -4  -1  301.57   36.40
   6   4   1  296.97   36.10
   6   4   1  274.37   35.40
  -7  -4  -1    1.10   12.70
  -7  -4  -1   15.50   20.60
   7   4   1   -5.70   12.10
   7   4   1   -5.00   16.90
   7   4   1   -6.50   19.10
   9  -5  -1  154.68   81.19
   9  -5  -1  225.38   29.70
  -9   5   1  243.58   29.90
   8  -5  -1  607.74  135.59
   8  -5  -1  812.82   48.90
   8  -5  -1  843.52   88.79
  -8   5   1  783.12   46.50
   7  -5  -1  342.47   67.89
   7  -5  -1  510.65   34.60
   7  -5  -1  485.55  106.99
  -7   5   1  547.05   32.60
  -7   5   1  539.85   34.40
   6  -5  -1   -2.40    6.70
   6  -5  -1    0.60   26.10
   6  -5  -1   -4.70    4.40
   6  -5  -1    4.70   21.10
  -6   5   1    1.40    5.90
  -6   5   1    3.70    8.80
  -6   5   1    7.70    7.40
   5  -5  -1 3780.72  225.28
   5  -5  -1 3547.75  259.47
   5  -5  -1 3630.74  119.39
   5  -5  -1 3664.33  114.09
  -5   5   1 3721.13  117.59
  -5   5   1 3726.33  118.19
  -5   5   1 3728.23  118.99
  -5   5   1 3643.04  115.59
   4  -5  -1 3299.87   99.19
   4  -5  -1 3157.38  106.79
   4  -5  -1 3379.46  142.39
   4  -5  -1 3114.99  195.38
   4  -5  -1 3041.10  102.39
   4  -5  -1 2727.43  217.08
  -4   5   1 3320.47  100.99
  -4   5   1 3255.87  102.99
  -4   5   1 3228.28  103.59
  -4   5   1 3300.37  101.79
  -4   5   1 3232.48  119.99
   3  -5  -1  182.98   13.80
   3  -5  -1  172.38   21.00
   3  -5  -1  167.08   15.60
   3  -5  -1  192.08   15.90
   3  -5  -1  169.38   24.00
   3  -5  -1  146.09   30.70
  -3   5   1  182.18   16.20
  -3   5   1  169.08   19.80
  -3   5   1  162.38   14.70
  -3   5   1  187.48   15.40
  -3   5   1  199.38   16.30
   2  -5  -1  785.12   53.79
   2  -5  -1  740.23   37.80
   2  -5  -1  815.52   39.80
   2  -5  -1  730.13   38.10
   2  -5  -1  839.12   33.10
   2  -5  -1  778.22   71.89
  -2   5   1  757.32   35.00
  -2   5   1  828.02   37.80
  -2   5   1  732.63   35.50
  -2   5   1  804.92   42.30
   1  -5  -1 2488.75  160.38
   1  -5  -1 2452.55   85.99
   1  -5  -1 2416.76   88.99
   1  -5  -1 2245.98   82.99
   1  -5  -1 2531.35  134.29
  -1   5   1 2601.24   95.69
  -1   5   1 2471.25   88.89
  -1   5   1 2760.42   83.89
  -1   5   1 2459.95   86.89
   0  -5  -1  762.52   38.50
   0  -5  -1  802.72   38.30
   0  -5  -1  759.02   62.39
   0  -5  -1  779.72   72.69
   0   5   1  789.62   38.80
   0   5   1  861.71   44.70
   0   5   1  755.52   41.80
  -1  -5  -1   31.30   11.30
  -1  -5  -1   35.80   19.00
  -1  -5  -1   44.80   11.90
  -1  -5  -1   17.10   14.80
   1   5   1   34.60   12.30
   1   5   1   29.20    9.10
   1   5   1   52.89   15.10
   1   5   1   20.40   20.00
   1   5   1   38.20   12.60
  -2  -5  -1  129.89   19.90
  -2  -5  -1  146.69   19.20
  -2  -5  -1   80.69   22.80
  -2  -5  -1   96.69   28.00
   2   5   1  103.09   18.20
   2   5   1  109.89   32.30
   2   5   1  110.69   19.80
  -3  -5  -1 2433.46  160.08
  -3  -5  -1 2256.37   95.89
  -3  -5  -1 2351.76   92.39
  -3  -5  -1 2364.66  156.28
   3   5   1 2534.75  160.28
   3   5   1 2363.36   93.89
   3   5   1 2298.17   98.29
  -4  -5  -1  500.05   76.79
  -4  -5  -1  506.75   41.50
  -4  -5  -1  722.63   68.09
  -4  -5  -1  527.35   39.30
   4   5   1  581.64   43.60
   4   5   1  476.75   75.99
   4   5   1  582.74   46.80
  -5  -5  -1   10.20   24.30
  -5  -5  -1   60.89   23.00
  -5  -5  -1   34.70   15.70
   5   5   1   -9.60   32.70
   5   5   1   13.00   16.90
   5   5   1   38.80   17.80
  -6  -5  -1  328.87   41.80
  -6  -5  -1  303.77   39.40
   6   5   1  246.38   66.79
   6   5   1  387.86   39.10
   6   5   1  362.36   44.00
   7   5   1  611.84   45.60
 -11   6   1  318.87   45.20
 -10   6   1  270.17   45.50
   9  -6  -1  150.98   27.00
   9  -6  -1   92.59   70.49
  -9   6   1  157.58   33.60
  -9   6   1  173.78   27.30
   8  -6  -1   85.39   18.50
   8  -6  -1   78.29   55.49
  -8   6   1  135.49   21.40
  -8   6   1  134.49   28.50
   7  -6  -1  704.23   99.59
   7  -6  -1 1032.80   50.29
   7  -6  -1  977.10  133.29
  -7   6   1  972.60   48.30
  -7   6   1  968.30   47.60
  -7   6   1  899.41   58.49
   6  -6  -1  681.73   37.20
   6  -6  -1  613.64   80.49
   6  -6  -1  700.73  109.89
  -6   6   1  647.64   35.40
  -6   6   1  618.94   46.10
  -6   6   1  608.34   35.60
   5  -6  -1  230.88   46.60
   5  -6  -1  133.29   45.70
   5  -6  -1  220.78   19.00
   5  -6  -1  217.68   17.00
  -5   6   1  237.98   20.90
  -5   6   1  222.48   19.80
  -5   6   1  215.28   17.30
  -5   6   1  198.48   24.00
   4  -6  -1  628.94   40.80
   4  -6  -1  518.45   85.39
   4  -6  -1  606.24   31.10
   4  -6  -1  574.24   33.30
   4  -6  -1  607.04   69.59
   4  -6  -1  625.44   28.70
  -4   6   1  618.64   33.90
  -4   6   1  635.44   32.70
  -4   6   1  600.94   40.80
  -4   6   1  617.04   29.70
  -4   6   1  615.24   31.40
   3  -6  -1 1648.64   82.09
   3  -6  -1 1664.43   63.49
   3  -6  -1 1597.44  123.29
   3  -6  -1 1606.84   66.09
   3  -6  -1 1653.33   91.39
   3  -6  -1 1687.23   56.89
  -3   6   1 1639.94   59.89
  -3   6   1 1615.54   74.19
  -3   6   1 1620.24   60.09
   2  -6  -1  930.11   38.50
   2  -6  -1  834.52   80.49
   2  -6  -1  778.82   42.30
   2  -6  -1  772.02   43.10
   2  -6  -1  926.01   64.29
  -2   6   1  912.11   49.80
  -2   6   1  871.61   42.50
  -2   6   1  831.42   39.10
  -2   6   1  938.01   40.40
   1  -6  -1  156.78   39.70
   1  -6  -1  174.18   19.30
   1  -6  -1  199.98   34.90
   1  -6  -1  150.78   17.80
  -1   6   1  148.99   16.10
  -1   6   1  162.88   21.20
  -1   6   1  148.99   19.90
  -1   6   1  198.58   22.40
   0  -6  -1 1299.37  109.09
   0  -6  -1 1467.35  100.19
   0  -6  -1 1315.27   58.39
   0  -6  -1 1215.48   55.79
   0   6   1 1448.16   68.09
   0   6   1 1313.87   63.19
   0   6   1 1367.96   58.69
  -1  -6  -1 2062.99   82.79
  -1  -6  -1 2167.08  137.49
  -1  -6  -1 2019.50   78.29
  -1  -6  -1 1929.11  144.79
   1   6   1 2031.90   90.19
   1   6   1 2059.39   80.29
   1   6   1 1910.71   84.99
  -2  -6  -1   88.29   27.30
  -2  -6  -1  147.19   20.90
  -2  -6  -1  185.38   43.30
  -2  -6  -1  162.18   22.00
   2   6   1  158.18   21.10
   2   6   1  154.08   26.40
   2   6   1  134.99   35.50
  -3  -6  -1   94.39   19.70
  -3  -6  -1  180.08   41.50
  -3  -6  -1  101.19   22.10
  -3  -6  -1   50.99   25.20
   3   6   1  112.89   24.00
   3   6   1  124.19   23.50
   3   6   1   79.39   34.40
  -4  -6  -1  673.83   48.90
  -4  -6  -1  865.71   78.89
  -4  -6  -1  541.25   80.89
  -4  -6  -1  700.53   50.79
   4   6   1  682.33   87.19
   4   6   1  633.94   50.59
   4   6   1  655.83   49.70
  -5  -6  -1  421.36   44.90
  -5  -6  -1  433.16   43.00
   5   6   1  385.66   42.80
   5   6   1  359.96   82.09
   5   6   1  356.56   43.60
  -6  -6  -1  -26.50   17.20
   6   6   1   -4.50   19.50
 -10   7   1  161.68   37.30
   9  -7  -1  509.75   40.00
   9  -7  -1  332.17   96.19
  -9   7   1  448.56   36.70
  -9   7   1  406.76   46.50
   8  -7  -1  278.97   28.10
   8  -7  -1  224.68   80.19
  -8   7   1  300.57   38.90
  -8   7   1  319.07   29.10
   7  -7  -1  -13.60   23.40
   7  -7  -1   21.20   11.00
   7  -7  -1    5.70   34.80
  -7   7   1   37.80   18.50
  -7   7   1   29.00   12.90
  -7   7   1   28.10   12.50
   6  -7  -1  688.63   37.80
   6  -7  -1  645.14   83.49
   6  -7  -1  719.43  114.49
  -6   7   1  709.43   40.60
  -6   7   1  667.43   50.89
  -6   7   1  709.93   37.20
   5  -7  -1 1290.87   54.39
   5  -7  -1 1222.28  139.99
   5  -7  -1 1402.76  117.39
  -5   7   1 1365.16   54.49
  -5   7   1 1323.97   59.19
  -5   7   1 1311.87   71.39
   4  -7  -1  481.05   41.20
   4  -7  -1  529.65   69.19
   4  -7  -1  503.85   29.90
  -4   7   1  549.15   42.20
  -4   7   1  535.45   29.30
   3  -7  -1   27.70   13.70
   3  -7  -1   32.60   11.50
   3  -7  -1   20.00   18.90
   3  -7  -1   38.80    9.50
  -3   7   1   39.50   11.40
  -3   7   1   55.69   10.80
  -3   7   1   37.90   16.00
   2  -7  -1 1960.30  148.19
   2  -7  -1 2089.99   72.19
   2  -7  -1 1826.22   78.69
   2  -7  -1 2034.50  119.79
  -2   7   1 1934.01   73.39
  -2   7   1 1987.90   78.69
  -2   7   1 2044.50   91.09
   1  -7  -1 1367.36  116.39
   1  -7  -1 1299.27   59.39
   1  -7  -1 1362.36   96.99
   1  -7  -1 1214.88   56.69
  -1   7   1 1388.56   70.09
  -1   7   1 1329.97   63.19
  -1   7   1 1186.88   59.39
   0  -7  -1   87.89   26.70
   0  -7  -1  130.29   34.70
   0  -7  -1  138.49   18.50
   0   7   1  146.69   25.00
   0   7   1  186.88   25.90
   0   7   1  166.08   23.00
  -1  -7  -1  307.87   51.19
  -1  -7  -1  262.07   28.10
  -1  -7  -1  272.37   26.50
  -1  -7  -1  264.17   49.80
   1   7   1  250.07   30.00
   1   7   1  210.58   28.30
   1   7   1  277.47   29.20
  -2  -7  -1 1283.67   66.79
  -2  -7  -1 1075.99   57.39
  -2  -7  -1 1104.69  108.49
  -2  -7  -1 1244.28  112.49
   2   7   1 1173.08   61.29
   2   7   1 1174.88   67.09
  -3  -7  -1  475.85   39.90
  -3  -7  -1  456.45   40.30
   3   7   1  434.16   43.40
   3   7   1  481.25   40.00
  -4  -7  -1   29.60   18.50
  -4  -7  -1   26.40   18.40
   4   7   1   27.60   19.30
   6   7   1  404.26   36.00
 -10   8   1  111.89   33.90
   9  -8  -1    4.70   41.90
   9  -8  -1    3.70   12.30
  -9   8   1   11.80   12.50
  -9   8   1    6.50   13.70
   8  -8  -1  177.38   75.79
   8  -8  -1  215.48   25.00
  -8   8   1  269.37   27.70
  -8   8   1  260.47   35.60
  -8   8   1  227.68   25.20
   7  -8  -1  942.41  143.59
   7  -8  -1  803.92  105.29
   7  -8  -1  844.42   45.90
  -7   8   1  856.51   44.30
  -7   8   1  845.82   48.70
  -7   8   1  844.12   62.89
   6  -8  -1  372.86   27.90
   6  -8  -1  441.66   96.79
   6  -8  -1  301.87   64.19
  -6   8   1  333.97   29.70
  -6   8   1  346.37   39.30
  -6   8   1  388.86   27.80
   5  -8  -1   57.69   32.60
   5  -8  -1   20.40   18.50
   5  -8  -1   61.79   13.50
  -5   8   1   62.49   13.40
  -5   8   1   52.09   18.20
   4  -8  -1 1575.64   93.89
   4  -8  -1 1644.34  134.69
   4  -8  -1 1516.95   63.29
  -4   8   1 1465.95   80.99
  -4   8   1 1483.85   60.19
   3  -8  -1 1317.27  122.39
   3  -8  -1 1335.67   90.49
   3  -8  -1 1262.47   59.89
  -3   8   1 1337.87   57.19
  -3   8   1 1310.17   73.69
   2  -8  -1    0.00    9.70
   2  -8  -1  -20.30   11.60
   2  -8  -1   11.30   19.00
  -2   8   1   -6.80    6.10
  -2   8   1    6.20   12.10
   1  -8  -1  335.67   53.29
   1  -8  -1  282.87   55.79
   1  -8  -1  333.07   30.10
  -1   8   1  295.67   34.50
  -1   8   1  327.47   32.30
   0  -8  -1  737.83   47.30
   0  -8  -1  863.71   97.19
   0  -8  -1  820.02   85.39
   0   8   1  835.82   50.09
   0   8   1  783.52   56.99
  -1  -8  -1  445.96   66.79
  -1  -8  -1  492.05   38.50
  -1  -8  -1  547.85   78.49
   1   8   1  516.05   46.50
   1   8   1  468.15   39.60
  -2  -8  -1   -0.10   14.10
  -2  -8  -1  -22.30   25.60
   2   8   1   -6.70   13.50
  -3  -8  -1  297.97   34.80
   3   8   1  244.68   37.80
  -4  -8  -1  220.78   73.29
 -10   9   1  191.98   44.00
   9  -9  -1  284.27   30.90
  -9   9   1  300.97   29.90
  -9   9   1  288.87   43.90
   8  -9  -1  111.29   53.69
   8  -9  -1   62.39   16.70
  -8   9   1   55.79   18.20
  -8   9   1   66.69   27.80
  -8   9   1   70.19   15.60
   7  -9  -1  139.59   21.80
   7  -9  -1   66.09   38.50
   7  -9  -1  149.29   59.19
  -7   9   1  163.48   20.20
  -7   9   1  170.38   35.20
   6  -9  -1  621.24   37.30
   6  -9  -1  617.34   89.89
   6  -9  -1  716.23  110.89
  -6   9   1  599.74   52.79
  -6   9   1  618.94   35.90
   5  -9  -1  823.32  102.69
   5  -9  -1  833.62  118.89
   5  -9  -1  856.41   44.00
  -5   9   1  862.01   62.49
  -5   9   1  889.11   42.90
   4  -9  -1   -7.10   13.00
   4  -9  -1    2.40    9.50
  -4   9   1   -3.30    7.00
  -4   9   1   -5.50    8.80
   3  -9  -1  812.72   49.10
   3  -9  -1  825.92   73.89
   3  -9  -1  870.11  104.89
  -3   9   1  968.80   48.10
  -3   9   1  853.01   61.19
   2  -9  -1  602.74   68.89
   2  -9  -1  666.33   87.09
   2  -9  -1  579.84   44.60
  -2   9   1  684.63   55.39
  -2   9   1  619.84   44.60
   1  -9  -1  284.27   31.60
   1  -9  -1  273.97   54.79
   1  -9  -1  346.67   65.19
  -1   9   1  328.17   35.10
  -1   9   1  340.17   40.50
   0  -9  -1    4.30   18.40
   0  -9  -1    9.40   13.70
   0  -9  -1   21.90   24.00
   0   9   1   19.80   16.60
   0   9   1   14.00   15.10
  -1  -9  -1  683.23   88.69
  -1  -9  -1  493.75   41.20
  -1  -9  -1  387.16   79.99
   1   9   1  478.75   48.20
   1   9   1  438.86   41.60
  -2  -9  -1  294.07   63.09
  -2  -9  -1  498.95   45.60
   2   9   1  448.26   44.30
  -3  -9  -1  732.63   71.19
  -9  10   1  225.58   48.20
   8 -10  -1  261.57   26.90
  -8  10   1  243.78   46.80
   7 -10  -1  327.47   29.50
   7 -10  -1  552.54  100.59
  -7  10   1  286.07   43.70
  -7  10   1  324.07   26.50
   6 -10  -1  -10.50   22.80
   6 -10  -1  -17.60    7.70
  -6  10   1   -4.20    8.70
  -6  10   1   -0.90   14.30
   5 -10  -1  189.28   51.69
   5 -10  -1  264.47   24.90
  -5  10   1  306.07   41.60
  -5  10   1  252.87   23.50
   4 -10  -1  659.63   41.60
   4 -10  -1  581.34   93.59
  -4  10   1  593.14   55.49
  -4  10   1  600.24   36.90
   3 -10  -1  648.34   46.20
   3 -10  -1  594.94   74.79
   3 -10  -1  840.32  108.99
  -3  10   1  754.12   62.89
  -3  10   1  836.42   47.10
   2 -10  -1   50.09   29.60
   2 -10  -1   99.59   25.10
   2 -10  -1  114.99   39.30
  -2  10   1  143.49   27.20
  -2  10   1  123.89   32.60
   1 -10  -1 1080.89  120.19
   1 -10  -1  800.02   94.59
   1 -10  -1  872.21   57.39
  -1  10   1  828.62   68.59
  -1  10   1  933.61   60.19
   0 -10  -1  505.25   76.39
   0 -10  -1  321.27   37.00
   0 -10  -1  247.68   54.89
   0  10   1  407.16   49.40
   0  10   1  355.06   40.00
  -1 -10  -1   39.50   20.20
  -1 -10  -1  -27.50   32.90
   1  10   1   25.50   20.40
   1  10   1   49.99   23.80
  -2 -10  -1  886.61   93.69
  -9  11   1   82.09   35.00
  -8  11   1   17.50   18.10
   7 -11  -1  132.99   53.79
  -7  11   1  246.48   47.00
   6 -11  -1  460.95   89.79
  -6  11   1  392.96   50.89
   5 -11  -1   90.39   18.90
   5 -11  -1   56.09   33.40
  -5  11   1   64.29   14.70
  -5  11   1   38.10   21.60
   4 -11  -1  123.49   42.60
   4 -11  -1   89.89   20.40
  -4  11   1  105.29   33.70
  -4  11   1  130.39   20.60
   3 -11  -1  564.54   94.79
   3 -11  -1  423.66   40.80
  -3  11   1  501.15   38.60
  -3  11   1  468.25   52.29
   2 -11  -1  500.55   84.19
  -2  11   1  403.16   51.49
  -2  11   1  401.46   41.20
   1 -11  -1   -7.60   12.70
  -1  11   1    2.90   18.20
  -1  11   1    2.50   16.10
   0 -11  -1  133.89   30.90
   0 -11  -1   41.80   41.90
   0  11   1  172.38   41.50
   0  11   1  157.08   32.10
  -8  12   1  139.89   42.20
  -7  12   1   25.60   25.10
  -6  12   1   94.99   35.80
  -5  12   1  520.25   61.79
   4 -12  -1  339.17   36.10
  -4  12   1  439.26   56.29
   3 -12  -1   -3.00   15.40
  -3  12   1   -2.50   20.40
  -3  12   1   10.60   15.80
  -2  12   1  319.27   40.20
  -2  12   1  366.36   52.69
  -1  12   1  307.37   57.59
   0  12   1    8.00   20.00
  -6  13   1   70.59   30.90
  -5  13   1   -6.80   19.80
  -4  13   1  198.68   48.90
  -3  13   1  235.58   52.29
  -2  13   1  149.29   42.00
  -1  13  -2  287.57   57.99
  -2  13  -2   -7.80   20.90
  -3  13  -2  108.59   39.10
  -4  13  -2  297.67   57.39
  -5  13  -2   53.89   31.20
  -6  13  -2    7.50   17.40
   0  12  -2   12.60   19.90
  -1  12  -2  303.57   57.79
   1 -12   2  123.89   45.70
   2 -12   2  276.57   62.79
   3 -12   2  536.15   82.19
  -4  12  -2   57.59   27.60
  -5  12  -2  461.85   57.99
   5 -12   2  731.53   94.89
  -6  12  -2  256.37   50.29
  -7  12  -2   -1.50   18.50
   1  11  -2  258.07   36.20
  -1 -11   2  151.78   48.70
  -1 -11   2  324.17   34.90
   0  11  -2  457.35   40.70
   0  11  -2  485.85   58.69
   0 -11   2  413.46   83.09
   0 -11   2  528.45   42.10
  -1  11  -2   52.39   26.20
  -1  11  -2   41.70   14.90
   1 -11   2   40.90   17.40
   1 -11   2   39.10   26.30
  -2  11  -2  153.58   38.70
   2 -11   2   78.19   28.20
   3 -11   2  521.55   79.29
  -4  11  -2  432.46   51.69
   4 -11   2  606.34   81.69
  -5  11  -2    4.00   17.80
   6 -11   2  403.56   64.89
  -7  11  -2  283.27   44.50
  -7  11  -2  259.27   49.20
  -8  11  -2  320.67   47.10
  -8  11  -2  286.97   40.00
  -3 -10   2  842.32   84.49
   2  10  -2  560.04   45.50
  -2 -10   2  487.15   91.29
  -2 -10   2  495.25   43.10
   1  10  -2   11.80   15.10
   1  10  -2   36.60   23.90
  -1 -10   2   22.70   26.30
  -1 -10   2   58.89   17.40
   0  10  -2   71.89   25.80
   0  10  -2   56.99   19.10
   0 -10   2   62.29   27.50
   0 -10   2   96.79   19.90
  -1  10  -2  799.72   65.69
  -1  10  -2  817.92   45.40
   1 -10   2  831.32   88.19
   1 -10   2  879.71  104.99
   1 -10   2  769.32   46.60
  -2  10  -2 1200.88   80.39
   2 -10   2 1288.37  104.29
   2 -10   2 1115.29   55.89
   2 -10   2 1249.97  127.89
  -3  10  -2   59.19   23.30
   3 -10   2   45.70   17.80
   3 -10   2   54.19   23.40
   3 -10   2   40.70   10.30
  -4  10  -2  585.94   55.09
   4 -10   2  727.63   88.49
  -5  10  -2  524.95   53.89
  -5  10  -2  554.34   46.30
   5 -10   2  717.83   88.39
   5 -10   2  852.51  112.09
  -6  10  -2  276.87   34.30
  -6  10  -2  256.47   46.40
   6 -10   2  362.96   62.09
  -7  10  -2   33.60   23.10
  -7  10  -2   60.39   21.20
  -8  10  -2  154.88   32.20
  -8  10  -2  153.78   37.30
  -9  10  -2  318.07   40.50
  -9  10  -2  319.67   46.20
  -4  -9   2  935.51   86.49
   3   9  -2   41.60   20.00
  -3  -9   2    8.50   31.80
  -3  -9   2   39.10   17.70
   2   9  -2  262.67   30.40
  -2  -9   2  152.28   40.50
  -2  -9   2  235.38   29.70
   1   9  -2  869.61   49.50
  -1  -9   2 1004.70  106.19
  -1  -9   2  792.12   48.30
  -1  -9   2  788.82   91.79
   0   9  -2  495.85   50.09
   0   9  -2  564.94   38.20
   0  -9   2  491.95   33.80
   0  -9   2  464.55   66.99
   0  -9   2  567.44   80.19
  -1   9  -2   17.50   12.60
  -1   9  -2    6.90   11.20
   1  -9   2    8.10   12.10
   1  -9   2   25.40   18.20
   1  -9   2   12.70    9.70
  -2   9  -2  682.03   54.59
  -2   9  -2  680.23   30.80
   2  -9   2  784.62   72.09
   2  -9   2  668.23   84.29
   2  -9   2  677.43   37.60
  -3   9  -2  777.42   57.79
  -3   9  -2  822.22   28.90
   3  -9   2  833.92   92.99
   3  -9   2  918.41   75.29
  -4   9  -2  215.98   28.60
  -4   9  -2  248.78   34.00
   4  -9   2  222.38   14.80
   4  -9   2  311.17   36.30
   4  -9   2  288.47   51.99
  -5   9  -2  152.88   27.20
  -5   9  -2  139.09   31.10
   5  -9   2  125.29   45.20
   5  -9   2  172.38   41.60
  -6   9  -2  525.25   51.29
  -6   9  -2  599.04   46.60
   6  -9   2  708.43  107.59
   6  -9   2  650.83   80.09
  -7   9  -2  327.97   36.00
  -7   9  -2  297.97   40.90
   7  -9   2  434.26   86.09
  -8   9  -2   49.50   24.20
  -8   9  -2   37.70   18.10
   8  -9   2   73.29   41.80
  -9   9  -2   46.40   25.20
  -9   9  -2  121.89   30.10
   4   8  -2  344.87   37.70
  -4  -8   2  319.97   35.80
   3   8  -2  854.21   52.79
  -3  -8   2  871.51  102.79
  -3  -8   2  881.21   56.49
   2   8  -2  259.17   28.60
  -2  -8   2  292.07   64.19
  -2  -8   2  269.37   29.10
   1   8  -2   99.99   26.60
   1   8  -2  108.19   18.70
  -1  -8   2   93.09   18.10
  -1  -8   2   79.29   27.70
   0   8  -2 1293.47   55.69
   0   8  -2 1184.08   73.29
   0  -8   2 1242.48  101.69
   0  -8   2 1255.57   55.19
  -1   8  -2  918.31   60.19
  -1   8  -2  817.32   41.80
   1  -8   2  931.51   79.89
   1  -8   2  872.01   58.99
   1  -8   2  868.81   91.89
   1  -8   2  901.21   41.70
  -2   8  -2  125.69   12.20
  -2   8  -2  113.59   25.10
   2  -8   2  172.78   23.60
   2  -8   2   95.09   29.00
   2  -8   2  106.29   14.10
   2  -8   2  145.89   30.70
  -3   8  -2  218.78   27.30
  -3   8  -2  188.88   24.10
  -3   8  -2  177.38    9.70
   3  -8   2  197.58   30.60
   3  -8   2  184.68   39.10
   3  -8   2  175.98   12.60
  -4   8  -2 1377.16   67.49
  -4   8  -2 1350.76   75.99
  -4   8  -2 1343.47   40.70
   4  -8   2 1428.66   91.79
   4  -8   2 1388.06  118.49
   4  -8   2 1419.86   47.40
  -5   8  -2  721.13   53.79
  -5   8  -2  733.43   48.20
  -5   8  -2  690.73   25.80
   5  -8   2  733.43   30.90
   5  -8   2  768.52   81.29
   5  -8   2  735.43  104.29
  -6   8  -2   21.40   15.50
  -6   8  -2   13.90   11.70
  -6   8  -2    7.60    5.80
   6  -8   2   23.80   15.70
   6  -8   2   -1.40    5.70
   6  -8   2   25.10   27.50
  -7   8  -2  415.16   38.00
  -7   8  -2  372.56   41.70
   7  -8   2  457.35   96.29
   7  -8   2  369.76   27.10
  -8   8  -2  617.84   48.90
  -8   8  -2  575.84   52.69
   8  -8   2  688.53  122.79
   8  -8   2  697.23   85.49
   8  -8   2  588.14   38.40
  -9   8  -2   86.69   25.50
  -9   8  -2  131.19   30.80
   5   7  -2  665.33   39.00
   5   7  -2  664.93   51.19
  -5  -7   2  645.64   51.99
  -5  -7   2  578.54   98.69
   4   7  -2   96.39   23.30
   4   7  -2  110.09   16.50
  -4  -7   2   46.60   27.00
  -4  -7   2  102.69   25.50
   3   7  -2   89.89   19.80
   3   7  -2   65.09   11.80
  -3  -7   2  100.89   21.20
  -3  -7   2   24.20   22.20
  -3  -7   2   41.70   27.00
   2   7  -2 1127.69   40.10
   2   7  -2 1144.79   54.49
  -2  -7   2 1139.59   78.79
  -2  -7   2 1125.29   57.49
  -2  -7   2 1182.58  103.29
   1   7  -2 1061.59   48.20
   1   7  -2 1034.50   65.19
   1   7  -2 1092.29   34.50
  -1  -7   2 1041.70   50.39
  -1  -7   2 1104.69   92.39
  -1  -7   2 1060.19   71.09
   0   7  -2   54.89   12.80
   0   7  -2   72.69   20.20
   0  -7   2   57.39   11.70
   0  -7   2   32.60   13.80
   0  -7   2   32.50   15.30
  -1   7  -2  181.58   23.50
  -1   7  -2  169.98   17.70
  -1   7  -2  169.18   22.80
   1  -7   2  153.48   32.40
   1  -7   2  165.18   23.30
   1  -7   2  199.48   16.10
  -2   7  -2 1997.80   61.59
  -2   7  -2 2025.60   81.59
  -2   7  -2 1963.00   90.19
  -2   7  -2 2088.69   60.99
  -2   7  -2 2152.48   77.19
   2  -7   2 2017.50   66.19
   2  -7   2 2034.50  114.99
   2  -7   2 1991.00  121.99
   2  -7   2 1944.31   67.99
   2  -7   2 1976.30  146.59
  -3   7  -2  960.90   30.30
  -3   7  -2  995.10   30.50
  -3   7  -2  995.90   51.59
  -3   7  -2 1012.10   46.40
  -3   7  -2  944.61   55.99
   3  -7   2  995.10   90.09
   3  -7   2  996.70   71.49
   3  -7   2  929.81   33.90
   4  -7   2   22.90   19.30
   4  -7   2   17.40   12.40
   4  -7   2   25.30    8.40
  -5   7  -2  494.25   41.10
  -5   7  -2  479.85   21.90
  -5   7  -2  485.25   35.90
   5  -7   2  504.95   60.39
   5  -7   2  472.85   81.59
   5  -7   2  535.35   42.70
   5  -7   2  470.75   24.40
  -6   7  -2 1091.29   66.29
  -6   7  -2 1143.39   61.79
  -6   7  -2 1148.79   44.30
   6  -7   2 1137.09   48.30
   6  -7   2 1260.87  139.09
  -7   7  -2  108.49   15.90
  -7   7  -2  122.49   29.10
  -7   7  -2  124.99   25.50
   7  -7   2  157.28   19.00
   7  -7   2  244.08   49.80
   7  -7   2  112.49   46.40
  -8   7  -2   42.60   12.90
  -8   7  -2   70.59   23.10
  -8   7  -2   42.10   18.50
   8  -7   2   32.60   43.70
   8  -7   2   62.69   15.40
  -9   7  -2  202.68   35.70
  -9   7  -2  262.87   28.00
  -9   7  -2  195.08   36.90
   9  -7   2  188.28   26.90
   7   6  -2  200.38   29.90
   6   6  -2   36.40   21.50
   6   6  -2   30.30   14.10
  -6  -6   2   31.40   22.60
   5   6  -2  210.78   22.60
   5   6  -2  304.27   34.80
   5   6  -2  282.77   32.00
  -5  -6   2  307.87   36.80
  -5  -6   2  141.59   42.00
  -5  -6   2  242.18   27.80
   4   6  -2  796.32   50.39
   4   6  -2  701.03   35.70
   4   6  -2  725.03   45.50
  -4  -6   2  763.02   51.29
  -4  -6   2  742.73   87.99
  -4  -6   2  722.23   44.70
  -4  -6   2  696.73   67.99
   3   6  -2  292.37   27.70
   3   6  -2  266.77   18.80
   3   6  -2  327.37   29.30
  -3  -6   2  268.67   53.89
  -3  -6   2  235.78   40.30
  -3  -6   2  291.07   25.40
  -3  -6   2  281.27   27.20
   2   6  -2  302.07   17.20
   2   6  -2  271.67   24.80
   2   6  -2  285.47   24.50
  -2  -6   2  256.47   36.70
  -2  -6   2  258.17   48.40
  -2  -6   2  287.67   22.40
  -2  -6   2  229.98   22.70
   1   6  -2  696.73   37.30
   1   6  -2  733.93   33.30
   1   6  -2  666.43   24.20
   1   6  -2  678.13   47.10
   1   6  -2  690.93   34.50
  -1  -6   2  735.33   54.69
  -1  -6   2  684.83   33.10
  -1  -6   2  621.04   35.20
  -1  -6   2  675.63   66.59
   0   6  -2 3548.45   85.59
   0   6  -2 3429.76  132.89
   0   6  -2 3480.75  107.49
   0   6  -2 3517.25  113.79
   0   6  -2 3532.25  105.69
   0  -6   2 3459.35  107.09
   0  -6   2 3495.75  110.99
   0  -6   2 3292.97  186.68
   0  -6   2 3492.15  167.68
   0  -6   2 3607.14  110.39
  -1   6  -2  741.53   33.30
  -1   6  -2  827.92   48.60
  -1   6  -2  886.41   43.60
  -1   6  -2  895.21   41.70
   1  -6   2  886.91   33.90
   1  -6   2  862.71   66.89
   1  -6   2  831.32   57.69
   1  -6   2  848.32   32.70
  -2   6  -2  173.78    9.30
  -2   6  -2  185.48   19.80
  -2   6  -2  189.78   19.70
  -2   6  -2  185.18   22.20
  -2   6  -2  173.78    8.80
   2  -6   2  183.58   28.30
   2  -6   2  171.08   11.00
  -3   6  -2 2773.12  109.99
  -3   6  -2 2857.11   79.59
  -3   6  -2 2715.43  100.29
  -3   6  -2 2893.31   92.19
  -3   6  -2 2810.32   79.09
   3  -6   2 2645.64  175.88
   3  -6   2 2847.81   83.29
   3  -6   2 2888.81   87.19
  -4   6  -2 1466.65   54.39
  -4   6  -2 1516.45   48.30
  -4   6  -2 1489.15   46.60
  -4   6  -2 1361.16   68.29
  -4   6  -2 1434.96   63.99
   4  -6   2 1380.36  105.99
   4  -6   2 1476.25  132.49
   4  -6   2 1420.86   48.90
  -5   6  -2    2.80    9.40
  -5   6  -2    1.50    5.80
  -5   6  -2    4.40    9.00
   5  -6   2   -3.00   16.90
   5  -6   2   -5.00    4.20
   5  -6   2   -4.10    7.70
   5  -6   2    5.60    5.70
  -6   6  -2  158.88   22.00
  -6   6  -2  133.69   24.70
  -6   6  -2  138.99   15.90
   6  -6   2  159.18   16.00
   6  -6   2  140.29   16.50
   6  -6   2  110.09   45.20
  -7   6  -2  651.93   47.40
  -7   6  -2  651.33   36.10
  -7   6  -2  592.44   44.70
   7  -6   2  601.54   37.20
   7  -6   2  686.73   82.39
   7  -6   2  627.64   34.80
   7  -6   2  602.14  108.69
  -8   6  -2  463.45   41.30
  -8   6  -2  445.16   32.80
  -8   6  -2  450.05   40.30
   8  -6   2  447.96   31.70
   8  -6   2  389.96   33.20
   8  -6   2  582.44   79.49
   8  -6   2  258.17   74.39
  -9   6  -2   11.90   14.50
  -9   6  -2    1.50   15.20
   9  -6   2   -5.50   12.20
   9  -6   2    5.30   10.40
   8   5  -2  122.39   26.30
   7   5  -2  219.68   37.80
   7   5  -2  261.87   41.10
   7   5  -2  235.08   28.30
  -7  -5   2  229.08   39.00
  -7  -5   2  249.58   32.20
   6   5  -2  764.82   55.79
   6   5  -2  715.53   41.70
   6   5  -2  728.43   50.89
  -6  -5   2  786.32   57.89
  -6  -5   2  721.43   88.39
  -6  -5   2  811.12   53.29
   5   5  -2  585.04   45.10
   5   5  -2  567.04   33.90
   5   5  -2  603.24   43.80
  -5  -5   2  621.04   45.80
  -5  -5   2  548.75   77.79
  -5  -5   2  589.94   66.69
  -5  -5   2  587.34   40.50
   4   5  -2   15.70   10.40
   4   5  -2    2.80   15.60
   4   5  -2   20.60   13.70
   4   5  -2   11.70    8.00
  -4  -5   2    5.00   18.00
  -4  -5   2    8.00   10.30
  -4  -5   2    2.90   20.80
  -4  -5   2    6.30   11.80
   3   5  -2 2110.69   83.09
   3   5  -2 2096.89   80.09
   3   5  -2 2094.39   65.69
  -3  -5   2 2086.19   78.49
  -3  -5   2 1948.01   82.89
  -3  -5   2 2111.39  121.29
  -3  -5   2 2152.48  138.39
   2   5  -2 1836.72   54.79
   2   5  -2 1857.21   70.59
   2   5  -2 1805.42   67.79
  -2  -5   2 1772.22  118.49
  -2  -5   2 1827.92   66.39
  -2  -5   2 1728.73   70.99
  -2  -5   2 1888.71  106.09
   1   5  -2  366.86   22.70
   1   5  -2  356.86   20.40
   1   5  -2  322.97   21.00
   1   5  -2  346.47   15.00
   1   5  -2  334.77   25.40
   1   5  -2  327.77   28.60
  -1  -5   2  354.76   36.20
  -1  -5   2  343.97   20.30
  -1  -5   2  358.26   23.00
  -1  -5   2  322.27   40.20
  -1  -5   2  366.36   21.70
   0   5  -2  101.49   13.40
   0   5  -2   90.49   18.10
   0   5  -2   99.29   11.00
   0   5  -2   80.59    8.90
   0   5  -2   91.79    4.60
   0  -5   2   87.99    9.60
   0  -5   2   82.89    9.60
   0  -5   2  102.59   17.70
   0  -5   2   60.89   16.10
   0  -5   2   91.49    9.50
  -1   5  -2 2929.71   92.19
  -1   5  -2 2899.81   82.19
  -1   5  -2 2668.03   84.49
  -1   5  -2 2954.80   97.59
  -1   5  -2 2920.81  107.89
   1  -5   2 3019.10   79.49
   1  -5   2 2836.22  151.58
   1  -5   2 2937.71   85.79
   1  -5   2 2846.92   79.09
   1  -5   2 2742.13  143.89
   1  -5   2 2881.91   85.89
  -2   5  -2  895.31   24.80
  -2   5  -2  835.92   36.40
  -2   5  -2  819.22   39.90
  -2   5  -2  896.61   45.70
  -2   5  -2  807.62   24.50
   2  -5   2  853.31   27.20
   2  -5   2  780.62   28.80
  -3   5  -2  646.74   38.80
  -3   5  -2  630.44   22.50
  -3   5  -2  736.03   24.10
  -3   5  -2  704.73   31.50
  -3   5  -2  635.84   35.80
   3  -5   2  615.64   25.30
   3  -5   2  660.13   59.99
   3  -5   2  673.63   24.20
   3  -5   2  656.93   76.49
  -4   5  -2   99.39   18.60
  -4   5  -2   86.19   10.00
  -4   5  -2  115.89   13.30
  -4   5  -2  109.09   18.60
   4  -5   2   89.29   30.80
   4  -5   2   87.99   10.10
   4  -5   2   66.99   18.60
   4  -5   2  105.79   10.90
   4  -5   2  106.69    8.00
   4  -5   2   88.79   10.10
  -5   5  -2 2564.84   98.39
  -5   5  -2 2499.65  102.49
  -5   5  -2 2601.84   84.19
   5  -5   2 2609.74  197.68
   5  -5   2 2711.53  159.78
   5  -5   2 2611.54   78.69
   5  -5   2 2624.24   87.69
  -6   5  -2  605.44   42.10
  -6   5  -2  691.13   35.30
  -6   5  -2  666.43   43.60
   6  -5   2  651.13   98.09
   6  -5   2  653.93   33.20
   6  -5   2  695.13   74.99
   6  -5   2  645.84   35.80
  -7   5  -2    0.40   10.60
  -7   5  -2   10.60   12.10
  -7   5  -2    5.10    9.40
   7  -5   2  -12.00   28.10
   7  -5   2   20.60   18.70
   7  -5   2    0.80    8.30
   7  -5   2   -2.20    7.30
  -8   5  -2  399.46   37.10
  -8   5  -2  397.96   39.80
  -8   5  -2  379.06   32.90
   8  -5   2  270.87   81.99
   8  -5   2  458.05   72.79
   8  -5   2  341.47   32.70
   8  -5   2  339.67   29.40
  -9   5  -2  529.45   41.50
  -9   5  -2  479.35   45.20
   9  -5   2  720.23   98.79
   9  -5   2  476.85   37.40
   9  -5   2  514.45   44.10
  10  -5   2   32.50   16.70
   8   4  -2  457.45   38.90
   8   4  -2  386.36   48.90
  -8  -4   2  438.86   47.20
   7   4  -2  191.88   34.60
   7   4  -2  176.38   30.00
   7   4  -2  200.58   28.10
  -7  -4   2  183.48   31.80
  -7  -4   2  248.78   33.40
   6   4  -2   27.60   17.70
   6   4  -2   18.60   11.30
   6   4  -2   49.50   19.30
  -6  -4   2   18.60   14.00
  -6  -4   2   55.49   16.90
  -6  -4   2    2.80   24.00
   5   4  -2  834.02   40.20
   5   4  -2  745.83   45.60
   5   4  -2  779.62   68.79
   5   4  -2  805.12   50.09
  -5  -4   2  782.72   82.79
  -5  -4   2  761.02   74.39
  -5  -4   2  822.52   52.69
  -5  -4   2  847.72   47.30
   4   4  -2 1351.26   60.89
   4   4  -2 1434.26   64.39
   4   4  -2 1398.96   51.49
   4   4  -2 1452.45   91.29
  -4  -4   2 1434.26   66.49
  -4  -4   2 1344.67  103.99
  -4  -4   2 1434.56   97.19
  -4  -4   2 1334.37   59.99
   3   4  -2  149.19   27.60
   3   4  -2  123.59   12.70
   3   4  -2  118.49   15.50
   3   4  -2  132.59   16.30
  -3  -4   2  150.08   19.70
  -3  -4   2   84.59   23.20
  -3  -4   2  164.08   29.70
  -3  -4   2  132.69   16.80
   2   4  -2  441.56   25.90
   2   4  -2  499.55   27.90
   2   4  -2  422.76   19.80
   2   4  -2  491.15   27.50
  -2  -4   2  470.35   25.50
  -2  -4   2  493.35   44.40
  -2  -4   2  412.06   27.10
  -2  -4   2  422.66   41.40
  -2  -4   2  440.96   48.00
   1   4  -2 2696.73   84.09
   1   4  -2 2687.83   85.99
   1   4  -2 2693.13   70.19
   1   4  -2 2721.33  102.19
   1   4  -2 2755.32   86.59
   1   4  -2 2712.73   83.39
  -1  -4   2 2698.33  133.49
  -1  -4   2 2471.65  143.49
  -1  -4   2 2724.13   83.09
  -1  -4   2 2796.72  136.69
  -1  -4   2 2618.34   87.59
  -1  -4   2 2678.73   85.89
   0   4  -2 1794.42   61.19
   0   4  -2 1847.32   55.69
   0   4  -2 1813.02   55.89
   0   4  -2 1859.51   64.39
   0   4  -2 1841.82   72.79
   0   4  -2 1754.92   55.19
   0  -4   2 1797.32   58.39
   0  -4   2 1864.61   57.59
   0  -4   2 1859.41   55.29
   0  -4   2 1754.62  102.69
   0  -4   2 1760.42   94.49
  -1   4  -2   14.70    2.40
  -1   4  -2   23.20    3.80
  -1   4  -2    9.50    6.30
  -1   4  -2   17.80    7.10
  -1   4  -2   23.50    7.80
   1  -4   2   17.50    3.00
   1  -4   2   14.30    2.90
  -2   4  -2 1060.19   31.40
  -2   4  -2 1108.79   46.10
  -2   4  -2 1080.19   32.10
  -2   4  -2 1136.29   49.80
   2  -4   2 1115.59   34.10
   2  -4   2 1118.29   31.00
   2  -4   2 1140.29   33.30
  -3   4  -2 2829.62  100.49
  -3   4  -2 2771.12   94.69
  -3   4  -2 2739.23   80.69
   3  -4   2 2673.93   74.39
   3  -4   2 2913.31   79.19
   3  -4   2 2769.92   84.89
   3  -4   2 2739.23  183.38
   3  -4   2 2822.82   83.29
   3  -4   2 2638.14  158.88
  -4   4  -2  674.03   25.30
  -4   4  -2  667.83   28.30
  -4   4  -2  687.63   28.10
  -4   4  -2  648.34   36.50
  -4   4  -2  670.23   37.50
   4  -4   2  659.13   30.90
   4  -4   2  632.04   27.10
   4  -4   2  668.23   53.19
   4  -4   2  630.14   29.00
   4  -4   2  594.04   74.79
   4  -4   2  645.84   26.30
  -5   4  -2   57.79   12.00
  -5   4  -2   87.09   17.00
  -5   4  -2   71.19   10.00
  -5   4  -2   70.79   16.90
   5  -4   2   77.19   12.50
   5  -4   2   58.79   12.30
   5  -4   2   37.70   14.50
   5  -4   2   63.69   25.10
   5  -4   2   47.60   29.20
   5  -4   2   71.79   11.10
  -6   4  -2  815.12   48.50
  -6   4  -2  825.12   41.60
  -6   4  -2  756.92   45.20
   6  -4   2  841.12  108.49
   6  -4   2  805.92   38.60
   6  -4   2  838.92   85.49
   6  -4   2  849.02   43.40
  -7   4  -2  996.10   50.59
  -7   4  -2  869.81   55.29
  -7   4  -2  859.51   50.99
   7  -4   2  959.40   51.69
   7  -4   2  816.42  116.19
   7  -4   2  928.91   45.50
   7  -4   2 1107.19  105.79
  -8   4  -2   95.49   20.60
  -8   4  -2   92.69   24.20
   8  -4   2   63.19   16.40
   8  -4   2   55.49   19.00
   8  -4   2   81.39   37.30
   8  -4   2    3.70   47.80
  -9   4  -2   92.89   25.10
  -9   4  -2   67.69   22.30
   9  -4   2   91.99   20.70
   9  -4   2   99.59   43.40
   9  -4   2   86.19   24.50
   9   3  -2  119.39   27.60
   8   3  -2   58.09   23.90
   8   3  -2   71.39   22.40
   8   3  -2   85.09   22.20
  -8  -3   2   73.99   24.10
  -8  -3   2   97.69   25.70
   7   3  -2  855.81   48.20
   7   3  -2  844.12   55.89
   7   3  -2  829.12   58.19
  -7  -3   2  690.83   94.09
  -7  -3   2  841.62   55.29
  -7  -3   2  864.21   60.19
   6   3  -2 1087.79   60.99
   6   3  -2 1030.00   57.09
   6   3  -2 1128.69   93.69
   6   3  -2 1127.19   51.59
   6   3  -2 1091.19  142.29
  -6  -3   2 1090.49   58.09
  -6  -3   2 1140.49   64.99
  -6  -3   2 1018.00   91.39
  -6  -3   2 1074.19   97.39
   5   3  -2    3.70    8.30
   5   3  -2   -0.60    7.90
   5   3  -2  -15.70   20.00
   5   3  -2  -17.30   16.30
   5   3  -2   -6.90    6.50
  -5  -3   2  -12.30   14.60
  -5  -3   2    3.70   10.40
  -5  -3   2    0.00    8.50
  -5  -3   2  -13.40   18.40
   4   3  -2 1225.08   46.00
   4   3  -2 1188.68   54.09
   4   3  -2 1246.48   81.99
   4   3  -2 1239.88   56.29
  -4  -3   2 1183.78   53.79
  -4  -3   2 1271.67   91.39
  -4  -3   2 1228.08   87.49
  -4  -3   2 1150.18   56.89
   3   3  -2 1148.89   40.90
   3   3  -2 1121.59   48.00
   3   3  -2 1250.17   51.89
   3   3  -2 1202.18   71.49
   3   3  -2 1232.38   46.10
  -3  -3   2 1162.18   52.19
  -3  -3   2 1171.98   82.79
  -3  -3   2 1115.29   48.30
  -3  -3   2 1207.98   70.89
  -3  -3   2 1240.58   80.09
   2   3  -2 1517.65   54.79
   2   3  -2 1476.25   52.79
   2   3  -2 1490.45   51.69
   2   3  -2 1483.25   44.30
   2   3  -2 1471.95   52.19
  -2  -3   2 1510.45   53.99
  -2  -3   2 1426.36   90.09
  -2  -3   2 1488.65   56.39
  -2  -3   2 1482.65   52.29
  -2  -3   2 1242.78   78.79
  -2  -3   2 1511.15   85.59
   1   3  -2  415.56   20.10
   1   3  -2  432.76   27.20
   1   3  -2  415.76   15.50
   1   3  -2  423.06   19.60
   1   3  -2  388.36   33.70
   1   3  -2  447.36   20.50
  -1  -3   2  366.06   37.90
  -1  -3   2  446.56   20.30
  -1  -3   2  446.86   31.10
  -1  -3   2  443.16   19.80
  -1  -3   2  442.86   35.60
  -1  -3   2  416.26   21.40
   0   3  -2 1118.29   34.10
   0   3  -2 1087.59   33.80
   0   3  -2 1079.29   46.10
   0   3  -2 1080.49   40.70
   0   3  -2 1105.49   33.40
   0  -3   2 1050.29   34.40
   0  -3   2 1070.09   33.00
   0  -3   2 1102.89   32.90
   0  -3   2 1068.39   35.50
   0  -3   2 1015.30   62.09
  -1   3  -2 8342.27  254.77
  -1   3  -2 8309.67  235.28
  -2   3  -2 3912.01  110.79
  -2   3  -2 4148.69  110.99
  -2   3  -2 4107.79  130.69
  -2   3  -2 3839.32  122.09
   2  -3   2 3674.13  113.29
   2  -3   2 3970.40  114.49
   2  -3   2 4070.29  109.69
   2  -3   2 4240.78  109.99
   2  -3   2 4032.50  233.78
  -3   3  -2  938.81   34.10
  -3   3  -2  957.40   42.80
  -3   3  -2  959.10   42.40
  -3   3  -2  991.30   34.50
   3  -3   2  921.21   82.59
   3  -3   2  988.30   37.00
   3  -3   2  953.20   33.40
   3  -3   2  953.60   62.59
   3  -3   2 1000.00   35.80
  -4   3  -2 2912.21  102.39
  -4   3  -2 2935.41   92.09
  -4   3  -2 2808.22   91.19
  -4   3  -2 3012.00  103.49
  -4   3  -2 3088.89   92.09
   4  -3   2 2874.61  195.98
   4  -3   2 2912.11   90.29
   4  -3   2 2899.31   96.69
   4  -3   2 2793.62   93.99
   4  -3   2 2935.21  157.28
   4  -3   2 2873.01  167.38
  -5   3  -2 1138.49   48.00
  -5   3  -2 1189.38   49.60
  -5   3  -2 1228.78   59.19
  -5   3  -2 1215.58   53.69
   5  -3   2 1256.87  120.39
   5  -3   2 1131.89   50.39
   5  -3   2 1140.49   46.90
   5  -3   2 1186.08   96.29
  -6   3  -2   66.39   19.30
  -6   3  -2   52.39   14.60
  -6   3  -2   48.90   13.30
   6  -3   2   39.30   13.00
   6  -3   2   63.59   13.50
   6  -3   2   56.79   25.10
   6  -3   2   50.89   13.90
   6  -3   2   48.40   36.00
  -7   3  -2  173.58   24.80
  -7   3  -2  237.28   26.30
  -7   3  -2  207.48   29.00
   7  -3   2  234.68   22.10
   7  -3   2  158.38   56.49
   7  -3   2  273.67   59.19
   7  -3   2  228.58   26.70
  -8   3  -2  420.36   37.50
  -8   3  -2  474.25   44.10
   8  -3   2  453.15   40.20
   8  -3   2  541.85   83.09
   8  -3   2  385.16   33.10
  -9   3  -2  330.67   38.70
  -9   3  -2  288.47   37.90
   9  -3   2  273.57   31.60
   9  -3   2  327.27   75.59
   9   2  -2  174.18   35.80
   9   2  -2  223.48   34.10
  -9  -2   2  188.38   38.10
   8   2  -2  408.36   35.80
   8   2  -2  447.76   45.20
   8   2  -2  297.47   91.09
   8   2  -2  406.66   40.90
  -8  -2   2  456.05   43.70
  -8  -2   2  376.76   38.00
   7   2  -2   35.80   17.10
   7   2  -2   43.20   15.20
   7   2  -2    5.10   43.60
   7   2  -2   53.39   20.60
   7   2  -2   21.90   30.20
  -7  -2   2   -7.10   22.70
  -7  -2   2   85.39   23.90
  -7  -2   2   48.30   16.10
   6   2  -2  463.75   61.59
   6   2  -2  484.15   36.90
   6   2  -2  533.15   39.10
   6   2  -2  555.24   32.70
   6   2  -2  456.75  105.89
  -6  -2   2  501.25   61.99
  -6  -2   2  505.95   41.40
  -6  -2   2  507.05   63.99
  -6  -2   2  498.95   37.60
   5   2  -2 1420.86   65.09
   5   2  -2 1452.15   54.39
   5   2  -2 1334.37  100.09
   5   2  -2 1511.95   63.29
   5   2  -2 1340.57  144.49
  -5  -2   2 1480.45  101.19
  -5  -2   2 1490.75   99.89
  -5  -2   2 1523.75   68.59
  -5  -2   2 1438.66   63.29
   4   2  -2 1559.64   52.29
   4   2  -2 1460.25   93.99
   4   2  -2 1587.64   63.49
   4   2  -2 1427.66   58.79
   4   2  -2 1393.16  136.39
  -4  -2   2 1479.05   95.59
  -4  -2   2 1549.54   97.79
  -4  -2   2 1473.15   64.39
  -4  -2   2 1444.56   59.59
   3   2  -2  130.69   38.40
   3   2  -2  203.48   17.10
   3   2  -2  222.88   14.70
   3   2  -2  231.38   26.70
   3   2  -2  215.68   17.80
  -3  -2   2  224.78   18.80
  -3  -2   2  211.78   17.40
  -3  -2   2  187.18   26.60
  -3  -2   2  226.58   33.80
  -3  -2   2  226.08   21.10
   2   2  -2 3018.70  203.78
   2   2  -2 3472.15   87.39
   2   2  -2 3262.67  102.59
   2   2  -2 3165.98   99.49
   2   2  -2 3287.97  151.78
   2   2  -2 3297.37   99.79
  -2  -2   2 3169.98  162.98
  -2  -2   2 3261.07  104.99
  -2  -2   2 3367.86  100.39
  -2  -2   2 3433.36  159.28
  -2  -2   2 3412.86  152.88
  -2  -2   2 3351.66  102.29
   1   2  -2 1646.44   50.59
   1   2  -2 1499.45   48.50
   1   2  -2 1539.95   49.90
   1   2  -2 1531.55   80.89
   1   2  -2 1561.84   51.29
   1   2  -2 1501.35   48.60
   1   2  -2 1541.55   41.80
  -1  -2   2 1460.55   51.29
  -1  -2   2 1545.85   48.20
  -1  -2   2 1599.64   81.79
  -1  -2   2 1563.24   49.80
  -1  -2   2 1555.64  105.39
  -1  -2   2 1516.45   48.60
  -1  -2   2 1658.63   73.69
  -1  -2   2 1419.36   83.69
   0   2  -2 1918.01   54.69
   0   2  -2 1929.31   60.49
   0   2  -2 1919.71   54.69
   0   2  -2 1960.00   55.49
   0  -2   2 1933.81   54.19
   0  -2   2 1889.31   56.99
   0  -2   2 1894.01   54.29
   0  -2   2 1899.01   55.79
  -1   2  -2 2207.58   62.29
  -1   2  -2 2189.48   70.39
  -1   2  -2 2172.48   62.09
   1  -2   2 2338.97   64.29
   1  -2   2 2190.08   61.19
   1  -2   2 2217.88   61.99
   1  -2   2 2223.88   63.79
  -2   2  -2 3256.87  101.79
  -2   2  -2 3290.57   92.79
  -2   2  -2 3313.57   93.19
  -2   2  -2 3121.59   92.39
   2  -2   2 3077.79  163.08
   2  -2   2 3329.97  188.28
   2  -2   2 3205.68   92.39
   2  -2   2 3193.88   95.09
   2  -2   2 3125.39   91.79
   2  -2   2 3203.48   95.59
  -3   2  -2  587.34   25.70
  -3   2  -2  553.94   25.40
  -3   2  -2  594.84   25.80
  -3   2  -2  562.24   27.50
   3  -2   2  574.24   35.40
   3  -2   2  596.84   61.39
   3  -2   2  566.94   50.29
   3  -2   2  588.94   27.40
   3  -2   2  586.74   24.90
   3  -2   2  553.64   26.10
  -4   2  -2  289.67   20.10
  -4   2  -2  273.17   20.00
  -4   2  -2  347.17   21.20
   4  -2   2  293.87   23.60
   4  -2   2  334.97   20.40
   4  -2   2  321.97   43.50
   4  -2   2  268.17   20.30
   4  -2   2  322.97   58.09
  -5   2  -2  857.21   41.80
  -5   2  -2  856.81   41.80
   5  -2   2  836.72   77.49
   5  -2   2  962.10  106.19
   5  -2   2  830.42   43.00
   5  -2   2  856.41   40.20
  -6   2  -2 1068.29   51.29
  -6   2  -2 1041.10   51.49
   6  -2   2 1056.19   53.69
   6  -2   2 1041.40   98.19
   6  -2   2 1043.80   49.90
   6  -2   2 1119.09  126.59
  -7   2  -2  292.77   30.40
   7  -2   2  191.58   61.29
   7  -2   2  279.87   26.90
   7  -2   2  324.07   63.49
   7  -2   2  311.17   31.90
  -8   2  -2    2.40   12.40
  -8   2  -2   -5.70   13.20
   8  -2   2    1.40   10.50
   8  -2   2    7.20   15.20
   8  -2   2  -56.99   35.70
   8  -2   2    2.20   26.30
  -9   2  -2  324.17   43.00
   9  -2   2  498.25   41.20
   9  -2   2  443.46   92.59
   9   1  -2   25.10   18.90
   9   1  -2   -2.30   12.40
   9   1  -2   -6.10   38.20
   9   1  -2   -9.80   10.90
  -9  -1   2   10.00   15.00
  -9  -1   2   25.20   18.10
   8   1  -2  171.58   30.10
   8   1  -2  115.59   67.79
   8   1  -2  220.88   30.50
   8   1  -2  226.18   27.90
  -8  -1   2  223.18   36.00
  -8  -1   2  224.78   32.00
   7   1  -2 1128.59  108.19
   7   1  -2 1401.06   72.09
   7   1  -2 1423.06   60.19
   7   1  -2 1296.87   64.89
   7   1  -2 1232.38  164.78
  -7  -1   2 1322.07   71.79
  -7  -1   2 1378.56  102.69
  -7  -1   2 1316.87   67.09
   6   1  -2  487.25   62.69
   6   1  -2  577.04   40.40
   6   1  -2  552.94   32.20
   6   1  -2  568.44  111.49
   6   1  -2  533.85   37.00
  -6  -1   2  607.64   66.29
  -6  -1   2  538.95   39.60
  -6  -1   2  560.24   58.79
  -6  -1   2  570.54   38.50
   5   1  -2  467.35   52.39
   5   1  -2  478.25   98.09
   5   1  -2  444.96   29.50
   5   1  -2  427.96   26.30
   5   1  -2  445.06   32.40
  -5  -1   2  458.05   48.60
  -5  -1   2  487.35   35.30
  -5  -1   2  416.46   49.80
  -5  -1   2  421.56   29.20
   4   1  -2 3008.10   99.69
   4   1  -2 2980.20   87.49
   4   1  -2 3074.09  160.28
   4   1  -2 2709.13  212.98
   4   1  -2 3233.18  104.59
  -4  -1   2 3071.09  106.59
  -4  -1   2 3029.10  158.08
  -4  -1   2 2994.50  155.08
  -4  -1   2 3033.50  100.49
   3   1  -2 4316.07  112.19
   3   1  -2 4381.16  127.99
   3   1  -2 4293.47  201.68
   3   1  -2 4265.47  131.09
   3   1  -2 3644.74  256.07
  -3  -1   2 4139.99  200.08
  -3  -1   2 4394.46  200.58
  -3  -1   2 4246.88  127.89
  -3  -1   2 4184.98  133.69
   2   1  -2   87.89    8.20
   2   1  -2   77.29    8.40
   2   1  -2   79.99   15.00
   2   1  -2   70.79   11.40
   2   1  -2   78.39   24.30
   2   1  -2   67.49    9.40
   2   1  -2   80.79    8.60
  -2  -1   2   84.49    9.90
  -2  -1   2   66.89   15.20
  -2  -1   2   92.09   17.50
  -2  -1   2   65.99    8.10
  -2  -1   2   92.39    8.80
  -2  -1   2   66.19   21.80
   1   1  -2 3589.34  102.19
   1   1  -2 3401.56  197.08
   1   1  -2 3550.54  101.79
   1   1  -2 3493.95  161.18
   1   1  -2 3656.13  104.19
   1   1  -2 3535.65  105.79
  -1  -1   2 3587.84  102.19
  -1  -1   2 3570.84   89.39
  -1  -1   2 3553.94  161.78
  -1  -1   2 3691.43  198.08
  -1  -1   2 3525.85  106.19
  -1  -1   2 3645.24  101.59
  -1  -1   2 3645.54  104.19
   0   1  -2 1995.70   61.79
   0   1  -2 1911.11   61.89
   0   1  -2 1876.71   59.79
   0   1  -2 2127.69   60.09
   0   1  -2 2110.29   59.79
   0  -1   2 2199.18   63.29
   0  -1   2 2083.89   59.59
   0  -1   2 2176.58   59.89
   0  -1   2 2130.69   60.79
   0  -1   2 1995.40   98.59
  -1   1  -2 4522.25  204.48
  -1   1  -2 4299.57  122.39
  -1   1  -2 4312.47  120.49
  -1   1  -2 4083.49  119.79
  -1   1  -2 4166.48  122.79
   1  -1   2 4181.88  202.68
   1  -1   2 4283.57  123.59
   1  -1   2 4265.07  227.28
   1  -1   2 4300.37  120.49
   1  -1   2 4189.78  119.49
   1  -1   2 4489.95  123.79
  -2   1  -2  375.46   19.10
  -2   1  -2  408.96   41.40
  -2   1  -2  381.26   18.60
  -2   1  -2  356.16   18.20
   2  -1   2  428.26   44.40
   2  -1   2  381.16   18.40
   2  -1   2  378.86   19.40
   2  -1   2  405.96   19.90
   2  -1   2  358.66   23.80
   2  -1   2  375.26   36.70
   2  -1   2  351.76   36.00
  -3   1  -2 1795.42   62.69
  -3   1  -2 1614.54   59.79
  -3   1  -2 1812.62   60.99
   3  -1   2 1737.13  108.69
   3  -1   2 1773.82   60.39
   3  -1   2 1780.72   63.39
   3  -1   2 1873.41  129.39
   3  -1   2 1823.22   64.39
  -4   1  -2 2886.71   95.89
  -4   1  -2 2871.21   98.29
   4  -1   2 2985.00  169.78
   4  -1   2 2899.11   99.69
   4  -1   2 2820.62   94.69
   4  -1   2 2938.41  198.58
  -5   1  -2 1068.19   50.59
  -5   1  -2 1023.20   48.70
   5  -1   2  969.30   49.50
   5  -1   2 1050.09   47.30
   5  -1   2 1077.09  114.49
   5  -1   2 1035.80   90.79
  -6   1  -2  149.49   23.00
  -6   1  -2  112.79   20.60
   6  -1   2  127.39   38.70
   6  -1   2  143.39   23.00
   6  -1   2   80.59   37.30
   6  -1   2  127.19   20.70
  -7   1  -2 1068.09   58.09
   7  -1   2  988.50   50.79
   7  -1   2 1023.50   60.79
   7  -1   2  977.00  134.19
   7  -1   2 1015.50  108.89
  -8   1  -2  303.07   35.80
   8  -1   2  302.27   31.50
   8  -1   2  302.77   34.80
   8  -1   2  206.58   58.69
  -9   1  -2   38.70   23.40
   9  -1   2   24.90   19.30
  10   0  -2  223.88   34.70
   9   0  -2  277.47   94.99
   9   0  -2  493.65   42.60
   9   0  -2  508.85   41.50
   9   0  -2  527.65   50.09
  -9   0   2  589.14   50.99
  -9   0   2  493.65   44.20
   8   0  -2   19.00   43.40
   8   0  -2   60.29   20.20
   8   0  -2   55.79   18.90
   8   0  -2   54.29   15.40
   8   0  -2   30.60   26.30
  -8   0   2   73.89   23.50
  -8   0   2   83.29   23.50
   7   0  -2  121.19   22.50
   7   0  -2  100.19   21.40
   7   0  -2  137.39   20.50
   7   0  -2  103.39   32.60
   7   0  -2   80.69   47.50
  -7   0   2  105.09   22.40
  -7   0   2  129.19   22.10
   6   0  -2  975.40   79.39
   6   0  -2  950.60   43.10
   6   0  -2  940.91   50.59
   6   0  -2  931.91  131.09
   6   0  -2  947.31   47.80
  -6   0   2  920.41   49.10
  -6   0   2  888.41   51.19
  -6   0   2  969.30   71.49
  -6   0   2  947.71   82.79
   5   0  -2 2386.36   76.89
   5   0  -2 2606.74  140.69
   5   0  -2 2477.75   90.89
   5   0  -2 2387.56   86.39
   5   0  -2 2316.17  196.98
  -5   0   2 2480.65  140.49
  -5   0   2 2421.66   87.79
  -5   0   2 2403.76   92.59
  -5   0   2 2472.15  130.79
   4   0  -2   32.20   24.40
   4   0  -2   32.60    9.90
   4   0  -2   28.60    8.90
   4   0  -2   19.10   10.70
   4   0  -2   28.30    8.40
  -4   0   2   39.10   16.40
  -4   0   2   26.90    8.40
  -4   0   2   31.00    9.80
  -4   0   2   23.20   10.30
   3   0  -2 1386.36  117.79
   3   0  -2 1607.04   54.09
   3   0  -2 1559.94   55.59
   3   0  -2 1516.55   47.40
  -3   0   2 1506.75   85.59
  -3   0   2 1579.74   54.49
  -3   0   2 1527.45   57.59
  -3   0   2 1531.05   79.49
  -3   0   2 1448.66  102.39
   2   0  -2 3213.68   96.09
   2   0  -2 3230.78  100.39
   2   0  -2 3142.89  149.19
   2   0  -2 3035.70  190.18
   2   0  -2 3156.98   97.79
  -2   0   2 3214.38  100.69
  -2   0   2 3228.98   96.39
  -2   0   2 3405.36  189.78
  -2   0   2 3232.68  181.18
  -2   0   2 3332.07   98.09
  -2   0   2 3217.08  150.48
  -2   0   2 3317.97   95.39
   1   0  -2 2492.05   73.89
   1   0  -2 2450.95  142.49
   1   0  -2 2509.25   75.79
   1   0  -2 2516.95   74.49
   1   0  -2 2520.75  140.69
   1   0  -2 2459.45  115.79
   1   0  -2 2519.55   77.59
   1   0  -2 2567.34  116.09
  -1   0   2 2517.75   75.59
  -1   0   2 2578.54   78.09
  -1   0   2 2482.35  116.19
  -1   0   2 2731.43  116.39
  -1   0   2 2527.55  138.59
  -1   0   2 2523.15   74.59
  -1   0   2 2314.37  140.89
  -1   0   2 2636.64   73.99
   0   0  -2  155.98   12.30
   0   0  -2  231.08   28.90
   0   0  -2  135.29   11.30
   0   0  -2  163.58   12.50
   0   0  -2  155.88   11.20
   0   0  -2  145.09   19.80
   0   0   2  152.58   11.10
   0   0   2  161.88   12.10
   0   0   2  210.78   26.70
   0   0   2  169.08   12.90
   0   0   2  161.38   11.10
   0   0   2  142.29   18.60
  -1   0  -2  733.63   29.20
  -1   0  -2  791.92   54.69
  -1   0  -2  702.93   48.20
  -1   0  -2  731.63   28.20
  -1   0  -2  810.72   30.40
  -1   0  -2  754.12   29.00
  -1   0  -2  784.32   53.89
   1   0   2  827.02   54.79
   1   0   2  821.22   52.49
   1   0   2  751.32   28.30
   1   0   2  742.73   30.40
   1   0   2  746.73   28.90
   1   0   2  817.02   47.20
   1   0   2  654.03   50.39
   1   0   2  781.12   29.90
  -2   0  -2 3926.91  120.99
  -2   0  -2 4048.50  124.99
  -2   0  -2 4047.80  196.08
  -2   0  -2 4236.88  234.58
  -2   0  -2 4102.89  204.18
  -2   0  -2 4186.48  121.69
   2   0   2 4093.39  125.89
   2   0   2 3905.01  205.78
   2   0   2 4088.09  121.49
   2   0   2 4076.19  125.59
   2   0   2 4126.29  232.78
  -3   0  -2  968.90   69.19
  -3   0  -2  925.61   41.80
  -3   0  -2  926.11   40.10
   3   0   2  983.80   75.39
   3   0   2  912.71   39.60
   3   0   2 1020.90   88.39
   3   0   2  934.51   42.50
  -4   0  -2  744.53   38.10
  -4   0  -2  738.83   38.70
  -4   0  -2  751.12   66.39
   4   0   2  731.43   36.50
   4   0   2  718.13   70.99
   4   0   2  710.13   38.80
   4   0   2  774.12   88.29
  -5   0  -2  974.60   50.59
  -5   0  -2  956.70   48.40
  -5   0  -2  931.01   79.99
   5   0   2  993.20   51.89
   5   0   2  903.21   46.60
   5   0   2  855.01   87.19
   5   0   2 1031.60  112.79
  -6   0  -2  637.04   69.69
  -6   0  -2  653.83   42.80
  -6   0  -2  640.94   42.60
   6   0   2  642.24   40.00
   6   0   2  641.14  101.79
   6   0   2  581.74   43.40
   6   0   2  549.95   78.19
  -7   0  -2   26.70   16.50
  -7   0  -2   53.09   19.10
   7   0   2   -7.90   31.30
   7   0   2   -0.40   26.60
   7   0   2   51.69   19.80
   7   0   2   55.79   18.80
  -8   0  -2  195.98   33.80
   8   0   2  235.48   31.80
   8   0   2  105.09   48.40
   8   0   2   86.09   56.49
   8   0   2  192.98   33.70
   9   0   2  270.77   32.80
  10  -1  -2   46.10   20.30
   9  -1  -2  159.28   83.39
   9  -1  -2  302.97   35.60
   9  -1  -2  314.27   39.50
   9  -1  -2  358.76   32.90
  -9   1   2  353.26   36.30
   8  -1  -2  580.14   38.50
   8  -1  -2  639.14   73.89
   8  -1  -2  612.54   43.40
   8  -1  -2  645.04   48.30
  -8   1   2  525.15   43.20
  -8   1   2  605.54   45.10
   7  -1  -2  735.83   40.10
   7  -1  -2  639.54  126.19
   7  -1  -2  706.53   45.20
   7  -1  -2  725.43   43.40
   7  -1  -2  785.12   74.59
  -7   1   2  607.54   58.89
  -7   1   2  669.03   43.70
  -7   1   2  695.63   45.80
   6  -1  -2   13.90   10.90
   6  -1  -2    9.90   14.40
   6  -1  -2    4.80    9.90
   6  -1  -2   12.20    7.70
   6  -1  -2   13.90   28.80
  -6   1   2   10.20   17.30
  -6   1   2   -8.20   11.00
  -6   1   2   13.30   11.20
  -6   1   2   19.20   11.20
   5  -1  -2 2224.28  190.68
   5  -1  -2 2349.67   86.19
   5  -1  -2 2414.96  134.29
   5  -1  -2 2354.36   83.19
   5  -1  -2 2310.17   74.09
  -5   1   2 2365.76  134.79
  -5   1   2 2360.06   88.89
  -5   1   2 2386.06  119.69
  -5   1   2 2396.06   84.59
   4  -1  -2 2461.05   80.39
   4  -1  -2 2144.39  173.88
   4  -1  -2 2511.85   83.79
   4  -1  -2 2301.77   71.39
  -4   1   2 2500.35   86.69
  -4   1   2 2424.96  127.69
  -4   1   2 2489.05  115.89
  -4   1   2 2348.67   80.69
   3  -1  -2  933.71   37.50
   3  -1  -2  881.51   32.20
   3  -1  -2  927.91   35.80
   3  -1  -2  805.72   81.19
   3  -1  -2  861.71   70.39
  -3   1   2  976.80   40.10
  -3   1   2  915.31   36.50
  -3   1   2  870.71   47.20
  -3   1   2 1001.40   61.09
  -3   1   2  973.60   72.49
   2  -1  -2  954.30   37.90
   2  -1  -2  920.41   35.60
   2  -1  -2 1018.20   74.19
   2  -1  -2  892.31   71.79
   2  -1  -2  935.61   54.19
   2  -1  -2  967.50   34.80
   2  -1  -2  920.11   35.10
  -2   1   2 1041.70   36.30
  -2   1   2 1010.00   71.49
  -2   1   2  990.30   35.80
  -2   1   2 1020.00   71.89
  -2   1   2 1003.60   56.19
  -2   1   2 1015.60   34.90
  -2   1   2  961.60   38.20
   1  -1  -2 5490.75  288.37
   1  -1  -2 5518.45  157.18
   1  -1  -2 5526.35  161.18
   1  -1  -2 5374.46  161.38
   1  -1  -2 5110.19  289.57
   1  -1  -2 5748.82  252.67
   1  -1  -2 5519.35  156.28
   1  -1  -2 5402.16  235.48
  -1   1   2 5702.33  252.57
  -1   1   2 5555.04  155.88
  -1   1   2 5624.84  245.88
  -1   1   2 5340.67  235.28
  -1   1   2 5820.22  290.17
  -1   1   2 5708.83  158.08
  -1   1   2 5492.75  162.38
   0  -1  -2 2744.63  142.49
   0  -1  -2 2779.22   92.19
   0  -1  -2 2931.41  138.39
   0  -1  -2 3029.60   88.89
   0  -1  -2 2874.61   89.59
   0  -1  -2 2922.31  156.38
   0  -1  -2 2667.33   87.09
   0   1   2 3008.30  156.78
   0   1   2 3026.00   90.39
   0   1   2 2910.81  144.99
   0   1   2 2831.42   87.59
   0   1   2 3094.99  139.09
   0   1   2 2954.10   88.59
   0   1   2 2670.33   91.89
  -1  -1  -2 2138.59  117.99
  -1  -1  -2 2180.28  129.59
  -1  -1  -2 2158.68   69.29
  -1  -1  -2 2124.39   68.59
  -1  -1  -2 2160.98   71.39
  -1  -1  -2 2063.69  110.89
   1   1   2 2182.88   71.59
   1   1   2 2103.89  116.89
   1   1   2 2168.98   72.89
   1   1   2 2282.07   70.09
   1   1   2 2003.90  119.19
  -2  -1  -2 1371.76   52.19
  -2  -1  -2 1420.86   82.29
  -2  -1  -2 1466.55   87.59
  -2  -1  -2 1433.86   54.89
   2   1   2 1440.66   52.89
   2   1   2 1404.96   96.29
   2   1   2 1499.35  105.99
   2   1   2 1466.35   56.59
  -3  -1  -2 4312.07  213.88
  -3  -1  -2 4076.49  131.09
  -3  -1  -2 4255.37  215.38
  -3  -1  -2 4116.69  135.69
   3   1   2 4144.79  131.09
   3   1   2 4320.77  138.19
   3   1   2 3845.62  224.18
   3   1   2 4414.06  258.17
  -4  -1  -2  950.90   47.30
  -4  -1  -2  975.90   82.49
  -4  -1  -2  955.50   48.50
  -4  -1  -2 1011.80   55.29
   4   1   2  979.40   49.90
   4   1   2  877.41   87.09
   4   1   2  983.40   47.20
   4   1   2 1083.09  107.39
  -5  -1  -2   -7.70    9.80
  -5  -1  -2    2.40    8.30
  -5  -1  -2   -7.10   17.10
   5   1   2   -7.80    6.20
   5   1   2   -5.00    9.10
   5   1   2  -17.30   12.50
   5   1   2  -18.60   22.60
  -6  -1  -2  612.24   41.80
  -6  -1  -2  577.94   74.79
  -6  -1  -2  682.83   46.00
   6   1   2  591.14   98.99
   6   1   2  559.24   45.10
   6   1   2  587.04   84.69
   6   1   2  608.64   42.30
  -7  -1  -2  540.95   78.79
  -7  -1  -2  539.75   43.20
  -7  -1  -2  592.34   46.40
   7   1   2  541.75   89.49
   7   1   2  532.35   44.10
   7   1   2  637.74  110.19
   7   1   2  602.14   50.39
   8   1   2  143.79   35.20
   8   1   2   72.29   48.40
   8   1   2  133.69   26.10
   8   1   2  105.79   56.49
  10  -2  -2  382.16   39.10
   9  -2  -2  201.48   29.00
   9  -2  -2  120.09   78.79
   9  -2  -2  327.87   55.59
   9  -2  -2  232.08   28.60
  -9   2   2  194.58   31.10
   8  -2  -2   -3.30    9.40
   8  -2  -2    0.90   11.00
   8  -2  -2  -38.80   44.20
   8  -2  -2   -0.90    8.00
   8  -2  -2   19.80   18.80
  -8   2   2   -6.20    8.00
  -8   2   2    0.80   12.10
   7  -2  -2  599.54   64.29
   7  -2  -2  561.64   37.20
   7  -2  -2  477.45  114.19
   7  -2  -2  496.55   32.20
   7  -2  -2  603.44   39.80
  -7   2   2  562.54   37.40
  -7   2   2  604.54   41.90
   6  -2  -2 1765.82   63.39
   6  -2  -2 1712.73  172.68
   6  -2  -2 1790.62   73.29
   6  -2  -2 1731.43   68.49
   6  -2  -2 1803.62  115.79
  -6   2   2 1778.82   91.49
  -6   2   2 1782.72   71.19
  -6   2   2 1729.83   74.49
  -6   2   2 1677.53   60.59
   5  -2  -2 1552.14   63.09
   5  -2  -2 1720.83  117.29
   5  -2  -2 1652.13   61.69
   5  -2  -2 1592.54   55.49
   5  -2  -2 1433.86  144.89
  -5   2   2 1640.74  100.29
  -5   2   2 1600.64   62.19
  -5   2   2 1589.14   53.49
  -5   2   2 1628.24   66.69
   4  -2  -2  267.27   50.59
   4  -2  -2  304.17   18.00
   4  -2  -2  273.87   46.30
   4  -2  -2  285.07   18.80
   4  -2  -2  306.77   20.40
  -4   2   2  328.37   22.50
  -4   2   2  342.47   21.80
  -4   2   2  303.47   18.20
  -4   2   2  326.77   15.40
  -4   2   2  341.27   38.90
   3  -2  -2 8658.43  255.97
   3  -2  -2 8755.22  246.48
   3  -2  -2 8700.53  458.35
   3  -2  -2 8479.35  252.27
  -3   2   2 8874.01  377.76
  -3   2   2 8844.71  247.98
  -3   2   2 8794.42  256.07
  -3   2   2 9024.50  246.68
   2  -2  -2 2770.12   84.39
   2  -2  -2 2546.35  166.58
   2  -2  -2 2856.21  160.58
   2  -2  -2 2757.12   89.49
   2  -2  -2 2749.32  126.39
   2  -2  -2 2899.91   88.69
  -2   2   2 2723.63   89.39
  -2   2   2 2772.62   84.29
  -2   2   2 2831.72  126.99
  -2   2   2 2771.32  158.88
  -2   2   2 2870.31  125.49
  -2   2   2 2865.41   86.49
   1  -2  -2  184.48   14.70
   1  -2  -2  202.88   23.30
   1  -2  -2  172.78   14.30
   1  -2  -2  187.08   25.80
   1  -2  -2  213.88   21.90
   1  -2  -2  191.58   16.50
   1  -2  -2  200.38   15.20
  -1   2   2  187.38   13.50
  -1   2   2  191.08   24.30
  -1   2   2  213.98   21.20
  -1   2   2  220.38   17.30
  -1   2   2  177.38   14.80
  -1   2   2  181.78   15.80
  -1   2   2  222.38   15.40
   0  -2  -2 1470.15   52.59
   0  -2  -2 1451.85   55.79
   0  -2  -2 1445.66   51.69
   0  -2  -2 1504.95   82.29
   0  -2  -2 1403.66   90.29
   0   2   2 1417.66   79.99
   0   2   2 1475.15   51.89
   0   2   2 1537.55   87.99
   0   2   2 1489.55   51.89
   0   2   2 1456.65   89.99
   0   2   2 1369.36   55.39
  -1  -2  -2  953.10   39.20
  -1  -2  -2  958.30   66.69
  -1  -2  -2  980.90   78.29
  -1  -2  -2 1053.39   68.89
  -1  -2  -2  952.60   41.10
   1   2   2  986.10   74.59
   1   2   2  970.00   39.90
   1   2   2 1003.30   43.90
  -2  -2  -2  532.05   43.70
  -2  -2  -2  537.15   50.09
  -2  -2  -2  526.25   30.30
  -2  -2  -2  552.84   29.20
   2   2   2  540.45   31.50
   2   2   2  524.15   29.60
   2   2   2  539.85   56.79
  -3  -2  -2  389.36   26.80
  -3  -2  -2  395.36   36.60
  -3  -2  -2  366.06   28.70
  -3  -2  -2  410.56   49.10
   3   2   2  418.06   28.60
   3   2   2  395.36   29.10
   3   2   2  438.26   61.79
  -4  -2  -2  586.54   38.00
  -4  -2  -2  571.44   45.90
  -4  -2  -2  617.54   39.20
  -4  -2  -2  608.74   68.99
   4   2   2  613.94   85.89
   4   2   2  680.13   75.39
   4   2   2  691.83   43.40
   4   2   2  576.14   36.00
  -5  -2  -2 1637.54  123.99
  -5  -2  -2 1728.63   78.79
  -5  -2  -2 1677.03   75.49
   5   2   2 1732.73   74.79
   5   2   2 1809.82  142.89
   5   2   2 1639.54   79.39
   5   2   2 1691.33  156.68
  -6  -2  -2  250.47   30.50
  -6  -2  -2  284.97   30.30
   6   2   2  234.48   33.30
   6   2   2  227.78   59.19
   6   2   2  288.47   31.90
  -7  -2  -2  127.89   27.00
  -7  -2  -2  104.59   26.80
  -7  -2  -2   41.50   33.90
   7   2   2  126.99   30.60
   7   2   2   23.40   41.20
   7   2   2  101.89   25.90
  -8  -2  -2  153.88   48.60
   8   2   2  285.97   77.39
   9  -3  -2  764.82   48.20
   9  -3  -2  883.71   88.69
   9  -3  -2  487.85  119.99
   9  -3  -2  777.92   53.39
  -9   3   2  757.02   51.69
   8  -3  -2  541.35  116.99
   8  -3  -2  609.94   39.40
   8  -3  -2  564.44   38.40
   8  -3  -2  642.54   45.60
   8  -3  -2  700.93   75.39
  -8   3   2  695.93   46.40
  -8   3   2  582.94   41.00
   7  -3  -2   23.80   16.60
   7  -3  -2   -2.70    8.30
   7  -3  -2  -16.40   27.00
   7  -3  -2   -3.00    6.90
   7  -3  -2    3.00    6.60
  -7   3   2    5.90   11.30
  -7   3   2    7.00   10.30
   6  -3  -2  210.78   21.00
   6  -3  -2  218.18   48.40
   6  -3  -2  267.37   24.60
   6  -3  -2  256.57   20.90
   6  -3  -2  186.58   58.69
  -6   3   2  259.97   23.80
  -6   3   2  226.98   23.80
  -6   3   2  228.88   16.70
   5  -3  -2 1172.58   50.69
   5  -3  -2  983.80   96.09
   5  -3  -2 1153.68   47.80
   5  -3  -2 1112.69  120.59
  -5   3   2 1288.17   51.19
  -5   3   2 1196.88   42.50
  -5   3   2 1161.68   51.79
   4  -3  -2 1849.31  159.48
   4  -3  -2 2253.67   77.49
   4  -3  -2 2273.37  147.29
   4  -3  -2 2237.08   74.59
  -4   3   2 2367.96  119.29
  -4   3   2 2327.87   77.09
  -4   3   2 2297.27   80.79
  -4   3   2 2275.87   69.59
   3  -3  -2   17.50   14.30
   3  -3  -2   43.20    8.30
   3  -3  -2   22.50   10.60
   3  -3  -2   22.70   12.00
   3  -3  -2   28.20    7.90
   3  -3  -2   26.60    7.10
  -3   3   2   29.60    8.10
  -3   3   2   30.00    7.50
  -3   3   2   29.00    6.30
  -3   3   2   30.90   12.70
  -3   3   2   41.90    8.00
   2  -3  -2 2426.26   82.39
   2  -3  -2 2340.07   82.09
   2  -3  -2 2406.96  147.89
   2  -3  -2 2560.94  116.29
   2  -3  -2 2434.76   77.29
   2  -3  -2 2427.66  110.49
  -2   3   2 2513.95   80.39
  -2   3   2 2423.06   82.29
  -2   3   2 2450.95   78.39
  -2   3   2 2472.15  115.79
  -2   3   2 2501.05  110.59
   1  -3  -2 7263.97  313.57
   1  -3  -2 6929.11  201.48
   1  -3  -2 7012.50  367.56
   1  -3  -2 6224.78  207.68
   1  -3  -2 6635.94  206.28
  -1   3   2 7007.30  290.97
  -1   3   2 6985.10  201.68
  -1   3   2 7311.47  215.08
  -1   3   2 7392.26  314.07
  -1   3   2 6852.61  203.38
  -1   3   2 6845.52  209.78
   0  -3  -2  493.85   48.10
   0  -3  -2  479.45   27.10
   0  -3  -2  540.15   28.70
   0  -3  -2  544.45   46.10
   0   3   2  559.24   29.70
   0   3   2  564.74   50.19
   0   3   2  546.15   27.90
   0   3   2  521.45   31.90
  -1  -3  -2  649.14   55.09
  -1  -3  -2  611.84   53.29
  -1  -3  -2  634.44   34.10
  -1  -3  -2  616.64   32.10
   1   3   2  706.53   60.99
   1   3   2  649.14   32.70
   1   3   2  677.33   42.70
   1   3   2  646.24   36.40
  -2  -3  -2 1482.95   61.09
  -2  -3  -2 1446.76   95.79
  -2  -3  -2 1408.66   94.89
  -2  -3  -2 1366.86   56.99
   2   3   2 1394.76  107.39
   2   3   2 1430.86   58.79
   2   3   2 1368.76   62.19
  -3  -3  -2 2049.70   79.49
  -3  -3  -2 2005.20  126.49
  -3  -3  -2 2065.89  133.29
  -3  -3  -2 2067.19   83.69
   3   3   2 2131.29   86.59
   3   3   2 1980.20  142.19
   3   3   2 2104.79   80.19
  -4  -3  -2   51.69   15.90
  -4  -3  -2   41.60   21.20
  -4  -3  -2   56.89   17.30
  -4  -3  -2   85.89   22.20
   4   3   2   80.79   39.30
   4   3   2   59.59   16.90
   4   3   2   68.49   19.80
  -5  -3  -2  313.17   32.40
  -5  -3  -2  305.17   55.89
  -5  -3  -2  304.87   34.70
   5   3   2  210.18   58.09
   5   3   2  279.07   30.80
   5   3   2  275.17   34.50
  -6  -3  -2  463.05   72.49
  -6  -3  -2  577.04   46.40
  -6  -3  -2  502.95   44.50
   6   3   2  467.65   91.19
   6   3   2  517.45   44.10
   6   3   2  496.15   45.50
  -7  -3  -2  388.06   44.50
  -7  -3  -2  378.86   42.80
   7   3   2  262.17   74.29
   7   3   2  354.56   40.80
   7   3   2  313.77   45.10
  10  -4  -2  691.83   77.39
   9  -4  -2    6.00   11.90
   9  -4  -2  -16.70   42.60
  -9   4   2   17.90   15.80
   8  -4  -2  253.37   85.69
   8  -4  -2  480.95   62.89
   8  -4  -2  469.05   37.80
  -8   4   2  456.05   34.80
   7  -4  -2  998.10   97.09
   7  -4  -2  998.40   52.99
   7  -4  -2 1026.30   49.50
   7  -4  -2  989.20  143.79
  -7   4   2 1008.00   50.99
  -7   4   2 1086.39   54.49
   6  -4  -2  918.81   42.70
   6  -4  -2  720.33   88.19
   6  -4  -2  932.21   46.30
   6  -4  -2  845.02  118.59
  -6   4   2  948.41   45.60
  -6   4   2  926.21   46.60
   5  -4  -2   22.10   21.00
   5  -4  -2    1.80    7.50
   5  -4  -2    9.80   19.40
   5  -4  -2   18.50    8.60
  -5   4   2   11.70    6.00
  -5   4   2    8.40    9.10
  -5   4   2    5.70    8.90
   4  -4  -2 1954.70  132.99
   4  -4  -2 1694.83  148.09
   4  -4  -2 1975.70   66.49
   4  -4  -2 1856.21   68.69
  -4   4   2 1989.40   64.09
  -4   4   2 1951.30   71.59
  -4   4   2 1952.60   68.49
   3  -4  -2 3860.11  112.79
   3  -4  -2 3822.72  166.58
   3  -4  -2 3581.34  119.49
   3  -4  -2 3847.61  168.38
   3  -4  -2 3724.73  118.09
   3  -4  -2 3622.14  215.78
   3  -4  -2 3299.87  231.68
  -3   4   2 3788.02  119.39
  -3   4   2 3612.94  166.18
  -3   4   2 3685.83  114.99
  -3   4   2 3727.93  113.89
   2  -4  -2  959.90   78.29
   2  -4  -2 1090.39   41.00
   2  -4  -2  952.90   44.20
   2  -4  -2  996.30   60.09
   2  -4  -2  952.10   47.50
  -2   4   2  957.30   58.09
  -2   4   2 1046.10   44.20
  -2   4   2 1006.50   46.50
  -2   4   2  993.10   43.10
   1  -4  -2  542.65   44.50
   1  -4  -2  563.84   30.80
   1  -4  -2  474.75   50.79
   1  -4  -2  480.05   28.50
  -1   4   2  534.25   30.00
  -1   4   2  496.65   30.30
  -1   4   2  514.55   32.50
  -1   4   2  540.45   28.70
   0  -4  -2 2102.49   76.39
   0  -4  -2 2026.30   74.39
   0  -4  -2 2019.20  116.99
   0  -4  -2 2011.70  133.99
   0   4   2 1970.60   80.99
   0   4   2 2265.77   79.79
   0   4   2 2109.09   75.69
   0   4   2 2204.68  126.59
   0   4   2 2099.39   91.29
  -1  -4  -2 1603.04   63.59
  -1  -4  -2 1443.46   97.59
  -1  -4  -2 1585.84   60.59
  -1  -4  -2 1386.46  103.79
   1   4   2 1580.14  105.59
   1   4   2 1469.55   65.89
   1   4   2 1500.55   60.69
   1   4   2 1420.36   61.29
   1   4   2 1557.74   78.79
  -2  -4  -2  182.38   20.90
  -2  -4  -2  191.18   39.30
  -2  -4  -2  151.08   32.20
  -2  -4  -2  183.28   19.80
   2   4   2  177.88   21.80
   2   4   2  187.78   43.40
   2   4   2  182.98   22.50
  -3  -4  -2  315.17   43.20
  -3  -4  -2  311.87   28.80
  -3  -4  -2  318.47   57.29
  -3  -4  -2  285.47   26.30
   3   4   2  303.17   27.10
   3   4   2  205.78   49.70
   3   4   2  311.97   30.10
  -4  -4  -2 1049.79   81.99
  -4  -4  -2  997.20   98.39
  -4  -4  -2 1054.29   57.29
  -4  -4  -2 1074.49   60.69
   4   4   2  924.01  107.69
   4   4   2  942.01   55.09
   4   4   2  978.90   59.79
  -5  -4  -2  398.36   76.19
  -5  -4  -2  474.85   41.80
  -5  -4  -2  498.05   44.70
   5   4   2  519.35   45.20
   5   4   2  342.77   76.09
   5   4   2  490.05   41.80
  -6  -4  -2  -16.00   14.30
  -6  -4  -2   15.80   16.90
   6   4   2  -52.79   34.60
   6   4   2   -2.00   11.40
   6   4   2    6.80   11.40
  -7  -4  -2  188.88   38.60
   7   4   2  149.69   35.50
  10  -5  -2  551.64   68.69
   9  -5  -2  371.16  110.69
   9  -5  -2  744.03   81.09
   9  -5  -2  525.45   42.20
  -9   5   2  603.94   44.00
   8  -5  -2  230.18   25.40
   8  -5  -2  126.09   59.79
  -8   5   2  163.48   25.00
   7  -5  -2    1.30   37.00
   7  -5  -2   36.90   13.50
   7  -5  -2    5.40   24.20
  -7   5   2   67.09   16.70
  -7   5   2   36.90   10.10
   6  -5  -2  921.21   47.10
   6  -5  -2 1000.20   45.00
   6  -5  -2  959.50   99.59
   6  -5  -2  986.90  121.09
  -6   5   2  968.20   42.40
  -6   5   2 1017.30   48.50
  -6   5   2  970.70   47.20
   5  -5  -2 1476.05   56.19
   5  -5  -2 1441.06  117.39
   5  -5  -2 1415.46   58.59
   5  -5  -2 1289.17  137.99
  -5   5   2 1507.75   58.99
  -5   5   2 1435.96   59.59
  -5   5   2 1483.55   54.79
   4  -5  -2  281.67   21.50
   4  -5  -2  273.67   55.29
   4  -5  -2  322.17   51.39
   4  -5  -2  303.37   20.10
  -4   5   2  277.37   21.20
  -4   5   2  304.57   22.50
  -4   5   2  308.57   21.30
   3  -5  -2  644.44   40.10
   3  -5  -2  649.64   34.80
   3  -5  -2  734.53   45.70
   3  -5  -2  571.84   36.40
   3  -5  -2  622.44   67.69
  -3   5   2  647.64   39.50
  -3   5   2  605.54   32.90
  -3   5   2  658.23   42.20
  -3   5   2  614.84   32.50
  -3   5   2  613.14   32.70
   2  -5  -2 2864.61  184.88
   2  -5  -2 2985.60  149.39
   2  -5  -2 3102.59   97.79
   2  -5  -2 2883.41  104.09
  -2   5   2 2876.71   99.79
  -2   5   2 2970.10  102.09
  -2   5   2 3048.69  110.49
  -2   5   2 2969.90  102.49
   1  -5  -2 1336.77   84.99
   1  -5  -2 1279.87   56.99
   1  -5  -2 1351.96  103.49
   1  -5  -2 1334.77   56.29
  -1   5   2 1317.67   58.29
  -1   5   2 1420.56   62.79
  -1   5   2 1449.35   62.09
   0  -5  -2   33.10   17.60
   0  -5  -2   29.10   11.40
   0  -5  -2   29.70   12.00
   0  -5  -2    9.80   14.20
   0   5   2   32.30   12.30
   0   5   2   23.80   10.00
   0   5   2   42.80   12.90
  -1  -5  -2 1249.38   57.39
  -1  -5  -2 1122.59   95.89
  -1  -5  -2 1192.68   54.79
  -1  -5  -2 1216.28   94.59
   1   5   2 1261.87   98.79
   1   5   2 1205.48   60.99
   1   5   2 1201.78   55.39
   1   5   2 1245.48   58.19
  -2  -5  -2  919.31   87.29
  -2  -5  -2  954.70   84.39
  -2  -5  -2  908.21   50.69
  -2  -5  -2  926.11   49.20
   2   5   2  944.41   91.39
   2   5   2  912.91   49.10
   2   5   2  869.41   52.19
  -3  -5  -2  411.96   53.59
  -3  -5  -2  350.76   33.00
  -3  -5  -2  318.67   64.59
  -3  -5  -2  379.06   35.50
   3   5   2  350.36   33.50
   3   5   2  354.16   61.69
   3   5   2  367.76   37.40
  -4  -5  -2   -6.70   13.40
  -4  -5  -2   -7.40    9.50
  -4  -5  -2   -8.20   18.60
   4   5   2    4.10   15.70
   4   5   2   -0.90   10.10
   4   5   2  -24.20   28.50
  -5  -5  -2  573.74   47.90
  -5  -5  -2  458.45   76.29
  -5  -5  -2  510.65   47.10
   5   5   2  506.35   47.50
   5   5   2  393.46   87.49
   5   5   2  454.15   41.50
  -6  -5  -2  452.05   46.30
  -6  -5  -2  455.15   47.60
   6   5   2  427.96   51.49
   6   5   2  463.25   48.00
   6   5   2  298.67   79.29
 -11   6   2  469.65   52.59
   9  -6  -2   24.30   56.99
   9  -6  -2   64.99   19.20
  -9   6   2   88.69   21.30
   8  -6  -2  879.81  152.98
   8  -6  -2  828.62   49.70
  -8   6   2  776.02   47.20
   7  -6  -2  959.50  144.49
   7  -6  -2  936.81  111.89
   7  -6  -2 1033.30   52.89
  -7   6   2 1068.69   48.00
  -7   6   2 1067.99   52.39
   6  -6  -2   -0.50   20.50
   6  -6  -2   12.80    9.60
   6  -6  -2   -6.00   26.70
  -6   6   2   14.80   10.70
  -6   6   2   21.10    9.20
   5  -6  -2  182.18   17.60
   5  -6  -2  128.49   43.80
   5  -6  -2  173.48   41.60
   5  -6  -2  206.28   19.70
  -5   6   2  178.08   18.10
  -5   6   2  189.08   19.50
  -5   6   2  158.18   24.10
   4  -6  -2 1375.56  141.29
   4  -6  -2 1614.94   63.69
   4  -6  -2 1624.64   58.49
   4  -6  -2 1579.24  123.79
   4  -6  -2 1613.74   81.99
  -4   6   2 1565.54   61.29
  -4   6   2 1608.14   62.89
  -4   6   2 1517.45   74.79
   3  -6  -2 2321.37  118.09
   3  -6  -2 2205.58   98.69
   3  -6  -2 2272.37   76.29
   3  -6  -2 2124.39  153.98
   3  -6  -2 2054.49   82.19
  -3   6   2 2113.19   92.39
  -3   6   2 2267.37   81.19
  -3   6   2 2165.08   80.29
   2  -6  -2   27.10   19.20
   2  -6  -2   36.30   11.80
   2  -6  -2   17.80   14.60
   2  -6  -2   22.10   12.20
  -2   6   2   21.00   10.40
  -2   6   2   13.30   12.80
  -2   6   2   33.40   12.70
   1  -6  -2 1003.40   76.89
   1  -6  -2  966.70   49.60
   1  -6  -2  979.20   48.30
   1  -6  -2  964.60   91.89
  -1   6   2  917.61   51.89
  -1   6   2  916.41   49.99
  -1   6   2 1080.19   55.39
   0  -6  -2 2170.88   87.19
   0  -6  -2 2288.07  158.58
   0  -6  -2 2241.78  138.89
   0   6   2 2209.68   93.69
   0   6   2 2175.08   92.99
   0   6   2 2281.77   86.89
  -1  -6  -2  453.85   61.39
  -1  -6  -2  384.46   60.79
  -1  -6  -2  385.26   31.00
  -1  -6  -2  414.06   33.90
   1   6   2  404.16   33.10
   1   6   2  368.56   35.80
   1   6   2  397.56   33.20
  -2  -6  -2  223.58   28.40
  -2  -6  -2  208.78   25.80
  -2  -6  -2  276.67   50.79
  -2  -6  -2  129.99   37.50
   2   6   2  230.28   48.50
   2   6   2  226.48   28.90
   2   6   2  203.28   32.20
  -3  -6  -2  503.35   63.59
  -3  -6  -2  423.76   38.30
  -3  -6  -2  408.06   37.80
   3   6   2  485.55   45.10
   3   6   2  456.35   76.19
   3   6   2  406.36   39.20
  -4  -6  -2  705.13   91.39
  -4  -6  -2  757.12   56.29
  -4  -6  -2  739.53   53.49
   4   6   2  765.62   59.89
   4   6   2  643.54   96.99
   4   6   2  783.72   55.49
  -5  -6  -2   20.30   31.20
  -5  -6  -2   84.59   27.10
  -5  -6  -2   82.09   27.60
   5   6   2   95.99   28.80
   5   6   2    6.80   41.50
   5   6   2   81.59   25.70
 -11   7   2   17.70   24.00
 -10   7   2  552.34   56.79
   9  -7  -2  342.37   33.90
   9  -7  -2  230.88   84.59
  -9   7   2  341.17   40.90
  -9   7   2  304.17   31.30
   8  -7  -2   39.80   40.50
   8  -7  -2   55.59   17.70
  -8   7   2   57.89   17.00
  -8   7   2   28.80   17.10
   7  -7  -2  311.77   27.80
   7  -7  -2  263.97   77.39
   7  -7  -2  176.28   50.09
  -7   7   2  310.77   36.60
  -7   7   2  324.17   28.90
  -7   7   2  304.27   25.20
   6  -7  -2  757.52   90.79
   6  -7  -2  651.03  105.19
   6  -7  -2  670.43   39.70
  -6   7   2  713.43   39.80
  -6   7   2  657.63   50.29
   5  -7  -2  398.96   28.30
   5  -7  -2  424.46   85.59
   5  -7  -2  354.66   63.99
  -5   7   2  412.06   28.50
  -5   7   2  444.26   40.00
   4  -7  -2    8.00    6.90
   4  -7  -2   -4.60   10.80
   4  -7  -2   -8.70   10.10
   4  -7  -2   -1.20    6.90
  -4   7   2    8.80    9.10
  -4   7   2    5.60    9.00
  -4   7   2    2.50    6.40
   3  -7  -2  596.54   32.50
   3  -7  -2  527.05   36.50
   3  -7  -2  551.94   71.09
   3  -7  -2  585.64   53.19
  -3   7   2  589.34   34.30
  -3   7   2  614.34   37.30
  -3   7   2  660.83   46.00
   2  -7  -2 2515.75   89.29
   2  -7  -2 2266.47   94.89
   2  -7  -2 2426.66  173.58
   2  -7  -2 2376.46  139.09
  -2   7   2 2500.95  105.49
  -2   7   2 2291.37   93.29
  -2   7   2 2529.75   93.79
   1  -7  -2  240.58   25.40
   1  -7  -2  318.67   48.60
   1  -7  -2  267.07   26.00
   1  -7  -2  287.57   55.99
  -1   7   2  298.17   30.20
  -1   7   2  333.97   32.50
  -1   7   2  267.87   29.40
   0  -7  -2  806.22   79.19
   0  -7  -2  702.73   44.90
   0  -7  -2  756.92   86.49
   0   7   2  712.23   48.90
   0   7   2  680.03   48.30
   0   7   2  686.83   45.20
  -1  -7  -2 1024.90   58.09
  -1  -7  -2  843.52   50.29
  -1  -7  -2 1048.60  103.89
  -1  -7  -2 1119.29  101.59
   1   7   2 1076.29   58.29
   1   7   2  966.30   60.49
   1   7   2 1009.50   59.89
  -2  -7  -2  530.25   43.90
  -2  -7  -2  494.05   40.00
  -2  -7  -2  535.95   75.09
  -2  -7  -2  529.25   74.79
   2   7   2  487.95   45.10
   2   7   2  483.35   42.20
  -3  -7  -2   54.99   21.20
  -3  -7  -2   60.39   21.20
   3   7   2   27.90   19.10
   3   7   2  -11.40   27.30
   3   7   2   42.70   19.30
  -4  -7  -2  206.18   35.00
  -4  -7  -2   76.39   48.20
  -4  -7  -2  179.18   36.00
   4   7   2  166.48   33.60
   4   7   2   95.29   32.50
   4   7   2  141.49   53.39
 -10   8   2  -14.80   15.40
   9  -8  -2  328.97   36.10
   9  -8  -2  234.78   90.49
  -9   8   2  337.37   32.80
  -9   8   2  310.87   44.50
   8  -8  -2  759.82  141.19
   8  -8  -2  653.93   44.20
  -8   8   2  721.83   44.60
  -8   8   2  655.83   58.69
   7  -8  -2  184.58   50.59
   7  -8  -2  282.37   28.10
   7  -8  -2  217.68   73.99
  -7   8   2  271.07   35.70
  -7   8   2  310.07   27.30
   6  -8  -2  101.89   37.00
   6  -8  -2  183.58   22.40
   6  -8  -2  177.38   59.39
  -6   8   2  175.38   33.70
  -6   8   2  171.98   22.60
   5  -8  -2 1347.47  151.28
   5  -8  -2 1454.85  130.09
   5  -8  -2 1387.96   62.19
  -5   8   2 1407.96   79.99
  -5   8   2 1458.05   61.49
   4  -8  -2  730.73   92.59
   4  -8  -2  758.62   43.90
   4  -8  -2  673.73   58.09
  -4   8   2  768.62   42.40
  -4   8   2  801.72   56.69
   3  -8  -2   32.50   14.40
   3  -8  -2   24.70   21.00
   3  -8  -2   -0.10   13.60
  -3   8   2   24.00   14.00
  -3   8   2   53.89   19.90
   2  -8  -2  384.46   34.90
   2  -8  -2  365.56   69.59
   2  -8  -2  318.27   49.30
  -2   8   2  324.17   33.20
  -2   8   2  350.36   37.10
   1  -8  -2  990.00   88.79
   1  -8  -2  954.20  101.49
   1  -8  -2  934.51   54.79
  -1   8   2  917.91   55.59
  -1   8   2  978.10   62.89
   0  -8  -2  574.14   77.59
   0  -8  -2  680.43   88.79
   0  -8  -2  522.95   42.40
   0   8   2  610.14   48.80
   0   8   2  585.34   45.30
  -1  -8  -2  -17.40   25.20
  -1  -8  -2   47.40   26.50
  -1  -8  -2   27.50   17.40
   1   8   2   15.90   16.20
   1   8   2    9.20   14.00
  -2  -8  -2  629.84   81.89
  -2  -8  -2  444.46   41.70
   2   8   2  447.66   41.30
  -3  -8  -2  594.44   50.09
  -3  -8  -2  307.47   69.49
   3   8   2  494.55   45.60
 -10   9   2  249.88   48.50
   9  -9  -2   29.30   19.50
  -9   9   2   85.09   20.30
  -9   9   2   47.50   26.00
   8  -9  -2   54.09   18.30
   8  -9  -2  107.19   54.39
  -8   9   2   89.29   27.60
  -8   9   2   87.29   18.90
   7  -9  -2  759.32  128.09
   7  -9  -2  641.34   42.30
   7  -9  -2  621.14  103.59
  -7   9   2  721.13   61.79
  -7   9   2  806.42   44.60
   6  -9  -2  410.26   32.30
   6  -9  -2  421.86   83.79
   6  -9  -2  523.75   95.59
  -6   9   2  469.75   33.70
  -6   9   2  419.36   44.70
   5  -9  -2    4.20   24.40
   5  -9  -2   -4.00    9.50
   5  -9  -2   26.80   23.80
  -5   9   2    5.40   14.90
  -5   9   2    8.50   11.30
   4  -9  -2  278.57   28.90
   4  -9  -2  248.58   60.89
  -4   9   2  247.08   35.80
  -4   9   2  260.87   26.60
   3  -9  -2  848.12   80.09
   3  -9  -2  828.62   52.49
   3  -9  -2  903.71  105.69
  -3   9   2  970.00   53.89
  -3   9   2  995.70   67.49
   2  -9  -2  392.16   38.00
   2  -9  -2  375.16   59.19
   2  -9  -2  398.66   77.39
  -2   9   2  373.86   40.30
  -2   9   2  324.97   35.70
   1  -9  -2   10.50   16.00
   1  -9  -2  -13.60   20.30
   1  -9  -2    6.00   14.00
  -1   9   2   12.20   16.40
  -1   9   2    1.80   13.40
   0  -9  -2  637.64   90.99
   0  -9  -2  403.96   78.89
   0  -9  -2  540.05   43.40
   0   9   2  493.05   44.10
   0   9   2  537.75   49.80
  -1  -9  -2  514.65   94.79
  -1  -9  -2  856.01  101.99
  -1  -9  -2  606.44   48.90
   1   9   2  612.54   52.29
   1   9   2  586.54   50.49
  -2  -9  -2  -44.40   36.50
  -2  -9  -2   59.49   23.00
   2   9   2   12.30   15.90
 -10  10   2  141.79   40.70
  -9  10   2  543.15   60.39
   8 -10  -2  143.79   25.10
  -8  10   2  172.38   23.80
  -8  10   2  131.09   36.60
   7 -10  -2  -25.60   26.10
   7 -10  -2   14.80   12.50
  -7  10   2   18.40   11.70
  -7  10   2    8.10   17.70
   6 -10  -2  420.56   88.89
   6 -10  -2  458.85   35.20
   6 -10  -2  634.64  103.79
  -6  10   2  482.55   53.19
  -6  10   2  436.86   33.50
   5 -10  -2  476.15   36.60
   5 -10  -2  457.15   92.89
  -5  10   2  448.76   50.29
  -5  10   2  473.75   34.90
   4 -10  -2  113.09   23.70
   4 -10  -2   94.99   41.50
  -4  10   2  115.19   30.30
  -4  10   2  135.09   22.50
   3 -10  -2   20.20   26.20
   3 -10  -2    1.00   11.50
  -3  10   2   -6.90    7.80
  -3  10   2   11.10   16.10
   2 -10  -2  754.62  105.29
   2 -10  -2  652.23   51.49
   2 -10  -2  520.95   77.09
  -2  10   2  594.84   48.20
  -2  10   2  657.23   59.79
   1 -10  -2 1024.20  118.59
   1 -10  -2  765.52   96.09
   1 -10  -2  707.33   54.49
  -1  10   2  827.12   67.39
  -1  10   2  814.02   57.49
   0 -10  -2   29.60   19.60
   0  10   2   17.10   16.80
   0  10   2   36.20   20.90
  -1 -10  -2  -12.40   39.80
  -1 -10  -2  105.89   28.80
   1  10   2  106.89   30.40
  -2 -10  -2 1074.19  116.39
  -9  11   2    8.90   22.70
  -8  11   2  442.16   53.79
   7 -11  -2  264.37   30.80
   7 -11  -2  165.28   60.59
  -7  11   2  303.87   44.60
  -7  11   2  316.27   28.50
   6 -11  -2  132.89   51.49
   6 -11  -2  170.88   26.40
  -6  11   2  187.08   23.10
  -6  11   2  194.98   44.90
   5 -11  -2   78.79   40.40
   5 -11  -2   66.99   19.10
  -5  11   2   83.99   18.50
  -5  11   2   38.70   25.00
   4 -11  -2  867.11   56.69
   4 -11  -2  906.01  123.89
  -4  11   2  838.62   51.69
  -4  11   2  933.61   76.19
   3 -11  -2  148.79   49.30
   3 -11  -2  167.58   31.10
  -3  11   2  173.88   28.80
  -3  11   2  163.98   40.30
   2 -11  -2   43.60   34.10
  -2  11   2    4.80   19.10
  -2  11   2   25.30   23.10
   1 -11  -2  158.18   32.90
  -1  11   2  163.48   33.80
  -1  11   2  105.99   32.30
   0  11   2  488.85   54.29
  -8  12   2   32.20   27.10
  -7  12   2  220.58   52.29
  -6  12   2  500.15   59.29
   5 -12  -2  163.88   28.80
  -5  12   2  127.79   39.60
   4 -12  -2    5.80   14.40
  -4  12   2  -23.80   12.80
  -4  12   2   18.40   20.40
  -3  12   2  253.87   37.10
  -3  12   2  286.17   54.69
  -2  12   2  244.68   51.09
  -1  12   2   73.19   30.50
  -6  13   2    8.20   24.50
  -5  13   2  191.48   50.69
  -4  13   2  263.47   54.99
  -3  13   2   42.20   29.70
  -2  13   2    7.80   21.90
  -1  13  -3   -0.60   18.50
  -2  13  -3  154.08   44.30
  -3  13  -3  319.47   60.59
  -4  13  -3  213.98   49.90
  -5  13  -3  -14.80   18.80
   0  12  -3  164.98   44.70
   1 -12   3  220.68   51.89
  -2  12  -3  240.18   48.80
   2 -12   3  336.67   59.49
  -3  12  -3   97.79   33.20
  -4  12  -3  294.37   54.09
  -5  12  -3  324.07   46.20
  -6  12  -3   89.39   32.70
  -7  12  -3  144.99   39.60
   1  11  -3  466.65   42.10
  -1 -11   3  444.16   39.70
  -1 -11   3  291.37   64.59
   0  11  -3  198.98   44.00
   0 -11   3  126.99   23.50
   0 -11   3  138.99   41.40
  -1  11  -3  106.69   32.40
   1 -11   3   77.09   27.80
  -2  11  -3  620.84   61.99
   2 -11   3  864.61   98.09
   2 -11   3  738.83   80.69
  -3  11  -3  369.76   46.20
   3 -11   3  517.45   75.29
   3 -11   3  497.65   61.89
  -4  11  -3   18.10   19.20
   5 -11   3  554.14   76.49
   5 -11   3  656.73   70.19
  -6  11  -3  322.57   44.00
  -6  11  -3  385.76   44.10
  -7  11  -3  253.37   43.30
  -7  11  -3  240.88   46.70
  -8  11  -3   -6.20   15.70
  -8  11  -3    2.90   18.40
  -3 -10   3  510.65   71.29
   2  10  -3   59.79   20.80
  -2 -10   3   41.10   16.20
  -2 -10   3  -13.90   26.20
   1  10  -3  128.49   23.90
  -1 -10   3  118.79   39.10
  -1 -10   3  194.08   25.90
   0  10  -3  587.04   58.89
   0  10  -3  579.44   41.00
   0 -10   3  642.54   83.39
   0 -10   3  738.43   93.39
   0 -10   3  619.54   40.10
  -1  10  -3  373.86   46.10
  -1  10  -3  335.17   25.00
   1 -10   3  510.35   75.29
   1 -10   3  457.65   63.09
   1 -10   3  360.36   30.00
  -2  10  -3   22.30   17.20
   2 -10   3   35.50   17.20
   2 -10   3   31.40   14.40
  -3  10  -3  448.66   48.50
   3 -10   3  578.94   77.19
   3 -10   3  591.44   62.39
  -4  10  -3  715.33   60.39
  -4  10  -3  797.42   55.79
   4 -10   3  897.81   94.49
   5 -10   3  419.86   68.49
   5 -10   3  331.27   51.39
  -6  10  -3   11.40   16.70
  -6  10  -3   17.50   17.10
  -7  10  -3  424.66   44.80
  -7  10  -3  447.16   50.49
  -8  10  -3  255.77   46.60
  -8  10  -3  283.07   44.70
   4   9  -3   -8.20   15.20
   3   9  -3  216.98   29.90
  -3  -9   3  198.58   33.20
  -3  -9   3  116.99   42.10
   2   9  -3  575.04   40.90
  -2  -9   3  643.54   88.59
  -2  -9   3  517.45   40.60
   1   9  -3  541.05   54.19
   1   9  -3  511.45   36.40
  -1  -9   3  420.66   33.10
  -1  -9   3  465.75   67.09
   0   9  -3   14.90   18.10
   0   9  -3   -4.50   10.00
   0  -9   3   -4.20   11.40
   0  -9   3    0.40    8.20
  -1   9  -3  564.64   50.89
   1  -9   3  573.84   65.99
   1  -9   3  551.74   32.30
   1  -9   3  512.05   74.09
  -2   9  -3 1399.06   83.69
   2  -9   3 1474.25  131.99
   2  -9   3 1582.64  112.39
  -3   9  -3  406.36   38.10
  -3   9  -3  340.57   40.20
   3  -9   3  520.55   67.99
   3  -9   3  513.75   53.89
   3  -9   3  501.95   49.99
  -4   9  -3  224.38   28.10
  -4   9  -3  262.07   35.60
   4  -9   3  329.97   38.80
   4  -9   3  371.36   52.99
  -5   9  -3  828.52   56.49
  -5   9  -3  832.02   63.09
   5  -9   3  949.90   94.49
   5  -9   3  929.41  114.19
  -6   9  -3  401.16   45.50
  -6   9  -3  496.05   44.30
   6  -9   3  553.54   90.89
  -7   9  -3  -10.80   10.80
  -7   9  -3   24.10   17.30
  -8   9  -3   79.89   24.80
  -8   9  -3  102.59   29.50
  -9   9  -3  225.98   40.00
  -9   9  -3  169.18   36.70
   4   8  -3  834.12   54.69
  -4  -8   3  847.92   58.59
  -4  -8   3  876.71  109.59
   3   8  -3  206.08   29.00
  -3  -8   3  253.47   30.20
  -3  -8   3  142.29   38.50
   2   8  -3  146.29   22.80
  -2  -8   3   88.89   32.50
  -2  -8   3  158.08   22.50
   1   8  -3  899.31   44.90
   1   8  -3  845.42   63.19
  -1  -8   3  862.01   88.09
  -1  -8   3  838.62   68.49
  -1  -8   3  859.81   45.90
   0   8  -3  579.34   32.70
   0   8  -3  543.15   48.10
   0   8  -3  572.34   39.00
   0  -8   3  521.65   61.79
   0  -8   3  533.85   49.99
   0  -8   3  549.25   31.60
  -1   8  -3  114.29   26.30
  -1   8  -3   82.39   12.50
  -1   8  -3   84.69   21.20
   1  -8   3   92.89   12.40
   1  -8   3   72.69   22.40
   1  -8   3  103.69   20.30
  -2   8  -3   91.19   19.60
  -2   8  -3   75.79   21.30
  -2   8  -3  107.19   22.30
   2  -8   3  139.19   29.30
   2  -8   3  132.09   24.20
   2  -8   3  147.19   36.30
  -3   8  -3 1000.90   63.29
  -3   8  -3 1048.30   58.19
  -3   8  -3 1165.58   54.29
   3  -8   3 1067.69   81.69
   3  -8   3 1054.99   98.79
   3  -8   3 1038.90   33.10
  -4   8  -3  814.02   44.90
  -4   8  -3  888.01   53.59
  -4   8  -3  799.32   56.89
   4  -8   3  918.21  105.49
   4  -8   3  835.32   85.29
   4  -8   3  895.11   69.39
  -5   8  -3    0.00    9.10
  -5   8  -3    8.10   12.20
   5  -8   3    4.80    9.40
  -6   8  -3  353.76   35.00
  -6   8  -3  337.87   38.10
   6  -8   3  439.16   82.39
  -7   8  -3  690.33   55.19
  -7   8  -3  690.43   52.79
   7  -8   3  744.33   88.29
   7  -8   3  749.23  114.69
  -8   8  -3  170.48   32.90
  -8   8  -3  151.38   33.80
   8  -8   3  159.88   61.29
  -9   8  -3   50.89   22.70
   5   7  -3  135.69   28.10
  -5  -7   3   80.59   35.90
  -5  -7   3  139.59   30.60
   4   7  -3   61.79   14.00
   4   7  -3   79.79   21.10
  -4  -7   3   20.10   25.90
  -4  -7   3   98.49   24.70
  -4  -7   3   34.40   23.90
   3   7  -3 1218.38   44.50
   3   7  -3 1312.87   60.99
  -3  -7   3 1182.68  106.89
  -3  -7   3 1179.88   91.69
  -3  -7   3 1176.28   62.99
   2   7  -3  822.82   43.10
  -2  -7   3  783.32   80.29
  -2  -7   3  780.52   68.89
  -2  -7   3  843.92   46.50
   1   7  -3   77.59   18.20
   1   7  -3   86.89   23.00
   1   7  -3   51.59   13.00
  -1  -7   3   37.10   17.80
  -1  -7   3   47.80   19.50
  -1  -7   3   73.49   14.40
   0   7  -3  531.85   27.20
   0   7  -3  468.95   40.70
   0   7  -3  470.75   34.50
   0  -7   3  456.55   54.89
   0  -7   3  534.95   46.80
   0  -7   3  482.65   27.00
  -1   7  -3 2060.19   79.29
  -1   7  -3 2238.98   86.59
  -1   7  -3 2184.28   96.59
  -1   7  -3 1964.30   66.49
   1  -7   3 2164.48  133.29
   1  -7   3 2069.89  119.59
   1  -7   3 2102.19   69.29
  -2   7  -3  719.13   38.90
  -2   7  -3  703.53   48.40
  -2   7  -3  738.73   43.10
   2  -7   3  727.43   25.20
   2  -7   3  740.33   64.49
  -3   7  -3    0.20    9.60
  -3   7  -3    8.80   10.50
  -3   7  -3    6.30   10.60
   3  -7   3   -0.70    1.30
   3  -7   3    2.70    7.50
   3  -7   3    4.00    5.00
   3  -7   3   -0.30    1.40
  -4   7  -3  855.51   42.40
  -4   7  -3  906.61   54.99
  -4   7  -3  830.62   49.20
   4  -7   3  861.41   30.30
   4  -7   3  912.71  101.39
   4  -7   3  882.41   81.79
  -5   7  -3 1283.87   52.79
  -5   7  -3 1217.58   39.90
  -5   7  -3 1254.87   69.29
  -5   7  -3 1244.68   64.79
   5  -7   3 1304.67  103.19
   5  -7   3 1256.47  128.99
   5  -7   3 1215.88   45.40
  -6   7  -3  197.28   15.10
  -6   7  -3  174.28   26.70
  -6   7  -3  173.08   29.70
   6  -7   3  230.28   48.40
   6  -7   3  158.28   49.30
   6  -7   3  169.88   16.70
  -7   7  -3   30.80   16.10
  -7   7  -3   22.70    9.10
  -7   7  -3   21.20   16.10
   7  -7   3   60.69   28.70
   7  -7   3   22.20   11.00
   7  -7   3   34.30   33.40
  -8   7  -3  427.36   43.50
  -8   7  -3  368.36   38.60
   8  -7   3  372.36   31.90
   8  -7   3  507.95   73.69
   8  -7   3  465.75  106.79
  -9   7  -3  418.36   45.90
   7   6  -3    4.80   11.10
   6   6  -3   91.29   25.00
   6   6  -3  126.69   21.40
  -6  -6   3  105.19   27.80
  -6  -6   3   43.00   30.30
   5   6  -3  793.32   39.70
   5   6  -3  750.32   50.39
  -5  -6   3  762.42   53.09
  -5  -6   3  677.73   76.69
  -5  -6   3  721.03   92.99
   4   6  -3  762.12   36.00
   4   6  -3  808.52   49.30
   4   6  -3  713.23   45.70
  -4  -6   3  805.82   88.89
  -4  -6   3  772.22   74.39
  -4  -6   3  710.73   49.30
  -4  -6   3  665.43   42.30
  -3  -6   3   29.30   21.30
  -3  -6   3   47.40   21.20
   2   6  -3  416.26   27.60
   2   6  -3  386.56   18.80
   2   6  -3  410.76   31.50
   2   6  -3  393.56   27.70
  -2  -6   3  329.47   45.80
  -2  -6   3  382.66   24.60
  -2  -6   3  394.26   52.09
  -2  -6   3  384.86   29.00
   1   6  -3 1314.87   69.89
   1   6  -3 1315.57   57.19
   1   6  -3 1257.17   48.20
   1   6  -3 1230.08   51.29
   1   6  -3 1308.37   50.39
  -1  -6   3 1320.87   85.19
  -1  -6   3 1305.87   97.69
  -1  -6   3 1284.17   48.20
  -1  -6   3 1309.27   53.59
   0   6  -3  708.53   28.30
   0   6  -3  679.13   37.10
   0   6  -3  668.93   21.90
   0   6  -3  779.12   30.50
   0   6  -3  718.33   46.00
   0  -6   3  707.93   55.19
   0  -6   3  707.33   63.49
   0  -6   3  734.23   30.00
   0  -6   3  671.63   28.00
   0  -6   3  724.33   31.70
  -1   6  -3   33.20   12.20
  -1   6  -3   38.40   13.70
  -1   6  -3   21.50    4.20
  -1   6  -3   27.90   10.60
  -1   6  -3   20.70    6.10
   1  -6   3   22.40    4.50
   1  -6   3   16.60   11.70
   1  -6   3   26.30    5.70
   1  -6   3   29.30   14.60
  -2   6  -3  587.44   36.10
  -2   6  -3  584.74   32.90
  -2   6  -3  602.84   39.60
   2  -6   3  576.34   17.90
   2  -6   3  541.75   17.70
  -3   6  -3 2383.06   99.49
  -3   6  -3 2507.65   83.29
  -3   6  -3 2417.66   92.69
   3  -6   3 2428.46   69.79
   3  -6   3 2415.66   71.69
   3  -6   3 2377.46  157.58
  -4   6  -3  400.36   33.00
  -4   6  -3  396.46   15.80
  -4   6  -3  404.56   16.70
  -4   6  -3  353.16   29.70
  -4   6  -3  404.46   26.10
   4  -6   3  403.36   18.60
   4  -6   3  381.86   18.40
   4  -6   3  399.86   47.50
   4  -6   3  384.96   62.19
  -5   6  -3  564.74   25.30
  -5   6  -3  615.04   42.30
  -5   6  -3  519.35   39.00
   5  -6   3  569.34   28.30
   5  -6   3  619.04   60.19
   5  -6   3  589.34   27.40
   5  -6   3  588.14   83.89
  -6   6  -3  817.62   51.89
  -6   6  -3  827.72   37.50
  -6   6  -3  829.72   54.19
   6  -6   3  870.21   41.70
   6  -6   3  861.81   38.50
   6  -6   3  864.31  109.89
   6  -6   3  967.60   94.89
  -7   6  -3  362.26   35.10
  -7   6  -3  325.47   36.20
  -7   6  -3  363.66   26.10
   7  -6   3  275.27   24.30
   7  -6   3  333.17   28.40
   7  -6   3  433.16   67.79
   7  -6   3  204.48   60.99
  -8   6  -3    0.20    9.60
  -8   6  -3  -12.80   11.40
   8  -6   3    2.40   10.70
   8  -6   3  -25.00   37.80
   8  -6   3    2.60    9.60
   8  -6   3   18.40   17.10
  -9   6  -3  112.89   32.50
  -9   6  -3  112.79   22.70
   8   5  -3   64.79   19.00
   7   5  -3  429.76   34.60
   7   5  -3  379.76   39.90
  -7  -5   3  468.95   49.70
  -7  -5   3  447.56   41.00
   6   5  -3  310.57   36.20
   6   5  -3  333.87   28.00
   6   5  -3  364.26   38.00
  -6  -5   3  343.67   39.60
  -6  -5   3  352.36   36.00
  -6  -5   3  366.86   63.59
   5   5  -3  -10.70   10.20
   5   5  -3   10.50   13.20
   5   5  -3    1.80    8.60
  -5  -5   3    4.90   10.00
  -5  -5   3   -7.40   18.90
  -5  -5   3   -7.30   22.30
  -5  -5   3   -5.70   10.30
   4   5  -3  590.54   37.30
   4   5  -3  577.54   29.80
   4   5  -3  588.44   39.50
  -4  -5   3  614.44   68.49
  -4  -5   3  597.94   36.30
  -4  -5   3  540.15   62.59
  -4  -5   3  530.55   40.60
   3   5  -3 3332.37   95.09
   3   5  -3 3254.37  111.09
   3   5  -3 3457.35  117.59
   3   5  -3 3301.27  113.49
  -3  -5   3 3392.86  178.98
  -3  -5   3 3329.57  120.19
  -3  -5   3 3486.05  195.38
  -3  -5   3 3375.86  112.39
   2   5  -3  506.95   28.70
   2   5  -3  470.35   27.70
   2   5  -3  427.86   28.30
   2   5  -3  475.25   20.50
  -2  -5   3  445.16   53.89
  -2  -5   3  476.85   49.00
  -2  -5   3  334.57   45.50
  -2  -5   3  473.35   29.80
  -2  -5   3  439.26   25.40
   1   5  -3 1754.82   80.39
   1   5  -3 1819.32   61.49
   1   5  -3 1856.61   62.99
   1   5  -3 1858.11   60.69
   1   5  -3 1746.23   65.79
  -1  -5   3 1768.42   59.29
  -1  -5   3 1789.52  102.89
  -1  -5   3 1735.93   64.49
  -1  -5   3 1826.52   62.29
  -1  -5   3 1684.93  112.69
   0   5  -3 1607.04   60.49
   0   5  -3 1615.44   51.59
   0   5  -3 1553.94   71.19
   0   5  -3 1576.64   62.69
   0  -5   3 1495.55  100.29
   0  -5   3 1628.24   54.69
   0  -5   3 1639.54   95.29
   0  -5   3 1677.53   50.59
   0  -5   3 1655.73   52.89
  -1   5  -3 1565.34   68.49
  -1   5  -3 1590.04   43.30
  -1   5  -3 1595.84   62.29
  -1   5  -3 1687.83   58.99
  -1   5  -3 1420.46   43.80
   1  -5   3 1553.84   47.10
   1  -5   3 1497.65   46.20
  -2   5  -3   63.99   13.40
  -2   5  -3   44.80   12.30
  -2   5  -3   51.69   13.80
  -3   5  -3  458.45   31.80
  -3   5  -3  417.06   14.90
  -3   5  -3  438.76   30.00
  -3   5  -3  465.25   15.40
  -3   5  -3  440.06   25.50
   3  -5   3  436.56   17.50
   3  -5   3  443.66   60.09
   3  -5   3  429.86   18.30
   3  -5   3  406.16   17.50
  -4   5  -3 1269.77   60.59
  -4   5  -3 1256.97   42.90
  -4   5  -3 1319.17   61.29
  -4   5  -3 1297.97   43.10
  -4   5  -3 1284.17   47.90
   4  -5   3 1322.57   91.59
   4  -5   3 1227.18   45.50
   4  -5   3 1182.58  112.69
   4  -5   3 1313.97   43.10
  -5   5  -3 1714.43   77.29
  -5   5  -3 1682.03   58.89
  -5   5  -3 1652.93   74.59
   5  -5   3 1586.54  142.89
   5  -5   3 1731.63   57.59
   5  -5   3 1714.83  124.79
   5  -5   3 1712.73  110.29
   5  -5   3 1694.13   62.69
  -6   5  -3    7.80    9.40
  -6   5  -3    6.10   10.10
  -6   5  -3    5.60    9.30
   6  -5   3   18.20   19.90
   6  -5   3   19.20    8.90
   6  -5   3    5.50    8.00
   6  -5   3   -1.50   22.70
  -7   5  -3  638.84   50.09
  -7   5  -3  624.34   37.40
  -7   5  -3  590.24   41.40
   7  -5   3  599.44   35.50
   7  -5   3  604.24   40.40
   7  -5   3  645.24  111.39
   7  -5   3  677.63   86.69
  -8   5  -3  464.15   45.80
  -8   5  -3  509.75   35.70
   8  -5   3  365.36   31.20
   8  -5   3  429.76   38.20
   8  -5   3  551.34   86.59
   8  -5   3  255.07   81.39
  -9   5  -3  216.38   41.10
   9  -5   3  216.08   27.10
 -10   5  -3   31.00   21.20
   8   4  -3  101.99   22.40
   8   4  -3  144.99   30.90
  -8  -4   3  122.29   28.90
   7   4  -3   -5.30   12.30
   7   4  -3    3.20   16.80
   7   4  -3   16.30   12.40
  -7  -4   3  -11.30   12.60
  -7  -4   3   -4.30   14.60
   6   4  -3  651.23   47.20
   6   4  -3  749.92   40.70
   6   4  -3  706.93   48.40
  -6  -4   3  669.93   46.60
  -6  -4   3  775.92   54.49
  -6  -4   3  673.53   84.49
  -6  -4   3  666.73   78.09
   5   4  -3 1130.09   57.69
   5   4  -3 1248.58   61.79
   5   4  -3 1167.58   49.10
  -5  -4   3 1158.28   95.59
  -5  -4   3 1152.88   58.19
  -5  -4   3 1187.98  101.09
  -5  -4   3 1246.88   65.59
   4   4  -3  290.57   31.70
   4   4  -3  266.27   25.60
   4   4  -3  274.47   25.60
   4   4  -3  303.57   20.80
  -4  -4   3  255.17   27.10
  -4  -4   3  224.08   44.90
  -4  -4   3  273.67   46.80
  -4  -4   3  249.18   23.60
   3   4  -3  344.57   25.20
   3   4  -3  311.77   24.20
   3   4  -3  294.77   24.10
   3   4  -3  341.67   19.40
  -3  -4   3  304.37   45.30
  -3  -4   3  373.96   46.90
  -3  -4   3  314.17   26.60
  -3  -4   3  357.56   24.40
   2   4  -3 2937.41   96.29
   2   4  -3 2920.11   94.29
   2   4  -3 2985.60   94.29
   2   4  -3 2875.31   92.99
   2   4  -3 2979.40   79.69
  -2  -4   3 2806.02  160.58
  -2  -4   3 3105.79   93.99
  -2  -4   3 3018.90  153.38
  -2  -4   3 2689.33  144.19
  -2  -4   3 2864.01   98.99
   1   4  -3 1251.27   48.20
   1   4  -3 1306.57   45.50
   1   4  -3 1199.78   58.89
   1   4  -3 1249.47   44.20
   1   4  -3 1260.27   44.50
  -1  -4   3 1266.97   47.80
  -1  -4   3 1340.87   70.79
  -1  -4   3 1291.97   43.80
  -1  -4   3 1210.68   83.39
  -1  -4   3 1280.87   45.20
  -1  -4   3 1234.48   77.19
   0   4  -3   31.00    8.50
   0  -4   3   19.20    4.20
   0  -4   3   18.80    9.80
  -1   4  -3  534.45   28.80
  -1   4  -3  531.95   31.40
  -1   4  -3  530.15   26.00
   1  -4   3  506.95   16.70
   1  -4   3  479.85   15.90
  -2   4  -3 1942.41   62.39
  -2   4  -3 1855.81   69.69
  -2   4  -3 1644.54   50.79
  -2   4  -3 1960.70   50.79
  -2   4  -3 1863.21   73.19
   2  -4   3 1814.32   54.39
   2  -4   3 1911.91   54.59
  -3   4  -3 1140.99   53.09
  -3   4  -3 1219.28   39.70
  -3   4  -3 1245.18   44.40
  -3   4  -3 1265.97   54.49
  -3   4  -3 1221.78   39.30
   3  -4   3 1193.68   42.30
   3  -4   3 1165.88   98.89
   3  -4   3 1236.38   37.40
   3  -4   3 1168.58   41.20
  -4   4  -3    6.60    3.80
  -4   4  -3    3.70    6.60
  -4   4  -3   17.10   11.10
  -4   4  -3   10.50    6.80
  -4   4  -3   11.20    5.80
  -4   4  -3   12.90    8.50
   4  -4   3   -1.10   13.90
   4  -4   3    5.10    5.10
   4  -4   3    3.40   15.40
   4  -4   3    0.30    5.00
   4  -4   3    5.10    6.90
   4  -4   3    6.80    5.10
  -5   4  -3  995.80   49.50
  -5   4  -3 1023.30   42.80
  -5   4  -3 1074.29   57.59
   5  -4   3  964.90   87.79
   5  -4   3 1001.70  105.99
   5  -4   3  983.60   44.70
  -6   4  -3 1157.08   56.29
  -6   4  -3 1112.49   64.69
  -6   4  -3 1237.18   52.19
   6  -4   3 1115.29  125.39
   6  -4   3 1104.29   53.79
   6  -4   3 1191.28  107.99
   6  -4   3 1162.18   49.10
  -7   4  -3  150.38   22.70
  -7   4  -3  141.09   30.00
   7  -4   3  128.69   40.90
   7  -4   3  118.69   21.80
   7  -4   3   50.29   43.40
   7  -4   3  148.09   21.40
  -8   4  -3  238.98   40.30
  -8   4  -3  173.88   26.90
   8  -4   3  123.89   26.10
   8  -4   3  148.19   47.50
   8  -4   3  125.89   22.10
   8  -4   3   18.90   49.40
  -9   4  -3  281.47   47.10
   9  -4   3  327.87   33.20
 -10   4  -3  112.79   31.60
   9   3  -3   65.29   20.60
   8   3  -3  470.15   43.70
   8   3  -3  520.15   49.10
   8   3  -3  547.75   39.70
  -8  -3   3  598.04   54.19
  -8  -3   3  545.85   48.20
   7   3  -3  490.15   44.50
   7   3  -3  458.45   39.60
   7   3  -3  516.25   36.50
  -7  -3   3  533.25   43.70
  -7  -3   3  532.35   45.70
  -7  -3   3  466.75   72.09
  -7  -3   3  462.45   71.09
   6   3  -3   20.60   11.40
   6   3  -3   11.10    9.60
   6   3  -3   16.90   13.60
   6   3  -3  -13.40   34.70
  -6  -3   3   18.50   13.30
  -6  -3   3   -7.10   16.20
  -6  -3   3    8.00   25.00
  -6  -3   3    9.70   13.90
   5   3  -3  205.98   62.09
   5   3  -3  309.57   29.30
   5   3  -3  346.37   28.00
   5   3  -3  339.27   23.70
   5   3  -3  301.17   38.60
  -5  -3   3  341.97   53.09
  -5  -3   3  280.47   47.40
  -5  -3   3  345.67   32.70
  -5  -3   3  302.07   26.30
   4   3  -3 1518.95   63.19
   4   3  -3 1568.94   54.49
   4   3  -3 1656.03   58.59
   4   3  -3 1533.25   65.39
   4   3  -3 1541.85   86.79
  -4  -3   3 1561.74  106.09
  -4  -3   3 1716.13  108.39
  -4  -3   3 1586.44   69.09
  -4  -3   3 1551.54   63.39
   3   3  -3 1487.35   52.99
   3   3  -3 1414.86   55.49
   3   3  -3 1440.46   47.10
   3   3  -3 1467.25   57.39
  -3  -3   3 1413.26   55.09
  -3  -3   3 1427.76   72.99
  -3  -3   3 1410.46   91.09
  -3  -3   3 1330.27   58.49
  -3  -3   3 1357.06   92.89
   2   3  -3    4.40    5.80
   2   3  -3    4.60    5.80
   2   3  -3    8.20    4.70
   2   3  -3   10.70    5.70
   2   3  -3   14.80    6.40
  -2  -3   3    1.60    4.40
  -2  -3   3    8.30    5.10
  -2  -3   3    9.40    5.60
  -2  -3   3    6.10    9.20
  -2  -3   3    6.60   11.80
  -2  -3   3    7.10    6.80
   1   3  -3 2873.81   89.79
   1   3  -3 3074.19   89.99
   1   3  -3 3010.80   88.39
   1   3  -3 2877.61  105.89
   1   3  -3 3011.90   92.29
   1   3  -3 2946.01   88.29
  -1  -3   3 2902.21   92.69
  -1  -3   3 2951.90   87.89
  -1  -3   3 2953.90   89.99
  -1  -3   3 2954.70  147.19
   0   3  -3 5703.83  172.48
   0   3  -3 6330.17  180.68
   0   3  -3 6308.47  171.58
   0   3  -3 6369.86  198.48
   0   3  -3 6233.58  172.08
   0  -3   3 6238.78  285.37
   0  -3   3 6405.96  177.58
   0  -3   3 6323.97  175.48
   0  -3   3 6291.77  170.48
  -1   3  -3  239.88    9.70
  -1   3  -3  211.28   16.30
  -1   3  -3  252.87   18.50
  -1   3  -3  221.78    9.00
   1  -3   3  246.68   11.50
   1  -3   3  217.18   10.00
  -2   3  -3  695.03   35.50
  -2   3  -3  750.62   34.90
  -2   3  -3  725.53   25.20
   2  -3   3  741.83   56.99
   2  -3   3  706.83   23.20
   2  -3   3  747.33   63.39
   2  -3   3  699.63   26.10
   2  -3   3  679.43   24.30
   2  -3   3  728.93   26.60
  -3   3  -3 2013.00   76.29
  -3   3  -3 2002.80   71.89
  -3   3  -3 1885.81   61.39
  -3   3  -3 1974.40   61.59
   3  -3   3 1871.81   63.69
   3  -3   3 1898.81   64.49
   3  -3   3 1848.02  132.29
   3  -3   3 1833.92  118.19
   3  -3   3 1956.30   61.19
  -4   3  -3 1585.24   70.69
  -4   3  -3 1599.94   55.69
  -4   3  -3 1623.74   56.49
  -4   3  -3 1595.64   56.79
  -4   3  -3 1549.24   61.99
   4  -3   3 1585.14   55.59
   4  -3   3 1531.55   86.59
   4  -3   3 1576.44   60.19
   4  -3   3 1575.14   59.19
   4  -3   3 1576.84  126.09
   4  -3   3 1504.75  108.79
  -5   3  -3  127.19   16.30
  -5   3  -3  133.49   15.50
  -5   3  -3  131.19   14.60
  -5   3  -3  143.29   26.00
   5  -3   3  128.59   16.60
   5  -3   3  114.29   33.20
   5  -3   3   67.09   32.30
   5  -3   3  114.39   14.70
  -6   3  -3  299.27   34.20
  -6   3  -3  334.37   27.00
   6  -3   3  273.47   26.30
   6  -3   3  193.58   54.09
   6  -3   3  366.56   62.39
  -7   3  -3  991.20   52.29
  -7   3  -3  919.71   63.09
   7  -3   3  951.80   54.99
   7  -3   3  905.81  102.49
   7  -3   3  912.01   47.40
   7  -3   3  729.03  121.59
  -8   3  -3  337.37   34.40
  -8   3  -3  268.77   43.60
   8  -3   3  279.97   34.30
   8  -3   3  317.87   30.60
   8  -3   3  153.28   66.49
   8  -3   3  339.17   73.99
  -9   3  -3   -7.80   15.10
   9  -3   3   -6.90   12.30
   9   2  -3  281.17   39.00
   9   2  -3  387.96   38.10
   9   2  -3  272.77   45.60
  -9  -2   3  331.27   46.00
  -9  -2   3  260.77   36.30
   8   2  -3    7.40   11.90
   8   2  -3    5.30   12.00
   8   2  -3   16.40   47.40
   8   2  -3   -7.70   14.20
  -8  -2   3   -2.00   14.80
  -8  -2   3   10.60   15.90
   7   2  -3  480.55   39.70
   7   2  -3  508.45   43.30
   7   2  -3  483.55   33.10
   7   2  -3  390.16   99.69
  -7  -2   3  473.55   41.80
  -7  -2   3  450.45   39.20
  -7  -2   3  449.36   68.59
  -7  -2   3  335.47   64.19
   6   2  -3 1029.60   47.30
   6   2  -3 1049.20   54.29
   6   2  -3 1083.19   84.19
   6   2  -3 1059.89   58.09
   6   2  -3  865.61  135.39
  -6  -2   3 1064.89   87.29
  -6  -2   3 1048.00   59.29
  -6  -2   3 1075.79   55.99
  -6  -2   3  974.50   86.49
   5   2  -3  682.43  110.59
   5   2  -3  749.03   35.30
   5   2  -3  737.73   42.00
   5   2  -3  806.62   44.80
   5   2  -3  768.92   60.39
  -5  -2   3  724.43   65.79
  -5  -2   3  722.23   45.80
  -5  -2   3  756.22   72.89
  -5  -2   3  777.92   42.50
   4   2  -3   -6.30   20.60
   4   2  -3    0.10    6.70
   4   2  -3    9.60    8.30
   4   2  -3    4.70    6.90
   4   2  -3   -0.70   10.10
   4   2  -3    1.30    6.50
  -4  -2   3    5.50    8.50
  -4  -2   3   -2.40    5.00
  -4  -2   3   16.40   19.60
  -4  -2   3   -3.70    7.80
   3   2  -3 1747.43   82.69
   3   2  -3 1648.64  136.79
   3   2  -3 1719.63   63.09
   3   2  -3 1663.53   61.29
   3   2  -3 1701.43   53.39
  -3  -2   3 1728.93  101.49
  -3  -2   3 1765.72   61.79
  -3  -2   3 1701.33   66.49
  -3  -2   3 1636.84   99.79
   2   2  -3 6290.57  176.78
   2   2  -3 6086.39  176.38
   2   2  -3 6087.59  180.18
  -2  -2   3 6003.20  183.58
  -2  -2   3 6286.97  279.37
  -2  -2   3 6273.87  176.78
  -2  -2   3 6154.68  179.88
  -2  -2   3 5960.90  286.27
   1   2  -3 1126.29   38.70
   1   2  -3 1171.98   38.80
   1   2  -3 1090.39   38.10
   1   2  -3 1106.99   40.50
   1   2  -3 1173.18   40.00
  -1  -2   3 1093.29   38.00
  -1  -2   3 1182.68   82.79
  -1  -2   3 1147.79   68.99
  -1  -2   3 1111.99   54.69
  -1  -2   3 1173.18   39.30
  -1  -2   3 1159.18   41.90
   0   2  -3 1564.14   47.30
   0   2  -3 1551.34   47.80
   0   2  -3 1602.34   53.29
   0   2  -3 1579.54   58.39
   0   2  -3 1450.65   48.90
   0  -2   3 1561.34   47.00
   0  -2   3 1586.94   48.40
   0  -2   3 1666.73   51.19
   0  -2   3 1555.24   47.00
   0  -2   3 1567.24   81.39
  -1   2  -3 2666.73   75.69
  -1   2  -3 2692.43   76.19
  -1   2  -3 2684.93   85.79
   1  -2   3 2606.04   79.79
   1  -2   3 2504.45   79.09
   1  -2   3 2568.24   76.79
   1  -2   3 2630.34  135.29
   1  -2   3 2651.23   75.19
  -2   2  -3 1904.61   59.69
  -2   2  -3 1876.51   59.69
  -2   2  -3 1931.51   70.99
  -2   2  -3 1818.32   59.89
   2  -2   3 1857.71  110.39
   2  -2   3 1942.71   59.99
   2  -2   3 1891.01  120.39
   2  -2   3 1896.21   62.39
   2  -2   3 1968.80   62.39
  -3   2  -3  164.78   14.10
  -3   2  -3  136.49   12.40
  -3   2  -3  133.19   13.30
  -3   2  -3  155.08   12.90
   3  -2   3   95.79   26.30
   3  -2   3  122.99   26.10
   3  -2   3  126.99   12.80
   3  -2   3  146.39   12.70
   3  -2   3  150.58   14.30
   3  -2   3  125.49   15.20
   3  -2   3  131.09   12.20
  -4   2  -3  310.37   21.60
  -4   2  -3  325.17   20.20
  -4   2  -3  305.07   21.90
  -4   2  -3  313.67   22.30
   4  -2   3  290.47   43.10
   4  -2   3  387.36   61.19
   4  -2   3  281.77   22.00
   4  -2   3  344.17   21.80
  -5   2  -3 1449.15   60.39
  -5   2  -3 1481.35   60.39
   5  -2   3 1460.15  133.39
   5  -2   3 1523.75   59.49
   5  -2   3 1497.95  114.59
   5  -2   3 1382.36   62.49
  -6   2  -3  694.93   41.60
   6  -2   3  708.43   83.29
   6  -2   3  645.34   41.80
   6  -2   3  654.83   99.89
  -7   2  -3   35.60   15.20
   7  -2   3   48.10   17.60
   7  -2   3   35.90   31.30
   7  -2   3  -31.80   32.50
  -8   2  -3  288.37   35.60
  -8   2  -3  277.57   39.20
   8  -2   3  267.67   35.60
   8  -2   3  294.37   29.00
   8  -2   3  189.28   55.79
  -9   2  -3  328.47   51.69
   9  -2   3  282.47   34.80
   9   1  -3  442.46   39.90
   9   1  -3  463.05   45.30
   9   1  -3  274.87   99.99
   9   1  -3  447.06   45.40
  -9  -1   3  457.35   45.30
  -9  -1   3  464.15   46.50
   8   1  -3  259.57   28.70
   8   1  -3  144.79   64.49
   8   1  -3  254.57   32.70
   8   1  -3  215.98   34.90
  -8  -1   3  289.17   34.90
  -8  -1   3  227.68   37.20
   7   1  -3  432.26   34.50
   7   1  -3  325.37   86.99
   7   1  -3  434.96   38.60
   7   1  -3  269.87   52.49
   7   1  -3  417.86   31.30
  -7  -1   3  367.86   56.09
  -7  -1   3  380.76   33.20
  -7  -1   3  314.27   55.19
  -7  -1   3  435.66   40.70
   6   1  -3    5.20   16.10
   6   1  -3    5.20    9.10
   6   1  -3    2.60    7.70
   6   1  -3    2.20   37.50
   6   1  -3   -1.40    9.70
  -6  -1   3   21.30   20.20
  -6  -1   3   -0.10   12.80
  -6  -1   3    1.60   14.10
  -6  -1   3   22.00   12.70
   5   1  -3 2326.37   85.19
   5   1  -3 2084.79  191.58
   5   1  -3 2143.69  129.19
   5   1  -3 2366.86   88.09
   5   1  -3 2269.37   74.29
  -5  -1   3 2317.17   85.49
  -5  -1   3 2344.27   91.89
  -5  -1   3 2297.17  135.79
  -5  -1   3 2302.47  129.59
   4   1  -3 1645.84   64.49
   4   1  -3 1614.94   92.69
   4   1  -3 1557.74  144.29
   4   1  -3 1614.04   62.29
   4   1  -3 1689.43   55.59
  -4  -1   3 1626.04   96.29
  -4  -1   3 1679.93   63.39
  -4  -1   3 1735.03   69.19
  -4  -1   3 1728.93  105.49
   3   1  -3  740.13   33.50
   3   1  -3  787.62   79.69
   3   1  -3  766.82   43.90
   3   1  -3  774.92   34.90
   3   1  -3  741.33   29.00
  -3  -1   3  747.83   56.99
  -3  -1   3  755.82   33.40
  -3  -1   3  685.13   51.69
  -3  -1   3  761.12   37.50
   2   1  -3 3520.85  107.49
   2   1  -3 3597.04  212.48
   2   1  -3 3523.85  109.69
   2   1  -3 3495.35  107.29
  -2  -1   3 3715.53  211.68
  -2  -1   3 3534.55  113.29
  -2  -1   3 3737.73  110.09
  -2  -1   3 3677.63  108.19
  -2  -1   3 3611.04  172.08
   1   1  -3 8698.03  249.18
   1   1  -3 9771.62  418.26
   1   1  -3 8903.11  257.07
   1   1  -3 8233.18  387.56
   1   1  -3 8926.31  246.88
   1   1  -3 9056.69  254.67
   1   1  -3 9164.38  250.27
  -1  -1   3 8726.03  390.26
  -1  -1   3 9069.99  258.17
  -1  -1   3 8964.20  249.78
  -1  -1   3 9294.47  255.17
  -1  -1   3 9180.58  467.85
  -1  -1   3 8708.83  399.16
  -1  -1   3 9693.23  465.15
  -1  -1   3 9242.08  249.08
   0   1  -3   45.90    6.70
   0   1  -3   33.30    6.80
   0   1  -3   35.50   10.40
   0   1  -3   35.60    6.80
   0   1  -3   32.50    7.20
   0   1  -3   43.70    8.40
   0  -1   3   39.50    8.00
   0  -1   3   25.40    9.30
   0  -1   3   32.80    9.80
   0  -1   3   44.90    7.10
  -1   1  -3   49.40    8.20
  -1   1  -3   57.29    7.50
  -1   1  -3   57.59    8.20
  -1   1  -3   65.59    9.40
   1  -1   3   57.99    9.30
   1  -1   3   37.70   13.20
   1  -1   3   53.19   13.60
   1  -1   3   37.00   11.00
   1  -1   3   61.69    8.70
   1  -1   3   65.19    8.10
   1  -1   3   55.79    8.00
  -2   1  -3 1182.68   81.49
  -2   1  -3 1159.68   42.30
  -2   1  -3 1130.39   42.10
  -2   1  -3 1168.38   43.20
   2  -1   3 1185.78   67.59
   2  -1   3  963.10   79.79
   2  -1   3 1136.09   44.00
   2  -1   3 1164.18   78.89
   2  -1   3 1220.68   42.90
   2  -1   3 1162.68   44.80
  -3   1  -3 1711.63   60.09
  -3   1  -3 1631.94   59.69
  -3   1  -3 1672.63   61.29
   3  -1   3 1724.23   60.09
   3  -1   3 1742.73  122.09
   3  -1   3 1490.95  105.89
   3  -1   3 1639.54   62.79
  -4   1  -3  431.76   27.30
  -4   1  -3  372.86   26.40
   4  -1   3  368.56   49.80
   4  -1   3  401.46   28.30
   4  -1   3  391.66   24.90
   4  -1   3  435.96   66.19
  -5   1  -3   21.00   11.30
  -5   1  -3   44.40   12.50
   5  -1   3    9.30   27.00
   5  -1   3   12.70   11.00
   5  -1   3    4.30   20.30
   5  -1   3   18.20   10.40
  -6   1  -3 1039.20   54.39
  -6   1  -3 1061.99   55.19
   6  -1   3  963.20  118.99
   6  -1   3 1013.60   57.49
   6  -1   3 1006.90  104.49
   6  -1   3 1005.20   52.19
  -7   1  -3 1276.27   65.19
   7  -1   3 1100.49  137.79
   7  -1   3 1132.99   66.59
   7  -1   3  994.20  115.19
  -8   1  -3   -5.80   17.10
   8  -1   3  -44.20   25.10
   8  -1   3    0.60    9.80
   8  -1   3    2.50   15.30
  -9   1  -3  103.89   32.10
  10   0  -3  403.36   39.00
   9   0  -3  162.38   30.70
   9   0  -3  251.67   34.00
   9   0  -3  249.38   39.80
   9   0  -3  115.79   76.79
  -9   0   3  180.48   32.70
  -9   0   3  254.57   35.40
   8   0  -3  443.66   35.20
   8   0  -3  237.98   84.49
   8   0  -3  395.26   36.80
   8   0  -3  396.66   37.70
  -8   0   3  422.36   42.20
  -8   0   3  415.76   36.90
   7   0  -3 1498.55  108.49
   7   0  -3 1416.26   60.39
   7   0  -3 1504.55   68.79
   7   0  -3 1244.88  168.38
   7   0  -3 1450.65   70.89
  -7   0   3 1347.17   95.49
  -7   0   3 1418.36  111.99
  -7   0   3 1411.66   73.59
  -7   0   3 1427.56   67.69
   6   0  -3  426.66   28.50
   6   0  -3  524.95   52.49
   6   0  -3  491.05   34.00
   6   0  -3  438.56   32.90
   6   0  -3  413.26   87.89
  -6   0   3  429.66   54.39
  -6   0   3  444.66   35.00
  -6   0   3  441.46   45.60
  -6   0   3  496.35   33.30
   5   0  -3   53.39   12.70
   5   0  -3   50.19   39.00
   5   0  -3   42.20   11.60
   5   0  -3   54.59   10.90
   5   0  -3   36.00   14.80
  -5   0   3   34.90   24.60
  -5   0   3   52.29   13.90
  -5   0   3   24.50   11.90
  -5   0   3   51.79   15.00
   4   0  -3 1046.20   62.89
   4   0  -3 1005.40   38.40
   4   0  -3 1008.20   43.60
   4   0  -3 1044.10   45.10
   4   0  -3  984.60  101.09
  -4   0   3  973.10   43.60
  -4   0   3 1040.70   48.20
  -4   0   3  988.10   62.29
  -4   0   3 1017.00   72.09
   3   0  -3 1956.70  137.99
   3   0  -3 1825.32   65.09
   3   0  -3 1888.41   64.09
  -3   0   3 1815.62  102.59
  -3   0   3 1851.81   69.19
  -3   0   3 1842.32   96.89
  -3   0   3 1899.31   64.59
   2   0  -3 2599.64  154.58
   2   0  -3 2608.54  153.58
   2   0  -3 2433.86   77.79
   2   0  -3 2434.96   77.29
   2   0  -3 2466.75   79.39
   2   0  -3 2591.54  117.09
  -2   0   3 2441.86   82.79
  -2   0   3 2615.54  149.88
  -2   0   3 2096.99   76.39
  -2   0   3 2567.84   79.59
  -2   0   3 2577.04  124.39
   1   0  -3 4518.85  129.09
   1   0  -3 4291.47  125.19
   1   0  -3 4216.38  237.28
   1   0  -3 4185.58  199.88
   1   0  -3 4463.45  228.08
   1   0  -3 4141.39  129.59
   1   0  -3 4229.18  125.29
  -1   0   3 4342.67  225.88
  -1   0   3 4623.04  201.18
  -1   0   3 4418.46  131.89
  -1   0   3 4352.96  124.39
  -1   0   3 4334.67  196.78
  -1   0   3 4573.34  126.89
  -1   0   3 3775.12  233.58
  -1   0   3 4288.67  127.59
   0   0  -3 7427.86  230.38
   0   0  -3 7860.81  238.18
   0   0  -3 7852.11  377.86
   0   0  -3 8517.85  424.46
   0   0  -3 7937.51  232.08
   0   0   3 8855.01  380.26
   0   0   3 8323.77  230.98
   0   0   3 8379.26  240.28
   0   0   3 8453.55  423.76
   0   0   3 8408.06  232.58
   0   0   3 8504.65  237.68
  -1   0  -3 8606.84  261.07
  -1   0  -3 9465.55  481.05
  -1   0  -3 9999.00  474.65
  -1   0  -3 9853.51  263.87
  -1   0  -3 8890.11  267.47
   1   0   3 9024.30  270.07
   1   0   3 9018.60  471.85
   1   0   3 9780.22  269.97
   1   0   3 9372.06  262.67
   1   0   3 9499.35  480.15
  -2   0  -3  162.28   29.90
  -2   0  -3  161.68   15.10
  -2   0  -3  155.78   15.50
  -2   0  -3  163.98   15.50
   2   0   3  150.28   13.60
   2   0   3  161.58   31.50
   2   0   3  158.98   15.40
   2   0   3  152.78   14.90
   2   0   3  184.38   34.40
  -3   0  -3  289.87   39.90
  -3   0  -3  310.77   23.30
  -3   0  -3  278.27   22.10
   3   0   3  314.87   24.40
   3   0   3  312.87   43.20
   3   0   3  324.87   51.79
   3   0   3  313.97   22.40
  -4   0  -3 2010.40   76.89
  -4   0  -3 2119.89   79.69
  -4   0  -3 2047.80  128.09
   4   0   3 1867.21  136.79
   4   0   3 2157.98  156.68
   4   0   3 2021.40   76.19
   4   0   3 1965.00   80.59
  -5   0  -3  477.75   34.60
  -5   0  -3  495.85   35.80
   5   0   3  499.05   33.70
   5   0   3  475.35   35.40
   5   0   3  434.06   77.39
   5   0   3  454.75   69.09
  -6   0  -3   24.60   15.30
  -6   0  -3   28.20   15.60
   6   0   3   27.40   14.20
   6   0   3   47.70   18.60
   6   0   3   14.60   27.50
   6   0   3   15.00   30.90
  -7   0  -3   34.10   18.50
   7   0   3    6.30   32.70
   7   0   3   39.20   18.80
   7   0   3   10.70   36.90
   8   0   3  438.26  105.39
   8   0   3  540.45  101.69
   8   0   3  656.03   47.60
   9  -1  -3  326.67  106.39
   9  -1  -3  397.66   39.40
   9  -1  -3  519.75   40.20
   9  -1  -3  437.66   41.80
  -9   1   3  498.95   43.90
  -9   1   3  469.85   43.60
   8  -1  -3  703.43   73.29
   8  -1  -3  673.03   42.10
   8  -1  -3  643.74   46.80
   8  -1  -3  563.24   42.80
  -8   1   3  619.34   45.90
  -8   1   3  631.04   47.60
   7  -1  -3   16.60   13.90
   7  -1  -3   -1.40    8.40
   7  -1  -3    5.50   11.70
   7  -1  -3   15.20   11.00
   7  -1  -3  -20.80   28.20
  -7   1   3    1.60   12.30
  -7   1   3  -18.40   11.70
  -7   1   3   -9.90   22.50
  -7   1   3   13.90   12.80
   6  -1  -3  940.21   72.69
   6  -1  -3  890.01  118.19
   6  -1  -3  976.00   50.19
   6  -1  -3  859.01   41.50
   6  -1  -3  886.61   46.40
  -6   1   3  899.21   50.49
  -6   1   3  946.91   62.49
  -6   1   3  894.91   46.60
  -6   1   3  949.60   81.59
   5  -1  -3 1631.14   65.89
   5  -1  -3 1595.34   63.19
   5  -1  -3 1508.85  150.78
   5  -1  -3 1590.84   56.89
  -5   1   3 1647.44   69.59
  -5   1   3 1606.44  104.79
  -5   1   3 1663.63   86.89
  -5   1   3 1607.34   63.79
  -5   1   3 1575.24   49.80
   4  -1  -3  688.03   34.80
   4  -1  -3  678.33   85.89
   4  -1  -3  703.43   33.90
   4  -1  -3  736.33   72.39
  -4   1   3  713.23   56.09
  -4   1   3  670.03   42.90
  -4   1   3  702.23   34.50
  -4   1   3  710.93   37.50
   3  -1  -3  172.68   41.80
   3  -1  -3  163.88   14.20
   3  -1  -3  200.68   42.40
   3  -1  -3  156.38   14.50
  -3   1   3  179.08   14.50
  -3   1   3  179.48   16.50
  -3   1   3  172.98   28.50
   2  -1  -3 2025.50  124.29
   2  -1  -3 1991.00   98.99
   2  -1  -3 2047.10   66.99
   2  -1  -3 1680.23  124.69
   2  -1  -3 2087.19  100.69
   2  -1  -3 1959.50   63.89
   2  -1  -3 1905.01   64.69
  -2   1   3 1934.11   68.89
  -2   1   3 1950.50   99.19
  -2   1   3 2028.50  120.39
  -2   1   3 1976.10   65.49
   1  -1  -3 4617.04  140.29
   1  -1  -3 4452.95  135.79
   1  -1  -3 4541.25  249.08
   1  -1  -3 4815.22  243.18
   1  -1  -3 4627.44  135.49
   1  -1  -3 4751.12  216.88
   1  -1  -3 4161.28  138.29
  -1   1   3 4890.81  143.69
  -1   1   3 4818.02  140.19
  -1   1   3 4728.73  134.39
  -1   1   3 4268.57  212.28
  -1   1   3 3939.91  134.99
  -1   1   3 4646.33  250.87
  -1   1   3 4838.52  205.68
   0  -1  -3  304.37   20.50
   0  -1  -3  267.37   19.70
   0  -1  -3  303.87   34.60
   0   1   3  342.27   34.50
   0   1   3  293.17   19.00
   0   1   3  298.07   19.90
   0   1   3  288.37   33.40
   0   1   3  303.57   22.20
  -1  -1  -3 1917.91   67.79
  -1  -1  -3 1995.70   70.39
  -1  -1  -3 1984.30  112.49
  -1  -1  -3 2011.90  116.79
  -1  -1  -3 2063.79  123.49
   1   1   3 2074.59  116.19
   1   1   3 1959.40   72.99
   1   1   3 2106.09  121.99
   1   1   3 1999.30   69.09
  -2  -1  -3 2349.26   83.29
  -2  -1  -3 2217.58   79.69
  -2  -1  -3 2325.37  130.49
  -2  -1  -3 2406.76  133.99
   2   1   3 2430.16  149.99
   2   1   3 2421.96   81.09
   2   1   3 2291.67  142.69
   2   1   3 2265.57   84.59
  -3  -1  -3  649.14   46.90
  -3  -1  -3  726.83   38.30
  -3  -1  -3  755.12   69.89
  -3  -1  -3  666.53   36.00
   3   1   3  759.22   41.60
   3   1   3  651.63   71.49
   3   1   3  750.22   79.09
   3   1   3  651.83   36.30
  -4  -1  -3   -3.90   13.00
  -4  -1  -3    2.90    8.00
  -4  -1  -3   -4.80    6.10
   4   1   3    1.10   21.20
   4   1   3   -6.50   21.20
   4   1   3    3.90   10.80
   4   1   3    1.70    9.20
  -5  -1  -3  423.06   33.70
  -5  -1  -3  393.76   56.79
  -5  -1  -3  349.07   32.30
   5   1   3  438.36   35.80
   5   1   3  384.06   69.19
   5   1   3  379.96   73.19
   5   1   3  336.27   30.80
  -6  -1  -3  816.12   52.29
  -6  -1  -3  821.92   53.79
  -6  -1  -3  769.82   87.69
   6   1   3  852.91  109.99
   6   1   3  739.03   49.00
   6   1   3  833.62   56.59
   6   1   3  736.93   98.79
  -7  -1  -3  177.48   29.60
   7   1   3  121.49   51.69
   7   1   3  154.08   52.79
   7   1   3  265.77   37.40
   8   1   3    6.40   16.50
   9  -2  -3   66.49   25.80
   9  -2  -3   10.90   16.20
   9  -2  -3   17.30   15.30
   9  -2  -3  -31.70   57.59
  -9   2   3   47.30   20.80
   8  -2  -3  697.93   72.99
   8  -2  -3  514.25  118.09
   8  -2  -3  617.64   43.10
   8  -2  -3  655.93   47.70
   8  -2  -3  671.03   40.60
  -8   2   3  702.63   47.00
  -8   2   3  639.34   48.00
   7  -2  -3  780.22  137.29
   7  -2  -3  952.50   52.39
   7  -2  -3  868.01   44.20
   7  -2  -3  976.90   80.39
   7  -2  -3  965.40   49.40
  -7   2   3  966.60   55.59
  -7   2   3  958.70   51.89
   6  -2  -3  496.25   33.40
   6  -2  -3  522.45   32.20
   6  -2  -3  483.75  101.59
  -6   2   3  525.95   56.29
  -6   2   3  481.75   36.10
  -6   2   3  559.84   35.20
  -6   2   3  489.35   35.40
   5  -2  -3  303.57   55.59
   5  -2  -3  267.37   22.10
   5  -2  -3  270.77   23.20
   5  -2  -3  180.68   50.99
  -5   2   3  254.27   21.30
  -5   2   3  255.77   24.40
  -5   2   3  261.77   20.90
  -5   2   3  289.17   39.40
   4  -2  -3 3207.28  102.19
   4  -2  -3 2869.11  196.98
   4  -2  -3 3216.18  105.59
   4  -2  -3 3112.99  213.48
  -4   2   3 3154.88  141.79
  -4   2   3 3333.07  160.48
  -4   2   3 3181.78  103.49
  -4   2   3 3391.06  110.99
   3  -2  -3 4211.18  248.08
   3  -2  -3 4314.87  257.97
   3  -2  -3 4327.47  130.39
   3  -2  -3 4421.76  135.09
  -3   2   3 4254.07  138.09
  -3   2   3 4471.65  132.69
  -3   2   3 4405.16  200.28
   2  -2  -3  260.67   23.90
   2  -2  -3  256.57   35.60
   2  -2  -3  266.67   20.30
   2  -2  -3  257.17   17.80
   2  -2  -3  269.77   37.20
  -2   2   3  250.97   20.60
  -2   2   3  281.27   25.50
  -2   2   3  270.77   18.60
  -2   2   3  286.37   27.30
   1  -2  -3 3420.36  117.99
   1  -2  -3 3837.72  183.38
   1  -2  -3 3841.42  216.68
  -1   2   3 3757.32  126.79
  -1   2   3 3885.81  121.79
  -1   2   3 3970.90  173.08
  -1   2   3 4121.19  185.48
  -1   2   3 4161.68  194.28
   0  -2  -3 3833.12  212.18
   0  -2  -3 3979.90  188.48
   0  -2  -3 3795.12  121.99
   0   2   3 3711.53  119.49
   0   2   3 3962.30  199.48
   0   2   3 3633.24  125.59
  -1  -2  -3 1322.47   53.89
  -1  -2  -3 1272.27   85.79
  -1  -2  -3 1243.58   51.19
  -1  -2  -3 1331.57   87.39
   1   2   3 1356.76   52.59
   1   2   3 1282.17   56.19
   1   2   3 1331.97   90.79
   1   2   3 1224.88   91.69
  -2  -2  -3   25.80    9.60
  -2  -2  -3   15.50   10.30
  -2  -2  -3   22.90   18.50
  -2  -2  -3    9.00   10.20
   2   2   3   13.40   10.50
   2   2   3   16.00   23.90
   2   2   3   16.00   10.50
  -3  -2  -3 1095.19   75.49
  -3  -2  -3 1120.69   92.29
  -3  -2  -3 1086.79   54.39
  -3  -2  -3 1113.79   52.99
   3   2   3 1070.79   52.19
   3   2   3 1153.48   58.09
   3   2   3 1270.47  105.89
  -4  -2  -3  973.50   54.49
  -4  -2  -3 1001.80   53.09
  -4  -2  -3 1052.69   93.79
   4   2   3 1122.69  102.39
   4   2   3 1073.29   59.19
   4   2   3  987.60   52.29
  -5  -2  -3  340.67   35.10
  -5  -2  -3  377.86   35.60
  -5  -2  -3  310.67   63.09
   5   2   3  396.96   75.89
   5   2   3  357.96   33.30
   5   2   3  402.26   37.00
  -6  -2  -3   32.10   16.10
  -6  -2  -3  -29.40   21.60
  -6  -2  -3   27.70   17.90
   6   2   3   13.80   17.00
   6   2   3    9.80   14.90
   6   2   3   24.00   32.20
  -7  -2  -3  411.76   44.40
  -7  -2  -3  242.98   54.19
   7   2   3  418.96   42.90
   7   2   3  488.55   48.00
   7   2   3  305.27   77.19
   9  -3  -3  441.76  118.69
   9  -3  -3  800.32   80.99
   9  -3  -3  602.94   49.10
  -9   3   3  674.93   49.60
   8  -3  -3   86.19   19.90
   8  -3  -3   20.20   54.29
   8  -3  -3   76.99   18.30
  -8   3   3   92.99   19.80
  -8   3   3  113.89   23.20
   7  -3  -3  390.66   28.90
   7  -3  -3  223.18   71.29
   7  -3  -3  362.86   30.30
  -7   3   3  365.96   31.50
  -7   3   3  357.86   30.90
   6  -3  -3 1470.75  130.49
   6  -3  -3 1563.04   67.49
   6  -3  -3 1573.14   64.39
   6  -3  -3 1399.06  156.28
  -6   3   3 1665.23  108.59
  -6   3   3 1720.83   72.29
  -6   3   3 1596.64   66.59
   5  -3  -3  957.20   43.10
   5  -3  -3  906.91  108.99
   5  -3  -3  893.21   90.29
   5  -3  -3  901.81   44.40
  -5   3   3 1027.60   71.89
  -5   3   3 1024.20   34.20
  -5   3   3 1007.60   48.80
  -5   3   3  962.80   45.50
   4  -3  -3   19.30   19.20
   4  -3  -3    0.80    7.10
   4  -3  -3   -0.10    6.80
   4  -3  -3   -7.80   17.10
  -4   3   3    2.00    7.70
  -4   3   3   -0.40    8.00
  -4   3   3   13.40   13.90
   3  -3  -3 1384.06   75.29
   3  -3  -3 1351.96   51.19
   3  -3  -3 1413.36   55.59
   3  -3  -3 1379.76  102.09
   3  -3  -3 1353.96  109.09
  -3   3   3 1424.16   76.99
  -3   3   3 1403.16   69.49
  -3   3   3 1371.96   53.59
  -3   3   3 1397.06   56.59
   2  -3  -3 1261.47   93.19
   2  -3  -3 1200.18   47.20
   2  -3  -3 1226.58   62.99
   2  -3  -3 1336.07   70.39
   2  -3  -3 1067.39   49.40
  -2   3   3 1244.48   68.99
  -2   3   3 1155.48   49.99
  -2   3   3 1262.57   53.19
  -2   3   3 1187.28   62.79
   1  -3  -3 1079.09   82.09
   1  -3  -3  961.70   43.70
   1  -3  -3  997.20   46.70
   1  -3  -3 1028.30   66.99
  -1   3   3 1058.29   46.40
  -1   3   3 1015.40   52.49
  -1   3   3 1094.59   74.99
  -1   3   3  975.60   48.80
  -1   3   3 1122.49   44.70
   0  -3  -3   29.30   14.10
   0  -3  -3   38.50   16.10
   0  -3  -3   42.50   10.70
   0   3   3   34.40   10.40
   0   3   3   44.40   21.60
   0   3   3   38.80   13.20
  -1  -3  -3 1955.60  125.49
  -1  -3  -3 1932.21   73.09
  -1  -3  -3 2039.30   76.69
  -1  -3  -3 2062.39  119.39
   1   3   3 1897.51   73.19
   1   3   3 1836.32   77.69
   1   3   3 2022.70  132.39
  -2  -3  -3 1819.22  120.29
  -2  -3  -3 1790.52   71.29
  -2  -3  -3 1813.02  117.39
  -2  -3  -3 1832.42   75.09
   2   3   3 1773.72  132.69
   2   3   3 1854.91   78.79
   2   3   3 1757.52   71.59
  -3  -3  -3  227.38   24.60
  -3  -3  -3  214.48   23.00
  -3  -3  -3  216.48   44.40
  -3  -3  -3  193.58   32.30
   3   3   3  202.68   49.80
   3   3   3  221.58   28.40
   3   3   3  230.18   25.30
  -4  -3  -3  349.27   64.69
  -4  -3  -3  350.26   33.60
  -4  -3  -3  368.36   35.20
   4   3   3  373.96   33.40
   4   3   3  384.36   75.59
   4   3   3  369.86   37.70
  -5  -3  -3  781.72   50.79
  -5  -3  -3  818.92   55.79
  -5  -3  -3  768.22   86.39
   5   3   3  925.01  110.39
   5   3   3  786.72   52.29
   5   3   3  803.42   56.49
  -6  -3  -3  212.38   34.90
  -6  -3  -3   83.69   39.50
  -6  -3  -3  197.38   33.20
   6   3   3  207.28   29.00
   6   3   3  165.68   61.19
   6   3   3  284.47   38.90
   7   3   3  -69.39   40.20
   7   3   3   -3.40   17.70
   9  -4  -3  117.69   77.09
   9  -4  -3  194.68   31.30
  -9   4   3  209.18   29.70
   8  -4  -3  833.32  155.68
   8  -4  -3 1072.59   59.49
   8  -4  -3  992.80   52.59
  -8   4   3 1102.79   57.19
   7  -4  -3  505.25   82.99
   7  -4  -3  413.46  108.89
   7  -4  -3  564.04   35.70
   7  -4  -3  486.35   36.50
  -7   4   3  581.14   39.80
  -7   4   3  538.35   37.40
   6  -4  -3  314.57   83.59
   6  -4  -3  304.77   27.00
   6  -4  -3  298.87   23.40
  -6   4   3  328.07   28.60
  -6   4   3  337.57   27.50
   5  -4  -3  655.53   35.00
   5  -4  -3  666.43   37.30
   5  -4  -3  760.22   84.99
   5  -4  -3  634.94   92.99
  -5   4   3  697.63   36.70
  -5   4   3  696.13   40.00
   4  -4  -3 2061.49   72.19
   4  -4  -3 2157.08  145.39
   4  -4  -3 2052.89   76.49
   4  -4  -3 1939.61  155.78
  -4   4   3 2056.69   78.89
  -4   4   3 2156.98  109.79
  -4   4   3 1989.20   73.99
   3  -4  -3  879.51   43.10
   3  -4  -3  878.31   88.09
   3  -4  -3  872.31   38.50
   3  -4  -3  882.71   78.79
   3  -4  -3  897.61   51.79
  -3   4   3  908.51   42.10
  -3   4   3  862.01   50.89
  -3   4   3  873.61   52.09
  -3   4   3  818.12   42.30
   2  -4  -3  373.86   25.00
   2  -4  -3  375.36   37.20
   2  -4  -3  343.17   46.30
  -2   4   3  361.46   28.30
  -2   4   3  379.36   24.40
  -2   4   3  359.96   26.00
   1  -4  -3 1665.93   69.79
   1  -4  -3 1820.22  124.69
   1  -4  -3 1736.03   67.69
   1  -4  -3 1896.01  105.09
  -1   4   3 1733.83   75.59
  -1   4   3 1729.43   70.09
  -1   4   3 1847.42   70.39
  -1   4   3 1754.42   75.49
   0  -4  -3 4367.56  146.09
   0  -4  -3 4490.05  255.97
   0  -4  -3 4426.96  225.18
   0   4   3 4422.16  147.49
   0   4   3 4323.57  143.59
   0   4   3 4364.46  151.98
   0   4   3 4548.54  192.28
   0   4   3 4860.61  241.48
  -1  -4  -3   95.99   18.60
  -1  -4  -3  126.69   19.80
  -1  -4  -3  107.19   27.00
  -1  -4  -3   67.39   20.60
   1   4   3   90.79   18.80
   1   4   3  103.99   18.00
   1   4   3  105.29   20.70
   1   4   3  134.69   14.50
   1   4   3  114.99   33.50
  -2  -4  -3 1610.34  113.39
  -2  -4  -3 1605.84  113.79
  -2  -4  -3 1624.94   70.19
  -2  -4  -3 1727.83   74.09
   2   4   3 1558.34   70.09
   2   4   3 1589.24   76.09
   2   4   3 1641.04  130.79
  -3  -4  -3  981.20   90.29
  -3  -4  -3 1074.79   57.69
  -3  -4  -3 1049.99   54.89
  -3  -4  -3 1055.99   83.09
   3   4   3 1012.60   61.29
   3   4   3 1011.60   54.49
   3   4   3  891.81  104.49
  -4  -4  -3  383.56   38.40
  -4  -4  -3  361.96   33.70
   4   4   3  343.77   79.89
   4   4   3  354.76   33.30
   4   4   3  429.06   43.00
  -5  -4  -3    5.20   15.60
  -5  -4  -3  -44.60   23.70
  -5  -4  -3   14.80   17.40
   5   4   3   13.30   13.50
   5   4   3    3.70   11.90
   5   4   3  -44.20   35.20
  -6  -4  -3  172.38   33.50
  -6  -4  -3   96.59   43.40
  -6  -4  -3  258.77   34.50
   6   4   3  214.38   36.30
   6   4   3  241.98   42.50
   6   4   3  170.48   66.89
  10  -5  -3 1005.00   90.99
   9  -5  -3  301.27   34.30
   9  -5  -3  164.38   76.99
  -9   5   3  280.97   29.90
   8  -5  -3   -4.30   27.50
   8  -5  -3   22.50   14.30
   8  -5  -3  -16.90   42.00
  -8   5   3   32.00   12.50
   7  -5  -3  674.43   38.70
   7  -5  -3  615.94  119.59
   7  -5  -3  626.04   41.00
   7  -5  -3  448.16   86.49
  -7   5   3  697.33   42.90
  -7   5   3  699.13   42.30
   6  -5  -3 1559.54  164.08
   6  -5  -3 1775.42   67.79
   6  -5  -3 1709.63  143.49
   6  -5  -3 1684.13   70.69
  -6   5   3 1680.33   71.99
  -6   5   3 1665.93   69.79
   5  -5  -3  217.88   20.10
   5  -5  -3  185.48   51.19
   5  -5  -3  258.87   21.90
   5  -5  -3  317.97   61.89
  -5   5   3  234.48   22.40
  -5   5   3  234.88   23.10
   4  -5  -3  723.43   89.19
   4  -5  -3  689.43   77.69
   4  -5  -3  669.53   37.60
   4  -5  -3  615.84   32.90
  -4   5   3  690.83   36.90
  -4   5   3  659.03   37.90
   3  -5  -3 1485.55   57.89
   3  -5  -3 1486.65  118.39
   3  -5  -3 1528.75   84.59
   3  -5  -3 1389.36   62.79
  -3   5   3 1530.55   68.99
  -3   5   3 1486.85   62.99
  -3   5   3 1472.65   62.09
   2  -5  -3 1714.03   68.29
   2  -5  -3 1812.12  103.69
   2  -5  -3 1766.42  129.09
  -2   5   3 1725.23   72.19
  -2   5   3 1757.72   74.49
  -2   5   3 1742.23   74.89
   1  -5  -3    6.10   10.90
   1  -5  -3   25.50   12.50
   1  -5  -3   12.00   12.50
   1  -5  -3   11.40   15.00
  -1   5   3   24.50    9.90
  -1   5   3   15.40    9.90
  -1   5   3   11.40   12.00
   0  -5  -3  601.74   38.00
   0  -5  -3  630.44   61.19
   0  -5  -3  631.84   69.59
   0   5   3  634.44   37.20
   0   5   3  728.13   74.09
   0   5   3  693.53   43.70
   0   5   3  636.44   31.50
   0   5   3  591.04   37.80
  -1  -5  -3  735.03   44.60
  -1  -5  -3  735.43   43.80
  -1  -5  -3  823.92   78.59
  -1  -5  -3  761.62   77.29
   1   5   3  719.93   47.40
   1   5   3  776.32   79.49
   1   5   3  812.22   42.60
   1   5   3  805.12   46.30
  -2  -5  -3  966.00   54.79
  -2  -5  -3  859.01   81.99
  -2  -5  -3  810.02   48.00
  -2  -5  -3  835.02   87.69
   2   5   3  893.01   51.99
   2   5   3  889.51   92.79
   2   5   3  909.41   57.19
  -3  -5  -3   31.80   17.30
  -3  -5  -3   33.20   15.10
  -3  -5  -3    5.40   25.60
  -3  -5  -3   23.70   15.90
   3   5   3  -14.50   32.40
   3   5   3   29.50   18.00
   3   5   3   26.70   15.90
  -4  -5  -3  498.05   42.70
  -4  -5  -3  508.75   44.50
  -4  -5  -3  422.56   71.29
   4   5   3  461.25   47.90
   4   5   3  524.55   44.90
   4   5   3  316.67   73.19
  -5  -5  -3  452.75   42.80
  -5  -5  -3  445.86   45.30
   5   5   3  432.06   49.20
   5   5   3  411.46   44.00
   5   5   3  275.87   73.59
   6   5   3  -11.30   50.09
   9  -6  -3  537.55   43.90
   9  -6  -3  385.56  107.99
  -9   6   3  626.54   44.90
   8  -6  -3  368.46   32.20
   8  -6  -3  232.58   82.29
  -8   6   3  410.96   34.70
   7  -6  -3   12.60   29.60
   7  -6  -3   44.60   15.10
   7  -6  -3   33.40   44.40
  -7   6   3   38.00   14.80
   6  -6  -3  475.35   77.89
   6  -6  -3  427.26   31.90
   6  -6  -3  395.76   95.29
   6  -6  -3  470.15   29.90
  -6   6   3  470.35   33.00
  -6   6   3  429.56   32.00
   5  -6  -3 1359.46  119.19
   5  -6  -3 1434.76  143.49
   5  -6  -3 1351.16   56.39
   5  -6  -3 1386.26   61.19
  -5   6   3 1357.96   59.59
  -5   6   3 1434.66   62.59
   4  -6  -3  983.60   98.39
   4  -6  -3  971.00  109.69
   4  -6  -3  926.61   57.59
   4  -6  -3  919.61   42.50
   4  -6  -3  904.71   48.10
  -4   6   3  936.21   46.00
  -4   6   3  909.11   46.90
  -4   6   3  972.90   56.19
   3  -6  -3    0.50   13.60
   3  -6  -3    3.00    8.90
   3  -6  -3    0.20   10.20
   3  -6  -3    4.70   13.20
  -3   6   3    6.60    9.30
  -3   6   3    3.70    9.20
  -3   6   3   -4.90    7.70
   2  -6  -3 2015.90   84.99
   2  -6  -3 2099.79  120.29
   2  -6  -3 1927.71   77.49
   2  -6  -3 1971.70  147.89
  -2   6   3 2009.60   83.29
  -2   6   3 2058.59   87.89
  -2   6   3 2017.40   85.29
   1  -6  -3 1453.15   68.79
   1  -6  -3 1542.65   67.39
   1  -6  -3 1562.54  125.39
   1  -6  -3 1561.34  105.29
  -1   6   3 1459.55   68.19
  -1   6   3 1588.64   75.49
  -1   6   3 1562.24   72.39
   0  -6  -3  198.18   49.40
   0  -6  -3  211.08   26.10
   0  -6  -3  122.29   30.80
   0   6   3  192.18   27.80
   0   6   3  180.48   23.00
   0   6   3  209.18   23.70
  -1  -6  -3   94.89   20.00
  -1  -6  -3   60.79   27.60
  -1  -6  -3   91.59   29.20
  -1  -6  -3  102.59   21.40
   1   6   3   87.49   33.00
   1   6   3  125.39   23.10
   1   6   3  115.99   26.40
   1   6   3  122.09   21.40
  -2  -6  -3  890.71   54.59
  -2  -6  -3 1038.10   96.89
  -2  -6  -3  858.71   96.69
  -2  -6  -3 1023.20   60.59
   2   6   3  969.20   56.59
   2   6   3  969.70  104.79
   2   6   3  905.81   61.19
  -3  -6  -3  406.46   81.29
  -3  -6  -3  563.24   46.00
  -3  -6  -3  582.94   48.40
  -3  -6  -3  674.83   76.39
   3   6   3  427.56   85.19
   3   6   3  571.84   51.79
   3   6   3  600.84   48.10
  -4  -6  -3   22.50   19.80
  -4  -6  -3  -14.20   24.20
  -4  -6  -3   33.80   18.60
   4   6   3   53.69   24.80
   4   6   3   54.09   23.10
   4   6   3  -13.10   39.60
  -5  -6  -3  136.79   35.10
  -5  -6  -3  121.89   31.30
   5   6   3   96.09   29.80
   5   6   3  107.49   36.10
   5   6   3   21.40   50.79
 -11   7   3  258.27   49.90
 -10   7   3  422.86   52.09
   9  -7  -3  -21.70   50.49
   9  -7  -3    0.80   12.10
  -9   7   3    8.50   13.80
   8  -7  -3  481.95  111.39
   8  -7  -3  520.45   40.00
  -8   7   3  517.05   39.40
   7  -7  -3  832.72  114.79
   7  -7  -3  878.21   50.79
   7  -7  -3 1049.49  148.79
  -7   7   3 1014.50   66.99
  -7   7   3 1036.80   53.29
   6  -7  -3  276.07   73.19
   6  -7  -3  178.18   47.30
   6  -7  -3  282.47   26.90
  -6   7   3  292.57   34.10
  -6   7   3  342.57   28.50
   5  -7  -3   72.39   31.20
   5  -7  -3   93.59   18.50
   5  -7  -3   82.49   40.40
  -5   7   3  125.69   28.50
  -5   7   3   71.09   16.90
   4  -7  -3  756.62   44.60
   4  -7  -3  685.03   53.89
   4  -7  -3  761.22   90.69
   4  -7  -3  690.63   93.59
   4  -7  -3  692.23   37.60
  -4   7   3  711.63   42.10
  -4   7   3  694.03   40.70
  -4   7   3  731.03   50.89
   3  -7  -3  844.92   92.49
   3  -7  -3  942.61   45.80
   3  -7  -3  784.72   48.80
   3  -7  -3  833.92   68.19
  -3   7   3  835.62   47.60
  -3   7   3  911.81   56.69
  -3   7   3  974.60   52.09
   2  -7  -3  390.86   35.50
   2  -7  -3  377.06   53.09
   2  -7  -3  418.56   69.19
   2  -7  -3  382.96   30.90
  -2   7   3  423.16   35.70
  -2   7   3  407.56   36.40
  -2   7   3  410.46   36.30
   1  -7  -3   24.40   20.30
   1  -7  -3   34.00   20.90
   1  -7  -3   42.10   16.50
   1  -7  -3   58.19   16.80
  -1   7   3   27.10   15.60
  -1   7   3   33.70   17.00
  -1   7   3   48.30   16.10
   0  -7  -3 1064.49   57.79
   0  -7  -3 1124.19  100.19
   0  -7  -3 1177.58   63.59
   0  -7  -3 1190.18  113.79
   0   7   3 1198.98   67.49
   0   7   3 1091.29   61.69
   0   7   3 1173.58   63.79
  -1  -7  -3 1034.50  105.29
  -1  -7  -3  947.61   99.89
  -1  -7  -3  951.20   57.89
   1   7   3  936.81   62.19
   1   7   3  924.51   56.49
  -2  -7  -3   44.40   21.90
  -2  -7  -3   25.00   17.70
  -2  -7  -3   26.10   17.20
  -2  -7  -3  -17.20   27.40
   2   7   3   18.60   17.50
   2   7   3    7.80   16.70
  -3  -7  -3  388.96   41.90
  -3  -7  -3  416.86   41.20
  -3  -7  -3  217.58   56.19
   3   7   3  413.16   82.79
   3   7   3  381.36   43.30
   3   7   3  329.27   43.10
  -4  -7  -3  437.66   47.60
  -4  -7  -3  535.15   53.69
   4   7   3  410.86   46.70
   4   7   3  449.56   95.39
   4   7   3  441.16   48.90
 -10   8   3  144.09   39.00
   9  -8  -3  433.86   40.00
   9  -8  -3  347.77  101.69
  -9   8   3  468.75   39.30
  -9   8   3  472.65   52.89
   8  -8  -3  245.78   29.00
   8  -8  -3  163.38   65.49
  -8   8   3  254.57   28.50
  -8   8   3  231.28   43.50
   7  -8  -3   60.19   47.10
   7  -8  -3   35.80   36.90
   7  -8  -3  119.79   21.90
  -7   8   3  102.49   20.60
  -7   8   3  115.39   29.60
   6  -8  -3  799.72  100.19
   6  -8  -3  856.21   48.30
   6  -8  -3  892.01  129.69
  -6   8   3  793.02   60.89
  -6   8   3  856.91   47.50
   5  -8  -3  942.71   52.19
   5  -8  -3  954.40  106.59
   5  -8  -3 1023.80  129.79
  -5   8   3  934.31   49.99
  -5   8   3  909.81   63.69
   4  -8  -3   55.99   29.30
   4  -8  -3   30.60   14.60
  -4   8   3   19.70   13.20
   3  -8  -3  420.06   55.79
   3  -8  -3  483.15   38.90
   3  -8  -3  453.15   79.69
  -3   8   3  467.05   43.10
  -3   8   3  499.25   40.20
   2  -8  -3 1004.90   61.09
   2  -8  -3  963.00   88.99
   2  -8  -3 1129.59  117.49
  -2   8   3 1137.59   68.29
  -2   8   3 1090.29   61.59
   1  -8  -3  473.55   41.10
   1  -8  -3  472.95   37.50
   1  -8  -3  505.85   81.89
   1  -8  -3  402.46   64.49
  -1   8   3  511.15   42.90
  -1   8   3  444.36   41.80
  -1   8   3  432.96   41.90
   0  -8  -3   20.80   14.00
   0  -8  -3   12.90   21.20
   0  -8  -3   20.20   22.90
   0  -8  -3   32.10   17.80
   0   8   3   19.70   15.10
   0   8   3   36.10   16.10
   0   8   3   15.60   17.50
  -1  -8  -3  405.36   72.29
  -1  -8  -3  305.57   37.70
   1   8   3  285.27   37.20
  -2  -8  -3  617.34   82.19
  -2  -8  -3  432.66   43.40
   2   8   3  489.95   45.50
  -3  -8  -3  143.19   35.50
  -3  -8  -3   20.90   43.50
   3   8   3  111.09   29.50
 -10   9   3   33.60   27.20
  -9   9   3   56.49   30.00
  -9   9   3   92.39   23.40
   8  -9  -3  942.01  151.48
   8  -9  -3  450.65  117.19
   8  -9  -3  603.54   44.60
  -8   9   3  667.83   61.09
  -8   9   3  695.53   45.10
   7  -9  -3  472.55   98.09
   7  -9  -3  374.76   34.80
  -7   9   3  356.76   46.20
  -7   9   3  322.77   30.80
   6  -9  -3   12.80   24.00
   6  -9  -3   62.29   34.50
   6  -9  -3   28.80   14.30
  -6   9   3   27.40   15.00
  -6   9   3   16.60   15.00
   5  -9  -3  539.95   95.29
   5  -9  -3  414.66   86.09
   5  -9  -3  402.26   35.40
  -5   9   3  410.06   35.50
  -5   9   3  402.06   44.40
   4  -9  -3  887.11  115.79
   4  -9  -3  854.81   54.89
  -4   9   3  905.01   53.79
  -4   9   3  926.71   67.79
   3  -9  -3  236.68   50.99
   3  -9  -3  382.96   79.69
   3  -9  -3  308.97   34.10
  -3   9   3  320.07   35.70
  -3   9   3  301.97   39.10
   2  -9  -3   11.40   25.40
   2  -9  -3    6.20   14.70
   2  -9  -3  -39.10   17.70
  -2   9   3    5.50   14.40
  -2   9   3   -6.80   14.30
   1  -9  -3  619.14   94.19
   1  -9  -3  562.94   47.80
   1  -9  -3  552.84   80.89
  -1   9   3  585.54   51.49
  -1   9   3  640.64   50.29
   0  -9  -3  495.35   87.39
   0  -9  -3  593.24   50.59
   0   9   3  596.64   50.69
   0   9   3  675.13   52.99
  -1  -9  -3  -18.10   35.90
  -1  -9  -3   71.99   25.30
   1   9   3   57.89   25.70
  -2  -9  -3  358.06   59.29
 -10  10   3  208.58   47.80
  -9  10   3  174.28   41.20
   8 -10  -3  -16.90   11.10
  -8  10   3   -5.20   12.40
  -8  10   3   -5.40   19.10
   7 -10  -3  255.27   29.20
   7 -10  -3  184.08   62.59
  -7  10   3  290.37   31.00
  -7  10   3  305.77   46.30
   6 -10  -3  576.64   42.70
   6 -10  -3  556.24  105.89
  -6  10   3  533.15   55.79
  -6  10   3  589.54   40.50
   5 -10  -3   95.99   23.50
   5 -10  -3   86.99   44.70
  -5  10   3  152.58   25.50
  -5  10   3  119.99   31.60
   4 -10  -3    2.30   13.50
   4 -10  -3   22.30   33.00
  -4  10   3   45.40   18.90
  -4  10   3   61.69   27.20
   3 -10  -3  531.15   45.90
   3 -10  -3  540.85   89.99
  -3  10   3  494.45   52.79
  -3  10   3  460.45   43.90
   2 -10  -3  537.75   89.59
  -2  10   3  504.85   49.20
  -2  10   3  491.85   52.29
   1 -10  -3   62.19   33.90
   1 -10  -3   53.89   22.20
   1 -10  -3  -37.10   26.30
  -1  10   3   65.39   24.60
  -1  10   3   26.20   20.20
   0 -10  -3  113.99   27.60
   0  10   3  171.48   35.80
  -1 -10  -3  776.12  102.89
  -9  11   3   61.79   32.80
  -8  11   3  577.04   64.59
   7 -11  -3   36.40   16.60
  -7  11   3   47.50   28.20
  -7  11   3   42.90   17.40
   6 -11  -3  157.58   28.60
   6 -11  -3   33.60   44.60
  -6  11   3   80.79   33.60
  -6  11   3   82.29   21.10
   5 -11  -3  456.95   42.40
  -5  11   3  491.45   41.50
  -5  11   3  446.56   55.59
   4 -11  -3  558.14  104.69
   4 -11  -3  470.35   45.20
  -4  11   3  464.85   44.10
  -4  11   3  481.35   56.69
   3 -11  -3   10.30   29.80
   3 -11  -3   10.10   16.60
  -3  11   3   -4.40   15.70
  -3  11   3   22.60   18.60
   2 -11  -3   91.79   45.00
  -2  11   3  102.69   30.00
  -2  11   3   95.79   33.20
  -1  11   3  401.66   48.70
  -8  12   3    8.40   21.80
  -7  12   3  499.45   63.99
  -6  12   3  284.47   58.19
  -5  12   3   25.80   26.00
  -4  12   3  186.78   44.50
  -3  12   3  359.66   53.79
  -2  12   3   73.89   30.00
  -5  13   3  205.28   49.80
  -4  13   3   16.60   20.60
  -1  13  -4   38.60   29.20
  -2  13  -4  229.98   48.90
  -3  13  -4  149.59   43.50
  -4  13  -4    2.40   20.80
  -5  13  -4  240.58   51.79
  -1  12  -4   85.59   35.80
  -2  12  -4   12.70   19.10
  -3  12  -4  540.15   61.49
  -4  12  -4  336.17   47.30
  -5  12  -4   15.30   21.40
  -6  12  -4   48.00   26.30
  -6  12  -4   66.49   31.70
  -1 -11   4  113.69   22.30
  -1 -11   4  104.09   38.10
   0  11  -4  185.98   43.90
   0 -11   4  188.28   47.40
  -1  11  -4  533.05   58.39
   1 -11   4  881.51   98.39
   1 -11   4  759.72   83.69
   2 -11   4  381.76   51.99
   2 -11   4  326.27   54.69
   3 -11   4  386.86   47.30
   3 -11   4  262.77   36.30
   4 -11   4  374.36   59.69
   4 -11   4  505.05   55.99
  -5  11  -4  504.45   53.69
  -5  11  -4  544.55   51.69
  -6  11  -4  267.57   43.30
  -6  11  -4  302.37   45.50
  -7  11  -4   -1.60   16.20
  -7  11  -4   18.80   18.30
   3  10  -4  102.19   27.30
   2  10  -4  194.98   29.10
  -2 -10   4  198.38   27.00
  -2 -10   4  117.49   42.20
   1  10  -4  549.45   39.30
  -1 -10   4  567.74   39.80
  -1 -10   4  633.44   86.59
   0  10  -4  419.76   50.39
   0  10  -4  369.96   31.00
   0 -10   4  394.36   30.00
   0 -10   4  506.95   71.29
  -1  10  -4   -1.20   10.50
   1 -10   4   37.90   17.10
   1 -10   4   20.90   13.90
  -2  10  -4  334.17   43.80
   2 -10   4  543.95   62.19
   2 -10   4  404.26   64.49
  -3  10  -4  558.14   48.30
  -3  10  -4  444.46   48.30
   3 -10   4  610.04   76.89
   3 -10   4  689.83   65.69
  -4  10  -4  292.77   37.10
   4 -10   4  497.55   62.39
   4 -10   4  498.15   74.99
  -5  10  -4    7.30   17.10
  -5  10  -4   -3.60   13.10
  -6  10  -4  451.45   44.80
  -6  10  -4  399.46   47.90
  -7  10  -4  308.07   42.90
  -7  10  -4  273.77   37.30
  -8  10  -4   25.40   21.10
  -8  10  -4   59.19   24.40
   4   9  -4  218.98   34.80
   3   9  -4  541.05   41.80
  -3  -9   4  557.54   90.39
  -3  -9   4  526.45   43.60
   2   9  -4  184.78   27.30
  -2  -9   4  183.28   26.20
  -2  -9   4  168.18   43.40
   1   9  -4   -2.40   11.10
   1   9  -4  -10.10   10.30
  -1  -9   4   -7.70    6.30
  -1  -9   4   -4.10   14.30
   0   9  -4  487.25   49.80
   0   9  -4  466.85   42.40
   0  -9   4  453.45   29.60
   0  -9   4  539.35   67.89
  -1   9  -4  911.51   66.89
  -1   9  -4  938.51   56.69
   1  -9   4  881.91   40.50
   1  -9   4  985.20   75.49
   1  -9   4 1043.20   91.59
  -2   9  -4  231.38   32.60
  -2   9  -4  254.07   28.70
  -2   9  -4  297.67   33.10
   2  -9   4  315.27   40.50
   2  -9   4  309.47   52.09
   2  -9   4  374.46   48.90
  -3   9  -4   94.89   23.90
   3  -9   4  158.68   26.60
   3  -9   4  200.28   36.40
   3  -9   4  206.88   29.90
  -4   9  -4  905.71   59.79
  -4   9  -4  922.51   67.29
  -4   9  -4 1018.40   55.59
   4  -9   4 1202.48  105.59
   4  -9   4 1047.30   84.29
   4  -9   4 1121.99  119.59
  -5   9  -4  636.04   51.29
  -5   9  -4  619.84   42.20
  -5   9  -4  696.23   55.59
   5  -9   4  800.72   97.99
  -6   9  -4   -2.30   12.60
  -6   9  -4   15.80   13.30
  -7   9  -4  245.58   41.20
  -7   9  -4  226.68   42.00
   7  -9   4  344.17   56.79
  -8   9  -4  364.16   43.30
  -8   9  -4  382.76   45.60
   5   8  -4  408.76   43.80
  -5  -8   4  367.96   80.09
   4   8  -4  389.06   37.10
  -4  -8   4  439.56   41.80
  -4  -8   4  370.86   69.79
   3   8  -4   32.60   15.90
  -3  -8   4    2.40   21.20
  -3  -8   4   25.00   14.80
   2   8  -4  628.34   39.20
  -2  -8   4  616.64   81.09
  -2  -8   4  613.14   40.20
  -2  -8   4  532.95   61.49
   1   8  -4 1641.64   76.09
   1   8  -4 1744.83   65.49
   1   8  -4 1623.44   92.39
  -1  -8   4 1559.34   66.79
  -1  -8   4 1630.24  127.99
  -1  -8   4 1623.34  107.19
   0   8  -4  151.08   30.50
   0   8  -4  161.88   26.20
   0   8  -4  143.69   16.50
   0  -8   4  141.39   15.60
   0  -8   4  103.09   28.20
   0  -8   4  141.59   29.60
  -1   8  -4  694.33   53.69
  -1   8  -4  776.52   48.70
  -1   8  -4  714.63   24.80
  -1   8  -4  759.62   46.80
   1  -8   4  727.43   64.39
   1  -8   4  774.42   74.59
   1  -8   4  750.62   31.90
  -2   8  -4  673.23   42.10
  -2   8  -4  716.23   53.79
  -2   8  -4  770.52   48.40
   2  -8   4  781.32   71.69
   2  -8   4  741.53   69.79
  -3   8  -4  423.36   33.80
  -3   8  -4  420.36   41.10
  -3   8  -4  457.15   38.50
   3  -8   4  474.05   52.19
   3  -8   4  493.15   62.59
  -4   8  -4   13.10   13.20
  -4   8  -4   16.70   14.70
  -4   8  -4   20.60   14.30
   4  -8   4   34.00   18.20
  -5   8  -4  197.38   23.30
  -5   8  -4  215.38   30.90
  -5   8  -4  194.38   26.90
   5  -8   4  224.68   54.89
  -6   8  -4  482.15   45.30
  -6   8  -4  460.05   44.80
   6  -8   4  571.04   88.49
   6  -8   4  654.13   78.89
  -7   8  -4  463.75   45.30
  -7   8  -4  487.35   48.20
   7  -8   4  630.04   80.29
   7  -8   4  612.54   97.29
  -8   8  -4    2.00   15.70
   8  -8   4   26.70   34.50
  -9   8  -4  380.16   48.00
  -6  -7   4   24.70   37.80
   5   7  -4  148.19   26.70
  -5  -7   4  133.69   28.90
  -5  -7   4   59.69   39.80
  -5  -7   4   90.29   38.70
   4   7  -4  426.36   36.50
  -4  -7   4  496.55   41.40
  -4  -7   4  277.77   57.09
  -4  -7   4  446.66   77.99
   3   7  -4 1002.90   51.59
  -3  -7   4 1045.10   56.69
  -3  -7   4 1003.90  101.29
  -3  -7   4  917.51   85.99
   2   7  -4    0.70   11.00
   2   7  -4    2.10    9.90
  -2  -7   4    5.40   17.20
  -2  -7   4   18.90   10.70
  -2  -7   4    8.90   13.80
   1   7  -4  641.24   32.60
   1   7  -4  620.64   39.60
   1   7  -4  538.65   46.30
  -1  -7   4  645.54   58.89
  -1  -7   4  615.84   34.20
  -1  -7   4  643.54   68.09
   0   7  -4 1054.49   39.50
   0   7  -4 1003.10   62.69
   0   7  -4  940.31   49.60
   0  -7   4  967.70   74.69
   0  -7   4 1103.39   89.19
   0  -7   4  968.40   40.80
  -1   7  -4 1088.79   30.80
  -1   7  -4 1131.89   64.39
  -1   7  -4 1183.98   54.79
  -1   7  -4  991.40   30.80
  -1   7  -4 1153.68   57.19
   1  -7   4 1168.78   86.29
   1  -7   4 1136.69   38.90
   1  -7   4 1106.39   88.09
  -2   7  -4  151.28   24.60
  -2   7  -4  157.08   20.90
  -2   7  -4  141.19   27.00
  -3   7  -4  718.03   40.10
  -3   7  -4  778.32   47.30
  -3   7  -4  679.93   47.80
  -4   7  -4  571.64   42.50
  -4   7  -4  662.53   47.40
  -4   7  -4  632.64   37.20
   4  -7   4  782.72   89.09
   4  -7   4  630.34   66.29
  -5   7  -4  568.84   45.10
  -5   7  -4  627.54   35.40
  -5   7  -4  657.83   48.30
   5  -7   4  735.43   91.69
   5  -7   4  673.63   76.09
   5  -7   4  581.14   27.20
  -6   7  -4  134.19   29.70
  -6   7  -4  150.18   28.50
   6  -7   4  135.79   45.80
   6  -7   4  160.38   16.70
   6  -7   4  247.18   50.99
  -7   7  -4  524.45   44.50
  -7   7  -4  515.65   49.60
   7  -7   4  555.64   76.59
   7  -7   4  519.65   99.99
   7  -7   4  538.45   34.70
  -8   7  -4  378.96   45.90
   8  -7   4  224.08   73.69
  -9   7  -4   48.40   28.10
   7   6  -4   72.19   16.70
   6   6  -4  694.03   51.19
   6   6  -4  656.53   38.60
  -6  -6   4  717.93   54.79
  -6  -6   4  603.44   97.09
  -6  -6   4  493.55   77.69
   5   6  -4  445.96   39.00
   5   6  -4  465.75   29.20
  -5  -6   4  384.36   64.79
  -5  -6   4  468.95   70.69
  -5  -6   4  500.95   44.30
   4   6  -4    4.70   11.00
   4   6  -4   13.40    8.10
  -4  -6   4    6.40   10.30
  -4  -6   4  -12.30   15.50
  -4  -6   4  -11.40   21.40
   3   6  -4  477.75   34.30
   3   6  -4  557.44   35.10
  -3  -6   4  512.45   64.09
  -3  -6   4  528.85   61.09
  -3  -6   4  536.55   37.70
   2   6  -4 1551.14   61.39
   2   6  -4 1653.83   64.49
   2   6  -4 1577.34   67.29
  -2  -6   4 1610.04  105.59
  -2  -6   4 1679.83   67.59
  -2  -6   4 1510.25  116.09
  -2  -6   4 1554.54   63.19
   1   6  -4  714.93   40.60
   1   6  -4  734.83   32.20
   1   6  -4  652.73   30.80
   1   6  -4  656.53   47.10
  -1  -6   4  641.14   58.69
  -1  -6   4  703.53   67.89
  -1  -6   4  696.03   34.90
   0   6  -4   -5.00    5.70
   0   6  -4    6.10    4.30
   0   6  -4   -9.90   10.30
   0   6  -4    8.00    8.90
   0   6  -4    5.20    5.50
   0  -6   4   -1.50    9.30
   0  -6   4    6.30    4.10
   0  -6   4    3.40   10.40
   0  -6   4   10.00    5.60
  -1   6  -4 1314.77   65.89
  -1   6  -4 1178.08   52.19
  -1   6  -4 1263.67   57.49
   1  -6   4 1198.58   90.69
   1  -6   4 1208.68   39.50
   1  -6   4 1262.47   38.80
  -2   6  -4 1998.70   74.69
  -2   6  -4 2123.79   90.69
  -2   6  -4 2119.49   83.49
  -3   6  -4  333.47   24.50
  -3   6  -4  342.27   29.60
  -3   6  -4  323.07   29.50
   3  -6   4  292.67   10.90
   3  -6   4  323.87   51.79
   3  -6   4  286.37   10.60
   3  -6   4  321.47   13.20
  -4   6  -4  320.07   23.60
  -4   6  -4  337.57   30.50
  -4   6  -4  296.87   30.80
   4  -6   4  298.67   55.39
   4  -6   4  319.77   48.10
   4  -6   4  328.97   17.00
   4  -6   4  351.66   41.60
   4  -6   4  311.47   17.00
  -5   6  -4  801.32   54.39
  -5   6  -4  917.11   34.30
  -5   6  -4  820.72   51.39
   5  -6   4  929.11  102.69
   5  -6   4  907.21   38.30
   5  -6   4  865.01   35.80
   5  -6   4  840.02   84.99
  -6   6  -4  591.14   48.70
  -6   6  -4  535.45   40.60
  -6   6  -4  561.24   29.40
   6  -6   4  646.94   80.69
   6  -6   4  529.65   32.10
   6  -6   4  523.45   29.90
   6  -6   4  575.74   89.29
  -7   6  -4   14.80   16.50
  -7   6  -4   28.90   11.50
   7  -6   4   26.20   26.20
   7  -6   4   19.50   11.10
   7  -6   4   10.90    9.90
   7  -6   4    7.40   36.70
  -8   6  -4  207.48   40.20
  -8   6  -4  167.58   22.60
   8  -6   4  180.98   26.20
   8  -6   4  323.27   72.59
  -9   6  -4  306.77   51.29
   8   5  -4  352.26   35.20
   7   5  -4  222.28   31.50
   7   5  -4  235.98   26.00
  -7  -5   4  174.88   50.79
  -7  -5   4  121.59   44.20
  -7  -5   4  278.17   44.50
   6   5  -4    6.60    9.70
   6   5  -4    2.20   14.50
   6   5  -4    6.40   14.60
  -6  -5   4  -19.10   27.90
  -6  -5   4   15.40   14.10
  -6  -5   4  -16.40   21.10
  -6  -5   4   23.50   17.60
   5   5  -4  451.65   29.30
   5   5  -4  532.35   39.40
   5   5  -4  528.45   40.00
  -5  -5   4  501.55   72.39
  -5  -5   4  460.15   36.00
  -5  -5   4  447.36   66.69
  -5  -5   4  516.05   43.30
   4   5  -4 1075.79   54.49
   4   5  -4 1083.19   51.99
   4   5  -4 1079.49   53.49
   4   5  -4 1079.79   42.90
  -4  -5   4 1048.40   95.59
  -4  -5   4 1018.50   85.79
  -4  -5   4 1061.79   58.09
  -4  -5   4 1031.20   51.09
   3   5  -4  358.96   20.40
   3   5  -4  321.77   27.30
   3   5  -4  341.37   24.90
   3   5  -4  402.16   27.70
  -3  -5   4  326.07   23.90
  -3  -5   4  323.27   47.70
  -3  -5   4  317.37   28.40
  -3  -5   4  322.67   48.50
   2   5  -4  174.78   16.90
   2   5  -4  158.38   15.20
   2   5  -4  159.48   18.50
   2   5  -4  160.48   17.70
  -2  -5   4  177.08   34.30
  -2  -5   4  104.39   27.10
  -2  -5   4  164.18   15.00
  -2  -5   4  122.69   23.90
  -2  -5   4  175.88   18.40
   1   5  -4 1418.46   50.59
   1   5  -4 1423.56   57.19
   1   5  -4 1418.26   70.19
   1   5  -4 1502.65   51.09
  -1  -5   4 1344.27   98.89
  -1  -5   4 1528.55   81.99
  -1  -5   4 1416.46   54.39
  -1  -5   4 1392.26   91.99
  -1  -5   4 1394.36   50.99
  -1  -5   4 1407.76   48.70
   0   5  -4 1808.12   56.89
   0   5  -4 1797.22   70.49
   0   5  -4 1881.21   81.29
   0   5  -4 1863.81   68.49
   0   5  -4 1835.12   57.09
   0  -5   4 1860.61   61.29
   0  -5   4 1876.01   58.99
   0  -5   4 1878.21   54.39
   0  -5   4 1920.31  115.09
  -1   5  -4  156.48   16.00
  -1   5  -4  159.38   18.80
  -1   5  -4  148.29   17.50
   1  -5   4  154.78    7.70
   1  -5   4  153.48    8.30
  -2   5  -4  884.81   39.60
  -2   5  -4  843.02   46.70
  -2   5  -4  858.71   45.00
   2  -5   4  904.51   26.70
   2  -5   4  806.92   25.60
  -3   5  -4 1964.30   81.19
  -3   5  -4 2037.20   56.39
  -3   5  -4 2000.40   82.49
  -3   5  -4 1984.50   69.29
   3  -5   4 2025.10   62.49
   3  -5   4 1907.61  126.49
   3  -5   4 1955.00  144.89
   3  -5   4 1911.41   61.69
  -4   5  -4  429.56   25.30
  -4   5  -4  449.26   35.50
  -4   5  -4  442.36   32.30
  -4   5  -4  477.15   21.70
   4  -5   4  441.06   23.10
   4  -5   4  493.05   46.60
   4  -5   4  461.55   64.09
   4  -5   4  437.26   54.39
  -5   5  -4   14.70   10.30
  -5   5  -4   12.90    7.90
  -5   5  -4   16.40   15.00
   5  -5   4   21.80   19.30
   5  -5   4    2.50    7.30
   5  -5   4    6.40    7.60
   5  -5   4   10.30   20.00
  -6   5  -4  385.86   39.90
  -6   5  -4  330.27   29.50
  -6   5  -4  390.36   26.50
   6  -5   4  320.77   74.79
   6  -5   4  412.96   67.49
   6  -5   4  368.66   25.30
   6  -5   4  333.57   27.30
  -7   5  -4  650.93   38.30
  -7   5  -4  629.04   54.29
   7  -5   4  591.94   41.30
   7  -5   4  522.65  107.39
   7  -5   4  633.94   84.09
   7  -5   4  610.74   37.00
  -8   5  -4  104.39   31.10
  -8   5  -4  143.99   23.60
   8  -5   4  166.78   51.89
   8  -5   4  159.28   27.90
   8  -5   4  145.09   23.10
  -9   5  -4   22.90   22.00
   9  -5   4    9.70   12.70
   8   4  -4   66.79   18.30
  -8  -4   4   43.10   17.80
  -8  -4   4   25.80   20.30
   7   4  -4  328.17   37.60
   7   4  -4  335.27   29.60
   7   4  -4  323.47   37.60
  -7  -4   4  174.18   46.60
  -7  -4   4  307.67   36.40
  -7  -4   4  205.08   52.29
  -7  -4   4  330.87   36.30
   6   4  -4  877.51   53.49
   6   4  -4  865.91   53.79
   6   4  -4  834.32   43.20
  -6  -4   4  852.61   90.59
  -6  -4   4  809.22   90.59
  -6  -4   4  848.42   51.79
  -6  -4   4  888.11   58.99
   5   4  -4  407.16   33.60
   5   4  -4  390.56   32.00
   5   4  -4  375.36   25.50
  -5  -4   4  322.97   58.49
  -5  -4   4  385.36   31.70
  -5  -4   4  378.56   60.09
  -5  -4   4  396.86   36.50
   4   4  -4  424.56   24.90
   4   4  -4  421.76   31.00
   4   4  -4  473.65   30.10
   4   4  -4  448.36   32.00
  -4  -4   4  427.96   57.89
  -4  -4   4  497.05   31.70
  -4  -4   4  425.26   34.40
  -4  -4   4  440.66   54.09
   3   4  -4 2056.39   74.79
   3   4  -4 2107.79   74.29
   3   4  -4 2030.80   75.89
  -3  -4   4 1946.81   79.09
  -3  -4   4 2047.60   73.69
  -3  -4   4 2033.90  130.59
  -3  -4   4 2051.49  125.59
   2   4  -4 2762.82   87.19
   2   4  -4 2777.82   88.79
   2   4  -4 2705.23   87.09
   2   4  -4 2626.44   88.19
  -2  -4   4 2619.74   92.39
  -2  -4   4 2497.85  124.79
  -2  -4   4 2520.85  144.29
  -2  -4   4 2675.03  153.78
  -2  -4   4 2700.13   86.09
  -2  -4   4 2743.13   88.49
   1   4  -4   11.10    5.60
   1   4  -4   19.70   10.00
   1   4  -4    9.20    6.80
   1   4  -4   14.80    5.20
   1   4  -4   18.00    7.00
  -1  -4   4   16.10    6.30
  -1  -4   4    9.30    4.70
  -1  -4   4   12.30    5.00
  -1  -4   4   20.30   12.90
   0   4  -4 2701.93   88.69
   0   4  -4 2520.55   83.69
   0   4  -4 2621.04   75.79
   0   4  -4 2558.24   98.39
   0  -4   4 2598.74   73.59
   0  -4   4 2549.94   80.09
   0  -4   4 2606.94   77.79
   0  -4   4 2572.64   64.69
   0  -4   4 2542.85  144.59
  -1   4  -4 2170.68   73.99
  -1   4  -4 2153.38   62.19
  -1   4  -4 2226.98   63.39
  -1   4  -4 2232.28   80.49
  -1   4  -4 2281.87   86.69
   1  -4   4 2306.27   67.49
  -2   4  -4  770.62   26.70
  -2   4  -4  850.51   36.20
  -2   4  -4  826.12   26.00
  -2   4  -4  840.12   43.00
  -2   4  -4  815.62   41.70
   2  -4   4  796.12   71.79
   2  -4   4  814.52   28.50
   2  -4   4  794.72   29.70
   2  -4   4  770.62   63.39
  -3   4  -4   60.59   16.90
  -3   4  -4   85.59   13.70
  -3   4  -4   51.19    8.20
  -3   4  -4   65.79   13.90
   3  -4   4   70.19    8.60
   3  -4   4   65.89    9.40
   3  -4   4   44.40   20.00
   3  -4   4   64.79    6.80
   3  -4   4   35.30   18.40
  -4   4  -4  718.83   31.10
  -4   4  -4  676.83   37.50
  -4   4  -4  653.23   31.10
  -4   4  -4  743.93   46.80
   4  -4   4  655.23   67.39
   4  -4   4  692.53   51.49
   4  -4   4  631.24   32.00
   4  -4   4  631.54   74.69
  -5   4  -4 1027.40   60.89
  -5   4  -4  934.91   42.10
  -5   4  -4  976.90   47.70
   5  -4   4  928.51   89.49
   5  -4   4  969.90  103.19
   5  -4   4  905.01   44.40
  -6   4  -4  448.06   30.70
  -6   4  -4  506.55   46.50
   6  -4   4  434.36   89.69
   6  -4   4  553.94   77.19
   6  -4   4  483.85   34.00
  -7   4  -4   45.50   16.60
  -7   4  -4   79.19   24.70
   7  -4   4   70.09   34.90
   7  -4   4    0.20   35.70
   7  -4   4   70.99   18.70
   7  -4   4   69.69   16.40
  -8   4  -4  622.64   44.80
  -8   4  -4  546.75   54.89
   8  -4   4  521.75   38.80
   8  -4   4  551.24   46.00
   8  -4   4  604.14   98.99
  -9   4  -4  338.87   54.99
   9  -4   4  311.57   34.80
   9   3  -4  513.75   42.60
   8   3  -4  497.65   44.10
   8   3  -4  459.95   46.30
   8   3  -4  503.55   38.90
  -8  -3   4  504.05   48.00
  -8  -3   4  511.05   46.40
   7   3  -4   19.00   15.70
   7   3  -4   29.20   13.10
   7   3  -4    8.20   14.60
  -7  -3   4   -7.80   20.40
  -7  -3   4    0.30   21.40
  -7  -3   4   24.20   19.60
  -7  -3   4   23.10   15.60
   6   3  -4  593.04   34.60
   6   3  -4  537.75   40.30
   6   3  -4  508.95  100.29
   6   3  -4  489.55   40.10
  -6  -3   4  553.64   40.00
  -6  -3   4  517.15   66.79
  -6  -3   4  577.04   44.00
  -6  -3   4  459.05   69.69
   5   3  -4  997.00  123.59
   5   3  -4  994.20   44.50
   5   3  -4 1072.99   54.29
   5   3  -4  963.60   50.19
   5   3  -4 1047.90   44.40
  -5  -3   4  994.60   82.89
  -5  -3   4  969.00   88.19
  -5  -3   4  993.90   50.19
  -5  -3   4  978.20   55.39
   4   3  -4  383.96   27.20
   4   3  -4  373.86   24.80
   4   3  -4  408.86   23.70
   4   3  -4  323.87   26.60
  -4  -3   4  362.66   54.29
  -4  -3   4  355.56   25.40
  -4  -3   4  334.37   28.20
  -4  -3   4  349.96   44.50
   3   3  -4  104.99   15.00
   3   3  -4  101.49   14.20
   3   3  -4  111.89   14.90
  -3  -3   4  127.79   17.00
  -3  -3   4   70.79   19.90
  -3  -3   4  103.79   27.30
  -3  -3   4   97.49   14.40
   2   3  -4  928.41   37.70
   2   3  -4  943.51   37.60
   2   3  -4  916.81   38.10
   2   3  -4  900.51   37.80
  -2  -3   4  905.91   67.59
  -2  -3   4  887.71   40.90
  -2  -3   4  904.11   36.70
  -2  -3   4  876.61   68.19
  -2  -3   4  939.51   37.80
   1   3  -4 2430.26   73.89
   1   3  -4 2361.66   77.59
   1   3  -4 2372.06   73.79
   1   3  -4 2413.46   76.99
   1   3  -4 2350.96   73.19
  -1  -3   4 2349.67   74.69
  -1  -3   4 2339.27   78.09
  -1  -3   4 2352.66  130.09
  -1  -3   4 2322.67   72.59
  -1  -3   4 2413.06  112.99
   0   3  -4 1156.08   34.80
   0   3  -4 1140.09   45.60
   0   3  -4 1181.88   51.39
   0   3  -4 1097.49   42.70
   0   3  -4 1124.19   37.00
   0   3  -4 1158.48   36.50
   0  -3   4 1160.98   40.80
   0  -3   4 1126.89   36.10
   0  -3   4 1113.39   80.49
   0  -3   4 1113.49   66.29
   0  -3   4 1131.49   38.20
  -1   3  -4    8.80    7.60
  -1   3  -4    3.40    3.50
  -1   3  -4    6.10    5.90
  -1   3  -4    6.20    7.20
  -1   3  -4    6.30    4.50
   1  -3   4   19.30    5.20
   1  -3   4    8.00    2.80
   1  -3   4    4.00    4.00
   1  -3   4    9.90    3.10
   1  -3   4    1.70    7.30
  -2   3  -4 3178.48  105.99
  -2   3  -4 3126.09  107.69
  -2   3  -4 3114.49   95.79
  -2   3  -4 3192.78   87.09
  -2   3  -4 3062.69   87.29
  -2   3  -4 2898.31   91.29
   2  -3   4 3115.59   91.09
   2  -3   4 3015.60  182.98
   2  -3   4 3001.40  167.08
   2  -3   4 3131.09   96.09
   2  -3   4 3086.49   94.89
  -3   3  -4 1920.61   63.69
  -3   3  -4 1988.00   63.39
  -3   3  -4 1814.02   78.99
  -3   3  -4 1913.81   70.99
   3  -3   4 1929.31   63.09
   3  -3   4 1842.22   66.49
   3  -3   4 1932.91   66.39
   3  -3   4 1854.21  131.19
   3  -3   4 1899.21  123.19
  -4   3  -4   -5.40    7.50
  -4   3  -4   12.80    7.00
  -4   3  -4    7.20    6.80
  -4   3  -4    2.20   11.10
   4  -3   4    4.90    6.60
   4  -3   4   12.20    8.60
   4  -3   4   -2.30   16.60
   4  -3   4    5.20   16.00
  -5   3  -4  393.66   37.20
  -5   3  -4  452.75   29.60
   5  -3   4  445.66   73.49
   5  -3   4  382.26   57.89
   5  -3   4  424.96   30.00
  -6   3  -4  686.53   40.10
  -6   3  -4  614.24   51.89
   6  -3   4  572.04   96.69
   6  -3   4  681.43   43.10
   6  -3   4  752.62   86.09
  -7   3  -4  218.68   27.20
  -7   3  -4  198.28   38.10
   7  -3   4  264.17   31.10
   7  -3   4  276.57   61.09
  -8   3  -4   -3.20   14.80
  -8   3  -4  -14.30   12.70
   8  -3   4    6.50   35.20
   8  -3   4   -3.30    8.60
   8  -3   4   -3.60   13.40
  -9   3  -4   60.49   28.10
   9  -3   4   63.99   23.00
   9   2  -4  -15.80   18.00
   9   2  -4   11.10   15.30
   9   2  -4   38.00   15.60
  -9  -2   4    1.30   20.70
  -9  -2   4   11.20   14.20
   8   2  -4  288.37   35.80
   8   2  -4  310.07   30.50
   8   2  -4  300.17   37.80
   8   2  -4  180.68   70.49
  -8  -2   4  217.08   54.79
  -8  -2   4  404.26   43.10
  -8  -2   4  299.77   36.20
   7   2  -4  899.31   53.79
   7   2  -4  710.83  125.99
   7   2  -4  908.31   46.80
   7   2  -4  904.01   56.09
  -7  -2   4 1021.20   57.39
  -7  -2   4  872.41   84.49
  -7  -2   4  981.20   61.29
  -7  -2   4  873.11   93.69
   6   2  -4  425.86   34.60
   6   2  -4  412.36   27.70
   6   2  -4  427.66   33.90
   6   2  -4  393.96  100.19
  -6  -2   4  360.86   34.30
  -6  -2   4  402.66   32.00
  -6  -2   4  340.77   53.39
  -6  -2   4  352.36   54.89
   5   2  -4   17.50   11.70
   5   2  -4    1.40    9.80
   5   2  -4   -9.30    5.90
   5   2  -4   -8.80    8.90
   5   2  -4   -1.10    7.50
   5   2  -4   -5.70   23.70
  -5  -2   4    6.30   11.70
  -5  -2   4    5.30    9.20
  -5  -2   4    4.60    8.40
  -5  -2   4   -6.90   22.10
   4   2  -4 2539.05  192.08
   4   2  -4 2489.75   89.09
   4   2  -4 2476.45   76.39
   4   2  -4 2479.35   78.99
   4   2  -4 2466.95  112.89
   4   2  -4 2330.17   85.79
  -4  -2   4 2357.66  138.19
  -4  -2   4 2513.95   87.39
  -4  -2   4 2420.56   93.19
  -4  -2   4 2460.45  142.59
   3   2  -4 3392.36  110.89
   3   2  -4 3457.15  103.19
   3   2  -4 3415.56  108.49
   3   2  -4 3629.44  225.48
  -3  -2   4 3364.46  108.29
  -3  -2   4 3428.06  178.18
  -3  -2   4 3309.67  115.29
  -3  -2   4 3351.46  175.98
   2   2  -4   59.29    8.40
   2   2  -4   71.79   10.10
   2   2  -4   68.59   10.60
   2   2  -4   78.59    8.60
   2   2  -4   65.19    8.90
  -2  -2   4   67.69   11.80
  -2  -2   4   68.09   18.90
  -2  -2   4   60.09    8.10
  -2  -2   4   64.19    9.90
   1   2  -4  577.74   24.30
   1   2  -4  556.64   26.50
   1   2  -4  561.94   23.90
   1   2  -4  604.64   26.10
   1   2  -4  575.44   25.00
  -1  -2   4  567.64   27.20
  -1  -2   4  602.14   24.90
  -1  -2   4  506.95   34.20
  -1  -2   4  595.44   24.40
  -1  -2   4  589.04   50.59
  -1  -2   4  570.34   50.89
   0   2  -4 3972.90  115.39
   0   2  -4 4014.00  121.09
   0   2  -4 3725.33  115.29
   0   2  -4 3991.40  115.29
   0   2  -4 3943.91  118.79
   0  -2   4 3971.00  114.59
   0  -2   4 4104.99  122.29
   0  -2   4 4244.48  192.38
   0  -2   4 3761.62  116.69
  -1   2  -4 1993.20   70.99
  -1   2  -4 1929.81   67.49
  -1   2  -4 1822.22   60.59
  -1   2  -4 1868.11   61.29
   1  -2   4 1940.71  108.49
   1  -2   4 1973.00   61.09
   1  -2   4 1891.71   62.89
   1  -2   4 1680.53   63.19
   1  -2   4 1860.01  110.59
  -2   2  -4  147.29   13.20
  -2   2  -4  147.49   14.20
  -2   2  -4  134.59   12.60
   2  -2   4  151.18   12.70
   2  -2   4  167.48   14.50
   2  -2   4  127.29   27.50
   2  -2   4  145.89   24.00
   2  -2   4  136.69   25.90
   2  -2   4  169.78   13.60
  -3   2  -4  492.95   26.40
  -3   2  -4  533.75   27.60
  -3   2  -4  499.15   26.20
   3  -2   4  520.95   58.49
   3  -2   4  489.15   55.79
   3  -2   4  473.55   28.20
   3  -2   4  541.95   38.00
   3  -2   4  531.15   28.60
   3  -2   4  524.85   27.10
  -4   2  -4 2713.83   92.79
  -4   2  -4 2741.53   92.29
   4  -2   4 2588.14  167.38
   4  -2   4 2730.53   97.09
   4  -2   4 2627.94  183.68
   4  -2   4 2810.12   92.39
  -5   2  -4  513.75   33.00
   5  -2   4  429.06   79.19
   5  -2   4  469.55   30.60
   5  -2   4  495.35   69.39
   5  -2   4  450.25   33.60
  -6   2  -4    4.80   11.70
   6  -2   4    6.80   20.20
   6  -2   4   18.40   11.30
   6  -2   4  -11.00   28.10
  -7   2  -4  290.17   36.80
  -7   2  -4  297.37   32.30
   7  -2   4  142.99   57.59
   7  -2   4  305.67   34.60
   7  -2   4  259.77   63.39
  -8   2  -4  508.05   53.79
  -8   2  -4  585.74   48.20
   8  -2   4  533.35   42.20
   8  -2   4  444.26   96.19
   8  -2   4  550.04   50.89
  -9   2  -4   53.29   27.70
   9   1  -4  563.54   42.10
   9   1  -4  633.54   49.20
   9   1  -4  506.05   48.40
  -9  -1   4  588.84   51.49
  -9  -1   4  608.94   54.69
   8   1  -4  118.89   26.30
   8   1  -4  109.29   66.39
   8   1  -4  146.79   29.60
   8   1  -4  126.09   22.10
  -8  -1   4  129.09   30.20
  -8  -1   4  138.59   25.90
  -8  -1   4   91.29   42.20
   7   1  -4   70.69   19.00
   7   1  -4   93.69   58.39
   7   1  -4   69.09   19.90
   7   1  -4   62.69   15.10
  -7  -1   4   73.99   20.50
  -7  -1   4   71.69   35.40
  -7  -1   4  139.39   28.50
  -7  -1   4   29.60   21.50
   6   1  -4  612.54  113.99
   6   1  -4  625.74   41.80
   6   1  -4  588.74   33.50
   6   1  -4  627.04   40.40
   6   1  -4  562.24   54.79
  -6  -1   4  667.73   59.99
  -6  -1   4  655.63   45.70
  -6  -1   4  648.04   73.49
  -6  -1   4  609.84   40.10
   5   1  -4 1718.03   72.39
   5   1  -4 1801.82   59.19
   5   1  -4 1671.73   69.39
   5   1  -4 1901.51  169.88
   5   1  -4 1760.72   62.59
  -5  -1   4 1725.13   70.69
  -5  -1   4 1828.52  120.19
  -5  -1   4 1728.03  106.59
  -5  -1   4 1782.72   77.59
   4   1  -4  344.87   71.69
   4   1  -4  276.47   25.10
   4   1  -4  306.57   23.50
   4   1  -4  259.87   21.30
  -4  -1   4  302.87   25.00
  -4  -1   4  270.17   33.90
  -4  -1   4  296.57   22.90
  -4  -1   4  328.97   47.50
   3   1  -4  346.37   56.29
   3   1  -4  316.77   21.50
   3   1  -4  309.47   17.30
   3   1  -4  327.97   18.30
   3   1  -4  300.27   20.70
  -3  -1   4  324.37   20.50
  -3  -1   4  316.37   24.00
  -3  -1   4  310.67   39.50
   2   1  -4 2921.81   92.49
   2   1  -4 2679.63  132.19
   2   1  -4 3041.80   91.79
   2   1  -4 3040.20  176.08
   2   1  -4 2943.91   90.79
   2   1  -4 2927.11   84.39
  -2  -1   4 2902.31  148.49
  -2  -1   4 3139.79  175.98
  -2  -1   4 2969.80   97.29
  -2  -1   4 2439.36   89.09
  -2  -1   4 3062.29   93.09
   1   1  -4 4262.37  207.28
   1   1  -4 4398.96  129.49
   1   1  -4 4544.95  132.29
   1   1  -4 4524.55  128.29
   1   1  -4 4465.95  129.99
  -1  -1   4 4604.34  137.39
  -1  -1   4 4314.87  206.88
  -1  -1   4 4380.06  129.79
  -1  -1   4 4402.76  236.18
  -1  -1   4 4439.96  131.99
  -1  -1   4 4342.57  211.58
   0   1  -4  161.48   14.60
   0   1  -4  159.18   23.30
   0   1  -4  141.89   13.20
   0   1  -4  144.19   14.10
   0  -1   4  129.99   22.00
   0  -1   4  151.38   13.20
   0  -1   4  160.28   13.10
   0  -1   4  143.09   11.80
   0  -1   4  155.48   13.30
   0  -1   4  151.08   15.20
  -1   1  -4 1678.93   56.69
   1  -1   4 1534.75   95.99
   1  -1   4 1564.04   55.09
   1  -1   4 1429.06   97.09
   1  -1   4 1603.14   57.29
   1  -1   4 1644.14   91.39
   1  -1   4 1483.25   57.79
  -2   1  -4 1812.62  110.99
  -2   1  -4 1841.52   62.69
  -2   1  -4 1639.44   61.99
  -2   1  -4 1741.43   61.69
   2  -1   4 1786.92   62.19
   2  -1   4 1853.21   65.29
   2  -1   4 1707.83   65.19
   2  -1   4 1561.74  109.89
   2  -1   4 1546.65  108.49
   2  -1   4 1862.41  103.09
  -3   1  -4  576.14   31.40
  -3   1  -4  566.04   31.20
   3  -1   4  593.24   65.09
   3  -1   4  479.55   56.19
   3  -1   4  574.44   30.90
   3  -1   4  581.84   33.60
  -4   1  -4  140.49   17.80
  -4   1  -4  101.19   17.50
   4  -1   4   83.99   30.90
   4  -1   4  143.19   17.60
   4  -1   4  136.29   19.20
   4  -1   4   96.19   33.40
  -5   1  -4  428.66   30.90
  -5   1  -4  465.25   32.30
   5  -1   4  330.27   74.79
   5  -1   4  426.86   67.79
   5  -1   4  402.46   33.80
   5  -1   4  439.86   31.10
  -6   1  -4  607.94   40.90
   6  -1   4  636.54   46.20
   6  -1   4  616.54   88.69
   6  -1   4  578.84   99.29
  -7   1  -4  144.19   26.50
   7  -1   4   54.59   41.30
   7  -1   4  102.09   45.10
   7  -1   4  131.89   26.60
   8  -1   4   91.79   21.60
  -9   1  -4  252.77   49.30
   9   0  -4  -31.00   57.59
   9   0  -4   30.20   16.20
   9   0  -4   18.30   20.00
  -9   0   4   42.70   17.20
  -9   0   4   48.10   20.60
   8   0  -4 1249.68   70.79
   8   0  -4 1241.38   59.39
   8   0  -4  924.81  168.18
   8   0  -4 1171.58   64.49
  -8   0   4 1363.56   75.89
  -8   0   4 1263.47  114.19
  -8   0   4 1349.66   69.79
   7   0  -4  805.12   43.20
   7   0  -4  879.01   49.70
   7   0  -4  876.01   75.29
   7   0  -4  733.63  122.79
   7   0  -4  866.41   51.99
  -7   0   4  922.01   52.29
  -7   0   4  868.81   70.69
  -7   0   4  830.72   87.09
  -7   0   4  818.62   55.19
   6   0  -4   48.20   17.60
   6   0  -4   51.79   15.60
   6   0  -4   51.09   16.00
   6   0  -4   29.70   40.90
  -6   0   4   46.00   23.40
  -6   0   4   44.40   15.00
  -6   0   4   56.29   14.50
  -6   0   4   29.60   14.30
   5   0  -4  890.31   45.40
   5   0  -4  916.31   46.20
   5   0  -4  973.10   63.69
   5   0  -4  935.41  108.69
  -5   0   4  953.90   51.49
  -5   0   4 1032.80   79.49
  -5   0   4  923.61   46.10
  -5   0   4  922.61   64.39
   4   0  -4 2095.09  156.78
   4   0  -4 1909.21   70.69
   4   0  -4 1913.01   72.59
  -4   0   4 1915.21   71.29
  -4   0   4 1886.01  105.59
  -4   0   4 1982.60   77.89
  -4   0   4 1978.10  116.09
   3   0  -4 1074.29   44.50
   3   0  -4 1012.80   42.40
   3   0  -4 1204.28   95.39
   3   0  -4 1113.49   58.59
  -3   0   4 1072.09   48.50
  -3   0   4 1056.19   72.89
  -3   0   4 1023.70   43.10
   2   0  -4   80.99   10.30
   2   0  -4   75.19    9.80
   2   0  -4  121.89   29.50
   2   0  -4   72.19   15.30
   2   0  -4   55.89   22.10
   2   0  -4   62.79   10.70
  -2   0   4   73.09   18.30
  -2   0   4   63.69   11.60
  -2   0   4   51.79   16.00
  -2   0   4   69.39   11.10
   1   0  -4 2181.88   73.69
   1   0  -4 2111.99   71.29
   1   0  -4 2332.47  141.39
   1   0  -4 2131.69  116.89
   1   0  -4 2036.70   70.49
  -1   0   4 2255.27  114.79
  -1   0   4 2178.18   72.49
  -1   0   4 2195.78   77.59
  -1   0   4 2068.59  115.19
  -1   0   4 2111.29  115.69
   0   0  -4 4901.91  158.78
   0   0  -4 5764.72  290.07
   0   0  -4 4852.51  155.78
   0   0  -4 5312.27  158.28
   0   0   4 5250.77  164.68
   0   0   4 5523.55  161.78
   0   0   4 5383.26  158.08
   0   0   4 5498.65  288.17
   0   0   4 5213.88  257.67
  -1   0  -4  815.82   52.49
  -1   0  -4  823.42   37.00
  -1   0  -4  753.42   34.80
  -1   0  -4  761.02   35.90
   1   0   4  720.03   61.39
   1   0   4  766.42   38.20
   1   0   4  803.22   37.00
   1   0   4  778.72   35.00
   1   0   4  768.22   59.39
  -2   0  -4  890.51   40.20
  -2   0  -4  891.51   67.49
  -2   0  -4  809.62   38.10
   2   0   4  672.53   69.19
   2   0   4  843.72   42.60
   2   0   4  905.81   57.19
   2   0   4  849.72   68.89
   2   0   4  875.61   39.80
  -3   0  -4 1531.75   61.09
  -3   0  -4 1611.24   63.89
   3   0   4 1561.04  114.69
   3   0   4 1563.94   66.59
   3   0   4 1613.54   62.49
   3   0   4 1246.98  105.59
  -4   0  -4 1530.45   63.79
  -4   0  -4 1514.65   64.49
   4   0   4 1475.05   62.39
   4   0   4 1453.85  122.29
   4   0   4 1233.38  112.49
   4   0   4 1373.36   65.69
  -5   0  -4   25.60   12.20
  -5   0  -4   30.70   14.10
   5   0   4   -7.50   25.00
   5   0   4   20.10   28.00
   5   0   4   36.20   16.60
   5   0   4   42.60   14.60
  -6   0  -4  520.05   39.40
   6   0   4  529.85   43.00
   6   0   4  413.26   81.89
   6   0   4  465.65   82.89
  -7   0  -4  371.66   39.80
   7   0   4  323.37   39.90
   7   0   4  210.88   61.29
   7   0   4  255.77   66.09
   9  -1  -4  263.67   33.20
   9  -1  -4  117.79   81.69
   9  -1  -4  259.37   30.90
  -9   1   4  308.97   37.60
  -9   1   4  248.38   31.20
   8  -1  -4  -18.30   48.40
   8  -1  -4   10.10   11.50
   8  -1  -4    4.90   13.40
  -8   1   4    1.10    9.20
  -8   1   4   17.80   13.50
  -8   1   4   -7.00   19.00
   7  -1  -4  724.73   47.70
   7  -1  -4  670.13  127.59
   7  -1  -4  702.43   44.70
   7  -1  -4  762.02   67.59
  -7   1   4  784.62   77.39
  -7   1   4  771.22   51.29
  -7   1   4  750.22   46.50
   6  -1  -4 1773.42  108.69
   6  -1  -4 1726.93   72.59
   6  -1  -4 1693.13   74.29
   6  -1  -4 1848.12  171.08
  -6   1   4 1825.82  121.99
  -6   1   4 1771.12   79.49
  -6   1   4 1833.92   98.79
  -6   1   4 1802.42   73.89
   5  -1  -4  177.78   18.30
   5  -1  -4  156.78   48.40
   5  -1  -4  172.08   20.40
  -5   1   4  155.18   22.30
  -5   1   4  158.68   19.70
  -5   1   4  172.48   22.60
  -5   1   4  204.58   44.10
   4  -1  -4   38.90   20.10
   4  -1  -4   52.19   28.80
   4  -1  -4   64.09   13.00
   4  -1  -4   55.49   13.20
  -4   1   4   46.10   11.10
  -4   1   4   49.60   18.40
  -4   1   4   46.80   14.30
   3  -1  -4 1958.80  130.99
   3  -1  -4 1867.81   96.29
   3  -1  -4 1758.82   63.49
   3  -1  -4 1704.33   65.29
   3  -1  -4 1941.51  132.19
  -3   1   4 1769.42  101.39
  -3   1   4 1700.83   69.19
  -3   1   4 1768.92   64.89
   2  -1  -4 5286.87  244.68
   2  -1  -4 5354.06  284.27
   2  -1  -4 5176.68  154.18
   2  -1  -4 4684.73  288.37
   2  -1  -4 5268.67  159.68
  -2   1   4 5156.18  236.28
  -2   1   4 5253.27  163.28
  -2   1   4 5321.07  156.58
   1  -1  -4  430.36   33.60
   1  -1  -4  417.16   25.20
   1  -1  -4  401.26   24.10
   1  -1  -4  369.86   50.09
  -1   1   4  441.36   25.60
  -1   1   4  438.76   29.30
  -1   1   4  421.36   41.20
  -1   1   4  420.26   38.80
   0  -1  -4  280.27   40.50
   0  -1  -4  322.87   22.50
   0  -1  -4  309.77   27.80
   0  -1  -4  288.77   21.30
   0   1   4  305.77   24.70
   0   1   4  280.87   21.60
   0   1   4  318.97   38.70
  -1  -1  -4 3796.12  198.68
  -1  -1  -4 3543.95  115.79
  -1  -1  -4 3216.08  111.19
  -1  -1  -4 3286.27  194.78
   1   1   4 3565.54  193.08
   1   1   4 3461.05  112.89
   1   1   4 3727.33  196.58
   1   1   4 3334.27  118.39
  -2  -1  -4 1376.66   57.39
  -2  -1  -4 1397.96   95.79
  -2  -1  -4 1186.58   87.79
  -2  -1  -4 1422.16   59.59
   2   1   4 1392.76   62.29
   2   1   4 1433.36   86.39
   2   1   4 1402.16   57.39
   2   1   4 1552.04  106.99
  -3  -1  -4    8.40   20.60
  -3  -1  -4    7.40    9.10
  -3  -1  -4   25.80   12.10
  -3  -1  -4   -1.40   10.20
   3   1   4   15.60    9.70
   3   1   4   12.30   10.80
   3   1   4   23.30   25.50
  -4  -1  -4  431.16   57.39
  -4  -1  -4  453.55   33.10
  -4  -1  -4  472.25   34.80
   4   1   4  346.17   64.99
   4   1   4  384.46   35.00
   4   1   4  353.16   28.90
   4   1   4  395.06   66.19
  -5  -1  -4  805.12   50.29
  -5  -1  -4  791.42   48.20
   5   1   4  852.51   55.89
   5   1   4  849.81   98.49
   5   1   4  788.62   96.89
   5   1   4  760.52   47.80
  -6  -1  -4  194.98   32.10
  -6  -1  -4  173.88   30.60
   6   1   4  162.88   54.79
   6   1   4  224.98   36.90
   6   1   4  182.68   30.40
  -7  -1  -4   32.00   21.10
   7   1   4    3.70   13.70
   7   1   4  -16.70   28.20
   9  -2  -4  318.77   38.20
   9  -2  -4  140.99   84.09
   9  -2  -4  293.27   33.80
  -9   2   4  289.97   32.80
  -9   2   4  288.57   36.40
   8  -2  -4  906.21   53.19
   8  -2  -4  621.64  128.49
   8  -2  -4  843.02   53.89
   8  -2  -4 1073.19   86.79
  -8   2   4  891.21   54.39
  -8   2   4  945.71   59.69
   7  -2  -4  200.68   68.69
   7  -2  -4  291.07   30.90
   7  -2  -4  331.07   28.40
   7  -2  -4  387.16   46.40
  -7   2   4  308.97   32.80
  -7   2   4  363.56   30.40
  -7   2   4  313.57   55.89
   6  -2  -4  258.67   26.20
   6  -2  -4  231.58   24.00
   6  -2  -4  215.88   61.69
  -6   2   4  291.67   27.70
  -6   2   4  267.37   25.80
  -6   2   4  234.78   24.30
  -6   2   4  294.37   49.99
   5  -2  -4 2224.18   83.39
   5  -2  -4 2255.17  165.88
   5  -2  -4 2511.75  189.98
   5  -2  -4 2366.86   87.49
  -5   2   4 2289.07  132.59
  -5   2   4 2356.96   92.09
  -5   2   4 2343.87  110.99
  -5   2   4 2352.46   85.99
   4  -2  -4 2025.50   75.09
   4  -2  -4 2035.50  152.18
   4  -2  -4 2011.20  148.49
   4  -2  -4 1921.51   71.19
  -4   2   4 1867.51   71.99
  -4   2   4 2097.39  114.69
  -4   2   4 2009.30   78.99
   3  -2  -4   82.99   24.00
   3  -2  -4   95.19   12.10
   3  -2  -4   77.89   14.40
   3  -2  -4   69.39   25.50
  -3   2   4  105.79   22.20
  -3   2   4   74.29   18.40
  -3   2   4  116.59   15.20
  -3   2   4   96.19   16.20
   2  -2  -4 1298.67   99.79
   2  -2  -4 1385.36   94.19
   2  -2  -4 1301.67   55.19
   2  -2  -4 1294.27   74.29
   2  -2  -4 1398.96   52.99
  -2   2   4 1327.77   75.09
  -2   2   4 1363.16   58.29
  -2   2   4 1390.16   55.59
   1  -2  -4 2437.26   86.19
   1  -2  -4 2523.15  156.88
  -1   2   4 2443.66   93.89
  -1   2   4 2624.74   88.89
  -1   2   4 2458.95  125.29
  -1   2   4 2545.45  139.99
   0  -2  -4 1168.18   78.19
   0  -2  -4 1185.68   85.29
   0  -2  -4 1050.49   48.30
   0  -2  -4 1015.50   46.10
   0   2   4 1151.48   53.29
   0   2   4 1084.19   82.29
   0   2   4 1008.40   47.60
  -1  -2  -4   73.59   14.80
  -1  -2  -4   60.09   19.30
  -1  -2  -4   58.09   21.90
  -1  -2  -4   84.39   16.10
   1   2   4   83.19   16.00
   1   2   4   81.89   30.30
   1   2   4   92.19   18.00
  -2  -2  -4  963.30   48.40
  -2  -2  -4  908.81   78.69
  -2  -2  -4  975.20   74.39
  -2  -2  -4  887.51   45.60
   2   2   4 1012.10   92.89
   2   2   4  925.81   46.50
   2   2   4  959.30   52.29
  -3  -2  -4 1521.55  111.89
  -3  -2  -4 1553.34   99.89
  -3  -2  -4 1616.24   68.19
  -3  -2  -4 1475.45   68.09
   3   2   4 1568.34  126.39
   3   2   4 1497.35   66.49
   3   2   4 1517.05   73.59
  -4  -2  -4  283.77   30.50
  -4  -2  -4  310.17   31.60
  -4  -2  -4  299.07   53.49
   4   2   4  320.97   61.09
   4   2   4  292.27   29.60
   4   2   4  313.77   34.50
  -5  -2  -4   93.19   21.70
  -5  -2  -4  133.19   27.00
  -5  -2  -4   68.29   27.90
   5   2   4  118.89   24.40
   5   2   4   99.29   24.10
   5   2   4   79.79   44.40
  -6  -2  -4  479.75   45.60
  -6  -2  -4  553.94   47.40
   6   2   4  511.85   47.50
   6   2   4  459.95   42.80
   6   2   4  439.66   82.09
   9  -3  -4   15.00   66.79
   9  -3  -4  129.59   26.10
   9  -3  -4  131.59   27.50
  -9   3   4  146.79   27.20
   8  -3  -4  283.17   29.90
   8  -3  -4  334.57   47.20
   8  -3  -4  342.67   34.80
  -8   3   4  322.97   33.30
  -8   3   4  334.57   35.50
   7  -3  -4 1420.56   67.39
   7  -3  -4 1370.76  167.08
   7  -3  -4 1368.26  125.09
   7  -3  -4 1339.97   62.49
  -7   3   4 1284.67   68.19
  -7   3   4 1427.66  105.99
  -7   3   4 1317.47   64.39
   6  -3  -4 1156.88  135.49
   6  -3  -4 1103.29   53.89
   6  -3  -4 1021.40   49.99
   6  -3  -4 1064.79  111.09
  -6   3   4 1132.19   87.19
  -6   3   4 1050.59   52.99
  -6   3   4 1180.18   59.49
   5  -3  -4   16.90   21.30
   5  -3  -4   -6.30    8.90
   5  -3  -4    6.20   19.50
   5  -3  -4    1.60    9.10
  -5   3   4   -2.10    6.10
  -5   3   4   18.60   19.80
  -5   3   4    0.50    9.40
   4  -3  -4 1171.58  103.69
   4  -3  -4 1238.18   54.19
   4  -3  -4 1225.88  110.79
   4  -3  -4 1195.38   50.19
  -4   3   4 1228.58   56.69
  -4   3   4 1208.48   63.39
  -4   3   4 1205.08   77.59
  -4   3   4 1212.58   51.99
   3  -3  -4 1542.25  116.89
   3  -3  -4 1539.75   59.09
   3  -3  -4 1515.95  116.89
   3  -3  -4 1569.74   64.59
  -3   3   4 1624.24   62.99
  -3   3   4 1583.34   65.79
  -3   3   4 1555.04   84.69
  -3   3   4 1526.45   85.59
   2  -3  -4 2107.89  140.09
   2  -3  -4 1951.30   77.69
   2  -3  -4 2062.99   74.99
  -2   3   4 2154.38   83.19
  -2   3   4 2078.19  101.89
  -2   3   4 2021.20   77.89
   1  -3  -4    6.10   11.70
   1  -3  -4    5.50   12.20
   1  -3  -4  -11.10    8.30
   1  -3  -4    2.40    7.40
  -1   3   4    3.80    7.40
  -1   3   4   14.60   18.50
  -1   3   4    6.80    9.00
  -1   3   4   -1.30    8.00
   0  -3  -4 2277.37   85.99
   0  -3  -4 2340.87  147.79
   0  -3  -4 2354.76  131.69
   0   3   4 2156.18   88.99
   0   3   4 2117.99   83.49
   0   3   4 2284.57  144.09
  -1  -3  -4 2140.99   83.19
  -1  -3  -4 2386.66  146.69
  -1  -3  -4 2393.66  138.19
  -1  -3  -4 2335.77   88.39
   1   3   4 2286.87   85.69
   1   3   4 2133.49  146.69
   1   3   4 1974.80   88.29
  -2  -3  -4  236.48   39.50
  -2  -3  -4  224.08   24.30
  -2  -3  -4  249.38   24.40
  -2  -3  -4  235.18   45.20
   2   3   4  233.58   26.30
   2   3   4  223.18   50.59
   2   3   4  239.08   26.80
  -3  -3  -4  327.57   61.99
  -3  -3  -4  337.17   47.80
  -3  -3  -4  355.36   31.00
  -3  -3  -4  363.16   33.80
   3   3   4  355.76   34.50
   3   3   4  345.37   32.20
   3   3   4  368.86   64.39
  -4  -3  -4  600.14   44.40
  -4  -3  -4  588.94   81.19
  -4  -3  -4  605.24   43.20
   4   3   4  642.04   49.40
   4   3   4  633.34   45.00
   4   3   4  620.64   94.49
  -5  -3  -4  392.56   40.50
  -5  -3  -4  379.16   39.90
   5   3   4  414.06   40.10
   5   3   4  389.66   87.19
   5   3   4  365.56   43.00
  -6  -3  -4   18.30   16.80
  -6  -3  -4   28.90   17.30
  -6  -3  -4  -23.20   27.70
   6   3   4   15.30   23.00
   6   3   4   17.10   18.30
   6   3   4  -27.30   41.10
   9  -4  -4  363.06  108.39
   9  -4  -4  867.81   80.19
   9  -4  -4  615.04   47.10
  -9   4   4  618.84   47.40
   8  -4  -4  515.85   36.80
   8  -4  -4  561.04   40.90
   8  -4  -4  525.35   80.89
   8  -4  -4  308.57   92.39
  -8   4   4  503.15   40.00
  -8   4   4  534.45   42.50
   7  -4  -4  -12.70   24.30
   7  -4  -4  -22.40   35.90
   7  -4  -4   12.20   12.70
   7  -4  -4    7.50   10.90
  -7   4   4   -5.80    9.40
  -7   4   4   13.30   10.00
   6  -4  -4 1738.63  159.18
   6  -4  -4 2216.58  189.78
   6  -4  -4 2051.59   79.09
   6  -4  -4 2051.39   83.09
  -6   4   4 2053.69   86.89
  -6   4   4 2101.69   81.89
  -6   4   4 2157.98  126.09
   5  -4  -4  739.63   98.79
   5  -4  -4  720.03   40.60
   5  -4  -4  753.92   93.39
   5  -4  -4  722.83   38.00
  -5   4   4  743.73   41.30
  -5   4   4  835.32   63.79
  -5   4   4  820.12   45.00
   4  -4  -4  315.17   52.99
   4  -4  -4  194.98   19.60
   4  -4  -4  330.77   58.49
  -4   4   4  189.98   19.60
  -4   4   4  181.38   21.60
  -4   4   4  154.08   31.40
  -4   4   4  178.88   19.20
   3  -4  -4   -3.60   13.50
   3  -4  -4    7.30    6.40
   3  -4  -4   21.50   10.50
   3  -4  -4    2.70    9.50
   3  -4  -4    8.70   15.40
  -3   4   4    0.90    7.10
  -3   4   4    2.40    7.80
  -3   4   4    3.40   11.00
   2  -4  -4 1762.32  130.39
   2  -4  -4 1643.84   71.19
   2  -4  -4 1724.03   69.29
   2  -4  -4 1811.72  102.19
  -2   4   4 1744.93   84.39
  -2   4   4 1726.53   71.49
  -2   4   4 1784.42   77.29
   1  -4  -4 1134.59   80.29
   1  -4  -4 1256.57  100.29
   1  -4  -4 1182.78   53.49
   1  -4  -4 1061.29   54.99
  -1   4   4 1137.79   59.99
  -1   4   4 1124.29   54.39
  -1   4   4 1180.68   60.19
  -1   4   4 1197.48   52.29
  -1   4   4 1205.18   92.79
   0  -4  -4  500.05   58.79
   0  -4  -4  425.56   31.50
   0  -4  -4  440.76   57.79
   0   4   4  428.56   26.20
   0   4   4  477.95   65.19
   0   4   4  393.66   30.60
   0   4   4  394.56   34.80
  -1  -4  -4  418.56   33.60
  -1  -4  -4  503.85   63.69
  -1  -4  -4  449.26   35.60
  -1  -4  -4  465.35   57.39
   1   4   4  397.36   36.90
   1   4   4  445.96   34.90
   1   4   4  436.86   70.69
  -2  -4  -4 2620.54  166.08
  -2  -4  -4 2578.14  163.58
  -2  -4  -4 2725.43  105.49
  -2  -4  -4 2501.45   99.19
   2   4   4 2445.06  107.59
   2   4   4 2577.44  181.38
   2   4   4 2494.85   99.99
  -3  -4  -4  302.07   31.30
  -3  -4  -4  229.68   45.20
  -3  -4  -4  270.77   31.80
  -3  -4  -4  188.38   42.40
   3   4   4  236.48   61.29
   3   4   4  268.17   32.60
   3   4   4  283.67   32.10
  -4  -4  -4    0.10   15.00
  -4  -4  -4  -14.60   25.00
  -4  -4  -4   23.20   17.40
   4   4   4   16.30   14.50
   4   4   4   23.20   14.20
   4   4   4  -17.00   35.50
  -5  -4  -4  381.36   42.40
  -5  -4  -4  318.87   40.40
   5   4   4  340.17   39.40
   5   4   4  274.67   73.79
   5   4   4  395.86   47.40
  -6  -4  -4  329.17   40.30
   6   4   4  178.38   73.19
   6   4   4  341.87   40.10
  10  -5  -4  483.95   56.29
   9  -5  -4  -25.30   41.60
   9  -5  -4   18.10   13.70
  -9   5   4   56.59   19.50
   8  -5  -4  354.96   93.69
   8  -5  -4  308.57   80.39
   8  -5  -4  460.45   38.90
  -8   5   4  522.65   39.70
   7  -5  -4  851.41   45.80
   7  -5  -4  651.63  101.69
   7  -5  -4  751.12   46.20
   7  -5  -4  931.21  139.29
  -7   5   4  828.02   50.49
  -7   5   4  825.22   48.30
   6  -5  -4  774.62  114.39
   6  -5  -4  688.63   88.99
   6  -5  -4  700.13   39.90
   6  -5  -4  746.03   42.90
  -6   5   4  707.83   42.60
  -6   5   4  762.42   46.20
   5  -5  -4  466.65   34.00
   5  -5  -4  522.85   79.99
   5  -5  -4  474.05   30.90
   5  -5  -4  559.94   87.39
  -5   5   4  501.95   34.10
  -5   5   4  518.45   36.40
   4  -5  -4 3484.15  233.58
   4  -5  -4 3253.17  220.28
   4  -5  -4 3250.67  111.69
   4  -5  -4 3381.36  120.29
  -4   5   4 3451.85  159.38
  -4   5   4 3318.67  117.09
  -4   5   4 3384.76  121.09
  -4   5   4 3356.86  158.38
   3  -5  -4 1202.68   52.89
   3  -5  -4  939.61   53.69
   3  -5  -4 1137.59  106.29
   3  -5  -4 1112.79   71.59
  -3   5   4 1148.69   58.99
  -3   5   4 1155.68   57.99
  -3   5   4 1099.79   54.59
   2  -5  -4   -6.20    9.60
   2  -5  -4    9.30   13.70
   2  -5  -4    2.50   19.20
  -2   5   4    4.20   12.70
  -2   5   4    0.30    6.90
  -2   5   4   -6.40    7.40
   1  -5  -4 1333.07  108.59
   1  -5  -4 1314.77   60.69
   1  -5  -4 1361.06   91.99
   1  -5  -4 1134.49   60.69
  -1   5   4 1245.88   61.79
  -1   5   4 1383.76   68.19
  -1   5   4 1224.98   58.79
   0  -5  -4 1278.17   98.79
   0  -5  -4 1303.67  108.69
   0  -5  -4 1293.17   64.29
   0  -5  -4 1234.98   59.39
   0   5   4 1409.96   59.59
   0   5   4 1237.08   67.39
   0   5   4 1199.98   61.09
   0   5   4 1347.37  107.79
  -1  -5  -4  199.08   49.30
  -1  -5  -4  155.98   35.80
  -1  -5  -4  198.08   26.40
  -1  -5  -4  264.77   27.90
   1   5   4  174.18   47.80
   1   5   4  232.78   30.80
   1   5   4  210.38   25.20
  -2  -5  -4   11.60   14.80
  -2  -5  -4    9.80   15.90
  -2  -5  -4    1.00   23.20
  -2  -5  -4   21.40   13.10
   2   5   4   18.70   13.70
   2   5   4   30.50   14.00
   2   5   4   -1.60   34.10
  -3  -5  -4  593.94   44.70
  -3  -5  -4  578.64   45.70
  -3  -5  -4  524.35   81.89
   3   5   4  589.44   96.69
   3   5   4  608.24   47.50
   3   5   4  576.44   52.39
  -4  -5  -4  574.04   82.99
  -4  -5  -4  586.14   47.50
  -4  -5  -4  616.14   51.49
   4   5   4  543.85  102.09
   4   5   4  537.75   53.99
   4   5   4  573.44   47.10
  -5  -5  -4  -18.60   34.50
  -5  -5  -4   30.50   22.20
  -5  -5  -4   53.89   23.90
   5   5   4  -20.40   46.00
   5   5   4   82.79   24.30
   5   5   4   37.60   27.80
  10  -6  -4  701.63   70.59
   9  -6  -4  394.96   36.90
   9  -6  -4  310.07   99.89
  -9   6   4  390.06   37.90
   8  -6  -4   74.29   20.60
   8  -6  -4   81.69   61.89
  -8   6   4  100.49   23.70
   7  -6  -4  521.35  112.79
   7  -6  -4  332.27   73.89
   7  -6  -4  431.86   33.80
  -7   6   4  420.76   35.10
   6  -6  -4  962.40  127.69
   6  -6  -4  937.71   51.49
   6  -6  -4  895.41  110.29
   6  -6  -4  898.61   46.40
  -6   6   4  935.11   50.49
  -6   6   4  952.20   52.59
   5  -6  -4  821.72   43.20
   5  -6  -4  982.50  115.39
   5  -6  -4  885.21   48.60
   5  -6  -4  906.71   97.49
  -5   6   4  854.61   48.80
  -5   6   4  871.21   47.80
   4  -6  -4   51.59   24.80
   4  -6  -4   62.09   14.40
   4  -6  -4   73.39   17.20
   4  -6  -4   35.90   26.80
  -4   6   4   58.39   16.30
  -4   6   4   55.39   16.90
  -4   6   4   79.19   22.00
   3  -6  -4 1220.48   81.59
   3  -6  -4 1139.39  108.59
   3  -6  -4 1192.68   56.19
   3  -6  -4 1127.59   59.09
  -3   6   4 1160.98   60.49
  -3   6   4 1250.27   65.49
  -3   6   4 1187.78   61.09
   2  -6  -4  521.75   68.79
   2  -6  -4  423.06   33.10
   2  -6  -4  519.85   56.49
  -2   6   4  564.04   39.20
  -2   6   4  545.85   39.30
  -2   6   4  534.95   40.90
   1  -6  -4  528.45   68.79
   1  -6  -4  532.85   40.70
   1  -6  -4  577.64   38.00
   1  -6  -4  570.34   63.49
  -1   6   4  485.55   39.70
  -1   6   4  502.15   36.90
  -1   6   4  546.15   44.40
   0  -6  -4   20.40   22.30
   0  -6  -4   47.00   15.00
   0  -6  -4   10.60   19.30
   0  -6  -4    6.60   10.40
   0   6   4   28.70   15.80
   0   6   4   19.00   15.50
   0   6   4   33.20   12.20
  -1  -6  -4  931.31   58.49
  -1  -6  -4  842.42   91.99
  -1  -6  -4  991.80   99.19
   1   6   4  884.81   60.39
   1   6   4  901.31  103.59
   1   6   4 1005.20   57.69
  -2  -6  -4  530.85   84.19
  -2  -6  -4  673.53   79.29
  -2  -6  -4  645.74   48.20
  -2  -6  -4  663.43   49.40
   2   6   4  640.64   95.99
   2   6   4  642.24   47.90
   2   6   4  581.54   49.99
  -3  -6  -4   85.59   25.90
  -3  -6  -4   95.89   24.80
  -3  -6  -4   24.00   34.70
   3   6   4    4.20   41.30
   3   6   4   67.29   25.80
   3   6   4   80.39   22.80
  -4  -6  -4  191.68   36.10
  -4  -6  -4  272.37   39.40
   4   6   4  199.28   39.10
   4   6   4   93.19   58.09
   4   6   4  228.58   39.50
 -11   7   4  138.99   39.20
   9  -7  -4  264.57   33.70
   9  -7  -4  204.28   85.69
  -9   7   4  303.47   34.60
   8  -7  -4  740.93  143.59
   8  -7  -4  634.04   44.90
  -8   7   4  745.13   48.20
   7  -7  -4  470.35  109.69
   7  -7  -4  342.37   89.59
   7  -7  -4  356.36   31.70
  -7   7   4  391.16   34.40
   6  -7  -4   32.40   30.70
   6  -7  -4   29.70   15.20
   6  -7  -4   50.49   36.80
  -6   7   4   36.70   18.00
  -6   7   4   65.29   17.20
   5  -7  -4 1316.27  130.89
   5  -7  -4 1394.06  144.19
   5  -7  -4 1175.08   56.39
   5  -7  -4 1337.97   64.89
  -5   7   4 1351.66   63.79
  -5   7   4 1296.37   76.49
  -5   7   4 1214.38   62.29
   4  -7  -4  981.30  112.49
   4  -7  -4  900.21   64.29
   4  -7  -4  832.82   52.49
   4  -7  -4  866.61   99.29
   4  -7  -4  896.71   46.90
  -4   7   4  876.91   52.09
  -4   7   4  846.22   50.09
  -4   7   4  887.71   59.59
   3  -7  -4  140.79   23.00
   3  -7  -4   87.29   23.10
   3  -7  -4  107.09   34.00
   3  -7  -4  143.49   24.20
  -3   7   4  157.58   22.20
  -3   7   4  162.58   29.30
  -3   7   4  142.59   26.40
   2  -7  -4  173.88   22.40
   2  -7  -4  127.69   38.70
   2  -7  -4  126.09   29.40
  -2   7   4  171.88   25.00
  -2   7   4  169.48   29.50
  -2   7   4  127.39   24.60
   1  -7  -4 1007.70  108.89
   1  -7  -4  972.40   55.29
   1  -7  -4  926.61   88.39
   1  -7  -4  910.41   57.99
  -1   7   4 1031.90   63.59
  -1   7   4 1004.90   59.19
  -1   7   4 1020.90   59.19
   0  -7  -4  693.73   50.89
   0  -7  -4  721.63   86.79
   0  -7  -4  674.03   81.49
   0  -7  -4  656.13   44.50
   0   7   4  611.54   48.90
   0   7   4  699.83   46.20
   0   7   4  721.03   53.69
  -1  -7  -4   57.89   29.80
  -1  -7  -4   14.30   27.90
  -1  -7  -4   79.29   23.90
   1   7   4   47.60   19.20
   1   7   4   75.69   23.60
  -2  -7  -4  199.88   53.09
  -2  -7  -4  373.66   39.40
  -2  -7  -4  452.35   71.19
   2   7   4  353.36   43.20
   2   7   4  334.07   41.80
   2   7   4  235.28   64.29
  -3  -7  -4  638.84   56.89
  -3  -7  -4  570.64   49.80
   3   7   4  617.14  104.89
   3   7   4  606.44   57.79
   3   7   4  583.04   54.59
  -4  -7  -4  134.49   36.20
   4   7   4   95.79   34.50
 -10   8   4  279.17   53.89
   9  -8  -4   58.89   20.30
   9  -8  -4   96.29   68.59
  -9   8   4  105.49   24.70
  -9   8   4   81.79   32.20
   8  -8  -4   28.60   16.20
   8  -8  -4   76.29   52.99
  -8   8   4   28.20   23.00
  -8   8   4   24.70   16.40
   7  -8  -4  277.97   66.99
   7  -8  -4  460.25   38.20
   7  -8  -4  646.44  116.29
  -7   8   4  475.25   38.90
  -7   8   4  432.36   47.20
   6  -8  -4  920.41  125.49
   6  -8  -4  683.53  105.49
   6  -8  -4  814.42   50.29
  -6   8   4  731.13   61.89
  -6   8   4  745.03   47.60
   5  -8  -4  105.09   42.80
   5  -8  -4   97.29   22.40
   5  -8  -4   89.99   35.60
  -5   8   4  105.09   29.10
  -5   8   4  125.29   23.90
   4  -8  -4  264.57   32.70
   4  -8  -4  261.47   63.29
  -4   8   4  261.87   32.20
  -4   8   4  343.07   39.30
   3  -8  -4 1059.79  119.89
   3  -8  -4  994.20   60.79
   3  -8  -4 1055.09   85.39
  -3   8   4 1047.60   62.49
  -3   8   4 1020.70   66.89
   2  -8  -4  400.66   65.99
   2  -8  -4  460.65   76.29
   2  -8  -4  483.05   39.00
  -2   8   4  495.15   44.70
  -2   8   4  399.66   40.60
  -2   8   4  528.75   44.10
   1  -8  -4   -0.10   23.90
   1  -8  -4   32.70   16.50
   1  -8  -4   -6.80    9.00
   1  -8  -4  -28.70   20.40
  -1   8   4   18.50   15.90
  -1   8   4    8.60   15.50
  -1   8   4   -2.40   10.80
   0  -8  -4  199.28   46.90
   0  -8  -4  347.47   35.60
   0  -8  -4  375.76   40.70
   0  -8  -4  328.87   76.29
   0   8   4  339.67   40.10
   0   8   4  248.48   36.40
  -1  -8  -4  507.55   49.20
  -1  -8  -4  542.65   45.90
  -1  -8  -4  608.54   89.39
   1   8   4  392.26   46.10
  -2  -8  -4  122.89   34.70
   2   8   4  132.49   31.50
 -10   9   4   98.69   36.80
  -9   9   4  194.08   46.30
   8  -9  -4  208.68   71.49
   8  -9  -4  391.56   38.20
  -8   9   4  393.06   38.10
  -8   9   4  417.16   50.19
   7  -9  -4    6.20   13.00
   7  -9  -4  -32.90   33.00
  -7   9   4    2.90   14.90
  -7   9   4   12.00   14.00
   6  -9  -4  192.28   27.90
   6  -9  -4  381.36   86.49
   6  -9  -4   82.79   46.00
  -6   9   4  216.68   42.70
  -6   9   4  201.28   29.70
   5  -9  -4 1358.06  145.59
   5  -9  -4  976.90  130.59
   5  -9  -4  949.71   59.79
  -5   9   4 1045.10   60.39
  -5   9   4 1074.69   76.79
   4  -9  -4  569.94   47.70
   4  -9  -4  636.34  105.09
  -4   9   4  661.73   57.69
  -4   9   4  719.73   51.49
   3  -9  -4  239.48   33.30
   3  -9  -4  182.08   48.70
   3  -9  -4  162.58   36.30
  -3   9   4  287.27   36.90
  -3   9   4  248.68   36.00
   2  -9  -4  428.06   75.89
   2  -9  -4  531.65   94.59
  -2   9   4  596.64   51.39
  -2   9   4  510.55   47.50
   1  -9  -4  281.47   38.50
   1  -9  -4  353.86   84.49
  -1   9   4  375.06   41.40
  -1   9   4  381.56   42.10
   0  -9  -4   84.39   26.50
   0  -9  -4    9.70   34.10
   0  -9  -4   83.99   39.50
   0   9   4  108.19   29.30
  -1  -9  -4   51.39   26.50
  -1  -9  -4  -24.60   36.30
  -1  -9  -4  116.59   38.70
   1   9   4   44.60   24.90
  -9  10   4    0.70   22.10
  -8  10   4  223.38   49.70
   7 -10  -4  493.75   43.40
  -7  10   4  441.66   53.29
  -7  10   4  518.65   41.50
   6 -10  -4   32.10   44.50
   6 -10  -4  136.09   28.00
  -6  10   4  124.09   24.70
  -6  10   4  125.29   36.40
   5 -10  -4   35.60   19.50
   5 -10  -4   -2.00   31.20
  -5  10   4   24.40   22.50
  -5  10   4   47.10   19.50
   4 -10  -4  271.17   36.20
   4 -10  -4  194.78   57.99
  -4  10   4  264.57   36.30
  -4  10   4  259.07   46.70
   3 -10  -4  609.14  107.89
   3 -10  -4  647.44   50.69
  -3  10   4  672.83   54.19
  -3  10   4  593.34   56.99
   2 -10  -4   57.29   35.70
  -2  10   4   63.39   24.90
  -2  10   4   69.29   25.20
   1 -10  -4  170.88   34.60
   1 -10  -4  175.58   52.79
  -1  10   4  127.29   31.00
   0 -10  -4  476.35   94.29
  -9  11   4  236.78   53.89
  -8  11   4   66.09   34.20
  -7  11   4   30.40   25.50
  -6  11   4  364.26   53.09
  -6  11   4  425.96   41.10
   5 -11  -4  281.27   39.00
  -5  11   4  350.66   39.80
  -5  11   4  315.07   57.69
   4 -11  -4   31.00   22.20
  -4  11   4    2.90   17.90
  -4  11   4   10.20   17.10
   3 -11  -4  145.59   33.40
  -3  11   4  156.38   34.40
  -3  11   4  171.68   42.40
  -2  11   4  449.36   51.99
  -7  12   4  173.18   47.90
  -6  12   4    6.80   16.20
  -5  12   4  136.49   41.10
  -4  12   4  379.96   52.99
  -3  12   4  186.38   44.10
  -1  13  -5  278.67   57.79
  -2  13  -5  128.89   40.80
  -3  13  -5   20.60   24.60
  -4  13  -5  156.08   43.90
  -1  12  -5    8.50   22.20
  -3  12  -5  363.26   52.69
  -4  12  -5   75.29   30.50
  -5  12  -5   91.99   31.10
  -5  12  -5   81.49   32.20
  -6  12  -5  277.47   50.49
  -6  12  -5  353.46   51.09
   0  11  -5  582.54   63.49
   0 -11   5  859.31   95.89
   0 -11   5  933.41  104.29
  -1  11  -5  484.15   58.09
   1 -11   5  695.03   77.29
   1 -11   5  781.02   90.69
  -2  11  -5   20.10   18.10
   3 -11   5  536.85   54.69
   3 -11   5  467.25   44.30
   4 -11   5 1025.80  101.19
   4 -11   5 1007.80   88.29
  -6  11  -5  -11.60   15.30
  -6  11  -5    6.30   18.10
  -7  11  -5   82.39   30.80
  -7  11  -5   93.79   30.40
   3  10  -5   73.59   24.50
   2  10  -5  583.94   42.30
  -2 -10   5  655.33   94.39
  -2 -10   5  575.74   42.90
  -1 -10   5  304.67   28.30
  -1 -10   5  415.86   68.39
   0  10  -5  -13.10    7.80
   0  10  -5   -5.40   14.50
   0 -10   5   40.30   15.80
  -1  10  -5  183.08   40.90
  -1  10  -5  187.88   32.90
  -2  10  -5  902.71   60.59
  -2  10  -5  843.92   68.69
   2 -10   5 1127.79   95.59
   2 -10   5 1019.40  105.89
  -3  10  -5  354.46   37.70
  -3  10  -5  269.87   35.90
  -3  10  -5  238.18   44.50
  -4  10  -5   82.09   26.60
  -4  10  -5   37.80   19.40
  -4  10  -5   32.60   22.00
  -5  10  -5  298.67   34.90
  -5  10  -5  383.76   41.60
  -5  10  -5  311.27   43.10
  -6  10  -5  504.15   52.29
  -6  10  -5  490.55   51.99
   6 -10   5  602.34   78.49
  -7  10  -5   20.20   20.70
  -7  10  -5   59.39   24.30
  -8  10  -5   23.90   22.90
   4   9  -5  334.97   37.60
  -4  -9   5  318.17   38.70
   3   9  -5  273.77   31.70
  -3  -9   5  315.37   63.19
  -3  -9   5  239.28   30.20
   2   9  -5    9.10   12.30
  -2  -9   5   19.40   21.70
  -2  -9   5   -0.20    9.50
   1   9  -5  469.15   41.40
   1   9  -5  478.65   32.30
  -1  -9   5  464.45   32.40
  -1  -9   5  568.84   74.69
   0   9  -5  664.03   57.69
   0   9  -5  744.13   52.69
   0  -9   5  785.82   83.09
   0  -9   5  659.13   66.39
   0  -9   5  683.63   35.20
  -1   9  -5  222.68   40.70
  -1   9  -5  241.18   33.50
   1  -9   5  283.87   45.80
   1  -9   5  281.27   40.70
  -2   9  -5  122.19   26.10
  -2   9  -5  129.89   30.90
  -2   9  -5  125.29   27.80
   2  -9   5  225.28   37.20
   2  -9   5  232.98   37.00
  -3   9  -5  563.44   46.00
  -3   9  -5  706.23   47.20
  -3   9  -5  541.35   51.79
   3  -9   5  746.53   70.59
   3  -9   5  628.24   68.69
   3  -9   5  685.33   77.49
  -4   9  -5  443.16   39.00
  -4   9  -5  486.45   45.60
  -4   9  -5  412.56   44.40
   4  -9   5  659.33   60.59
   4  -9   5  704.13   83.49
   4  -9   5  721.43   71.29
  -5   9  -5   56.29   23.30
  -5   9  -5   45.00   18.50
  -5   9  -5   17.80   18.90
  -6   9  -5  194.58   37.50
  -6   9  -5  188.28   37.70
   6  -9   5  349.27   51.39
  -7   9  -5  398.16   43.70
  -7   9  -5  389.86   45.50
   7  -9   5  577.84   87.29
  -8   9  -5  127.09   35.10
   5   8  -5   99.19   25.80
   4   8  -5    5.20   14.60
  -4  -8   5    3.40   14.00
  -4  -8   5   15.10   24.70
   3   8  -5  536.05   39.60
  -3  -8   5  500.35   70.89
  -3  -8   5  588.04   42.80
  -3  -8   5  675.93   86.99
   2   8  -5  891.61   45.80
   2   8  -5  789.52   51.49
  -2  -8   5  796.02   80.19
  -2  -8   5  928.61   94.59
  -2  -8   5  884.51   48.40
   1   8  -5  214.98   21.20
   1   8  -5  198.28   26.60
  -1  -8   5  213.38   20.70
  -1  -8   5  236.18   46.40
  -1  -8   5  187.78   38.70
   0   8  -5  311.77   33.30
   0   8  -5  279.77   19.30
   0   8  -5  303.97   37.70
   0  -8   5  296.87   20.30
   0  -8   5  377.96   54.69
   0  -8   5  308.17   42.90
  -1   8  -5 1520.55   85.29
  -1   8  -5 1453.65   73.19
  -1   8  -5 1468.05   70.19
   1  -8   5 1615.54  118.79
   1  -8   5 1465.85   50.49
   1  -8   5 1641.54  113.89
  -2   8  -5  432.96   41.40
  -2   8  -5  435.26   36.10
  -2   8  -5  451.75   38.60
   2  -8   5  475.75   56.09
   2  -8   5  489.35   60.29
  -3   8  -5  -16.50    8.60
  -3   8  -5   -3.70   10.50
  -3   8  -5    1.70   14.20
  -4   8  -5  270.07   33.70
  -4   8  -5  310.67   30.20
  -4   8  -5  338.87   37.60
   4  -8   5  491.75   65.69
   4  -8   5  456.75   52.39
   4  -8   5  367.16   53.39
  -5   8  -5  784.82   57.69
  -5   8  -5  804.12   46.90
  -5   8  -5  842.02   60.49
   5  -8   5  902.51   92.49
   5  -8   5  940.31  104.09
  -6   8  -5  285.17   39.40
  -6   8  -5  235.58   32.50
   6  -8   5  367.76   58.99
   6  -8   5  373.56   66.69
  -7   8  -5   11.80   16.50
   7  -8   5   46.60   23.50
  -8   8  -5  261.97   48.50
  -6  -7   5  -66.59   31.10
  -6  -7   5   -0.70   34.90
   5   7  -5  494.45   42.20
  -5  -7   5  515.75   79.09
  -5  -7   5  550.14   47.40
   4   7  -5  512.75   38.80
  -4  -7   5  380.56   66.79
  -4  -7   5  604.74   82.69
  -4  -7   5  521.85   42.90
   3   7  -5  188.38   30.70
   3   7  -5  204.08   25.20
  -3  -7   5  149.88   38.20
  -3  -7   5  175.18   41.20
  -3  -7   5  196.28   25.00
   2   7  -5  459.95   30.40
   2   7  -5  432.66   37.30
  -2  -7   5  515.95   69.29
  -2  -7   5  363.56   52.99
  -2  -7   5  504.65   34.10
   1   7  -5 1474.35   68.19
   1   7  -5 1586.24   57.49
  -1  -7   5 1557.94   61.89
  -1  -7   5 1553.64  118.09
  -1  -7   5 1525.85  106.79
   0   7  -5  346.87   31.10
   0   7  -5  380.96   32.10
   0   7  -5  353.46   37.10
   0   7  -5  388.26   19.60
   0  -7   5  370.06   21.10
   0  -7   5  336.27   45.70
   0  -7   5  348.47   49.50
  -1   7  -5   -2.50    7.80
  -1   7  -5    5.40    9.50
  -1   7  -5    1.70    7.70
   1  -7   5    2.60    6.20
   1  -7   5    3.40    2.50
   1  -7   5    5.30   11.30
  -2   7  -5  783.32   43.20
  -2   7  -5  701.63   45.60
  -2   7  -5  766.02   52.39
  -3   7  -5  842.42   53.99
  -3   7  -5  702.53   48.40
  -3   7  -5  869.91   45.10
   3  -7   5  851.61   89.79
  -4   7  -5  122.19   26.00
  -4   7  -5  135.19   26.30
  -4   7  -5  132.59   21.30
   4  -7   5   95.89   29.90
  -5   7  -5    3.90   10.40
  -5   7  -5   10.40   11.40
  -5   7  -5   -5.70   11.40
   5  -7   5    6.50   11.20
  -6   7  -5  583.24   53.09
  -6   7  -5  559.14   44.90
   6  -7   5  533.05   89.79
   6  -7   5  624.24   81.89
  -7   7  -5  439.16   47.90
   7  -7   5  430.96   93.39
   7  -7   5  612.14   84.59
  -8   7  -5   -4.70   17.30
  -9   7  -5   -2.50   19.40
  -7  -6   5  207.88   60.09
   6   6  -5  441.66   41.80
  -6  -6   5  280.17   62.09
  -6  -6   5  472.65   46.10
  -6  -6   5  389.26   70.29
   5   6  -5    5.10   13.70
  -5  -6   5   11.20   21.70
  -5  -6   5   13.70   12.80
  -5  -6   5  -23.50   24.50
   4   6  -5  905.91   51.19
   4   6  -5  892.41   49.70
  -4  -6   5  890.71   54.29
  -4  -6   5  806.52   85.19
  -4  -6   5  932.31   96.09
   3   6  -5  296.67   25.90
   3   6  -5  295.37   28.00
  -3  -6   5  311.47   51.79
  -3  -6   5  311.57   55.99
  -3  -6   5  305.77   28.80
   2   6  -5  605.84   38.00
   2   6  -5  642.74   34.00
  -2  -6   5  636.34   36.80
  -2  -6   5  585.64   61.79
  -2  -6   5  621.94   70.59
   1   6  -5    3.60   12.10
   1   6  -5   23.40    8.10
  -1  -6   5    9.80   10.50
  -1  -6   5    7.10   12.50
  -1  -6   5   13.90    7.50
   0   6  -5 1572.64   65.29
   0   6  -5 1543.15   67.39
   0   6  -5 1550.84   49.99
   0   6  -5 1515.05   77.49
   0   6  -5 1539.75   49.90
   0  -6   5 1614.34  110.39
   0  -6   5 1564.44   54.79
  -1   6  -5 1488.65   66.89
  -1   6  -5 1498.85   74.09
  -1   6  -5 1494.95   62.39
   1  -6   5 1510.05   46.80
   1  -6   5 1509.55   45.80
   1  -6   5 1374.66  107.79
  -2   6  -5  666.33   44.50
  -2   6  -5  718.33   43.60
  -2   6  -5  691.03   38.30
  -3   6  -5  561.94   41.00
  -3   6  -5  559.14   33.70
  -3   6  -5  622.64   42.10
   3  -6   5  552.24   60.19
   3  -6   5  583.84   21.60
   3  -6   5  568.44   67.89
  -4   6  -5 1751.52   82.09
  -4   6  -5 1864.51   87.39
  -4   6  -5 1880.51   70.19
   4  -6   5 1770.32  145.29
   4  -6   5 1781.92  130.59
   4  -6   5 1834.12   62.39
   4  -6   5 1846.12  126.29
  -5   6  -5  252.87   28.00
  -5   6  -5  300.27   37.00
  -5   6  -5  271.77   17.80
   5  -6   5  295.57   58.29
   5  -6   5  307.67   21.90
   5  -6   5  277.17   50.59
  -6   6  -5    4.30    8.40
  -6   6  -5   18.60   14.90
   6  -6   5   26.50   30.10
   6  -6   5    8.90    8.90
   6  -6   5   39.80   25.70
  -7   6  -5  204.28   22.40
  -7   6  -5  280.17   47.40
   7  -6   5  214.98   25.40
   7  -6   5  313.17   67.39
  -8   6  -5  389.16   50.89
   8  -6   5  384.76   37.40
  -9   6  -5   63.49   31.90
   7   5  -5    1.50   12.10
  -7  -5   5  -11.40   11.40
   6   5  -5  486.95   39.80
  -6  -5   5  526.25   45.00
  -6  -5   5  425.26   75.99
  -6  -5   5  511.55   79.59
   5   5  -5  762.42   47.30
   5   5  -5  737.23   51.69
   5   5  -5  735.53   44.60
  -5  -5   5  717.73   45.70
  -5  -5   5  782.32   52.99
  -5  -5   5  842.62   90.39
  -5  -5   5  678.13   82.69
   4   5  -5  422.56   32.30
   4   5  -5  405.66   32.30
   4   5  -5  424.66   32.20
  -4  -5   5  389.06   59.99
  -4  -5   5  410.66   30.40
  -4  -5   5  448.66   36.50
  -4  -5   5  433.86   63.29
   3   5  -5  199.28   19.80
   3   5  -5  180.08   22.50
   3   5  -5  177.98   19.60
  -3  -5   5  126.19   15.80
  -3  -5   5  151.58   18.90
   2   5  -5 1403.26   59.19
   2   5  -5 1416.06   53.79
   2   5  -5 1393.26   53.39
  -2  -5   5 1307.17  102.09
  -2  -5   5 1354.56   96.99
  -2  -5   5 1333.77   57.79
  -2  -5   5 1333.27   51.09
   1   5  -5 1442.36   48.10
   1   5  -5 1481.25   60.09
   1   5  -5 1430.56   59.39
   1   5  -5 1397.86   50.19
   1   5  -5 1420.46   50.39
  -1  -5   5 1335.67   96.59
  -1  -5   5 1446.26   51.59
  -1  -5   5 1423.06   48.20
  -1  -5   5 1412.26   55.09
   0   5  -5  435.76   19.10
   0   5  -5  430.06   29.60
   0   5  -5  441.26   35.00
   0   5  -5  428.46   29.20
   0   5  -5  427.66   19.30
   0  -5   5  460.75   15.10
   0  -5   5  414.76   21.40
   0  -5   5  399.56   51.99
   0  -5   5  419.16   19.50
  -1   5  -5  928.81   46.90
  -1   5  -5  820.52   25.30
  -1   5  -5  950.50   51.09
  -1   5  -5  818.62   40.50
  -1   5  -5  909.11   26.10
   1  -5   5  890.61   66.09
   1  -5   5  877.31   31.30
  -2   5  -5 1587.64   70.99
  -2   5  -5 1640.64   61.69
  -2   5  -5 1622.84   70.89
   2  -5   5 1430.16   50.69
   2  -5   5 1548.15   49.10
   2  -5   5 1620.94  105.19
  -3   5  -5  395.46   26.50
  -3   5  -5  423.86   17.70
  -3   5  -5  419.56   16.60
  -3   5  -5  435.26   35.00
  -3   5  -5  416.16   31.10
   3  -5   5  442.06   56.19
   3  -5   5  365.56   20.50
   3  -5   5  419.56   51.49
  -4   5  -5   32.10    8.70
  -4   5  -5   46.40   13.90
  -4   5  -5   40.70   12.40
  -4   5  -5   31.30   15.00
   4  -5   5   19.30   19.00
   4  -5   5   46.30   10.10
   4  -5   5   27.20   18.40
  -5   5  -5  462.95   32.90
  -5   5  -5  400.26   39.80
  -5   5  -5  437.26   26.40
   5  -5   5  406.26   28.10
   5  -5   5  465.05   68.99
   5  -5   5  372.66   70.49
  -6   5  -5  644.14   36.20
  -6   5  -5  661.93   56.19
   6  -5   5  632.34   39.60
   6  -5   5  616.74   34.80
   6  -5   5  663.73   88.39
   6  -5   5  558.24   91.89
  -7   5  -5  176.08   23.00
  -7   5  -5  209.08   41.10
   7  -5   5  165.78   26.20
   7  -5   5  140.49   20.90
   7  -5   5  143.79   48.80
  -8   5  -5   -0.80   13.30
  -8   5  -5   27.20   25.30
   8  -5   5   16.60   12.30
   8  -5   5   14.20   14.60
  -9   5  -5  239.68   49.30
  -8  -4   5  129.29   46.20
  -8  -4   5  148.69   55.19
   7   4  -5  584.24   46.10
   7   4  -5  521.05   42.90
  -7  -4   5  533.45   49.70
  -7  -4   5  568.34   45.30
  -7  -4   5  421.16   79.99
  -7  -4   5  423.06   76.19
   6   4  -5   37.00   15.60
   6   4  -5   42.10   15.80
  -6  -4   5   46.00   17.50
  -6  -4   5   13.70   32.10
  -6  -4   5   26.90   23.50
  -6  -4   5   32.20   15.60
   5   4  -5  162.58   21.70
   5   4  -5  178.28   23.50
   5   4  -5  178.88   24.00
  -5  -4   5  104.59   37.30
  -5  -4   5  110.99   29.70
  -5  -4   5  178.18   22.30
  -5  -4   5  148.89   27.10
   4   4  -5 1203.98   55.09
   4   4  -5 1189.28   55.69
   4   4  -5 1184.68   52.49
  -4  -4   5 1138.19   95.49
  -4  -4   5 1174.18   53.49
  -4  -4   5 1150.38   96.19
  -4  -4   5 1184.08   60.49
   3   4  -5 1207.58   51.39
   3   4  -5 1164.98   51.19
   3   4  -5 1209.88   50.89
  -3  -4   5 1053.39   53.79
  -3  -4   5 1168.98   88.69
  -3  -4   5 1173.38   91.39
  -3  -4   5 1232.08   50.09
   2   4  -5   51.49   10.70
   2   4  -5   55.59   10.60
   2   4  -5   43.70   10.30
   2   4  -5   46.80   13.60
  -2  -4   5   30.90   14.70
  -2  -4   5   22.50   16.80
  -2  -4   5   48.20    9.70
  -2  -4   5   58.59   10.50
  -2  -4   5   51.69   11.80
   1   4  -5  969.70   43.40
   1   4  -5  978.00   37.30
   1   4  -5  947.01   42.80
   1   4  -5  972.40   37.40
  -1  -4   5 1003.50   38.00
  -1  -4   5  964.20   35.70
  -1  -4   5  906.51   75.69
  -1  -4   5  977.70   55.79
  -1  -4   5  995.20   41.40
   0   4  -5 3795.92  134.49
   0   4  -5 3781.92  107.69
   0   4  -5 3576.04  115.69
   0   4  -5 3675.43  120.99
   0  -4   5 3761.82  114.09
   0  -4   5 3467.55  199.08
   0  -4   5 3745.83  105.19
   0  -4   5 3788.32  184.68
   0  -4   5 3803.32  110.99
  -1   4  -5  606.14   36.60
  -1   4  -5  590.54   24.10
  -1   4  -5  578.04   31.20
  -1   4  -5  619.14   22.70
  -1   4  -5  607.74   36.20
   1  -4   5  584.44   24.90
   1  -4   5  630.64   52.09
   1  -4   5  675.43   28.20
  -2   4  -5  312.07   17.00
  -2   4  -5  350.46   16.40
  -2   4  -5  311.77   27.20
  -2   4  -5  346.87   25.80
  -2   4  -5  352.66   24.40
   2  -4   5  311.77   42.40
   2  -4   5  321.97   17.90
   2  -4   5  337.17   11.60
   2  -4   5  309.57   40.90
   2  -4   5  321.77   19.10
  -3   4  -5 1197.28   53.69
  -3   4  -5 1278.57   63.69
  -3   4  -5 1084.49   47.80
   3  -4   5 1129.59   94.29
   3  -4   5 1156.38   46.70
   3  -4   5 1083.59   90.09
  -4   4  -5  900.91   56.89
  -4   4  -5  965.20   40.70
  -4   4  -5  995.70   43.20
  -4   4  -5  874.21   44.90
   4  -4   5  919.41   91.89
   4  -4   5  936.41   43.80
   4  -4   5  965.40   89.19
  -5   4  -5   80.79   25.40
  -5   4  -5   83.49   15.60
   5  -4   5   89.19   31.40
   5  -4   5   94.49   17.00
   5  -4   5   50.89   29.00
  -6   4  -5   56.89   14.60
  -6   4  -5   66.19   25.40
   6  -4   5   12.20   30.60
   6  -4   5   62.79   34.20
   6  -4   5   42.00   15.20
  -7   4  -5  439.56   47.90
  -7   4  -5  472.15   36.50
   7  -4   5  447.36   38.60
   7  -4   5  492.55   85.09
   7  -4   5  473.95   35.00
  -8   4  -5  335.17   36.80
  -8   4  -5  340.27   48.30
   8  -4   5  314.17   31.90
  -9   4  -5    6.50   19.60
   8   3  -5   76.69   24.20
   8   3  -5   82.09   24.30
  -8  -3   5   -9.20   35.90
  -8  -3   5   79.79   27.20
  -8  -3   5   76.49   23.60
   7   3  -5  243.58   31.90
   7   3  -5  275.57   33.60
  -7  -3   5  190.98   41.00
  -7  -3   5  316.07   35.80
  -7  -3   5  130.09   48.40
  -7  -3   5  276.57   32.20
   6   3  -5 1480.15   71.49
   6   3  -5 1378.26   67.99
  -6  -3   5 1431.46   74.49
  -6  -3   5 1461.35  111.49
  -6  -3   5 1327.37   65.49
  -6  -3   5 1239.98  113.09
   5   3  -5 1087.29   53.59
   5   3  -5 1122.99   56.29
   5   3  -5 1067.89   47.90
  -5  -3   5 1083.19   96.39
  -5  -3   5 1100.39   59.59
  -5  -3   5 1105.09   53.89
  -5  -3   5 1018.70   88.99
   4   3  -5  267.47   24.30
   4   3  -5  256.17   22.40
   4   3  -5  285.07   22.30
  -4  -3   5  259.07   21.80
  -4  -3   5  257.97   42.90
  -4  -3   5  346.47   53.89
  -4  -3   5  246.08   26.20
   3   3  -5 1095.59   46.50
   3   3  -5 1100.69   47.00
   3   3  -5 1073.99   45.40
  -3  -3   5 1046.70   82.89
  -3  -3   5 1031.60   50.49
  -3  -3   5  985.40   80.19
  -3  -3   5 1092.79   45.80
   2   3  -5  893.11   37.50
   2   3  -5  889.01   37.20
   2   3  -5  858.81   36.80
   2   3  -5  870.71   39.00
   2   3  -5  852.41   36.40
  -2  -3   5  841.62   68.49
  -2  -3   5  873.01   37.20
  -2  -3   5  838.92   36.00
  -2  -3   5  862.41   41.10
   1   3  -5 1135.59   39.90
   1   3  -5 1093.29   44.60
   1   3  -5 1065.79   40.40
   1   3  -5 1133.19   41.50
   1   3  -5 1073.89   44.40
  -1  -3   5 1008.20   60.29
  -1  -3   5 1150.18   40.30
  -1  -3   5 1103.79   45.00
  -1  -3   5 1151.98   41.60
  -1  -3   5 1063.19   80.99
   0  -3   5   -0.80    3.40
   0  -3   5    2.00    3.30
   0  -3   5    0.80    4.90
   0  -3   5    1.00   13.20
  -1   3  -5  926.61   29.40
  -1   3  -5  927.11   43.70
  -1   3  -5  890.61   35.60
  -1   3  -5  815.52   34.50
  -1   3  -5  927.41   45.30
   1  -3   5  919.41   39.00
   1  -3   5  934.31   33.30
   1  -3   5  971.70   36.80
   1  -3   5  917.41   67.09
  -2   3  -5 2971.70   94.59
  -2   3  -5 3379.86  108.09
  -2   3  -5 3292.57   95.69
  -2   3  -5 3125.09  113.09
  -2   3  -5 2717.03   90.59
   2  -3   5 2885.81   99.79
   2  -3   5 3257.57   94.49
   2  -3   5 3028.50  172.58
   2  -3   5 3150.48   99.39
   2  -3   5 3011.40  181.48
  -3   3  -5  458.75   37.20
  -3   3  -5  528.55   28.40
  -3   3  -5  564.34   29.70
  -3   3  -5  603.04   28.60
   3  -3   5  573.64   60.49
   3  -3   5  500.95   26.60
   3  -3   5  556.44   31.00
   3  -3   5  506.85   59.19
  -4   3  -5  682.23   49.30
  -4   3  -5  802.42   38.20
   4  -3   5  759.32   40.60
   4  -3   5  776.52   80.89
   4  -3   5  707.83   81.69
  -5   3  -5  858.01   43.90
  -5   3  -5  843.02   58.49
   5  -3   5  934.41   49.10
   5  -3   5  860.51   94.29
   5  -3   5  832.42   97.19
  -6   3  -5  367.16   32.30
  -6   3  -5  402.66   44.70
   6  -3   5  332.37   33.50
   6  -3   5  388.86   74.89
  -7   3  -5    3.00   14.40
  -7   3  -5   -6.80   14.80
   7  -3   5    0.60   27.80
   7  -3   5   -3.90   12.00
  -8   3  -5  145.09   38.80
   8  -3   5  190.88   29.50
  -9   3  -5  159.98   41.10
   9   2  -5  132.39   29.70
   9   2  -5  129.29   29.80
  -9  -2   5  135.39   35.00
  -9  -2   5  107.59   27.90
   8   2  -5  578.64  136.19
   8   2  -5  588.14   50.49
   8   2  -5  692.03   51.39
  -8  -2   5  555.84   88.19
  -8  -2   5  647.64   49.99
  -8  -2   5  658.73   55.49
   7   2  -5  404.36   37.70
   7   2  -5  351.96   35.10
   7   2  -5  256.97   76.09
  -7  -2   5  362.86   39.80
  -7  -2   5  316.47   31.10
  -7  -2   5  327.17   59.79
  -7  -2   5  269.17   52.69
   6   2  -5   66.89   18.50
   6   2  -5   45.20   43.00
   6   2  -5   62.69   18.40
  -6  -2   5   61.69   29.10
  -6  -2   5   58.29   21.40
  -6  -2   5   69.99   18.90
  -6  -2   5   89.29   19.60
   5   2  -5  906.81   48.20
   5   2  -5  913.21   48.40
   5   2  -5  934.41   40.40
   5   2  -5  895.41  115.99
  -5  -2   5 1000.80   78.59
  -5  -2   5  973.50   88.39
  -5  -2   5  903.31   47.60
  -5  -2   5  967.10   54.79
   4   2  -5 1668.33   67.09
   4   2  -5 1791.02  148.09
   4   2  -5 1641.04   65.69
   4   2  -5 1670.93   59.69
  -4  -2   5 1634.64   65.19
  -4  -2   5 1623.24  106.89
  -4  -2   5 1616.04   71.69
  -4  -2   5 1603.84  112.29
   3   2  -5   96.89   14.40
   3   2  -5  109.09   14.80
   3   2  -5   69.49   28.00
   3   2  -5  100.29   12.60
  -3  -2   5   97.59   16.70
  -3  -2   5   69.99   23.90
  -3  -2   5   98.19   13.60
   2   2  -5  527.85   26.60
   2   2  -5  506.95   26.20
   2   2  -5  502.25   26.40
   2   2  -5  512.55   23.70
   2   2  -5  511.25   27.00
  -2  -2   5  489.85   49.00
  -2  -2   5  457.95   28.60
  -2  -2   5  506.45   26.10
  -2  -2   5  515.35   26.00
   1   2  -5  913.81   35.60
   1   2  -5  846.82   35.90
   1   2  -5  801.92   33.60
   1   2  -5  826.72   33.50
  -1  -2   5  811.62   67.29
  -1  -2   5  834.82   33.60
  -1  -2   5  834.02   34.20
  -1  -2   5  786.52   62.89
  -1  -2   5  782.32   51.59
  -1  -2   5  866.71   38.70
   0   2  -5 3064.99  101.39
   0   2  -5 3281.67  101.49
   0   2  -5 3498.25  101.69
   0   2  -5 3399.26  108.19
   0  -2   5 3331.07  103.89
   0  -2   5 3299.07  108.89
   0  -2   5 3454.75  101.49
   0  -2   5 3065.29  166.68
  -1   2  -5  222.58   20.80
  -1   2  -5  188.68   16.20
  -1   2  -5  191.38   17.10
  -1   2  -5  198.48   14.80
   1  -2   5  214.48   16.20
   1  -2   5  204.18   15.70
   1  -2   5  180.98   22.40
   1  -2   5  209.18   31.70
   1  -2   5  191.98   17.10
  -2   2  -5 1784.42   66.89
  -2   2  -5 2124.79   69.69
   2  -2   5 1904.61   72.49
   2  -2   5 2094.99  124.09
   2  -2   5 2116.89   72.79
   2  -2   5 1802.12   66.69
   2  -2   5 1874.91  123.69
  -3   2  -5 1602.04   59.79
  -3   2  -5 1584.04   60.09
  -3   2  -5 1391.46   57.49
   3  -2   5 1547.65   63.99
   3  -2   5 1453.95  111.79
   3  -2   5 1552.74  113.29
   3  -2   5 1598.04   60.19
  -4   2  -5  572.84   32.70
  -4   2  -5  561.44   33.60
   4  -2   5  515.95   69.49
   4  -2   5  514.75   32.30
   4  -2   5  541.85   35.90
   4  -2   5  495.85   69.79
  -5   2  -5  154.28   23.00
   5  -2   5   54.49   34.30
   5  -2   5   96.09   39.20
   5  -2   5  140.59   23.00
  -6   2  -5  461.75   36.20
   6  -2   5  496.05   40.80
   6  -2   5  399.46   79.19
   6  -2   5  313.77   79.19
  -7   2  -5  182.28   29.60
  -7   2  -5  214.38   40.40
   7  -2   5  167.88   59.39
   7  -2   5  184.98   32.60
  -8   2  -5  167.48   39.60
   8  -2   5  196.48   32.20
   9   1  -5   54.89   23.00
   9   1  -5  -34.20   51.49
   9   1  -5   36.30   22.20
  -9  -1   5   65.99   25.80
  -9  -1   5   51.59   22.40
   8   1  -5    3.50   11.00
   8   1  -5    0.10   36.70
   8   1  -5    3.80   14.90
  -8  -1   5    9.80   13.00
  -8  -1   5   -1.70   10.10
  -8  -1   5  -16.40   21.80
   7   1  -5  850.21   50.79
   7   1  -5  912.41  139.49
   7   1  -5  870.31   53.09
  -7  -1   5  831.32   50.29
  -7  -1   5  725.33   88.29
  -7  -1   5  853.81   56.49
  -7  -1   5  812.22   74.89
   6   1  -5 1681.73   73.89
   6   1  -5 1646.84   74.39
   6   1  -5 1639.84  162.78
  -6  -1   5 1769.02   82.29
  -6  -1   5 1607.94   71.69
  -6  -1   5 1650.63  120.59
  -6  -1   5 1698.83  109.19
   5   1  -5   75.99   40.60
   5   1  -5   72.79   15.40
   5   1  -5   88.49   16.60
   5   1  -5   76.99   12.40
   5   1  -5   94.29   18.30
  -5  -1   5  117.49   22.40
  -5  -1   5   53.39   16.40
  -5  -1   5   78.59   31.70
  -5  -1   5   85.29   17.20
   4   1  -5  438.66   24.40
   4   1  -5  451.15   28.60
   4   1  -5  459.45   24.20
   4   1  -5  451.55   23.80
   4   1  -5  439.46   29.00
   4   1  -5  565.74   78.99
  -4  -1   5  449.56   32.90
  -4  -1   5  513.55   57.89
  -4  -1   5  432.86   28.50
  -4  -1   5  428.86   44.60
   3   1  -5 3726.23  176.48
   3   1  -5 4297.37  244.78
   3   1  -5 3777.12  123.59
   3   1  -5 3982.10  127.39
   3   1  -5 4115.39  118.99
  -3  -1   5 3935.81  132.89
  -3  -1   5 4106.29  203.38
  -3  -1   5 3977.30  125.09
   2   1  -5 1832.92   64.99
   2   1  -5 1784.92   63.29
   2   1  -5 1821.42   64.49
   2   1  -5 1802.42   57.89
   2   1  -5 1795.02   92.59
   2   1  -5 1883.41  117.59
  -2  -1   5 1705.13  107.09
  -2  -1   5 1841.22   64.09
  -2  -1   5 1912.51  117.49
  -2  -1   5 1767.42   68.99
   1   1  -5   77.69   17.20
   1   1  -5   77.69   12.40
   1   1  -5   76.19   10.40
   1   1  -5   71.39   11.70
   1   1  -5   79.79   11.40
  -1  -1   5   83.99   22.20
  -1  -1   5   69.99   14.10
  -1  -1   5   82.19   14.70
  -1  -1   5   85.49   19.70
  -1  -1   5   95.19   11.80
  -1  -1   5   78.79   10.10
   0   1  -5  644.34   31.70
   0   1  -5  664.53   32.10
   0   1  -5  635.54   31.10
   0  -1   5  610.14   52.39
   0  -1   5  677.53   35.80
   0  -1   5  689.43   32.20
   0  -1   5  663.73   31.50
  -1   1  -5 3032.00   96.89
  -1   1  -5 2854.31   94.19
   1  -1   5 2512.95  158.28
   1  -1   5 2755.52   99.59
   1  -1   5 3031.80  153.48
   1  -1   5 3064.59   99.09
   1  -1   5 3034.30   95.39
  -2   1  -5  933.21   42.80
  -2   1  -5  892.51   40.90
  -2   1  -5  800.42   39.40
   2  -1   5  895.01   66.89
   2  -1   5  945.41   65.99
   2  -1   5  701.73   71.79
   2  -1   5  847.12   43.00
   2  -1   5  856.41   40.20
  -3   1  -5   91.59   16.70
  -3   1  -5  104.79   17.70
   3  -1   5   94.59   16.00
   3  -1   5   92.19   17.50
   3  -1   5   48.60   26.90
   3  -1   5   58.59   22.90
  -4   1  -5  666.83   39.30
  -4   1  -5  687.53   39.40
   4  -1   5  676.53   38.60
   4  -1   5  637.24   74.09
   4  -1   5  557.04   71.19
   4  -1   5  622.64   41.60
  -5   1  -5 1124.39   55.39
   5  -1   5  860.21   97.39
   5  -1   5  994.40   57.69
   5  -1   5  986.00  107.29
  -6   1  -5  111.69   23.40
   6  -1   5   87.29   39.40
   6  -1   5   84.89   22.40
  -7   1  -5  112.99   27.90
   7  -1   5  125.79   30.50
   7  -1   5   75.69   47.20
 -10   0   5   45.20   25.50
   9   0  -5  434.86   44.50
   9   0  -5  404.56   42.00
   9   0  -5  252.97   96.39
  -9   0   5  430.36   43.40
  -9   0   5  418.26   45.80
   8   0  -5  548.25   44.30
   8   0  -5  522.25   45.70
   8   0  -5  522.05  132.69
  -8   0   5  602.74   76.59
  -8   0   5  599.44   48.90
  -8   0   5  611.34   46.50
   7   0  -5   23.30   12.80
   7   0  -5   26.50   15.80
   7   0  -5  -13.10   40.80
  -7   0   5    6.10   15.30
  -7   0   5   12.60   11.20
  -7   0   5   -2.90   26.80
  -7   0   5    0.40   11.90
   6   0  -5  436.56   41.50
   6   0  -5  416.76   93.59
   6   0  -5  443.96   33.20
   6   0  -5  360.76   31.50
  -6   0   5  391.36   55.49
  -6   0   5  437.86   33.30
  -6   0   5  422.06   37.30
  -6   0   5  414.96   43.70
   5   0  -5 1883.41  159.28
   5   0  -5 1717.33   57.79
   5   0  -5 1621.64   68.29
   5   0  -5 1729.73   72.09
  -5   0   5 1731.93   70.49
  -5   0   5 1752.02   76.99
  -5   0   5 1748.53  102.89
  -5   0   5 1781.62  119.29
   4   0  -5 1243.48   68.09
   4   0  -5 1179.08   51.39
   4   0  -5 1222.58   53.49
   4   0  -5 1401.36  117.39
  -4   0   5 1148.49   51.69
  -4   0   5 1329.87   59.49
  -4   0   5 1263.97   90.59
   3   0  -5  288.67   20.60
   3   0  -5  294.77   23.20
   3   0  -5  358.06   54.49
   3   0  -5  302.27   27.50
  -3   0   5  310.17   24.50
  -3   0   5  292.27   39.90
  -3   0   5  309.77   21.50
   2   0  -5 1823.12  110.49
   2   0  -5 1803.92   56.59
   2   0  -5 1726.03   63.29
   2   0  -5 1841.92   65.89
   2   0  -5 2021.60  133.19
   2   0  -5 1598.04   93.49
  -2   0   5 1520.75   92.39
  -2   0   5 1726.03   69.19
  -2   0   5 1760.92   64.19
  -2   0   5 1811.72  105.59
  -2   0   5 1715.13  105.69
   1   0  -5 1618.34   63.09
   1   0  -5 1583.14   61.09
   1   0  -5 1890.61  124.79
  -1   0   5 1641.44  102.69
  -1   0   5 1628.04   62.49
  -1   0   5 1652.33   99.29
  -1   0   5 1719.63   69.19
   0   0  -5  300.37   45.30
   0   0  -5  257.87   21.30
   0   0  -5  234.08   20.20
   0   0   5  282.07   24.10
   0   0   5  293.07   21.50
   0   0   5  300.37   40.10
  -1   0  -5  201.98   18.70
  -1   0  -5  176.48   19.00
   1   0   5  155.48   19.50
   1   0   5  188.28   17.50
   1   0   5  187.58   38.30
  -2   0  -5 1087.49   50.29
  -2   0  -5 1148.49   78.99
  -2   0  -5 1144.79   50.99
   2   0   5 1052.89   91.49
   2   0   5 1152.08   51.09
   2   0   5 1155.48   76.89
   2   0   5 1106.39   54.19
  -3   0  -5 1412.36   61.99
  -3   0  -5 1489.55   62.79
   3   0   5 1225.48  106.99
   3   0   5 1361.96   66.19
   3   0   5 1434.26  107.99
   3   0   5 1529.25   62.99
  -4   0  -5   32.60   12.70
  -4   0  -5   30.70   12.80
   4   0   5   23.90   29.20
   4   0   5   15.20   21.30
   4   0   5   17.70   14.30
   4   0   5   30.00   13.30
  -5   0  -5  426.46   36.40
   5   0   5  375.06   69.79
   5   0   5  350.36   32.10
   5   0   5  317.67   63.39
   5   0   5  400.96   36.70
  -6   0  -5  490.15   42.50
   6   0   5  470.75   80.49
   6   0   5  465.45   42.80
  -7   0  -5  152.38   32.40
   7   0   5   67.39   54.09
  10  -1  -5  359.76   42.80
   9  -1  -5    5.40   12.40
   9  -1  -5   10.40   15.90
   9  -1  -5  -61.89   53.79
  -9   1   5    2.40   11.00
  -9   1   5   11.70   18.40
   8  -1  -5  477.85   40.10
   8  -1  -5  429.76   38.60
   8  -1  -5  283.67   88.99
  -8   1   5  498.25   43.50
  -8   1   5  517.75   41.90
  -8   1   5  364.56   69.59
   7  -1  -5 1165.78   60.19
   7  -1  -5 1155.18  154.18
   7  -1  -5 1282.97   87.49
   7  -1  -5 1150.28   62.39
  -7   1   5 1189.48   61.19
  -7   1   5 1145.59  102.79
  -7   1   5 1103.39   65.79
   6  -1  -5  876.61   47.70
   6  -1  -5  927.51  123.79
   6  -1  -5  867.91   49.60
  -6   1   5  895.21   84.19
  -6   1   5  918.11   61.49
  -6   1   5  940.31   49.50
  -6   1   5  936.01   53.99
   5  -1  -5  516.05   33.50
   5  -1  -5  613.14   91.29
   5  -1  -5  490.75   31.60
  -5   1   5  517.85   42.10
  -5   1   5  529.25   34.10
  -5   1   5  530.25   62.49
  -5   1   5  503.05   36.40
   4  -1  -5 2820.52   99.29
   4  -1  -5 2954.70  194.98
   4  -1  -5 3019.10  198.08
   4  -1  -5 2553.44   94.59
  -4   1   5 2853.21  104.99
  -4   1   5 2873.61  154.38
  -4   1   5 2677.73   96.79
   3  -1  -5 1612.04  121.89
   3  -1  -5 1555.14  112.29
   3  -1  -5 1429.56   57.89
   3  -1  -5 1541.55   61.49
  -3   1   5 1509.25   59.79
  -3   1   5 1508.85   65.19
  -3   1   5 1430.56   92.29
   2  -1  -5  202.58   41.50
   2  -1  -5  175.18   28.10
   2  -1  -5  160.28   16.50
   2  -1  -5  156.08   17.20
  -2   1   5  158.78   27.10
  -2   1   5  175.48   28.50
  -2   1   5  157.78   16.80
  -2   1   5  175.88   20.80
   1  -1  -5  680.23   36.30
   1  -1  -5  717.03   45.00
   1  -1  -5  667.93   70.99
   1  -1  -5  733.43   37.20
  -1   1   5  647.04   56.39
  -1   1   5  721.83   61.09
  -1   1   5  664.23   40.70
  -1   1   5  738.13   37.60
   0  -1  -5  927.51   43.80
   0  -1  -5 1031.40   58.39
   0  -1  -5  867.01   79.99
   0   1   5 1030.10   81.39
   0   1   5 1011.50   46.10
   0   1   5  964.50   49.20
  -1  -1  -5 2458.35  134.59
  -1  -1  -5 2238.68   84.79
  -1  -1  -5 2097.39  140.99
   1   1   5 2021.80   87.19
   1   1   5 2501.45  148.49
   1   1   5 2297.57   83.89
  -2  -1  -5  492.75   51.09
  -2  -1  -5  440.86   32.40
  -2  -1  -5  435.16   32.60
   2   1   5  407.56   34.10
   2   1   5  431.76   31.80
   2   1   5  477.35   65.79
  -3  -1  -5 1330.07   62.29
  -3  -1  -5 1287.07   60.29
   3   1   5 1310.77   60.59
   3   1   5 1359.56  114.79
   3   1   5 1280.77   65.89
  -4  -1  -5 1511.35   70.89
  -4  -1  -5 1457.55   69.29
   4   1   5 1480.55  129.89
   4   1   5 1386.16   67.39
   4   1   5 1458.65   74.69
  -5  -1  -5  249.38   31.30
  -5  -1  -5  251.47   30.60
   5   1   5  257.97   28.20
   5   1   5  210.28   59.79
   5   1   5  236.18   33.50
  -6  -1  -5   33.80   19.50
   6   1   5    9.60   36.80
   6   1   5   65.59   25.50
   9  -2  -5  269.27   36.00
   9  -2  -5  329.37   36.10
   9  -2  -5  206.28   92.59
  -9   2   5  317.87   36.30
  -9   2   5  316.37   36.90
   8  -2  -5  106.79   22.90
   8  -2  -5   48.50   58.19
   8  -2  -5  181.68   33.00
   8  -2  -5   94.99   22.20
  -8   2   5   65.89   35.70
  -8   2   5  157.38   30.20
  -8   2   5   95.79   22.70
   7  -2  -5   14.20   12.80
   7  -2  -5   15.00   41.00
   7  -2  -5    7.00   11.90
  -7   2   5  -16.30   16.10
  -7   2   5   22.00   12.90
  -7   2   5    5.00   13.00
   6  -2  -5  995.80   49.99
   6  -2  -5 1042.90   53.29
   6  -2  -5 1069.19  130.99
   6  -2  -5  980.50  109.19
  -6   2   5  957.40   50.69
  -6   2   5 1052.59   58.49
  -6   2   5 1012.70   86.79
  -6   2   5 1033.00   58.89
   5  -2  -5 2060.49  163.78
   5  -2  -5 2044.00  157.98
   5  -2  -5 1703.43   71.49
   5  -2  -5 1752.82   74.49
  -5   2   5 1886.11   80.99
  -5   2   5 1882.71   96.89
  -5   2   5 1788.22   73.99
  -5   2   5 1858.81  117.69
   4  -2  -5  547.65   79.89
   4  -2  -5  480.35   32.40
   4  -2  -5  431.26   28.00
   4  -2  -5  466.05   66.89
  -4   2   5  482.95   31.60
  -4   2   5  487.25   51.09
  -4   2   5  450.25   33.60
   3  -2  -5 1303.67   54.09
   3  -2  -5 1380.26  101.59
   3  -2  -5 1367.46   59.29
   3  -2  -5 1128.69  109.89
  -3   2   5 1253.97   81.19
  -3   2   5 1321.17   56.49
  -3   2   5 1389.86   62.29
   2  -2  -5 3872.11  128.39
   2  -2  -5 3734.73  238.28
   2  -2  -5 4137.49  225.88
   2  -2  -5 3902.01  133.39
  -2   2   5 4037.60  139.39
  -2   2   5 4176.98  192.78
  -2   2   5 3941.71  131.09
   1  -2  -5  341.47   50.19
   1  -2  -5  381.36   26.90
   1  -2  -5  364.26   26.70
  -1   2   5  355.16   45.10
  -1   2   5  396.06   32.90
  -1   2   5  361.16   39.30
  -1   2   5  427.76   29.80
   0  -2  -5  121.99   16.90
   0  -2  -5   99.49   18.90
   0  -2  -5   85.59   25.10
   0  -2  -5  107.69   27.30
   0   2   5  126.59   20.10
   0   2   5  109.29   20.40
   0   2   5  121.19   31.30
  -1  -2  -5  896.41   47.30
  -1  -2  -5  881.31   78.39
  -1  -2  -5  735.83   41.60
   1   2   5  860.01   80.89
   1   2   5  699.13   45.10
   1   2   5  825.12   44.10
  -2  -2  -5  721.83   69.39
  -2  -2  -5  809.32   44.90
  -2  -2  -5  770.42   46.80
   2   2   5  783.12   50.39
   2   2   5  768.12   44.30
   2   2   5  850.41   84.89
  -3  -2  -5  187.78   26.40
  -3  -2  -5  123.39   21.70
   3   2   5  186.78   30.40
   3   2   5  154.48   47.60
   3   2   5  149.88   21.00
  -4  -2  -5   12.00   15.30
  -4  -2  -5   12.00   14.60
   4   2   5    2.80   24.00
   4   2   5    1.50   10.50
   4   2   5   -5.10    7.20
  -5  -2  -5  476.95   42.90
  -5  -2  -5  488.05   44.20
   5   2   5  475.85   47.50
   5   2   5  485.15   42.40
   5   2   5  522.25   93.59
  -6  -2  -5  462.35   47.00
   6   2   5  475.95   52.59
   6   2   5  331.77   80.09
   9  -3  -5  210.18   27.40
   9  -3  -5  225.08   32.60
   9  -3  -5   90.19   75.89
  -9   3   5  256.77   34.60
  -9   3   5  195.98   32.40
   8  -3  -5  935.91   54.59
   8  -3  -5  875.71  141.39
   8  -3  -5  893.41   56.99
  -8   3   5  974.50   94.99
  -8   3   5 1049.89   63.69
  -8   3   5  928.41   55.19
   7  -3  -5  534.85   85.79
   7  -3  -5  581.64  118.99
   7  -3  -5  609.34   42.80
   7  -3  -5  553.24   37.40
  -7   3   5  539.85   38.50
  -7   3   5  607.74   45.30
  -7   3   5  464.35   64.99
   6  -3  -5    2.40    9.50
   6  -3  -5    6.80   31.40
   6  -3  -5   -5.80   24.00
   6  -3  -5    5.30    8.60
  -6   3   5   -1.60    9.80
  -6   3   5   -1.00   10.50
  -6   3   5   -9.20   20.20
   5  -3  -5  719.93   89.99
   5  -3  -5  834.12   99.99
   5  -3  -5  769.32   44.50
   5  -3  -5  736.23   40.00
  -5   3   5  842.82   69.79
  -5   3   5  779.72   42.70
  -5   3   5  812.02   47.00
  -5   3   5  771.22   49.30
   4  -3  -5 2381.26   88.79
   4  -3  -5 1944.21  158.88
   4  -3  -5 2190.48   81.59
   4  -3  -5 2467.75  167.28
  -4   3   5 2285.47  117.89
  -4   3   5 2198.38   84.79
  -4   3   5 2253.97  124.69
  -4   3   5 2261.17   90.29
   3  -3  -5  846.52   77.59
   3  -3  -5  809.02   42.70
   3  -3  -5  825.62   46.20
   3  -3  -5  845.62   91.19
  -3   3   5  830.22   44.50
  -3   3   5  821.42   47.20
  -3   3   5  891.01   60.99
   2  -3  -5   66.59   19.40
   2  -3  -5  113.39   20.40
   2  -3  -5   69.99   16.40
   2  -3  -5   78.09   26.20
  -2   3   5  111.79   20.00
  -2   3   5  107.49   20.70
  -2   3   5   71.79   16.60
   1  -3  -5 2415.66   90.29
   1  -3  -5 2468.05  164.78
  -1   3   5 2306.67  125.19
  -1   3   5 2353.76   91.09
  -1   3   5 2495.75  151.88
  -1   3   5 2521.15   99.79
   0  -3  -5 1747.33   75.39
   0  -3  -5 1922.01  132.59
   0  -3  -5 1709.73   72.69
   0  -3  -5 1960.20  121.59
   0   3   5 1625.34   73.19
   0   3   5 1828.62   81.19
   0   3   5 1784.52  127.09
  -1  -3  -5   66.79   18.70
  -1  -3  -5   54.89   24.40
  -1  -3  -5   46.90   24.90
   1   3   5   55.09   34.40
   1   3   5   75.49   17.70
   1   3   5   63.09   19.50
  -2  -3  -5  139.69   24.50
  -2  -3  -5   82.89   28.90
  -2  -3  -5   72.99   25.40
  -2  -3  -5  130.39   22.80
   2   3   5  137.39   27.40
   2   3   5   91.19   41.30
   2   3   5  108.59   20.50
  -3  -3  -5 1073.89  104.99
  -3  -3  -5 1129.19   62.49
  -3  -3  -5 1246.98   65.79
   3   3   5 1146.79  118.39
   3   3   5 1127.09   68.99
   3   3   5 1099.29   61.39
  -4  -3  -5  677.13   50.19
  -4  -3  -5  686.43   49.00
  -4  -3  -5  600.24   86.09
   4   3   5  657.73   55.49
   4   3   5  676.63   49.40
   4   3   5  622.24   99.09
  -5  -3  -5    7.80   15.70
  -5  -3  -5    7.10   18.50
   5   3   5    9.90   15.00
   5   3   5  -29.90   36.90
   5   3   5   -3.90   14.90
   9  -4  -5  363.16   37.00
   9  -4  -5  165.78   85.09
   9  -4  -5  536.35   58.69
  -9   4   5  367.56   38.20
   8  -4  -5   -8.50   11.30
   8  -4  -5  -24.70   32.90
   8  -4  -5    3.60   25.80
   8  -4  -5    0.30    9.60
  -8   4   5    4.00   12.20
  -8   4   5   10.20   10.50
   7  -4  -5  533.45   36.80
   7  -4  -5  594.24  115.99
   7  -4  -5  600.44   96.89
   7  -4  -5  602.64   42.70
  -7   4   5  542.85   40.60
  -7   4   5  629.84   46.00
  -7   4   5  602.74   67.59
   6  -4  -5 1185.68  134.69
   6  -4  -5 1029.00  120.29
   6  -4  -5 1094.79   52.89
   6  -4  -5 1136.69   57.29
  -6   4   5 1142.29   85.89
  -6   4   5 1117.09   60.79
  -6   4   5 1104.69   56.49
   5  -4  -5  681.73   92.79
   5  -4  -5  708.73   43.10
   5  -4  -5  584.14   89.59
   5  -4  -5  660.23   38.30
  -5   4   5  685.53   43.30
  -5   4   5  660.83   59.29
  -5   4   5  619.24   40.00
   4  -4  -5  381.06   73.09
   4  -4  -5  356.76   63.99
   4  -4  -5  317.77   28.10
   4  -4  -5  287.77   26.10
  -4   4   5  278.37   36.90
  -4   4   5  333.17   30.00
  -4   4   5  318.67   28.70
   3  -4  -5 1728.63  135.19
   3  -4  -5 1803.22  130.99
   3  -4  -5 1681.73   70.49
   3  -4  -5 1609.64   73.19
  -3   4   5 1746.23   93.09
  -3   4   5 1736.03   78.89
  -3   4   5 1635.74   73.49
   2  -4  -5 1269.67   61.09
   2  -4  -5 1444.16  116.09
   2  -4  -5 1307.47   62.29
  -2   4   5 1405.56   75.19
  -2   4   5 1426.06   65.29
  -2   4   5 1306.27   68.19
   1  -4  -5   44.90   25.70
   1  -4  -5   44.00   17.70
   1  -4  -5   47.70   15.00
   1  -4  -5   45.60   14.70
  -1   4   5   35.90   28.70
  -1   4   5   67.79   20.30
  -1   4   5   48.60   13.60
  -1   4   5   51.89   17.20
  -1   4   5   51.59   12.70
   0  -4  -5  524.55   66.89
   0  -4  -5  462.05   37.40
   0  -4  -5  499.75   63.09
   0  -4  -5  432.66   34.90
   0   4   5  392.36   32.80
   0   4   5  465.85   64.39
   0   4   5  446.46   37.30
  -1  -4  -5  752.82   78.79
  -1  -4  -5  763.32   80.09
  -1  -4  -5  800.62   50.49
   1   4   5  703.53   50.99
   1   4   5  669.93   88.29
   1   4   5  695.23   45.30
  -2  -4  -5  640.44   73.49
  -2  -4  -5  559.14   43.70
  -2  -4  -5  584.04   72.19
  -2  -4  -5  627.94   46.80
   2   4   5  504.85   44.50
   2   4   5  598.84   44.80
   2   4   5  608.74   89.59
  -3  -4  -5   28.50   15.40
  -3  -4  -5   20.20   14.40
  -3  -4  -5  -23.30   21.80
   3   4   5   10.50   14.90
   3   4   5  -15.20   35.50
   3   4   5   31.60   17.50
  -4  -4  -5  339.67   37.30
  -4  -4  -5  459.95   44.40
   4   4   5  352.36   40.00
   4   4   5  345.47   80.79
   4   4   5  338.17   41.60
  -5  -4  -5  403.56   86.79
  -5  -4  -5  468.75   46.90
  -5  -4  -5  463.75   49.20
   5   4   5  276.17   76.59
   5   4   5  422.56   52.59
   5   4   5  402.16   44.60
   9  -5  -5  497.15   42.20
   9  -5  -5  311.47  103.89
  -9   5   5  546.55   44.70
   8  -5  -5  482.85  128.69
   8  -5  -5  465.65   96.29
   8  -5  -5  493.85   38.10
   8  -5  -5  475.65   41.00
  -8   5   5  494.45   39.00
   7  -5  -5   22.10   33.80
   7  -5  -5   40.60   41.60
   7  -5  -5   46.40   17.70
   7  -5  -5   40.50   15.20
  -7   5   5   65.09   18.30
  -7   5   5   56.59   19.00
   6  -5  -5   66.59   41.50
   6  -5  -5   68.69   18.30
   6  -5  -5   70.79   16.60
   6  -5  -5   29.80   32.30
  -6   5   5   59.09   23.10
  -6   5   5   94.39   20.30
  -6   5   5   87.39   20.70
   5  -5  -5 1725.43  149.79
   5  -5  -5 1569.14   66.89
   5  -5  -5 1584.64   72.69
   5  -5  -5 1546.15  142.29
  -5   5   5 1600.64   74.99
  -5   5   5 1601.04   70.89
  -5   5   5 1570.54   94.99
   4  -5  -5 1219.78   62.09
   4  -5  -5 1131.29   54.09
   4  -5  -5 1185.28  117.89
   4  -5  -5 1275.27  115.69
  -4   5   5 1139.09   61.49
  -4   5   5 1099.99   58.79
  -4   5   5 1139.89   70.79
   3  -5  -5   -4.80   22.50
   3  -5  -5    7.80   16.50
   3  -5  -5    4.30    8.40
   3  -5  -5   -3.00    7.70
  -3   5   5    0.20   12.20
  -3   5   5   -9.30    9.90
  -3   5   5    3.40   13.50
   2  -5  -5  818.52   70.59
   2  -5  -5  832.52   48.20
   2  -5  -5  788.52   47.10
   2  -5  -5  808.92   92.59
  -2   5   5  882.31   56.19
  -2   5   5  884.01   51.39
  -2   5   5  841.82   46.00
  -2   5   5  791.52   46.70
   1  -5  -5 2043.20  151.98
   1  -5  -5 1898.81   81.49
   1  -5  -5 1884.31   85.89
   1  -5  -5 1886.01  126.29
  -1   5   5 2031.50   81.19
  -1   5   5 1884.21   82.99
  -1   5   5 2073.59   93.49
  -1   5   5 1947.71   92.29
   0  -5  -5  359.56   33.50
   0  -5  -5  298.87   31.00
   0  -5  -5  351.16   62.89
   0  -5  -5  342.57   51.69
   0   5   5  321.07   31.30
   0   5   5  365.96   67.09
   0   5   5  377.46   38.00
  -1  -5  -5  122.39   26.60
  -1  -5  -5   90.89   31.40
  -1  -5  -5   75.19   30.20
   1   5   5  110.09   25.30
   1   5   5  106.79   26.60
   1   5   5   86.49   42.80
  -2  -5  -5  468.05   42.50
  -2  -5  -5  450.35   43.60
  -2  -5  -5  490.55   68.69
  -2  -5  -5  466.05   68.19
   2   5   5  486.05   89.19
   2   5   5  436.56   43.50
   2   5   5  535.85   45.30
  -3  -5  -5  607.64   50.99
  -3  -5  -5  499.75   84.89
  -3  -5  -5  527.25   45.40
   3   5   5  617.54  103.09
   3   5   5  588.54   55.09
   3   5   5  565.64   49.10
  -4  -5  -5   91.49   28.80
  -4  -5  -5   14.00   34.70
  -4  -5  -5   53.89   22.80
   4   5   5   65.69   23.20
   4   5   5  -14.70   45.70
   4   5   5   85.19   27.10
  -5  -5  -5   54.49   26.50
   9  -6  -5  -43.10   31.70
   9  -6  -5  -38.00   43.60
   9  -6  -5   23.90   16.50
  -9   6   5   38.10   18.00
   8  -6  -5   51.69   19.40
   8  -6  -5   96.99   61.09
   8  -6  -5   35.00   43.90
  -8   6   5   81.19   21.20
   7  -6  -5 1197.78   59.39
   7  -6  -5 1252.57   65.49
   7  -6  -5 1017.50  124.79
   7  -6  -5 1378.36  163.28
  -7   6   5 1247.78   64.29
   6  -6  -5  425.06   32.20
   6  -6  -5  341.27   83.39
   6  -6  -5  452.45   94.89
   6  -6  -5  423.36   34.80
  -6   6   5  404.56   35.80
  -6   6   5  436.06   36.10
   5  -6  -5   10.30   10.50
   5  -6  -5   -1.30    9.70
   5  -6  -5  -10.30   19.60
   5  -6  -5    7.10   20.80
  -5   6   5   -0.20   10.60
  -5   6   5   11.70   13.20
   4  -6  -5  472.15   74.09
   4  -6  -5  497.35   35.80
   4  -6  -5  444.86   80.29
   4  -6  -5  429.36   38.30
  -4   6   5  543.35   41.80
  -4   6   5  465.45   37.10
  -4   6   5  500.75   41.20
   3  -6  -5 1949.01   84.29
   3  -6  -5 2051.19  164.68
   3  -6  -5 2113.89   90.79
  -3   6   5 2110.89   90.69
  -3   6   5 1932.31   91.59
  -3   6   5 2062.69   93.89
   2  -6  -5  212.88   44.20
   2  -6  -5  194.48   28.40
   2  -6  -5  138.39   40.20
  -2   6   5  211.28   31.70
  -2   6   5  193.88   24.30
  -2   6   5  166.88   29.60
   1  -6  -5  107.79   29.80
   1  -6  -5  207.28   27.20
   1  -6  -5  128.39   38.10
   1  -6  -5  234.28   25.90
  -1   6   5  129.79   25.90
  -1   6   5  160.78   30.00
   0  -6  -5  766.72   51.49
   0  -6  -5  650.03   46.50
   0  -6  -5  673.03   74.69
   0  -6  -5  721.23   91.59
   0   6   5  682.53   50.49
   0   6   5  773.52   89.29
   0   6   5  760.12   55.69
  -1  -6  -5  773.62   92.59
  -1  -6  -5  766.82   83.99
  -1  -6  -5  740.83   53.39
   1   6   5  738.13   57.89
   1   6   5  725.63   52.19
   1   6   5  748.13   95.19
  -2  -6  -5  -21.20   26.30
  -2  -6  -5  -21.90   15.00
  -2  -6  -5  -20.70   18.50
   2   6   5  -25.80   35.40
   2   6   5   -4.30   16.10
   2   6   5   -9.10   15.20
  -3  -6  -5   48.80   23.90
  -3  -6  -5  -29.20   27.70
  -3  -6  -5   21.40   21.10
   3   6   5   19.90   21.90
   3   6   5   64.19   26.40
   3   6   5   -8.30   41.60
  -4  -6  -5  256.37   43.80
  -4  -6  -5  209.98   40.20
   4   6   5  278.87   45.40
   4   6   5  278.17   49.60
   9  -7  -5  638.64   50.09
   9  -7  -5  350.26   84.99
   9  -7  -5  411.16  114.29
  -9   7   5  616.64   48.20
   8  -7  -5  135.99   63.49
   8  -7  -5  124.49   24.40
   8  -7  -5   42.60   46.60
  -8   7   5  187.98   30.40
   7  -7  -5   10.20   35.70
   7  -7  -5  123.99   25.10
   7  -7  -5   75.19   44.10
  -7   7   5  138.39   25.60
   6  -7  -5  573.34   44.10
   6  -7  -5  468.45   85.09
   6  -7  -5  575.14  103.19
  -6   7   5  601.34   43.60
   5  -7  -5  665.53   96.29
   5  -7  -5  437.46   89.79
   5  -7  -5  539.65   43.80
   5  -7  -5  550.84   37.80
  -5   7   5  517.45   48.50
  -5   7   5  553.54   41.20
  -5   7   5  489.25   39.00
   4  -7  -5  158.48   25.00
   4  -7  -5  208.38   54.69
   4  -7  -5  119.29   25.60
   4  -7  -5   92.19   40.30
  -4   7   5  157.98   28.10
  -4   7   5  151.08   27.60
  -4   7   5  169.18   32.00
   3  -7  -5   67.89   35.20
   3  -7  -5   47.00   15.70
   3  -7  -5   72.89   21.00
   3  -7  -5   50.59   20.10
  -3   7   5   76.59   21.50
  -3   7   5   91.29   24.10
  -3   7   5   60.49   19.00
   2  -7  -5  819.92   80.19
   2  -7  -5  959.50   55.19
   2  -7  -5  865.11  107.69
  -2   7   5  931.21   57.89
  -2   7   5  768.42   58.29
  -2   7   5  823.52   54.19
   1  -7  -5  855.31   57.49
   1  -7  -5  909.61   89.69
   1  -7  -5  934.51   56.09
   1  -7  -5  896.71  109.19
  -1   7   5  895.91   56.79
  -1   7   5  981.40   55.89
  -1   7   5  974.00   63.29
   0  -7  -5   -8.10   22.90
   0  -7  -5  -13.90   14.80
   0  -7  -5   -8.90   23.90
   0  -7  -5   11.30   14.40
   0   7   5    0.60   12.30
   0   7   5   -7.80   14.60
  -1  -7  -5  230.98   52.79
  -1  -7  -5  351.86   77.09
  -1  -7  -5  423.16   45.50
  -1  -7  -5  419.76   38.40
   1   7   5  336.97   38.50
   1   7   5  409.96   45.60
  -2  -7  -5  515.05   51.49
   2   7   5  447.96   95.49
   2   7   5  495.25   51.19
   2   7   5  503.95   51.79
  -3  -7  -5  140.69   36.00
   3   7   5  123.09   33.70
   3   7   5   34.90   50.79
   3   7   5  106.19   33.40
 -10   8   5   89.79   35.20
   9  -8  -5   36.50   47.90
  -9   8   5   32.40   25.70
   8  -8  -5  465.55   42.00
  -8   8   5  464.75   54.89
  -8   8   5  406.36   40.00
   7  -8  -5  270.67   69.99
   7  -8  -5  451.15   39.00
   7  -8  -5  651.93  115.69
  -7   8   5  484.45   54.09
  -7   8   5  446.36   39.20
   6  -8  -5  164.68   29.80
   6  -8  -5   75.59   44.50
   6  -8  -5  300.07   76.89
  -6   8   5  149.29   36.40
  -6   8   5  116.79   25.20
   5  -8  -5  467.25   81.19
   5  -8  -5  171.28   55.49
   5  -8  -5  273.87   34.70
  -5   8   5  263.77   38.50
  -5   8   5  286.97   34.70
   4  -8  -5 1238.78  126.99
   4  -8  -5 1057.79   65.09
   4  -8  -5  985.50  125.99
  -4   8   5 1045.60   65.09
  -4   8   5  990.10   69.39
   3  -8  -5  452.25   60.59
   3  -8  -5  470.45   43.00
   3  -8  -5  408.36   78.59
  -3   8   5  455.05   43.90
  -3   8   5  470.65   44.20
   2  -8  -5  -32.10   18.10
   2  -8  -5    0.20   13.00
   2  -8  -5   -6.20   20.10
  -2   8   5   -4.20   11.50
  -2   8   5    1.30   11.50
  -2   8   5   -0.60   12.30
   1  -8  -5  418.96   88.89
   1  -8  -5  404.66   38.90
   1  -8  -5  349.87   41.90
  -1   8   5  467.45   46.30
  -1   8   5  359.06   41.40
   0  -8  -5  520.15   45.20
   0  -8  -5  458.85   92.59
   0  -8  -5  430.66   82.79
   0  -8  -5  426.26   46.70
   0   8   5  466.55   44.50
   0   8   5  518.85   50.99
  -1  -8  -5  148.59   36.30
  -1  -8  -5  145.79   30.80
  -1  -8  -5  141.69   48.40
  -1  -8  -5   61.69   41.80
   1   8   5  188.08   35.40
 -10   9   5  267.37   54.89
  -9   9   5  116.49   36.50
   8  -9  -5   96.29   46.40
   8  -9  -5   11.70   16.60
  -8   9   5   28.50   25.60
  -8   9   5    5.70   17.20
   7  -9  -5  154.78   29.00
   7  -9  -5   81.69   45.70
  -7   9   5  158.68   41.00
  -7   9   5  194.28   31.00
   6  -9  -5  447.36  108.79
   6  -9  -5  600.74   49.40
  -6   9   5  561.24   56.49
  -6   9   5  581.34   46.60
   5  -9  -5  163.18   56.49
   5  -9  -5  248.48   36.00
  -5   9   5  219.88   42.20
  -5   9   5  255.47   34.80
   4  -9  -5  -11.30   14.40
   4  -9  -5   -7.80   21.00
  -4   9   5    1.20   11.60
  -4   9   5    4.90   16.70
   3  -9  -5  552.74  104.59
   3  -9  -5  674.43   52.99
  -3   9   5  610.94   54.19
  -3   9   5  592.44   51.69
   2  -9  -5  502.35   78.19
   2  -9  -5  572.24   96.19
  -2   9   5  621.94   52.19
  -2   9   5  599.24   50.89
   1  -9  -5  -24.00   27.60
   1  -9  -5    4.60   18.30
   1  -9  -5   24.00   34.50
  -1   9   5   45.10   21.70
   0  -9  -5   37.30   34.40
   0  -9  -5   25.90   20.00
   0  -9  -5  -31.30   33.00
   0   9   5   30.10   21.90
  -9  10   5  275.37   55.99
  -8  10   5  278.27   56.49
  -7  10   5  147.19   30.60
  -7  10   5  140.99   41.60
   6 -10  -5   38.40   40.40
   6 -10  -5  143.59   31.30
  -6  10   5  128.09   36.70
  -6  10   5  115.79   27.80
   5 -10  -5  274.07   73.39
   5 -10  -5  392.56   45.10
  -5  10   5  367.46   49.00
  -5  10   5  447.96   45.80
   4 -10  -5   97.19   50.09
   4 -10  -5  186.68   35.40
  -4  10   5  211.48   43.60
  -4  10   5  145.59   33.80
   3 -10  -5   58.09   46.70
   3 -10  -5  115.69   29.10
  -3  10   5  111.39   30.60
  -3  10   5  132.19   33.80
   2 -10  -5   18.70   40.60
   2 -10  -5  -38.20   27.40
  -2  10   5  121.79   32.70
  -2  10   5   78.79   24.20
   1 -10  -5  144.39   49.50
   1 -10  -5  354.46   88.29
  -8  11   5  185.48   47.50
  -7  11   5  198.78   50.79
  -6  11   5  178.88   43.60
  -5  11   5   70.59   31.50
  -4  11   5  272.87   50.69
  -3  11   5  313.77   44.30
  -7  12   5   -6.60   18.20
  -6  12   5  132.09   38.40
  -5  12   5  323.37   59.99
  -4  12   5  120.79   37.20
  -1  12  -6  213.68   48.30
  -2  12  -6  425.56   57.89
  -3  12  -6   41.20   24.20
  -4  12  -6   66.29   29.50
  -5  12  -6  276.07   49.70
  -5  12  -6  262.97   52.29
   0 -11   6  648.24   83.49
   1 -11   6  278.67   40.40
   1 -11   6  399.26   48.50
   2 -11   6  736.83   65.49
   2 -11   6  700.83   75.19
  -3  11  -6  414.06   53.09
  -3  11  -6  442.66   46.40
  -3  11  -6  410.06   46.80
  -4  11  -6  122.79   34.20
  -4  11  -6   89.99   34.80
  -4  11  -6  133.09   32.40
  -5  11  -6  -10.00   16.30
  -5  11  -6  -15.50   15.90
  -6  11  -6  115.79   34.80
  -6  11  -6  161.58   38.80
   3  10  -6  341.67   37.80
  -2 -10   6  308.37   31.60
  -2 -10   6  424.96   76.79
   1  10  -6   52.59   28.50
  -1 -10   6   39.60   23.10
   0  10  -6  306.77   37.10
   0 -10   6  363.76   57.19
  -1  10  -6  578.14   48.40
  -1  10  -6  632.54   60.79
   1 -10   6  873.21   85.99
  -2  10  -6  179.08   40.30
  -2  10  -6  186.68   34.30
  -2  10  -6  238.88   39.20
  -3  10  -6   38.70   21.90
  -3  10  -6   43.40   19.90
  -3  10  -6   52.89   23.70
  -4  10  -6  396.06   41.20
  -4  10  -6  401.86   49.30
  -4  10  -6  473.05   49.30
   4 -10   6  661.03   66.69
   4 -10   6  702.13   68.49
  -5  10  -6  238.18   44.30
  -5  10  -6  246.28   42.90
  -5  10  -6  258.77   36.40
  -6  10  -6   49.40   25.90
  -6  10  -6   16.00   19.60
  -7  10  -6   48.40   27.80
   4   9  -6  116.89   28.00
   3   9  -6    2.90   13.00
  -3  -9   6    0.30   11.70
   2   9  -6  268.87   41.50
   2   9  -6  314.87   29.10
  -2  -9   6  376.06   63.39
  -2  -9   6  282.27   27.70
   1   9  -6  490.55   46.30
   1   9  -6  452.05   31.90
  -1  -9   6  505.75   32.70
  -1  -9   6  575.04   75.79
  -1  -9   6  465.85   64.29
   0   9  -6  211.98   41.60
   0   9  -6  194.58   33.50
   0  -9   6  214.48   42.90
   0  -9   6  268.47   46.70
  -1   9  -6    1.40   17.10
  -1   9  -6   -8.90   13.30
  -1   9  -6    5.20   12.60
  -2   9  -6  615.24   55.29
  -2   9  -6  688.33   49.90
  -2   9  -6  660.03   50.39
   2  -9   6  766.62   79.19
   2  -9   6  807.72   77.89
  -3   9  -6  839.12   61.29
  -3   9  -6  847.32   55.29
  -3   9  -6  911.71   66.39
   3  -9   6 1020.20   97.59
   3  -9   6  965.30   91.79
   3  -9   6  963.10   86.39
   3  -9   6 1053.79   89.79
  -5   9  -6  193.08   36.30
  -5   9  -6  210.08   38.40
  -5   9  -6  154.88   29.40
  -6   9  -6  545.45   55.99
  -6   9  -6  480.15   49.60
   6  -9   6  701.43   85.79
  -7   9  -6   74.39   30.10
   4   8  -6  545.45   41.90
  -4  -8   6  558.14   45.60
  -4  -8   6  644.84   93.39
   3   8  -6  459.95   41.50
   3   8  -6  470.15   36.30
  -3  -8   6  453.05   70.99
  -3  -8   6  545.55   40.70
  -3  -8   6  531.75   78.29
   2   8  -6   85.49   26.60
   2   8  -6   83.39   17.60
  -2  -8   6   73.49   32.00
  -2  -8   6   97.89   32.70
  -2  -8   6   93.39   18.80
   1   8  -6  286.37   22.60
   1   8  -6  333.77   35.80
  -1  -8   6  381.46   62.19
  -1  -8   6  355.26   52.49
  -1  -8   6  356.76   25.60
   0   8  -6  778.52   50.49
   0   8  -6  738.33   50.19
   0   8  -6  752.42   60.09
   0  -8   6  761.82   80.29
   0  -8   6  823.72   78.29
  -1   8  -6  308.97   38.70
  -1   8  -6  342.27   33.40
  -1   8  -6  393.76   34.10
   1  -8   6  456.35   58.89
   1  -8   6  415.96   55.09
  -2   8  -6   69.19   24.00
  -2   8  -6   61.29   21.00
  -2   8  -6   26.00   16.20
   2  -8   6  117.79   21.70
   2  -8   6   69.19   25.20
  -3   8  -6  488.25   45.70
  -3   8  -6  435.56   36.60
  -3   8  -6  438.96   42.00
   3  -8   6  492.75   58.39
   3  -8   6  547.35   66.99
  -4   8  -6  823.02   61.39
  -4   8  -6  867.11   50.99
  -4   8  -6  874.11   61.39
   4  -8   6 1014.20  102.39
   4  -8   6 1016.20  100.49
   4  -8   6  961.00   91.59
  -5   8  -6  173.88   27.30
  -5   8  -6  134.79   29.40
  -5   8  -6  158.38   35.30
   5  -8   6  214.88   44.70
  -6   8  -6   -8.10   14.70
  -7   8  -6  312.27   54.69
  -8   8  -6  307.07   56.49
  -6  -7   6  104.09   53.49
   5   7  -6  372.06   36.70
  -5  -7   6  418.76   75.89
  -5  -7   6  378.36   38.00
  -5  -7   6  229.68   59.49
   4   7  -6   14.50   12.60
   4   7  -6   70.89   23.70
  -4  -7   6   53.19   19.00
  -4  -7   6   73.69   30.20
  -4  -7   6   -1.30   29.30
   3   7  -6  240.68   25.10
   3   7  -6  271.07   33.10
  -3  -7   6  264.27   28.90
  -3  -7   6  289.17   54.09
  -3  -7   6  177.78   44.10
   2   7  -6 1159.48   50.49
   2   7  -6 1134.09   60.89
  -2  -7   6 1116.09   54.69
  -2  -7   6 1110.99   94.49
  -2  -7   6 1109.79  105.29
   1   7  -6  593.54   29.50
   1   7  -6  633.94   43.20
  -1  -7   6  552.54   32.10
  -1  -7   6  530.25   67.99
  -1  -7   6  545.85   64.09
   0   7  -6    6.40   13.30
   0   7  -6   13.90    5.60
   0   7  -6   20.70   13.20
   0   7  -6   10.10   11.50
   0  -7   6    6.50    4.60
   0  -7   6   20.30   13.60
   0  -7   6   19.00   16.60
  -1   7  -6  691.43   52.29
  -1   7  -6  657.03   45.30
  -1   7  -6  730.33   44.50
   1  -7   6  743.33   77.89
   1  -7   6  642.84   24.30
   1  -7   6  729.33   60.69
  -2   7  -6 1356.76   74.59
  -2   7  -6 1331.47   69.69
  -2   7  -6 1299.67   61.09
   2  -7   6 1324.07   97.99
  -3   7  -6  315.87   28.80
  -3   7  -6  267.17   31.30
  -3   7  -6  260.87   32.70
   3  -7   6  359.76   51.29
   3  -7   6  312.17   45.60
  -4   7  -6  108.49   24.20
  -4   7  -6  115.79   22.10
  -4   7  -6  101.79   27.00
   4  -7   6  173.98   39.90
  -5   7  -6  566.34   37.40
  -5   7  -6  559.44   53.09
  -5   7  -6  553.74   43.60
   5  -7   6  589.94   77.59
   5  -7   6  556.24   75.69
  -6   7  -6  367.56   47.10
   6  -7   6  351.96   65.99
  -7   7  -6   39.50   25.60
  -8   7  -6   41.60   28.40
   6   6  -6   30.70   17.90
  -6  -6   6   21.10   22.50
  -6  -6   6  -67.59   31.30
  -6  -6   6    5.80   15.80
   5   6  -6  346.97   34.00
   5   6  -6  333.57   35.60
  -5  -6   6  255.57   57.49
  -5  -6   6  410.16   39.80
  -5  -6   6  331.27   60.99
   4   6  -6 1514.25   69.89
   4   6  -6 1447.46   66.09
  -4  -6   6 1446.06  123.79
  -4  -6   6 1395.46   72.09
  -4  -6   6 1363.86  115.09
   3   6  -6   80.89   19.30
   3   6  -6   69.29   16.20
  -3  -6   6   77.19   28.00
  -3  -6   6   89.49   18.80
  -3  -6   6   62.39   26.10
   2   6  -6  139.49   24.50
   2   6  -6  117.39   16.80
  -2  -6   6  122.19   16.90
  -2  -6   6   93.39   28.90
  -2  -6   6   98.89   27.80
   1   6  -6  460.75   24.80
   1   6  -6  445.76   32.50
   1   6  -6  433.26   32.60
  -1  -6   6  513.65   58.29
  -1  -6   6  438.16   27.00
  -1  -6   6  476.15   59.69
   0   6  -6 1112.69   56.19
   0   6  -6 1096.89   54.29
   0   6  -6 1147.39   38.70
   0   6  -6 1148.59   65.99
   0  -6   6 1119.19   43.70
   0  -6   6 1168.18   97.89
   0  -6   6 1144.29   74.69
  -1   6  -6   71.89   16.50
  -1   6  -6   71.09   19.70
  -1   6  -6   86.79   18.40
   1  -6   6   67.49    6.90
   1  -6   6   58.89   23.60
   1  -6   6   52.89   16.00
  -2   6  -6   17.90   12.20
  -2   6  -6   16.70   12.90
  -2   6  -6   17.40   13.00
   2  -6   6   21.40    3.90
   2  -6   6   22.40   13.70
  -3   6  -6  959.70   58.39
  -3   6  -6  883.21   46.20
  -3   6  -6  865.51   52.89
   3  -6   6  855.51   34.20
   3  -6   6  888.31   81.49
   3  -6   6  983.60   89.19
  -4   6  -6 1182.68   62.69
  -4   6  -6 1275.27   74.09
  -4   6  -6 1207.98   55.29
   4  -6   6 1293.87  112.69
   4  -6   6 1238.98  106.09
   4  -6   6 1075.49   46.40
  -5   6  -6   -1.50   15.10
   5  -6   6   16.20   18.90
   5  -6   6   10.80    8.10
   5  -6   6   19.60   21.50
  -6   6  -6  310.97   43.20
   6  -6   6  309.57   28.80
   6  -6   6  322.17   61.79
  -7   6  -6  387.66   52.39
   7  -6   6  610.54   94.59
  -8   6  -6  121.29   36.10
   7   5  -6  312.77   35.40
  -7  -5   6  317.97   70.59
  -7  -5   6  200.18   60.19
  -7  -5   6  353.56   40.60
   6   5  -6  518.25   40.60
  -6  -5   6  395.26   78.29
  -6  -5   6  561.94   79.49
  -6  -5   6  548.55   48.30
   5   5  -6  201.68   23.90
   5   5  -6  171.88   27.10
  -5  -5   6  175.68   43.90
  -5  -5   6  211.78   29.70
  -5  -5   6  151.78   37.40
   4   5  -6   27.20   12.80
   4   5  -6   32.40   15.40
  -4  -5   6   27.90   17.00
  -4  -5   6   17.10   12.50
  -4  -5   6   24.80   26.60
   3   5  -6 1398.26   61.69
   3   5  -6 1400.56   58.09
  -3  -5   6 1350.16  105.19
  -3  -5   6 1316.37   63.09
  -3  -5   6 1322.77  106.89
   2   5  -6 1714.43   70.79
   2   5  -6 1751.02   64.29
  -2  -5   6 1766.12   70.69
  -2  -5   6 1801.62  125.79
  -2  -5   6 1752.62  120.79
   1   5  -6   50.99   13.40
   1   5  -6   52.79   10.20
   1   5  -6   61.59   16.20
  -1  -5   6   34.80    9.70
  -1  -5   6   63.69   13.50
  -1  -5   6   53.29   23.60
   0   5  -6  512.15   23.90
   0   5  -6  502.75   32.20
   0   5  -6  565.44   23.50
   0   5  -6  606.44   36.20
   0  -5   6  554.84   63.69
   0  -5   6  551.34   46.10
   0  -5   6  543.95   26.90
  -1   5  -6 1531.05   45.80
  -1   5  -6 1541.95   68.99
  -1   5  -6 1487.85   62.29
  -1   5  -6 1558.64   72.59
  -1   5  -6 1399.26   46.90
   1  -5   6 1484.45   97.19
   1  -5   6 1495.65   52.79
  -2   5  -6  878.91   49.50
  -2   5  -6  846.82   28.50
  -2   5  -6  905.31   53.29
  -2   5  -6  856.91   28.40
  -2   5  -6  892.41   44.60
   2  -5   6  806.72   71.49
   2  -5   6  805.22   35.50
   2  -5   6  902.21   78.39
  -3   5  -6    6.60    5.90
  -3   5  -6    0.50    9.90
  -3   5  -6   -2.40    6.60
  -3   5  -6   -5.50    7.60
   3  -5   6    2.80   13.40
   3  -5   6    6.90    5.70
   3  -5   6   15.70   12.50
  -4   5  -6  386.76   30.20
  -4   5  -6  358.76   22.30
  -4   5  -6  440.76   43.20
  -4   5  -6  413.36   29.30
   4  -5   6  425.56   27.50
   4  -5   6  414.76   61.89
   4  -5   6  361.76   59.49
  -5   5  -6 1015.70   44.90
  -5   5  -6  901.01   65.49
   5  -5   6  928.51  108.49
   5  -5   6 1018.80   50.99
   5  -5   6 1126.49  108.79
  -6   5  -6  184.98   23.10
  -6   5  -6  178.58   38.10
   6  -5   6  191.58   25.00
   6  -5   6  179.18   51.39
  -7   5  -6   47.00   15.40
  -7   5  -6   46.30   25.60
   7  -5   6   52.49   17.80
   7  -5   6   81.09   40.30
  -8   5  -6  183.08   43.00
   7   4  -6  118.89   26.30
  -7  -4   6  108.79   28.70
  -7  -4   6   64.39   44.00
  -7  -4   6   90.59   32.90
   6   4  -6  110.19   23.80
   6   4  -6   61.19   19.10
   6   4  -6   69.09   19.40
  -6  -4   6   72.09   27.70
  -6  -4   6   70.29   19.80
  -6  -4   6   38.00   29.70
  -6  -4   6   92.49   24.90
   5   4  -6  909.41   50.99
   5   4  -6  923.01   51.19
   5   4  -6  943.91   47.90
  -5  -4   6 1002.70   92.89
  -5  -4   6  894.11   56.29
  -5  -4   6  850.01   91.49
  -5  -4   6  888.81   49.20
   4   4  -6  868.71   46.60
   4   4  -6  954.90   48.30
   4   4  -6  954.10   47.00
  -4  -4   6  887.61   52.09
  -4  -4   6  906.81   83.79
  -4  -4   6  920.01   86.39
  -4  -4   6  949.11   46.30
   3   4  -6   77.39   15.20
   3   4  -6  109.59   19.00
   3   4  -6  101.09   15.90
  -3  -4   6   89.99   17.80
  -3  -4   6   37.50   17.00
  -3  -4   6   71.49   27.30
  -3  -4   6   86.99   14.70
   2   4  -6 1205.68   46.90
   2   4  -6 1127.39   46.50
   2   4  -6 1214.78   47.70
   2   4  -6 1114.99   48.50
   2   4  -6 1150.58   51.29
  -2  -4   6 1118.09   45.10
  -2  -4   6 1149.08   51.89
  -2  -4   6 1135.49   90.09
   1   4  -6 1670.93   57.69
   1   4  -6 1619.64   64.29
   1   4  -6 1658.03   65.39
   1   4  -6 1712.63   58.69
  -1  -4   6 1602.34   55.59
  -1  -4   6 1666.83  118.39
  -1  -4   6 1745.53   90.19
  -1  -4   6 1586.44   62.79
  -1  -4   6 1686.83   59.19
   0   4  -6  234.08   16.70
   0   4  -6  262.47   23.80
   0   4  -6  261.77   16.40
   0   4  -6  270.27   24.10
   0  -4   6  201.28   44.00
   0  -4   6  252.77   16.00
   0  -4   6  235.08   30.10
   0  -4   6  271.27   19.20
   0  -4   6  273.57   13.90
  -1   4  -6   10.80    6.30
  -1   4  -6   20.60   10.30
  -1   4  -6    0.70    8.30
  -1   4  -6   -1.00    4.00
  -1   4  -6    3.50    7.20
   1  -4   6   14.30    3.60
   1  -4   6   15.90    5.90
   1  -4   6   11.80   11.40
   1  -4   6   12.90    6.90
  -2   4  -6  694.03   30.10
  -2   4  -6  711.73   40.10
  -2   4  -6  714.03   45.80
  -2   4  -6  686.93   38.60
   2  -4   6  670.93   64.69
   2  -4   6  674.43   33.30
   2  -4   6  679.33   62.19
  -3   4  -6  837.62   43.60
  -3   4  -6  836.42   53.99
  -3   4  -6  810.12   36.40
  -3   4  -6  977.20   45.90
   3  -4   6  868.11   80.79
   3  -4   6  790.02   40.60
   3  -4   6  866.51   77.79
  -4   4  -6  311.27   25.60
  -4   4  -6  291.77   34.00
  -4   4  -6  251.67   22.30
   4  -4   6  323.27   57.09
   4  -4   6  315.27   56.49
   4  -4   6  272.77   24.90
  -5   4  -6  112.69   18.50
  -5   4  -6   74.79   25.70
   5  -4   6   99.09   39.00
   5  -4   6   81.69   18.60
  -6   4  -6  536.25   54.49
  -6   4  -6  586.94   39.00
   6  -4   6  655.63   94.89
   6  -4   6  584.94   43.30
  -7   4  -6  275.67   29.60
  -7   4  -6  275.37   49.20
   7  -4   6  278.47   33.20
   7  -4   6  192.08   58.89
  -8   4  -6    2.20   18.60
   8  -4   6   11.10   15.70
   8   3  -6  138.69   28.10
   8   3  -6  160.28   32.20
  -8  -3   6  203.58   39.60
  -8  -3   6  184.38   32.20
   7   3  -6  794.72   53.49
   7   3  -6  768.62   52.99
  -7  -3   6  853.61   90.09
  -7  -3   6  749.42   90.69
  -7  -3   6  849.12   60.99
  -7  -3   6  821.82   53.39
   6   3  -6  453.75   38.40
   6   3  -6  487.45   39.60
   6   3  -6  535.65   33.30
  -6  -3   6  564.24   46.10
  -6  -3   6  400.86   65.29
  -6  -3   6  476.55   64.79
  -6  -3   6  519.55   38.40
   5   3  -6   -5.30    9.40
   5   3  -6    4.00   11.10
   5   3  -6   11.40   10.20
  -5  -3   6   -4.00   24.10
  -5  -3   6    8.30   13.50
  -5  -3   6   -1.50   11.00
  -5  -3   6   10.80   10.10
   4   3  -6  926.51   47.00
   4   3  -6 1036.10   49.30
   4   3  -6  974.90   45.00
  -4  -3   6  939.61   83.79
  -4  -3   6  953.90   81.89
  -4  -3   6  967.00   46.80
  -4  -3   6  959.60   53.09
   3   3  -6 2054.09   73.99
   3   3  -6 2078.19   75.19
   3   3  -6 1974.30   72.79
  -3  -3   6 1977.40   80.29
  -3  -3   6 1996.50   72.89
  -3  -3   6 1954.90  129.79
   2   3  -6  411.66   24.20
   2   3  -6  406.16   24.20
   2   3  -6  414.86   24.20
   2   3  -6  362.46   25.00
   2   3  -6  418.76   24.50
  -2  -3   6  367.26   22.70
  -2  -3   6  388.66   52.09
  -2  -3   6  350.26   26.10
   1   3  -6  132.79   13.70
   1   3  -6  136.29   16.00
   1   3  -6  130.09   12.10
   1   3  -6  133.39   14.30
   1   3  -6  139.09   16.00
  -1  -3   6  135.19   21.10
  -1  -3   6  127.49   12.70
  -1  -3   6   91.79   27.90
  -1  -3   6  102.09   13.80
  -1  -3   6  134.59   12.70
   0   3  -6 2226.88   68.09
   0   3  -6 1937.91   67.29
   0   3  -6 2180.08   77.99
   0  -3   6 1880.81  128.39
   0  -3   6 1944.61   73.59
   0  -3   6 1960.80   64.69
   0  -3   6 1807.72   67.49
   0  -3   6 1878.91  112.59
  -1   3  -6 1958.80   60.49
  -1   3  -6 1943.91   66.29
  -1   3  -6 1851.71   64.99
  -1   3  -6 1937.11   78.99
   1  -3   6 1728.73   62.39
   1  -3   6 1995.60   67.79
   1  -3   6 1862.81  114.39
   1  -3   6 1955.50   71.59
   1  -3   6 1773.42  115.89
  -2   3  -6   95.19   10.00
  -2   3  -6  103.49   14.50
  -2   3  -6   86.49   13.40
  -2   3  -6   84.89   20.90
   2  -3   6   99.89   11.50
   2  -3   6   73.39   14.00
   2  -3   6   69.69   24.40
   2  -3   6   59.69   17.40
  -3   3  -6  315.57   31.80
   3  -3   6  237.88   44.90
   3  -3   6  242.78   23.10
   3  -3   6  295.17   49.80
  -4   3  -6 1159.08   52.19
  -4   3  -6 1195.78   70.09
   4  -3   6 1034.30   99.69
   4  -3   6 1139.99   56.29
   4  -3   6 1050.79  100.39
  -5   3  -6  616.24   52.69
  -5   3  -6  617.64   39.30
   5  -3   6  543.55   40.50
   5  -3   6  596.14   85.29
  -6   3  -6  -10.40   12.30
  -6   3  -6   -4.50   15.90
   6  -3   6  -13.80   11.10
   6  -3   6   -9.00   28.00
  -7   3  -6  171.28   40.40
  -7   3  -6  228.28   33.00
   7  -3   6  178.48   33.20
   7  -3   6  166.58   64.39
  -8   3  -6  331.47   54.09
   8  -3   6  205.28   32.20
   9   2  -6  263.07   43.50
  -9  -2   6  285.47   39.80
   8   2  -6  466.15   43.30
   8   2  -6  431.16   40.60
   8   2  -6  302.57   88.29
  -8  -2   6  426.26   43.70
  -8  -2   6  317.97   68.39
  -8  -2   6  395.36   40.40
   7   2  -6   35.80   17.60
   7   2  -6   22.30   42.50
   7   2  -6   21.10   16.40
  -7  -2   6    2.60   33.70
  -7  -2   6   23.10   13.20
  -7  -2   6    6.40   16.50
  -7  -2   6   24.50   15.10
   6   2  -6  834.82   50.59
   6   2  -6  888.61   42.20
   6   2  -6  954.20  126.09
   6   2  -6  876.11   51.49
  -6  -2   6  862.31   93.09
  -6  -2   6  923.31   80.89
  -6  -2   6  946.71   59.09
  -6  -2   6  936.71   51.69
   5   2  -6  930.11  111.19
   5   2  -6  915.21   41.80
   5   2  -6  817.62   46.80
   5   2  -6  926.21   48.70
  -5  -2   6  914.71   47.80
  -5  -2   6  925.31   53.49
  -5  -2   6  936.71   89.19
  -5  -2   6  866.21   75.99
   4   2  -6  405.46   28.80
   4   2  -6  410.56   73.09
   4   2  -6  388.96   27.50
   4   2  -6  394.96   25.40
  -4  -2   6  334.67   26.30
  -4  -2   6  409.36   53.19
  -4  -2   6  371.26   31.50
  -4  -2   6  349.37   43.90
   3   2  -6  238.08   19.80
   3   2  -6  264.17   21.60
   3   2  -6  231.48   20.70
  -3  -2   6  268.97   23.50
  -3  -2   6  267.57   44.90
  -3  -2   6  295.87   22.10
   2   2  -6 1435.36   55.59
   2   2  -6 1482.85   56.39
   2   2  -6 1466.65   52.99
   2   2  -6 1456.25   56.49
  -2  -2   6 1588.94   75.89
  -2  -2   6 1497.45   56.09
  -2  -2   6 1443.66  102.29
  -2  -2   6 1330.27   60.39
   1   2  -6 1417.76   55.09
   1   2  -6 1343.47   52.49
   1   2  -6 1445.16   53.39
   1   2  -6 1441.86   52.59
  -1  -2   6 1304.37   51.99
  -1  -2   6 1254.17   99.39
  -1  -2   6 1430.76   52.59
  -1  -2   6 1314.07   87.99
  -1  -2   6 1426.96   59.79
  -1  -2   6 1432.56   83.49
   0   2  -6  189.58   18.10
   0   2  -6  213.08   16.40
   0   2  -6  213.78   21.00
   0   2  -6  196.28   18.40
   0  -2   6  210.98   17.10
   0  -2   6  201.68   17.80
   0  -2   6  224.48   21.10
   0  -2   6  193.28   30.70
   0  -2   6  207.48   21.60
   0  -2   6  203.68   17.40
  -1   2  -6  698.33   34.30
  -1   2  -6  709.03   32.40
  -1   2  -6  659.63   34.00
  -1   2  -6  644.24   40.90
   1  -2   6  700.83   33.10
   1  -2   6  685.63   34.40
   1  -2   6  624.24   60.99
   1  -2   6  646.34   36.60
   1  -2   6  645.84   44.20
  -2   2  -6 1344.47   65.29
  -2   2  -6 1362.46   55.19
  -2   2  -6 1402.36   52.09
  -2   2  -6 1299.37   53.39
   2  -2   6 1305.07   52.79
   2  -2   6 1184.98   56.99
   2  -2   6 1354.26   88.29
   2  -2   6 1224.78   99.49
  -3   2  -6  505.75   30.40
  -3   2  -6  506.25   32.10
   3  -2   6  445.56   63.49
   3  -2   6  505.25   35.30
   3  -2   6  478.05   56.69
   3  -2   6  480.25   31.20
  -4   2  -6    3.60   10.80
   4  -2   6    1.20   18.00
   4  -2   6    6.70   11.90
   4  -2   6  -10.10   20.50
  -5   2  -6  580.24   40.00
   5  -2   6  532.35   42.30
   5  -2   6  485.15   75.29
  -6   2  -6  683.73   55.59
  -6   2  -6  625.64   44.30
   6  -2   6  436.46   89.79
   6  -2   6  622.54   48.90
  -7   2  -6    5.00   17.60
  -7   2  -6    9.60   21.10
   7  -2   6   24.10   19.50
  -8   2  -6   21.50   22.30
   9   1  -6  131.69   74.79
   9   1  -6  165.18   32.40
   9   1  -6  191.98   35.30
  -9  -1   6  222.48   39.00
  -9  -1   6  185.28   32.90
  -9  -1   6  136.99   54.89
   8   1  -6  219.98   30.00
   8   1  -6  259.67   33.60
   8   1  -6  180.18   72.19
  -8  -1   6  239.58   33.20
  -8  -1   6  223.08   52.69
  -8  -1   6  275.07   31.40
   7   1  -6  247.48   71.39
   7   1  -6  394.96   36.20
   7   1  -6  368.16   34.40
  -7  -1   6  389.46   48.50
  -7  -1   6  365.86   32.70
  -7  -1   6  232.68   54.99
  -7  -1   6  363.36   39.80
   6   1  -6  405.86   32.90
   6   1  -6  390.66   32.00
   6   1  -6  360.56   86.89
  -6  -1   6  385.26   37.70
  -6  -1   6  411.36   33.60
  -6  -1   6  456.45   50.59
  -6  -1   6  407.56   67.89
   5   1  -6  589.84   37.80
   5   1  -6  553.54   35.30
   5   1  -6  572.44   87.59
   5   1  -6  586.54   29.70
  -5  -1   6  565.24   41.70
  -5  -1   6  566.14   64.99
  -5  -1   6  578.64   55.49
  -5  -1   6  535.75   34.60
   4   1  -6 1449.95   61.39
   4   1  -6 1429.46   53.99
   4   1  -6 1383.36  121.09
   4   1  -6 1367.06   59.09
  -4  -1   6 1461.75  102.79
  -4  -1   6 1387.16   65.89
  -4  -1   6 1402.66   58.99
   3   1  -6 2305.17  151.98
   3   1  -6 2379.96   83.89
   3   1  -6 2264.57  110.09
   3   1  -6 2237.38   68.89
   3   1  -6 2186.98   80.09
  -3  -1   6 2265.27   81.19
  -3  -1   6 2399.16  138.39
  -3  -1   6 2291.77   88.99
   2   1  -6  103.39   18.20
   2   1  -6  105.39   15.00
   2   1  -6  101.09   11.20
   2   1  -6  105.19   15.90
  -2  -1   6  122.29   15.30
  -2  -1   6  101.49   21.20
  -2  -1   6  113.69   22.50
  -2  -1   6  106.79   18.70
  -2  -1   6   66.39   24.40
   1   1  -6 5439.66  165.08
   1   1  -6 5133.19  164.08
   1   1  -6 5507.35  165.88
   1   1  -6 5492.65  168.08
  -1  -1   6 5505.45  166.08
  -1  -1   6 6021.80  267.87
  -1  -1   6 5332.97  274.67
  -1  -1   6 5407.66  176.38
  -1  -1   6 5105.99  269.87
   0   1  -6 1471.45   59.29
   0   1  -6 1520.15   59.69
   0   1  -6 1518.35   59.79
   0  -1   6 1576.84   66.39
   0  -1   6 1451.25   98.49
   0  -1   6 1695.33   61.19
  -1   1  -6  132.99   17.80
  -1   1  -6  113.59   15.00
   1  -1   6  136.09   16.20
   1  -1   6  125.29   18.10
   1  -1   6  101.99   27.90
  -2   1  -6  112.59   17.60
   2  -1   6   54.69   14.80
   2  -1   6   83.89   15.70
   2  -1   6   65.39   25.40
   2  -1   6   76.39   17.00
  -3   1  -6 1076.69   52.39
  -3   1  -6 1096.09   53.29
   3  -1   6  987.00   97.49
   3  -1   6 1078.79   57.79
   3  -1   6 1182.68   87.69
   3  -1   6 1118.59   52.99
  -4   1  -6  366.76   31.70
   4  -1   6  232.38   52.49
   4  -1   6  304.47   32.40
  -5   1  -6  255.37   30.20
   5  -1   6  191.38   51.09
   5  -1   6  272.07   33.00
  -6   1  -6   40.40   19.50
   6  -1   6    9.90   28.90
   6  -1   6    4.70   12.30
  -8   1  -6  142.79   38.80
   9   0  -6  516.35   46.20
   9   0  -6  428.76   43.70
   9   0  -6  288.27   96.79
  -9   0   6  479.95   85.59
  -9   0   6  576.84   48.10
  -9   0   6  550.44   50.39
   8   0  -6    3.20   10.50
   8   0  -6   18.80   16.50
   8   0  -6  -31.80   41.50
  -8   0   6   10.10   17.10
  -8   0   6  -21.40   20.50
  -8   0   6   16.80   14.90
   7   0  -6  473.55   37.20
   7   0  -6  465.35   39.90
   7   0  -6  462.65  106.59
  -7   0   6  529.95   51.49
  -7   0   6  483.95   42.30
  -7   0   6  484.95   37.20
  -7   0   6  466.85   75.19
   6   0  -6 1174.68   61.19
   6   0  -6 1233.78  137.79
   6   0  -6 1171.68   58.29
  -6   0   6 1243.78   60.49
  -6   0   6 1225.98  104.79
  -6   0   6 1204.58   65.99
  -6   0   6 1268.77   84.89
   5   0  -6  866.71   47.40
   5   0  -6  825.42   45.20
   5   0  -6  891.51  103.49
   5   0  -6  845.72   36.70
  -5   0   6  906.61   52.59
  -5   0   6  863.51   78.29
  -5   0   6  890.41   66.79
  -5   0   6  793.22   44.60
   4   0  -6   49.10   27.10
   4   0  -6   45.70   12.20
   4   0  -6   46.80   13.80
   4   0  -6   36.20   12.30
  -4   0   6   38.80   12.70
  -4   0   6   40.90   20.70
  -4   0   6   39.10   13.40
   3   0  -6 1400.36   58.39
   3   0  -6 1318.67   55.49
   3   0  -6 1229.18   75.79
   3   0  -6 1356.26  101.59
  -3   0   6 1340.57   56.09
  -3   0   6 1347.07   62.39
  -3   0   6 1334.17   92.39
   2   0  -6 1042.00   42.40
   2   0  -6 1079.89   73.59
   2   0  -6 1133.09   50.99
   2   0  -6 1130.49   49.10
  -2   0   6 1053.39   81.29
  -2   0   6 1222.18   75.79
  -2   0   6 1149.58   50.59
  -2   0   6 1095.99   55.49
  -2   0   6 1080.59   70.29
   1   0  -6  991.50   46.90
   1   0  -6 1120.59   92.49
   1   0  -6  927.11   45.70
  -1   0   6 1022.60   46.90
  -1   0   6  953.20   77.39
  -1   0   6  909.51   50.19
  -1   0   6 1039.20   77.79
   0   0  -6   50.49   12.50
   0   0  -6   40.20   10.50
   0   0   6   34.00   12.00
   0   0   6   31.40   20.50
   0   0   6   28.60   11.00
  -1   0  -6 1674.03   67.59
   1   0   6 1693.73   67.79
   1   0   6 1651.73   73.39
   1   0   6 1779.12  118.89
  -2   0  -6  994.90   50.89
  -2   0  -6  931.51   48.90
   2   0   6  947.91   54.09
   2   0   6 1039.80   93.69
   2   0   6 1030.50   50.69
  -3   0  -6  168.48   23.90
  -3   0  -6  148.39   23.00
   3   0   6  110.89   35.40
   3   0   6  129.69   21.40
   3   0   6  113.09   22.90
  -4   0  -6  350.26   32.40
  -4   0  -6  408.66   35.40
   4   0   6  236.28   56.49
   4   0   6  348.27   31.80
   4   0   6  322.97   33.60
  -5   0  -6  660.13   47.50
   5   0   6  602.04   94.79
   5   0   6  634.04   49.40
  -6   0  -6  136.99   29.50
   6   0   6   82.59   53.39
   6   0   6  148.59   31.10
  10  -1  -6  -15.10   16.80
 -10   1   6   23.90   20.00
   9  -1  -6   89.89   72.99
   9  -1  -6  191.18   32.00
   9  -1  -6  202.08   34.70
  -9   1   6  205.58   28.90
  -9   1   6  278.37   38.10
  -9   1   6  135.59   51.79
   8  -1  -6  724.03  125.89
   8  -1  -6  712.13   50.39
   8  -1  -6  706.43   48.30
  -8   1   6  625.04   87.59
  -8   1   6  767.52   51.79
  -8   1   6  778.52   58.19
   7  -1  -6  375.36   34.10
   7  -1  -6  308.67   33.30
   7  -1  -6  244.58   71.19
  -7   1   6  339.67   56.79
  -7   1   6  321.67   30.40
  -7   1   6  309.17   33.90
   6  -1  -6  116.29   19.50
   6  -1  -6   91.39   44.70
   6  -1  -6  115.39   22.00
  -6   1   6  129.59   23.40
  -6   1   6  120.49   20.50
  -6   1   6  119.89   33.60
  -6   1   6  111.59   24.30
   5  -1  -6 1282.57   59.79
   5  -1  -6 1517.05  134.89
   5  -1  -6 1433.16   64.49
  -5   1   6 1286.07   60.89
  -5   1   6 1330.17   67.39
  -5   1   6 1369.16  102.29
   4  -1  -6 1640.44   66.89
   4  -1  -6 1869.21  144.19
   4  -1  -6 1667.43   70.99
   4  -1  -6 1775.52  133.59
  -4   1   6 1637.44  109.89
  -4   1   6 1603.34   68.59
  -4   1   6 1623.74   74.19
   3  -1  -6   17.60    5.80
   3  -1  -6   17.10   16.50
   3  -1  -6   18.60   10.10
   3  -1  -6   18.10    9.60
   3  -1  -6   30.70   22.00
  -3   1   6    7.00   10.90
  -3   1   6   13.20   10.60
  -3   1   6    3.80   14.60
   2  -1  -6  562.74   47.80
   2  -1  -6  487.65   33.90
   2  -1  -6  512.55   33.70
   2  -1  -6  589.94   76.59
  -2   1   6  554.84   35.40
  -2   1   6  646.34   58.29
  -2   1   6  609.64   57.19
  -2   1   6  544.25   39.40
   1  -1  -6 1582.64   65.19
   1  -1  -6 1580.44  122.39
   1  -1  -6 1591.64   65.49
  -1   1   6 1529.65  102.79
  -1   1   6 1497.75  105.99
  -1   1   6 1593.44   65.09
  -1   1   6 1622.24   72.59
   0  -1  -6 1410.46   61.39
   0  -1  -6 1518.75  114.39
   0   1   6 1526.65   63.79
   0   1   6 1498.15   69.39
   0   1   6 1575.24  111.49
  -1  -1  -6    4.20    8.60
  -1  -1  -6   -1.40   15.10
  -1  -1  -6    2.60    5.30
  -1  -1  -6   -0.50   11.00
   1   1   6    6.80   24.20
   1   1   6    3.50    7.90
   1   1   6    5.10   10.60
  -2  -1  -6  752.12   46.20
  -2  -1  -6  747.33   45.40
  -2  -1  -6  890.11   70.69
   2   1   6  738.43   79.49
   2   1   6  728.23   44.90
   2   1   6  671.63   47.90
  -3  -1  -6 1010.00   56.59
  -3  -1  -6 1085.59   57.59
   3   1   6  996.90   60.29
   3   1   6  990.60   54.19
   3   1   6 1007.20  104.79
  -4  -1  -6  283.97   30.00
  -4  -1  -6  313.07   34.20
   4   1   6  273.47   30.80
   4   1   6  298.37   36.60
   4   1   6  198.18   56.99
  -5  -1  -6   14.40   16.20
   5   1   6   21.40   16.20
   5   1   6  -34.30   32.00
  -6  -1  -6  316.17   36.80
   6   1   6  161.98   63.89
   6   1   6  343.27   41.80
  10  -2  -6  354.36   38.40
   9  -2  -6   40.50   18.80
   9  -2  -6   -0.20   58.19
   9  -2  -6   71.39   21.00
  -9   2   6   25.70   28.50
  -9   2   6   84.89   25.00
  -9   2   6   58.49   19.20
   8  -2  -6  100.09   64.29
   8  -2  -6  221.68   31.70
   8  -2  -6  205.68   26.50
  -8   2   6  131.69   39.60
  -8   2   6  213.08   30.10
  -8   2   6  227.78   30.50
   7  -2  -6  641.44   41.70
   7  -2  -6  603.54   44.80
   7  -2  -6  563.94  113.89
  -7   2   6  584.34   74.59
  -7   2   6  587.74   43.00
  -7   2   6  663.03   49.80
   6  -2  -6  905.91  118.49
   6  -2  -6  932.01   52.29
   6  -2  -6  876.81  102.19
   6  -2  -6  827.22   47.50
  -6   2   6  862.01   55.79
  -6   2   6  784.92   79.79
  -6   2   6  826.92   47.70
  -6   2   6  845.72   52.99
   5  -2  -6  301.47   63.19
   5  -2  -6  200.28   50.59
   5  -2  -6  263.47   27.80
   5  -2  -6  225.18   25.10
  -5   2   6  264.97   47.40
  -5   2   6  298.47   27.50
  -5   2   6  233.58   26.20
   4  -2  -6  472.95   35.30
   4  -2  -6  450.95   81.49
   4  -2  -6  496.45   66.39
   4  -2  -6  477.25   31.60
  -4   2   6  418.16   34.30
  -4   2   6  459.95   32.50
  -4   2   6  459.35   52.99
   3  -2  -6 2086.29   80.99
   3  -2  -6 2059.99   84.59
   3  -2  -6 2120.49  161.18
   3  -2  -6 2102.09  140.29
  -3   2   6 2143.89   83.99
  -3   2   6 2124.49  122.49
  -3   2   6 2201.18   90.99
   2  -2  -6 1906.11  153.18
   2  -2  -6 2134.39   84.99
   2  -2  -6 2280.37  135.39
   2  -2  -6 2299.37   88.19
  -2   2   6 2275.37   87.09
  -2   2   6 2316.97  128.59
  -2   2   6 2471.85  140.09
  -2   2   6 2172.58   94.49
   1  -2  -6   10.10   17.10
   1  -2  -6    6.10    6.30
   1  -2  -6    2.70   10.50
   1  -2  -6    5.50    9.20
  -1   2   6    3.00   11.30
  -1   2   6   15.90   12.10
  -1   2   6    8.60   12.40
  -1   2   6   14.90   23.30
   0  -2  -6 1483.35  124.69
   0  -2  -6 1693.23   73.49
   0  -2  -6 1710.83  104.19
   0  -2  -6 1652.13   70.89
   0   2   6 1836.02   79.59
   0   2   6 1748.72   72.79
   0   2   6 1805.02  128.09
  -1  -2  -6  972.90   91.89
  -1  -2  -6 1168.28   59.69
   1   2   6 1302.87  107.69
   1   2   6 1119.29   57.39
   1   2   6 1132.49   61.59
  -2  -2  -6  230.68   48.10
  -2  -2  -6  260.97   31.00
  -2  -2  -6  212.48   28.30
   2   2   6  285.17   63.29
   2   2   6  229.48   29.10
   2   2   6  258.87   27.30
  -3  -2  -6  145.49   27.70
  -3  -2  -6  130.59   25.40
   3   2   6  106.89   45.40
   3   2   6  104.89   24.80
   3   2   6  127.29   24.00
  -4  -2  -6  346.87   37.30
  -4  -2  -6  370.76   39.50
   4   2   6  384.76   35.60
   4   2   6  307.67   70.09
   4   2   6  378.76   40.60
  -5  -2  -6  258.27   33.30
   5   2   6  202.08   64.49
   5   2   6  281.17   44.90
   9  -3  -6  585.64   49.90
   9  -3  -6  524.05  126.69
   9  -3  -6  657.63   48.80
  -9   3   6  623.14   49.40
  -9   3   6  679.33   54.79
  -9   3   6  538.45   75.49
   8  -3  -6  183.48   74.29
   8  -3  -6  296.37   34.50
   8  -3  -6  331.97   31.60
  -8   3   6  311.07   31.90
  -8   3   6  288.87   60.99
  -8   3   6  361.56   39.10
   7  -3  -6   -6.40   10.30
   7  -3  -6  -17.30   32.60
   7  -3  -6   23.80   15.20
   7  -3  -6    3.70   25.90
  -7   3   6    1.10    9.60
  -7   3   6    6.60    9.40
  -7   3   6  -15.20   22.50
   6  -3  -6  328.27   30.10
   6  -3  -6  232.08   59.89
   6  -3  -6  271.77   25.80
   6  -3  -6  277.17   64.79
  -6   3   6  253.87   28.20
  -6   3   6  232.88   49.10
  -6   3   6  277.77   29.90
   5  -3  -6 1637.74   70.69
   5  -3  -6 1676.93  146.69
   5  -3  -6 1836.02   78.99
   5  -3  -6 1855.01  150.68
  -5   3   6 1703.33   75.09
  -5   3   6 1700.03  111.29
  -5   3   6 1735.83   80.19
   4  -3  -6  796.52   46.00
   4  -3  -6  688.33   41.70
   4  -3  -6  641.34   93.69
   4  -3  -6  715.83   78.89
  -4   3   6  672.93   45.30
  -4   3   6  738.93   62.59
  -4   3   6  686.83   42.60
   3  -3  -6  274.67   69.49
   3  -3  -6  265.47   44.80
   3  -3  -6  252.27   29.00
   3  -3  -6  261.77   28.10
  -3   3   6  288.17   37.10
  -3   3   6  236.48   28.10
  -3   3   6  285.57   30.00
   2  -3  -6 1541.75   68.79
   2  -3  -6 1466.85  123.09
   2  -3  -6 1408.26  101.59
   2  -3  -6 1420.06   64.69
  -2   3   6 1439.96   73.59
  -2   3   6 1493.65   91.69
  -2   3   6 1526.45   67.59
   1  -3  -6 1249.28  108.69
   1  -3  -6 1274.27   60.29
  -1   3   6 1297.77   68.09
  -1   3   6 1227.58  104.19
  -1   3   6 1184.78   82.19
  -1   3   6 1235.98   60.29
   0  -3  -6   33.40   16.10
   0  -3  -6   37.90   13.90
   0  -3  -6   15.80   22.10
   0   3   6   32.70   15.50
   0   3   6   12.80   11.70
   0   3   6   44.20   31.60
  -1  -3  -6  219.48   53.19
  -1  -3  -6  264.47   31.30
   1   3   6  242.68   29.60
   1   3   6  262.27   33.30
   1   3   6  286.37   56.29
  -2  -3  -6  531.75   41.50
  -2  -3  -6  453.85   37.70
  -2  -3  -6  403.46   65.09
   2   3   6  576.64   85.49
   2   3   6  542.45   40.70
   2   3   6  451.25   41.80
  -3  -3  -6  612.24   48.10
  -3  -3  -6  698.43   51.29
   3   3   6  544.15   90.69
   3   3   6  567.74   46.10
   3   3   6  549.85   48.90
  -4  -3  -6   -4.70   17.50
  -4  -3  -6   11.80   14.30
   4   3   6  -45.80   33.00
   4   3   6   21.70   15.80
   4   3   6   12.40   17.60
  -5  -3  -6  230.98   37.20
   5   3   6  209.18   42.60
   5   3   6   80.39   58.89
   9  -4  -6  -38.70   52.99
   9  -4  -6   -0.70   13.20
   9  -4  -6    6.60   15.30
  -9   4   6   11.10   12.40
   8  -4  -6  478.15   43.20
   8  -4  -6  499.75   95.29
   8  -4  -6  476.05   39.70
  -8   4   6  481.05   68.79
  -8   4   6  446.76   43.00
  -8   4   6  438.76   38.10
   7  -4  -6 1327.07   65.29
   7  -4  -6 1306.57  142.59
   7  -4  -6 1325.57   68.89
   7  -4  -6 1430.86  163.08
  -7   4   6 1425.46   74.89
  -7   4   6 1289.47   67.49
  -7   4   6 1299.17  102.59
   6  -4  -6   72.79   21.00
   6  -4  -6   36.30   34.20
   6  -4  -6   59.19   15.90
   6  -4  -6   53.99   36.30
  -6   4   6   47.30   27.00
  -6   4   6   60.59   19.50
  -6   4   6   58.49   16.40
   5  -4  -6   68.69   31.30
   5  -4  -6  119.09   23.30
   5  -4  -6   95.09   18.50
   5  -4  -6  103.89   37.10
  -5   4   6  120.19   21.30
  -5   4   6  113.89   23.20
  -5   4   6   65.79   24.30
   4  -4  -6 1128.69  101.59
   4  -4  -6  986.60   57.19
   4  -4  -6  941.61  111.49
   4  -4  -6  985.40   52.69
  -4   4   6 1086.29   61.79
  -4   4   6 1019.10   73.59
  -4   4   6  992.50   56.09
   3  -4  -6 1665.93  125.49
   3  -4  -6 1754.02   77.79
   3  -4  -6 1693.73  145.89
   3  -4  -6 1567.14   71.99
  -3   4   6 1789.82   98.49
  -3   4   6 1669.93   77.09
  -3   4   6 1712.83   84.09
   2  -4  -6    1.50   12.50
   2  -4  -6   -4.70   12.10
   2  -4  -6   11.80   20.20
  -2   4   6   16.20   11.10
  -2   4   6   12.30   12.00
  -2   4   6    4.30   10.50
   1  -4  -6   71.39   31.20
   1  -4  -6  107.59   20.30
  -1   4   6  115.09   14.90
  -1   4   6   95.89   21.30
  -1   4   6  123.89   27.00
  -1   4   6  111.89   34.90
  -1   4   6   75.69   18.70
   0  -4  -6 1409.96  118.89
   0  -4  -6 1230.18   67.69
   0  -4  -6 1297.47   63.79
   0   4   6 1229.88  112.39
   0   4   6 1291.37   65.59
   0   4   6 1411.16   74.19
  -1  -4  -6 1237.08  110.39
  -1  -4  -6 1177.48   62.79
  -1  -4  -6 1263.47  104.09
  -1  -4  -6 1185.98   66.19
   1   4   6 1209.28   70.19
   1   4   6 1258.77  121.59
   1   4   6 1093.59   62.99
  -2  -4  -6   21.80   15.10
  -2  -4  -6   42.60   27.60
  -2  -4  -6   11.00   26.30
   2   4   6   39.30   18.30
   2   4   6   34.60   16.20
   2   4   6   -9.60   33.30
  -3  -4  -6  370.26   38.90
  -3  -4  -6  339.17   40.20
   3   4   6  309.47   38.30
   3   4   6  305.47   47.20
   3   4   6  295.17   72.99
  -4  -4  -6  502.95   48.70
  -4  -4  -6  536.15   50.89
   4   4   6  468.95   44.70
   4   4   6  347.47   83.49
   4   4   6  457.65   52.69
   5   4   6   63.99   28.00
   9  -5  -6  228.48   62.79
   9  -5  -6  245.78   88.89
  -9   5   6  398.36   40.00
   8  -5  -6   16.00   35.10
   8  -5  -6   80.99   20.00
   8  -5  -6   62.29   20.30
   8  -5  -6   36.90   53.79
  -8   5   6   94.09   22.90
  -8   5   6   85.29   20.80
   7  -5  -6  109.49   53.89
   7  -5  -6   87.19   45.60
   7  -5  -6  141.29   23.20
   7  -5  -6  150.38   26.20
  -7   5   6  175.08   25.30
  -7   5   6  123.59   34.20
  -7   5   6  178.28   28.70
   6  -5  -6  775.62   45.90
   6  -5  -6  505.45   99.09
   6  -5  -6  765.72   49.50
   6  -5  -6  884.71  115.09
  -6   5   6  729.43   47.00
  -6   5   6  737.13   49.90
  -6   5   6  699.33   68.09
   5  -5  -6  790.92   52.19
   5  -5  -6  783.92   46.40
   5  -5  -6  732.23   96.99
   5  -5  -6  788.52   98.89
  -5   5   6  736.33   51.49
  -5   5   6  786.02   65.09
  -5   5   6  834.22   50.29
   4  -5  -6   -6.80   12.80
   4  -5  -6   19.90   20.70
   4  -5  -6    7.00   21.10
   4  -5  -6    6.20   10.10
  -4   5   6   12.20   11.90
  -4   5   6  -11.00   14.40
  -4   5   6   12.30   14.70
   3  -5  -6  566.34   79.69
   3  -5  -6  614.14   71.09
   3  -5  -6  533.85   42.00
   3  -5  -6  497.35   37.60
  -3   5   6  585.64   46.30
  -3   5   6  507.35   39.80
  -3   5   6  474.45   42.80
   2  -5  -6 1288.17   63.19
   2  -5  -6 1273.77  118.99
   2  -5  -6 1192.38   63.19
  -2   5   6 1333.77   73.49
  -2   5   6 1239.18   61.59
  -2   5   6 1199.78   63.59
  -2   5   6 1249.28   70.59
   1  -5  -6  487.95   78.59
   1  -5  -6  423.06   37.80
   1  -5  -6  438.26   37.20
  -1   5   6  408.86   38.10
  -1   5   6  438.36   65.89
  -1   5   6  462.45   43.80
   0  -5  -6   70.09   25.20
   0  -5  -6   77.99   21.20
   0  -5  -6   49.40   29.30
   0  -5  -6   48.60   17.60
   0   5   6   64.19   20.70
   0   5   6   62.09   19.00
   0   5   6   61.89   38.90
  -1  -5  -6  402.66   71.69
  -1  -5  -6  388.96   69.39
  -1  -5  -6  408.46   39.80
  -1  -5  -6  384.76   39.20
   1   5   6  459.75   85.09
   1   5   6  454.25   43.10
   1   5   6  419.86   41.90
  -2  -5  -6  535.55   48.90
  -2  -5  -6  482.25   72.69
   2   5   6  515.25   85.69
   2   5   6  432.06   45.50
   2   5   6  452.25   46.60
  -3  -5  -6   36.80   33.60
  -3  -5  -6   69.69   26.40
   3   5   6   85.19   27.30
   3   5   6   62.19   27.20
   3   5   6   22.90   48.00
  -4  -5  -6   40.80   22.50
  -4  -5  -6   41.00   27.60
   4   5   6   15.00   19.50
   4   5   6   21.80   18.60
   9  -6  -6  260.07   91.89
   9  -6  -6  323.97   38.90
   9  -6  -6  176.28   65.99
  -9   6   6  307.97   37.20
   8  -6  -6  514.05  125.29
   8  -6  -6  541.55   46.00
  -8   6   6  503.35   44.10
   7  -6  -6  300.17   32.20
   7  -6  -6  246.48   73.09
   7  -6  -6  255.87   28.90
  -7   6   6  248.78   29.50
  -7   6   6  271.97   30.70
   6  -6  -6  -32.50   29.30
   6  -6  -6    0.40   12.40
   6  -6  -6   -0.40   27.60
   6  -6  -6    2.90    9.30
  -6   6   6  -16.50   11.60
  -6   6   6   -3.20    8.70
   5  -6  -6  363.66   76.29
   5  -6  -6  449.46   34.50
   5  -6  -6  423.36   78.59
   5  -6  -6  383.66   39.30
  -5   6   6  415.96   39.50
  -5   6   6  421.36   38.10
   4  -6  -6 1059.99   57.39
   4  -6  -6 1138.99  110.79
   4  -6  -6 1019.60  114.99
   4  -6  -6 1078.89   63.29
  -4   6   6 1054.69   65.79
  -4   6   6  933.51   60.39
   3  -6  -6  739.73   49.60
   3  -6  -6  829.32   87.89
   3  -6  -6  774.42   52.59
   3  -6  -6  725.03  103.49
  -3   6   6  744.63   50.69
  -3   6   6  734.83   56.59
  -3   6   6  786.42   51.69
   2  -6  -6  139.09   26.30
   2  -6  -6  109.99   41.20
   2  -6  -6  152.08   27.70
  -2   6   6  163.78   29.20
  -2   6   6  149.88   25.70
  -2   6   6  128.69   28.30
   1  -6  -6 1365.76   69.19
   1  -6  -6 1420.06  109.69
   1  -6  -6 1431.76   76.09
   1  -6  -6 1428.76  135.69
  -1   6   6 1436.46   79.69
  -1   6   6 1326.07   71.59
   0  -6  -6  479.95   84.19
   0  -6  -6  574.04   47.50
   0  -6  -6  526.45   74.99
   0  -6  -6  564.54   43.00
   0   6   6  555.54   89.19
   0   6   6  492.05   45.80
   0   6   6  495.65   46.10
  -1  -6  -6  -24.90   22.90
  -1  -6  -6   12.50   17.30
  -1  -6  -6   13.10   16.30
  -1  -6  -6    4.90   20.90
   1   6   6   27.50   17.00
   1   6   6   14.30   30.70
   1   6   6   28.00   20.50
  -2  -6  -6   97.79   40.40
  -2  -6  -6  168.78   33.60
   2   6   6  162.88   34.70
   2   6   6  224.38   42.20
   2   6   6  128.49   59.19
  -3  -6  -6  235.98   41.10
  -3  -6  -6  150.78   45.60
   3   6   6  293.37   49.99
   3   6   6  219.38   40.90
   3   6   6  221.28   73.59
   9  -7  -6  221.58   88.09
   9  -7  -6  107.79   60.79
   9  -7  -6  227.38   32.20
  -9   7   6  271.97   37.00
   8  -7  -6  -36.10   38.50
   8  -7  -6   37.20   19.60
   8  -7  -6   44.00   47.30
  -8   7   6   23.30   17.30
   7  -7  -6  662.93  115.59
   7  -7  -6  568.54   48.10
  -7   7   6  604.64   47.30
   6  -7  -6  794.62  111.69
   6  -7  -6  581.74  111.79
   6  -7  -6  737.83   53.99
  -6   7   6  699.83   49.60
   5  -7  -6   43.80   16.80
   5  -7  -6   13.90   13.80
   5  -7  -6   10.90   35.90
   5  -7  -6   51.09   30.50
  -5   7   6   52.49   19.40
  -5   7   6   31.00   18.70
  -5   7   6   68.89   21.50
   4  -7  -6  235.68   53.19
   4  -7  -6  123.69   27.20
   4  -7  -6  158.58   28.20
   4  -7  -6   59.69   40.40
  -4   7   6   94.39   26.40
  -4   7   6  102.69   26.30
  -4   7   6  132.89   28.80
   3  -7  -6  540.25   41.90
   3  -7  -6  525.65   97.29
   3  -7  -6  563.54   47.00
  -3   7   6  553.44   44.70
  -3   7   6  468.05   47.90
  -3   7   6  524.85   46.80
   2  -7  -6  413.76   38.70
   2  -7  -6  435.16   63.79
   2  -7  -6  489.65   39.90
   2  -7  -6  486.85   93.29
  -2   7   6  533.25   50.79
  -2   7   6  542.85   46.60
  -2   7   6  486.15   40.20
   1  -7  -6    6.30   23.90
   1  -7  -6   20.20   16.50
   1  -7  -6    6.40   22.30
   1  -7  -6   26.90   16.50
  -1   7   6   10.40   17.30
  -1   7   6   26.50   16.40
   0  -7  -6   75.89   34.50
   0  -7  -6  113.59   25.70
   0  -7  -6   63.49   38.50
   0  -7  -6  110.79   30.50
   0   7   6  151.28   31.50
   0   7   6   89.89   26.80
  -1  -7  -6  310.27   66.59
  -1  -7  -6  535.15   48.60
  -1  -7  -6  450.35   85.29
  -1  -7  -6  517.55   52.29
   1   7   6  493.05   50.09
   1   7   6  521.35   51.39
  -2  -7  -6  124.19   47.00
  -2  -7  -6  179.98   38.50
  -2  -7  -6  241.58   33.50
   2   7   6  167.68   65.99
   2   7   6  161.78   37.60
   2   7   6  261.77   45.40
 -10   8   6   32.30   25.70
   9  -8  -6   14.00   57.39
  -9   8   6  289.47   53.89
   8  -8  -6  644.34  125.49
   8  -8  -6  332.07   41.10
  -8   8   6  471.05   57.79
  -8   8   6  432.86   43.60
   7  -8  -6   63.79   20.20
   7  -8  -6   94.89   43.00
   7  -8  -6  -13.60   42.70
  -7   8   6   36.30   24.40
  -7   8   6   42.80   20.20
   6  -8  -6  127.19   58.29
   6  -8  -6  409.76   82.69
   6  -8  -6  222.28   36.10
  -6   8   6  246.38   45.90
  -6   8   6  288.97   35.90
   5  -8  -6  610.84  114.59
   5  -8  -6  588.14   51.49
  -5   8   6  725.43   55.09
  -5   8   6  594.44   56.09
   4  -8  -6  375.26   38.70
   4  -8  -6  217.08   60.99
  -4   8   6  358.26   42.00
  -4   8   6  384.56   42.00
   3  -8  -6  -13.40   12.90
   3  -8  -6  -25.10   29.30
   3  -8  -6   13.70   15.40
  -3   8   6    4.20   17.40
  -3   8   6    3.10   13.00
   2  -8  -6  379.36   38.30
   2  -8  -6  431.96   41.60
   2  -8  -6  360.96   91.19
   2  -8  -6  418.86   68.09
  -2   8   6  424.26   44.40
  -2   8   6  389.66   45.70
   1  -8  -6  548.35   83.99
   1  -8  -6  622.34  108.99
   1  -8  -6  718.53   52.59
  -1   8   6  667.13   55.89
  -1   8   6  680.03   53.09
   0  -8  -6  133.29   31.70
   0  -8  -6  159.68   31.00
   0  -8  -6   57.69   42.40
   0  -8  -6   62.09   37.20
   0   8   6  145.79   32.90
  -1  -8  -6  -44.00   31.10
  -1  -8  -6   60.69   23.40
  -1  -8  -6   30.60   27.60
   1   8   6   48.70   27.40
 -10   9   6  186.68   50.39
  -9   9   6    1.20   24.40
  -8   9   6  201.78   48.60
   7  -9  -6  421.06   45.00
  -7   9   6  338.57   51.59
  -7   9   6  412.86   43.60
   6  -9  -6  193.98   35.90
   6  -9  -6   68.89   54.09
  -6   9   6  199.78   43.80
  -6   9   6  189.78   34.80
   5  -9  -6    4.20   19.40
  -5   9   6    0.10   16.50
  -5   9   6   11.40   18.00
   4  -9  -6  392.96   44.00
   4  -9  -6  277.57   73.09
  -4   9   6  356.16   43.40
  -4   9   6  375.76   44.80
   3  -9  -6  358.26   42.40
  -3   9   6  385.06   42.30
  -3   9   6  435.06   47.00
   2  -9  -6   46.50   32.40
   2  -9  -6   83.09   48.10
   2  -9  -6  140.19   32.20
  -2   9   6  219.98   39.30
   1  -9  -6   -4.80   40.10
   1  -9  -6  -16.30   29.40
  -1   9   6   59.69   25.90
   0  -9  -6  182.78   53.99
   0  -9  -6  186.28   68.99
  -9  10   6  422.36   63.39
  -8  10   6   55.29   29.00
  -7  10   6   16.80   25.50
   5 -10  -6  399.86   48.30
  -5  10   6  331.97   46.40
  -5  10   6  260.07   43.80
   4 -10  -6  -19.10   29.90
   4 -10  -6    6.90   18.80
  -4  10   6   11.20   16.90
  -4  10   6    8.00   22.20
  -3  10   6   51.59   23.50
  -8  11   6  280.67   59.79
  -7  11   6  186.48   48.10
  -6  11   6   17.00   22.80
  -5  11   6   93.79   32.90
  -4  11   6  364.46   47.90
  -2  12  -7  123.89   42.80
  -3  12  -7   12.60   22.20
  -4  12  -7  278.67   52.19
  -4  12  -7  304.97   54.69
   0  11  -7   27.10   21.90
  -1  11  -7  190.88   40.80
  -2  11  -7  246.48   42.20
  -2  11  -7  335.97   49.99
  -4  11  -7    1.50   17.50
  -4  11  -7   -6.60   22.90
  -4  11  -7   -9.20   16.50
  -5  11  -7  131.49   38.00
  -5  11  -7  220.48   45.20
   2  10  -7    4.10   23.70
   1  10  -7  213.08   40.00
   0  10  -7  505.45   51.19
   0 -10   7  698.73   79.59
  -1  10  -7  162.88   40.50
  -1  10  -7  204.18   38.50
  -2  10  -7   26.30   21.20
  -2  10  -7   19.90   17.90
  -2  10  -7   18.70   21.60
   3 -10   7  785.92   67.49
   3 -10   7  743.43   68.59
   3 -10   7  857.01   77.59
  -4  10  -7  272.07   41.20
  -4  10  -7  292.17   37.50
  -4  10  -7  235.78   42.80
  -5  10  -7   37.40   22.50
  -5  10  -7   47.30   27.50
  -5  10  -7   57.99   25.40
  -6  10  -7   89.79   33.90
   3   9  -7  498.85   38.50
   3   9  -7  456.35   49.40
  -3  -9   7  449.06   38.50
  -3  -9   7  540.55   77.79
   2   9  -7  485.15   48.40
   2   9  -7  516.85   35.00
  -2  -9   7  470.75   35.40
  -2  -9   7  383.46   67.59
  -2  -9   7  671.43   84.99
   1   9  -7   23.30   22.50
  -1  -9   7   30.80   24.70
  -1  -9   7   47.00   22.70
   0   9  -7   83.69   27.40
   0  -9   7   83.89   28.90
   0  -9   7  171.98   37.60
  -1   9  -7  377.26   40.40
  -1   9  -7  338.57   44.90
  -1   9  -7  327.17   39.80
   1  -9   7  467.15   60.39
   1  -9   7  538.45   65.29
  -2   9  -7  493.65   45.20
  -2   9  -7  547.25   49.40
  -2   9  -7  501.45   52.49
   2  -9   7  614.84   72.99
   2  -9   7  740.73   74.49
  -3   9  -7  125.69   32.20
   3  -9   7  280.37   37.70
   3  -9   7  271.87   38.30
  -4   9  -7  159.08   35.30
  -4   9  -7  182.58   32.10
  -4   9  -7  127.79   32.90
  -5   9  -7  515.55   43.60
  -5   9  -7  633.94   60.09
  -6   9  -7  348.37   58.29
  -7   9  -7   -1.00   20.80
   4   8  -7  593.54   52.09
   4   8  -7  626.94   44.40
  -4  -8   7  573.14   46.30
  -4  -8   7  753.62   95.39
  -4  -8   7  422.06   82.09
   3   8  -7   18.10   12.70
   3   8  -7   37.70   20.80
  -3  -8   7   19.20   13.50
  -3  -8   7  -20.00   25.40
  -3  -8   7   38.90   22.30
   2   8  -7   31.70   12.70
   2   8  -7   32.10   21.60
  -2  -8   7   54.79   14.50
  -2  -8   7   61.29   27.20
  -2  -8   7   28.90   24.90
   1   8  -7  584.64   46.50
   1   8  -7  594.64   30.70
  -1  -8   7  631.44   75.99
  -1  -8   7  685.13   81.99
  -1  -8   7  579.54   34.00
   0   8  -7  936.51   58.49
   0   8  -7  872.71   56.19
   0  -8   7  898.21   91.39
   0  -8   7 1023.30   96.69
  -1   8  -7   16.90   13.50
  -1   8  -7   18.90   15.70
  -1   8  -7   12.50   16.60
   1  -8   7   46.00   20.00
  -2   8  -7  237.98   32.70
  -2   8  -7  230.88   31.10
  -2   8  -7  239.88   33.30
   2  -8   7  376.36   43.90
   2  -8   7  289.37   50.09
  -3   8  -7  565.44   43.90
  -3   8  -7  521.35   49.30
  -3   8  -7  594.74   51.19
   3  -8   7  761.72   73.69
  -4   8  -7  310.57   35.00
  -4   8  -7  287.07   35.30
  -4   8  -7  290.17   40.20
   4  -8   7  417.96   56.29
  -5   8  -7   81.99   28.60
  -5   8  -7   60.89   21.60
  -5   8  -7   49.70   21.40
  -6   8  -7   92.39   35.00
  -7   8  -7  202.88   46.80
  -6  -7   7   51.99   59.09
   5   7  -7   10.80   16.10
   5   7  -7    1.10   20.90
  -5  -7   7    0.50   10.60
  -5  -7   7  -50.59   28.50
  -5  -7   7   32.50   22.90
   4   7  -7  143.49   30.20
   4   7  -7  182.68   25.20
  -4  -7   7  119.19   37.00
  -4  -7   7   94.29   41.10
  -4  -7   7  132.39   26.00
   3   7  -7  913.61   47.80
   3   7  -7  895.81   54.49
  -3  -7   7  815.62   90.69
  -3  -7   7  884.91   52.29
  -3  -7   7  985.10   98.79
   2   7  -7  462.55   40.20
   2   7  -7  484.55   30.80
  -2  -7   7  494.45   34.50
  -2  -7   7  549.95   73.89
  -2  -7   7  465.05   66.39
   1   7  -7   -3.40   14.50
   1   7  -7   12.80    8.70
   1   7  -7   10.70   12.10
  -1  -7   7   20.00    8.00
  -1  -7   7   27.30   20.70
  -1  -7   7   18.90   15.80
   0   7  -7  447.56   36.90
   0   7  -7  561.74   39.40
   0   7  -7  498.75   21.70
   0  -7   7  472.55   25.30
   0  -7   7  515.55   66.59
  -1   7  -7 1273.87   73.89
  -1   7  -7 1293.07   68.79
  -1   7  -7 1198.08   61.29
   1  -7   7 1220.18   88.59
   1  -7   7 1213.18  110.29
  -2   7  -7  167.88   30.90
  -2   7  -7  159.88   27.00
  -2   7  -7  125.39   27.80
   2  -7   7  190.68   33.00
   2  -7   7  194.88   40.10
  -3   7  -7  155.58   31.20
  -3   7  -7  167.28   30.70
  -3   7  -7  185.38   28.40
   3  -7   7  219.18   41.30
  -4   7  -7  344.77   32.60
  -4   7  -7  293.97   40.40
  -4   7  -7  315.97   33.60
   4  -7   7  353.36   55.49
  -5   7  -7  612.24   59.49
   5  -7   7  643.24   82.69
  -6   7  -7   31.80   24.90
   6  -7   7   73.99   34.80
  -7   7  -7   73.59   34.30
   6   6  -7  232.68   35.00
  -6  -6   7   96.09   51.79
  -6  -6   7  356.16   69.99
  -6  -6   7  220.38   37.80
   5   6  -7  664.53   46.70
   5   6  -7  740.73   50.29
  -5  -6   7  619.54   92.09
  -5  -6   7  705.63   52.89
  -5  -6   7  846.52   93.99
   4   6  -7  411.26   37.60
   4   6  -7  397.76   33.80
  -4  -6   7  444.86   64.89
  -4  -6   7  312.67   63.99
  -4  -6   7  360.26   34.80
   3   6  -7   19.60   15.70
   3   6  -7   20.70   11.40
  -3  -6   7   18.00   11.80
  -3  -6   7   -3.20   15.50
  -3  -6   7   24.70   18.40
   2   6  -7  942.21   43.40
   2   6  -7  878.91   51.29
  -2  -6   7  976.50   93.29
  -2  -6   7  899.91   47.90
  -2  -6   7  952.50   88.99
   1   6  -7  804.32   46.60
   1   6  -7  866.91   36.30
   1   6  -7  845.12   48.30
  -1  -6   7  782.62   39.90
  -1  -6   7  772.12   81.19
   0   6  -7  142.29   11.60
   0   6  -7  194.68   25.70
   0   6  -7  138.99   24.60
   0  -6   7  159.08   24.40
   0  -6   7  110.09   34.40
   0  -6   7  144.79   13.70
  -1   6  -7   84.69   21.60
  -1   6  -7   92.89   21.30
  -1   6  -7  101.09   22.30
   1  -6   7   67.69   28.10
   1  -6   7  121.49   24.30
   1  -6   7   90.79    9.70
  -2   6  -7  686.83   49.00
  -2   6  -7  768.72   53.39
  -2   6  -7  758.72   46.00
   2  -6   7  812.22   73.09
   2  -6   7  758.92   32.10
   2  -6   7  828.32   75.49
  -3   6  -7  670.23   41.90
  -3   6  -7  541.85   42.20
  -3   6  -7  613.84   50.79
   3  -6   7  562.44   28.80
   3  -6   7  667.43   70.69
  -4   6  -7   45.00   20.20
  -4   6  -7   98.59   21.30
   4  -6   7   70.09   29.90
  -5   6  -7  236.48   42.90
   5  -6   7  170.68   48.20
  -6   6  -7  448.86   54.39
   6  -6   7  494.45   83.49
  -7   6  -7  171.18   43.20
  -8   6  -7   11.90   25.10
   7   5  -7  416.06   44.10
  -7  -5   7  481.95   48.20
  -7  -5   7  342.47   75.49
   6   5  -7  122.99   25.30
   6   5  -7  142.29   27.70
  -6  -5   7  158.88   32.30
  -6  -5   7   66.19   38.20
  -6  -5   7  253.77   56.09
   5   5  -7   93.49   21.00
   5   5  -7  148.19   26.50
  -5  -5   7  110.79   24.50
  -5  -5   7   48.00   36.50
  -5  -5   7  104.09   31.60
   4   5  -7  820.72   47.50
   4   5  -7  774.92   45.00
  -4  -5   7  785.02   49.40
  -4  -5   7  896.91   90.89
  -4  -5   7  705.63   84.49
   3   5  -7  980.50   47.90
   3   5  -7  978.40   51.99
  -3  -5   7 1034.10   95.29
  -3  -5   7  966.50   93.09
  -3  -5   7 1005.40   53.49
   2   5  -7    6.90    7.80
   2   5  -7    2.20    8.30
   2   5  -7   12.00   12.70
  -2  -5   7   -0.80    7.90
  -2  -5   7    2.20   15.20
   1   5  -7  436.16   24.60
   1   5  -7  467.55   32.90
   1   5  -7  486.25   34.30
  -1  -5   7  442.06   59.79
  -1  -5   7  422.66   28.00
   0   5  -7  888.11   49.30
   0   5  -7  843.22   33.50
   0   5  -7  838.22   46.70
   0  -5   7  816.62   85.59
   0  -5   7  833.92   38.80
   0  -5   7  810.22   62.69
  -1   5  -7  740.53   43.90
  -1   5  -7  765.52   29.50
  -1   5  -7  674.93   46.90
   1  -5   7  765.02   36.20
   1  -5   7  808.22   67.09
   1  -5   7  771.72   79.29
  -2   5  -7   14.10   10.40
  -2   5  -7   17.80   13.50
  -2   5  -7   11.60   13.90
  -2   5  -7    6.20    5.70
   2  -5   7    9.50    6.00
   2  -5   7    9.20   13.70
  -3   5  -7  619.94   40.20
  -3   5  -7  550.24   48.40
  -3   5  -7  569.44   38.30
  -3   5  -7  617.94   27.80
   3  -5   7  611.74   69.29
   3  -5   7  554.34   31.80
  -4   5  -7  738.83   60.89
  -4   5  -7  983.70   51.09
   4  -5   7  850.61   45.60
   4  -5   7  966.10   97.09
  -5   5  -7  174.58   36.20
  -5   5  -7  183.08   20.40
   5  -5   7  180.88   50.29
   5  -5   7  157.98   23.00
  -6   5  -7   75.69   30.30
   6  -5   7   86.29   41.20
   6  -5   7   56.79   18.40
  -7   5  -7  361.06   50.59
   7  -5   7  262.07   35.90
  -8   5  -7  217.48   49.70
   7   4  -7   80.39   23.00
  -7  -4   7  155.48   33.10
  -7  -4   7   50.39   46.10
  -7  -4   7   62.09   25.40
   6   4  -7  370.66   36.20
   6   4  -7  410.06   34.00
  -6  -4   7  301.97   63.59
  -6  -4   7  467.45   65.89
  -6  -4   7  369.46   39.70
   5   4  -7  772.02   46.10
   5   4  -7  782.82   44.80
  -5  -4   7  763.62   90.49
  -5  -4   7  884.91   87.89
  -5  -4   7  771.32   52.89
   4   4  -7  116.29   20.20
   4   4  -7  132.99   21.60
   4   4  -7  152.38   21.20
  -4  -4   7  161.88   25.90
  -4  -4   7  139.69   22.90
  -4  -4   7  178.98   39.20
  -4  -4   7  122.29   35.20
   3   4  -7  469.05   30.60
   3   4  -7  515.85   31.90
   3   4  -7  425.66   31.90
  -3  -4   7  479.35   60.69
  -3  -4   7  530.85   30.50
  -3  -4   7  492.35   35.10
   2   4  -7 1771.42   74.09
   2   4  -7 1919.31   69.89
   2   4  -7 2001.20   70.69
   2   4  -7 1966.10   73.29
  -2  -4   7 2008.60   73.09
  -2  -4   7 1760.82   75.39
  -2  -4   7 1976.30  137.19
   1   4  -7  979.60   48.80
   1   4  -7 1079.09   42.80
   1   4  -7 1109.19   50.99
  -1  -4   7 1001.80   92.39
  -1  -4   7  887.61   62.79
  -1  -4   7 1054.99   48.50
   0   4  -7  103.79   13.50
   0   4  -7   96.99   20.00
   0   4  -7   84.29   17.60
   0  -4   7   85.09   29.40
   0  -4   7   46.20   17.50
   0  -4   7   98.29   16.00
  -1   4  -7 1119.59   44.70
  -1   4  -7 1136.99   54.79
  -1   4  -7 1180.88   61.69
   1  -4   7 1170.08   81.59
   1  -4   7 1142.59   51.09
   1  -4   7 1056.69   83.79
  -2   4  -7  984.60   40.80
  -2   4  -7  929.71   58.39
  -2   4  -7  991.40   51.79
   2  -4   7  949.21   74.89
   2  -4   7  938.11   45.20
   2  -4   7  956.90   84.09
  -3   4  -7  101.09   24.90
  -3   4  -7  123.89   22.90
  -3   4  -7  103.99   15.30
   3  -4   7   94.29   17.20
   3  -4   7  107.99   34.60
  -4   4  -7   55.09   19.90
  -4   4  -7   61.89   14.50
  -4   4  -7   71.39   18.60
   4  -4   7   78.89   34.60
   4  -4   7   74.49   17.10
  -5   4  -7  347.77   43.00
   5  -4   7  220.88   56.79
   5  -4   7  267.07   30.50
  -6   4  -7  354.06   33.20
  -6   4  -7  376.56   45.70
   6  -4   7  392.56   82.09
   6  -4   7  306.97   36.10
  -7   4  -7   62.99   30.20
  -7   4  -7   26.70   19.00
  -8   4  -7   61.19   30.50
   8   3  -7  426.16   41.10
  -8  -3   7  226.18   66.29
  -8  -3   7  455.85   50.89
   7   3  -7  329.37   36.50
   7   3  -7  387.26   38.30
  -7  -3   7  352.06   35.80
  -7  -3   7  402.26   60.59
  -7  -3   7  217.28   55.19
  -7  -3   7  351.56   41.10
   6   3  -7  -12.40    9.70
   6   3  -7    5.20   12.80
   6   3  -7   -3.00   12.70
  -6  -3   7    0.00   12.90
  -6  -3   7    6.20   11.70
  -6  -3   7   -0.60    7.50
  -6  -3   7  -13.00   21.00
   5   3  -7  795.52   47.40
   5   3  -7  879.81   49.90
   5   3  -7  865.71   44.30
  -5  -3   7  839.62   53.99
  -5  -3   7  863.61   82.39
  -5  -3   7  839.32   46.80
  -5  -3   7  806.02   89.89
   4   3  -7  667.13   39.50
   4   3  -7  704.73   38.40
   4   3  -7  688.73   40.30
  -4  -3   7  641.04   43.70
  -4  -3   7  653.53   38.00
  -4  -3   7  620.14   71.09
  -4  -3   7  700.83   70.49
   3   3  -7  406.16   27.30
   3   3  -7  361.36   27.70
   3   3  -7  364.86   26.90
  -3  -3   7  408.26   55.09
  -3  -3   7  354.06   29.00
  -3  -3   7  351.06   25.30
   2   3  -7   73.49   12.80
   2   3  -7   68.99   13.10
   2   3  -7   60.19   14.90
   2   3  -7   55.39   12.70
  -2  -3   7   62.49   28.70
  -2  -3   7   60.19   14.80
  -2  -3   7   65.79   13.40
  -2  -3   7   42.50   10.30
   1   3  -7 1805.22   70.29
   1   3  -7 1781.12   71.79
   1   3  -7 1846.62   62.99
   1   3  -7 1770.82   64.39
   1   3  -7 1645.74   63.89
  -1  -3   7 1748.43   71.89
  -1  -3   7 1675.93   99.79
  -1  -3   7 1705.43  127.49
  -1  -3   7 1740.83   62.79
   0   3  -7  664.13   34.00
   0   3  -7  701.83   34.20
   0   3  -7  757.12   43.10
   0  -3   7  584.54   56.69
   0  -3   7  695.23   74.89
   0  -3   7  695.53   32.20
   0  -3   7  627.34   38.00
  -1   3  -7  146.19   25.80
  -1   3  -7  210.58   19.50
   1  -3   7  187.48   19.70
   1  -3   7  165.38   36.50
   1  -3   7  184.08   22.30
  -2   3  -7  284.57   22.40
  -2   3  -7  230.88   29.70
   2  -3   7  260.27   24.50
   2  -3   7  235.28   45.30
  -3   3  -7 1159.28   51.49
  -3   3  -7 1225.58   69.79
   3  -3   7 1152.48  105.19
   3  -3   7 1046.30   55.79
  -4   3  -7  328.67   38.40
   4  -3   7  331.37   64.59
   4  -3   7  270.57   29.40
  -5   3  -7   -9.40   13.00
  -5   3  -7   11.30   13.90
   5  -3   7    5.90   12.60
   5  -3   7  -18.60   25.70
  -6   3  -7  274.27   32.50
  -6   3  -7  277.77   48.30
   6  -3   7  168.28   54.39
   6  -3   7  250.47   33.50
  -7   3  -7  439.76   53.49
  -9  -2   7  193.88   35.90
   8   2  -7   27.60   44.30
   8   2  -7  -12.00   11.70
   8   2  -7   12.00   16.70
  -8  -2   7   25.40   16.30
  -8  -2   7  -44.10   32.90
  -8  -2   7   11.90   14.10
   7   2  -7  580.04   45.10
   7   2  -7  509.55   41.80
   7   2  -7  528.65  106.79
  -7  -2   7  543.15   42.40
  -7  -2   7  592.44   66.69
  -7  -2   7  391.16   80.39
  -7  -2   7  506.15   45.70
   6   2  -7  921.51  117.89
   6   2  -7  857.01   42.10
   6   2  -7  773.22   48.10
   6   2  -7  795.12   50.99
  -6  -2   7  830.72   56.69
  -6  -2   7  833.52   49.70
  -6  -2   7  814.82   94.89
  -6  -2   7  896.91   80.79
   5   2  -7  289.17   24.40
   5   2  -7  291.07   28.70
   5   2  -7  301.47   67.39
   5   2  -7  295.57   28.70
  -5  -2   7  324.77   46.70
  -5  -2   7  291.17   25.80
  -5  -2   7  283.77   52.39
  -5  -2   7  331.67   33.70
   4   2  -7  123.69   16.90
   4   2  -7  132.79   17.40
   4   2  -7  120.99   19.80
  -4  -2   7  118.69   21.30
  -4  -2   7  113.89   34.60
  -4  -2   7  122.39   19.50
   3   2  -7 2478.05   87.59
   3   2  -7 2256.17   83.99
   3   2  -7 2386.86   76.29
   3   2  -7 2383.76   85.59
  -3  -2   7 2255.37   92.69
  -3  -2   7 2411.66  150.58
  -3  -2   7 2271.37   84.59
   2   2  -7 1696.23   64.79
   2   2  -7 1626.44   63.99
   2   2  -7 1681.83   61.69
  -2  -2   7 1706.43   64.39
  -2  -2   7 1522.45  108.29
  -2  -2   7 1699.23  121.89
  -2  -2   7 1650.83   71.89
   1   2  -7   -6.70    6.70
   1   2  -7   -3.90    6.30
   1   2  -7    8.60   10.20
   1   2  -7   -1.10    7.50
  -1  -2   7   -0.30   19.30
  -1  -2   7   -1.70    6.30
  -1  -2   7   -2.40    5.70
  -1  -2   7   -2.40    8.30
  -1  -2   7   -3.80   13.50
   0   2  -7  758.12   38.40
   0   2  -7  634.24   40.90
   0   2  -7  681.53   35.20
   0   2  -7  751.52   36.90
   0  -2   7  677.43   63.59
   0  -2   7  730.63   40.40
   0  -2   7  753.32   73.29
   0  -2   7  782.42   43.40
   0  -2   7  735.63   36.90
  -1   2  -7 1221.88   51.19
  -1   2  -7 1244.38   49.50
  -1   2  -7 1096.19   58.69
   1  -2   7 1223.68   49.80
   1  -2   7 1027.00   88.59
   1  -2   7 1116.29   54.79
  -2   2  -7  461.75   30.60
  -2   2  -7  553.34   41.70
   2  -2   7  467.55   34.50
   2  -2   7  425.66   60.79
   3  -2   7   20.40   24.90
   3  -2   7   17.30   12.70
  -4   2  -7  452.25   35.90
   4  -2   7  416.26   38.00
   4  -2   7  394.66   74.79
  -5   2  -7  784.52   58.39
  -5   2  -7  810.42   50.29
   5  -2   7  577.34   95.49
   5  -2   7  643.64   50.59
  -6   2  -7   98.69   24.80
  -6   2  -7  106.89   29.30
   6  -2   7   82.09   25.40
   6  -2   7   27.90   42.30
  -7   2  -7    8.50   18.90
   9   1  -7  525.05   50.09
   9   1  -7  330.87   96.09
   9   1  -7  512.55   45.90
  -9  -1   7  576.94   53.69
  -9  -1   7  463.95   46.10
   8   1  -7  319.97   38.30
   8   1  -7  252.97   75.69
   8   1  -7  356.76   36.20
  -8  -1   7  363.26   70.29
  -8  -1   7  343.87   37.50
  -8  -1   7  390.86   41.80
   7   1  -7    0.70   14.40
   7   1  -7    2.60   13.60
   7   1  -7  -27.00   31.00
  -7  -1   7   -0.70   12.20
  -7  -1   7    3.70   14.70
  -7  -1   7  -36.80   29.30
  -7  -1   7   26.40   12.50
   6   1  -7  110.69   16.90
   6   1  -7   90.49   19.30
   6   1  -7   52.69   36.70
   6   1  -7  112.99   23.10
  -6  -1   7   68.79   19.60
  -6  -1   7  102.69   19.80
  -6  -1   7   90.49   23.30
  -6  -1   7   73.89   38.10
   5   1  -7  791.12   95.89
   5   1  -7  830.52   46.60
   5   1  -7  741.33   43.50
   5   1  -7  818.92   39.10
  -5  -1   7  731.53   43.20
  -5  -1   7  859.51   82.49
  -5  -1   7  837.22   70.59
  -5  -1   7  813.32   50.99
   4   1  -7  827.92   85.49
   4   1  -7  876.81   45.30
   4   1  -7  821.42   44.20
   4   1  -7  817.82   40.90
  -4  -1   7  771.62   47.90
  -4  -1   7  887.11   80.19
  -4  -1   7  769.12   42.40
   3   1  -7   22.20   12.10
   3   1  -7   60.29   12.60
   3   1  -7   31.50   12.30
   3   1  -7   33.20    7.20
  -3  -1   7   25.70   22.40
  -3  -1   7   46.90   13.00
  -3  -1   7   57.99   16.70
   2   1  -7  562.34   34.60
   2   1  -7  521.35   28.80
   2   1  -7  538.25   33.30
  -2  -1   7  502.35   40.60
  -2  -1   7  555.24   33.50
  -2  -1   7  507.85   47.80
  -2  -1   7  546.05   37.70
  -2  -1   7  477.25   62.09
   1   1  -7 2506.05   93.79
   1   1  -7 2606.74   94.79
   1   1  -7 2518.35   94.09
  -1  -1   7 2555.94   93.89
  -1  -1   7 2560.04  103.39
  -1  -1   7 3116.59  155.48
  -1  -1   7 2879.51  167.48
   0   1  -7  395.56   29.10
   0   1  -7  391.46   27.40
   0  -1   7  430.56   51.89
   0  -1   7  413.06   32.40
   0  -1   7  370.56   27.00
  -1   1  -7  297.97   25.60
  -1   1  -7  318.37   25.00
   1  -1   7  292.37   49.60
   1  -1   7  275.27   26.10
   1  -1   7  312.77   24.30
  -2   1  -7  696.23   40.40
   2  -1   7  665.93   44.40
   2  -1   7  666.13   38.60
   2  -1   7  607.84   75.09
   3  -1   7  718.33   82.99
   3  -1   7  681.43   48.10
  -4   1  -7   23.00   16.00
   4  -1   7   -4.90   26.90
   4  -1   7   -3.40   12.50
  -5   1  -7   90.69   23.20
   5  -1   7  101.39   26.20
   5  -1   7   50.09   41.70
  -6   1  -7  205.48   34.60
   6  -1   7  137.09   58.59
   6  -1   7  193.88   37.10
  -7   1  -7  266.47   47.30
   9   0  -7   90.39   27.40
   9   0  -7   56.59   23.50
   9   0  -7  -21.10   50.09
  -9   0   7   76.49   23.40
  -9   0   7   -0.60   41.50
  -9   0   7   96.39   27.30
   8   0  -7  385.46   39.90
   8   0  -7  424.76   97.69
   8   0  -7  436.56   42.60
  -8   0   7  372.86   69.29
  -8   0   7  381.46   38.40
  -8   0   7  416.76   44.90
   7   0  -7 1096.69   61.39
   7   0  -7  969.60   56.59
   7   0  -7 1018.00  134.59
  -7   0   7  984.20  104.79
  -7   0   7 1112.59   66.79
  -7   0   7  975.10   57.59
   6   0  -7  318.37   31.80
   6   0  -7  291.97   75.29
   6   0  -7  262.17   20.70
   6   0  -7  278.07   27.50
  -6   0   7  307.57   39.30
  -6   0   7  202.18   49.00
  -6   0   7  282.97   29.20
  -6   0   7  262.17   32.80
   5   0  -7   12.30    8.90
   5   0  -7   -7.30   23.00
   5   0  -7    9.20   11.90
   5   0  -7   -1.30    7.90
  -5   0   7    2.50    8.70
  -5   0   7   10.70   18.40
  -5   0   7    0.40    9.90
   4   0  -7 1256.07   59.39
   4   0  -7 1400.26   63.29
   4   0  -7 1345.67  112.49
  -4   0   7 1294.17   59.79
  -4   0   7 1321.27  100.69
  -4   0   7 1376.26   67.49
   3   0  -7 1727.03   71.09
   3   0  -7 1851.61   74.29
   3   0  -7 1588.94  114.59
  -3   0   7 1787.82   79.39
  -3   0   7 1702.43   71.39
  -3   0   7 1727.13  119.49
   2   0  -7  365.16   24.60
   2   0  -7  383.66   30.50
   2   0  -7  413.86   32.00
  -2   0   7  436.66   30.30
  -2   0   7  445.66   36.70
  -2   0   7  386.56   54.79
  -2   0   7  470.45   51.19
   1   0  -7  125.69   20.50
   1   0  -7  141.49   19.80
  -1   0   7   96.49   30.10
  -1   0   7  141.09   24.50
  -1   0   7  113.19   19.20
  -1   0   7  124.79   31.30
   0   0  -7 2119.89   82.79
   0   0  -7 2191.18   83.79
   0   0   7 2227.18   91.89
   0   0   7 2259.97  142.09
   0   0   7 2248.28   83.69
  -1   0  -7 1047.30   51.39
  -1   0  -7 1077.09   53.09
   1   0   7 1172.48   53.99
   1   0   7 1149.08   96.79
   1   0   7 1061.09   58.59
  -2   0  -7    3.90    9.30
  -2   0  -7   -7.50   10.40
   2   0   7   -9.70    5.80
   2   0   7    6.10   10.50
   2   0   7    5.50   27.00
  -3   0  -7  146.59   25.00
   3   0   7  131.39   40.90
   3   0   7  157.28   28.60
   3   0   7  151.48   25.30
  -4   0  -7  608.54   46.10
   4   0   7  585.64   84.19
   4   0   7  586.64   48.00
  -5   0  -7  378.56   39.20
   5   0   7  317.27   40.90
   5   0   7  246.48   66.49
   9  -1  -7  409.16  107.19
   9  -1  -7  575.44   48.90
   9  -1  -7  584.64   49.20
  -9   1   7  538.55   90.89
  -9   1   7  645.64   51.19
  -9   1   7  630.84   55.59
   8  -1  -7  141.59   65.89
   8  -1  -7  226.88   33.00
   8  -1  -7  263.37   30.70
  -8   1   7  184.98   55.19
  -8   1   7  222.18   28.40
  -8   1   7  251.37   36.10
   7  -1  -7   53.49   18.80
   7  -1  -7   56.29   17.90
   7  -1  -7   10.30   39.00
  -7   1   7   48.60   18.50
  -7   1   7   36.40   29.10
  -7   1   7   78.39   24.10
   6  -1  -7 1149.78   58.69
   6  -1  -7 1188.48   48.30
   6  -1  -7 1174.88  132.49
   6  -1  -7 1175.88   61.99
  -6   1   7 1195.98   79.49
  -6   1   7 1174.48   61.19
  -6   1   7 1145.09   67.09
  -6   1   7 1224.18  100.99
   5  -1  -7  536.85   37.60
   5  -1  -7  460.75   78.69
   5  -1  -7  519.35   37.10
  -5   1   7  498.25   41.10
  -5   1   7  532.45   67.49
  -5   1   7  506.05   35.70
   4  -1  -7   88.09   32.80
   4  -1  -7  106.59   21.80
   4  -1  -7   80.79   29.10
   4  -1  -7  126.39   21.40
  -4   1   7   95.39   20.60
  -4   1   7   99.69   18.70
  -4   1   7  107.59   31.80
   3  -1  -7   31.00   12.40
   3  -1  -7   23.90    7.40
   3  -1  -7   33.70   28.20
   3  -1  -7   12.30   16.80
   3  -1  -7   34.40   14.50
  -3   1   7    6.90   17.60
  -3   1   7   27.80   13.20
  -3   1   7   57.19   15.00
   2  -1  -7 1353.56   65.89
   2  -1  -7 1757.02  135.29
   2  -1  -7 1573.14   89.59
   2  -1  -7 1494.55   67.69
  -2   1   7 1704.13  110.59
  -2   1   7 1512.95   76.09
  -2   1   7 1536.45   68.49
  -2   1   7 1487.05  107.99
   1  -1  -7 1265.27  110.09
   1  -1  -7 1255.37   57.29
   1  -1  -7 1142.59   56.39
  -1   1   7 1282.77   65.99
  -1   1   7 1177.98   91.99
  -1   1   7 1142.09   55.49
  -1   1   7 1174.88   95.79
   0  -1  -7   41.60   14.30
   0  -1  -7   28.10   14.00
   0  -1  -7   60.29   24.40
   0   1   7   37.20   16.00
   0   1   7   44.70   14.30
   0   1   7   58.09   29.50
  -1  -1  -7  549.85   39.50
  -1  -1  -7  724.23   69.99
   1   1   7  624.64   40.70
   1   1   7  577.24   43.00
   1   1   7  616.64   71.39
  -2  -1  -7 1079.49   59.39
   2   1   7 1058.69  105.29
   2   1   7 1038.50   57.39
   2   1   7 1037.40   62.19
  -3  -1  -7  186.58   29.60
  -3  -1  -7  121.79   23.70
   3   1   7  136.89   24.60
   3   1   7  109.79   39.70
   3   1   7  118.39   26.30
  -4  -1  -7   18.90   18.00
   4   1   7   26.00   19.80
   4   1   7    1.90   34.90
  -5  -1  -7  242.08   33.00
   5   1   7  130.99   60.79
   5   1   7  229.08   38.90
  10  -2  -7   67.69   25.70
 -10   2   7   37.40   22.10
   9  -2  -7   78.29   24.60
   9  -2  -7   60.59   21.90
   9  -2  -7  -41.20   50.79
  -9   2   7   96.59   28.30
  -9   2   7   21.40   38.10
  -9   2   7   63.19   22.00
   8  -2  -7  554.64   43.40
   8  -2  -7  504.75  122.99
   8  -2  -7  622.84   47.80
  -8   2   7  720.93   55.79
  -8   2   7  559.14   82.69
  -8   2   7  646.94   48.60
   7  -2  -7  615.14  111.79
   7  -2  -7  700.23   48.10
   7  -2  -7  662.03   44.30
  -7   2   7  649.43   46.30
  -7   2   7  619.54   79.89
  -7   2   7  672.43   52.39
   6  -2  -7   12.90   13.40
   6  -2  -7    3.70   10.40
   6  -2  -7    2.80   30.50
  -6   2   7   16.60   13.40
  -6   2   7   13.40   11.40
  -6   2   7  -11.50   16.40
   5  -2  -7  427.26   36.80
   5  -2  -7  435.16   32.90
   5  -2  -7  470.65   75.49
   5  -2  -7  388.06   74.59
  -5   2   7  398.36   58.49
  -5   2   7  395.56   36.10
  -5   2   7  411.46   33.30
   4  -2  -7 1646.74   72.99
   4  -2  -7 1680.63  129.69
   4  -2  -7 1676.93  142.89
   4  -2  -7 1641.24   75.89
  -4   2   7 1698.03   75.09
  -4   2   7 1742.63   82.99
  -4   2   7 1656.93  112.59
   3  -2  -7  875.31   51.39
   3  -2  -7 1016.50   81.89
   3  -2  -7 1039.70  109.89
   3  -2  -7  919.61   52.49
  -3   2   7 1078.19   81.69
  -3   2   7  967.60   58.99
  -3   2   7  963.20   53.99
   2  -2  -7   47.80   15.20
   2  -2  -7   23.90   12.00
   2  -2  -7   52.39   15.20
   2  -2  -7   28.40   27.10
  -2   2   7   38.40   25.30
  -2   2   7   20.00   15.70
  -2   2   7   42.20   19.30
  -2   2   7   24.40   14.00
   1  -2  -7 1005.60  102.99
   1  -2  -7  984.00   58.99
   1  -2  -7 1046.30   52.99
   1  -2  -7 1032.50   53.29
  -1   2   7 1140.39   62.39
  -1   2   7 1120.99   96.59
  -1   2   7 1059.39   83.29
  -1   2   7 1060.29   54.39
   0  -2  -7 1513.65   70.09
   0  -2  -7 1492.75  124.79
   0   2   7 1596.14   78.89
   0   2   7 1594.74   71.69
   0   2   7 1753.42  127.59
  -1  -2  -7  195.68   30.50
  -1  -2  -7  105.49   32.10
  -1  -2  -7  177.78   23.90
   1   2   7  195.38   31.00
   1   2   7  157.88   44.80
   1   2   7  171.48   23.00
  -2  -2  -7  120.59   25.70
   2   2   7  167.38   31.40
   2   2   7  154.28   27.70
   2   2   7  100.89   44.00
  -3  -2  -7  482.85   43.60
   3   2   7  463.25   84.19
   3   2   7  389.06   44.70
   3   2   7  457.45   41.70
  -4  -2  -7  485.75   45.70
   4   2   7  363.06   45.20
   4   2   7  335.87   75.79
   9  -3  -7  447.16   42.50
   9  -3  -7  366.06   36.60
   9  -3  -7  201.38   82.49
  -9   3   7  284.17   61.59
  -9   3   7  478.15   45.10
  -9   3   7  440.46   42.60
   8  -3  -7  -58.19   39.20
   8  -3  -7   13.50   13.30
   8  -3  -7   16.90   16.20
  -8   3   7   -2.70   13.70
  -8   3   7    8.10   12.80
  -8   3   7  -47.80   24.70
   7  -3  -7  614.64  101.89
   7  -3  -7  565.64   46.20
   7  -3  -7  492.65  107.79
   7  -3  -7  572.04   41.10
  -7   3   7  568.44   44.40
  -7   3   7  573.24   46.70
  -7   3   7  570.24   73.39
   6  -3  -7  699.23  104.09
   6  -3  -7  777.92   50.59
   6  -3  -7  763.72   48.00
   6  -3  -7  822.72  103.19
  -6   3   7  749.23   48.20
  -6   3   7  787.22   53.39
  -6   3   7  720.53   77.49
   5  -3  -7  477.65   79.29
   5  -3  -7  451.75   88.19
   5  -3  -7  493.25   41.30
   5  -3  -7  510.55   38.30
  -5   3   7  460.85   59.79
  -5   3   7  511.95   40.10
  -5   3   7  513.65   42.00
   4  -3  -7   20.10   20.80
   4  -3  -7   41.10   15.40
   4  -3  -7    0.20   27.10
   4  -3  -7   40.10   17.00
  -4   3   7   37.60   15.90
  -4   3   7   25.30   20.20
  -4   3   7   42.20   17.40
   3  -3  -7  820.02   73.29
   3  -3  -7  818.32   49.10
   3  -3  -7  742.83   47.80
   3  -3  -7  595.04   84.69
  -3   3   7  828.32   67.29
  -3   3   7  719.23   53.99
  -3   3   7  764.92   49.10
   2  -3  -7  971.20   53.59
   2  -3  -7  966.50   73.19
   2  -3  -7  808.92  102.09
   2  -3  -7  969.00   54.39
  -2   3   7  970.20   60.69
  -2   3   7 1004.50   54.69
  -2   3   7  901.81   73.59
  -2   3   7 1004.20   88.29
   1  -3  -7  451.85   77.69
   1  -3  -7  599.64   48.20
   1  -3  -7  572.54   40.60
   1  -3  -7  544.45   38.40
  -1   3   7  530.05   38.00
  -1   3   7  534.85   72.99
  -1   3   7  609.84   56.69
  -1   3   7  609.24   47.50
   0  -3  -7  260.57   27.40
   0  -3  -7  129.99   39.30
   0   3   7  245.78   35.40
   0   3   7  221.38   31.60
   0   3   7  205.18   27.80
   0   3   7  179.98   48.40
  -1  -3  -7 1194.18   65.19
  -1  -3  -7 1077.69   59.69
  -1  -3  -7  902.41   98.99
   1   3   7 1155.98   69.39
   1   3   7 1177.18  115.19
   1   3   7 1079.29   61.99
  -2  -3  -7  401.66   41.10
   2   3   7  326.27   37.30
   2   3   7  365.56   40.30
   2   3   7  376.46   78.59
  -3  -3  -7    2.10   18.30
   3   3   7  -56.39   30.20
   3   3   7    0.20   12.00
   3   3   7   -5.80   15.10
  -4  -3  -7  123.29   30.90
   4   3   7  110.69   27.60
   4   3   7   95.09   56.49
   4   3   7  118.09   35.10
   9  -4  -7  146.59   73.89
   9  -4  -7  262.17   34.70
   9  -4  -7  321.47   37.20
  -9   4   7  310.77   36.80
  -9   4   7  182.48   51.59
  -9   4   7  284.67   37.10
   8  -4  -7  651.53  131.09
   8  -4  -7  659.73   50.69
   8  -4  -7  705.23  115.69
   8  -4  -7  717.23   49.80
  -8   4   7  721.13   52.49
  -8   4   7  783.12   57.59
  -8   4   7  652.83   81.89
   7  -4  -7  490.95   41.80
   7  -4  -7  441.76   99.39
   7  -4  -7  371.26   91.99
   7  -4  -7  504.95   38.20
  -7   4   7  437.86   43.10
  -7   4   7  412.16   63.39
  -7   4   7  538.65   43.30
   6  -4  -7  591.44  100.99
   6  -4  -7  503.05   40.50
   6  -4  -7  621.84   48.20
   6  -4  -7  608.54  102.89
  -6   4   7  613.24   48.90
  -6   4   7  641.04   46.50
  -6   4   7  534.45   64.99
   5  -4  -7 1465.55  131.89
   5  -4  -7 1341.77   66.99
   5  -4  -7 1053.29  132.29
   5  -4  -7 1438.66   72.99
  -5   4   7 1395.36   98.89
  -5   4   7 1382.56   70.19
  -5   4   7 1445.06   77.09
   4  -4  -7  305.27   56.29
   4  -4  -7  227.18   30.90
   4  -4  -7  120.09   43.70
   4  -4  -7  250.87   27.40
  -4   4   7  194.18   33.50
  -4   4   7  209.48   41.50
  -4   4   7  244.88   31.40
   3  -4  -7   61.89   17.90
   3  -4  -7   55.19   20.00
   3  -4  -7   41.50   28.30
   3  -4  -7   45.70   16.60
  -3   4   7   46.70   19.70
  -3   4   7   47.90   18.30
  -3   4   7   66.09   23.70
   2  -4  -7  395.36   47.10
   2  -4  -7  345.27   67.49
   2  -4  -7  391.26   36.10
   2  -4  -7  400.66   35.80
  -2   4   7  413.86   42.70
  -2   4   7  365.66   33.00
  -2   4   7  365.26   42.70
   1  -4  -7  613.94   42.30
   1  -4  -7  589.04   42.50
   1  -4  -7  636.84   91.89
  -1   4   7  624.84   43.50
  -1   4   7  659.93   56.19
  -1   4   7  665.43   52.19
  -1   4   7  619.64   83.09
   0  -4  -7  526.45   83.69
   0  -4  -7  533.65   43.30
   0  -4  -7  593.54   48.50
   0   4   7  680.93   56.09
   0   4   7  502.95   41.00
   0   4   7  503.35   44.90
   0   4   7  603.74   79.89
  -1  -4  -7   20.70   28.60
  -1  -4  -7   62.99   23.20
  -1  -4  -7   73.69   20.80
   1   4   7   74.99   22.50
   1   4   7   61.99   41.70
   1   4   7  105.99   26.00
  -2  -4  -7  719.23   52.59
  -2  -4  -7  776.32   58.89
   2   4   7  753.62   59.19
   2   4   7  860.81  103.59
   2   4   7  693.73   55.39
  -3  -4  -7  515.75   49.40
   3   4   7  445.66   47.60
   3   4   7  448.36   51.39
   3   4   7  511.45  100.19
   4   4   7   19.30   20.20
   9  -5  -7   43.00   20.30
   9  -5  -7    2.90   54.29
  -9   5   7   52.09   22.10
   8  -5  -7   31.70   48.60
   8  -5  -7  102.19   51.09
   8  -5  -7  132.99   24.60
   8  -5  -7  157.28   29.90
  -8   5   7  138.59   29.90
  -8   5   7  132.39   27.90
  -8   5   7   78.69   38.80
   7  -5  -7  513.45  105.29
   7  -5  -7  468.35   41.90
   7  -5  -7  420.76   38.00
  -7   5   7  380.76   59.19
  -7   5   7  477.85   43.00
  -7   5   7  424.66   40.70
   6  -5  -7  850.31   50.99
   6  -5  -7  939.71  115.39
   6  -5  -7  900.71   59.89
   6  -5  -7  697.63  114.49
  -6   5   7  894.81   55.99
  -6   5   7  888.61   60.49
  -6   5   7  790.72   73.69
   5  -5  -7   28.30   15.50
   5  -5  -7   24.90   15.00
   5  -5  -7   25.90   28.40
   5  -5  -7   11.10   22.40
  -5   5   7   -4.30   13.30
  -5   5   7  -20.00   18.60
  -5   5   7   44.70   20.50
   4  -5  -7  455.95   40.20
   4  -5  -7  465.25   42.80
   4  -5  -7  447.56   81.29
   4  -5  -7  495.65   69.89
  -4   5   7  509.25   47.90
  -4   5   7  417.36   40.90
  -4   5   7  407.56   49.60
   3  -5  -7  853.21   52.79
   3  -5  -7  971.50   88.29
   3  -5  -7  809.32  111.39
   3  -5  -7  928.21   55.89
  -3   5   7  884.01   56.99
  -3   5   7  802.22   59.79
   2  -5  -7  717.43   50.69
   2  -5  -7  792.22   51.49
   2  -5  -7  717.33   95.39
  -2   5   7  852.31   61.49
  -2   5   7  782.22   50.79
   1  -5  -7   20.80   13.70
   1  -5  -7  -10.30   28.50
  -1   5   7   49.30   22.90
  -1   5   7   14.20   25.20
  -1   5   7   37.40   18.70
   0  -5  -7  659.13   54.19
   0  -5  -7  625.34   94.09
   0  -5  -7  630.24   46.50
   0   5   7  726.73   57.19
   0   5   7  693.33   50.19
   0   5   7  661.63   94.79
  -1  -5  -7  445.26   44.10
  -1  -5  -7  301.07   74.59
  -1  -5  -7  397.76   41.60
   1   5   7  438.96   45.10
   1   5   7  400.66   43.40
   1   5   7  379.26   84.99
  -2  -5  -7  117.99   29.50
  -2  -5  -7   79.49   28.10
   2   5   7   99.99   55.39
   2   5   7   91.09   26.40
   2   5   7  132.19   30.50
  -3  -5  -7   64.79   26.30
   3   5   7   61.09   23.20
   3   5   7   83.19   33.10
   3   5   7   34.30   43.10
   9  -6  -7  181.58   64.99
   9  -6  -7  183.88   85.19
   9  -6  -7  367.56   43.10
  -9   6   7  334.17   41.10
   8  -6  -7  260.57   37.10
   8  -6  -7  269.07   80.69
   8  -6  -7  165.18   62.39
  -8   6   7  370.46   39.60
   7  -6  -7  -51.99   33.30
   7  -6  -7    7.00   13.60
   7  -6  -7   -1.40   13.90
   7  -6  -7   19.80   38.50
  -7   6   7   30.70   16.60
  -7   6   7    5.20   15.60
   6  -6  -7  397.86   37.40
   6  -6  -7  491.95   93.99
   6  -6  -7  379.66   41.90
  -6   6   7  325.77   39.40
  -6   6   7  399.46   41.70
   5  -6  -7  922.81  104.39
   5  -6  -7  713.83  106.39
   5  -6  -7  828.52   53.99
   5  -6  -7  719.13   56.29
  -5   6   7  834.22   56.49
  -5   6   7  813.12   60.59
   4  -6  -7  250.77   33.20
   4  -6  -7  369.86   58.59
   4  -6  -7  146.89   52.89
   4  -6  -7  267.27   32.40
  -4   6   7  248.08   38.20
  -4   6   7  238.48   34.50
  -4   6   7  234.88   31.00
   3  -6  -7  206.68   28.70
   3  -6  -7  135.69   44.00
   3  -6  -7  226.58   34.20
  -3   6   7  200.38   37.50
  -3   6   7  235.78   28.90
  -3   6   7  230.08   35.50
   2  -6  -7  598.84   47.40
   2  -6  -7  424.66   92.29
   2  -6  -7  513.15   43.60
  -2   6   7  520.25   51.29
  -2   6   7  503.85   44.50
   1  -6  -7  425.86   40.90
   1  -6  -7  316.17   82.39
  -1   6   7  455.75   45.30
  -1   6   7  478.95   44.10
   0  -6  -7   -0.80   32.50
   0  -6  -7   39.40   19.50
   0  -6  -7  100.69   27.10
   0   6   7   42.40   19.90
   0   6   7   74.69   45.30
   0   6   7   82.19   23.60
  -1  -6  -7  175.78   37.40
  -1  -6  -7  178.78   34.90
   1   6   7  162.38   33.00
   1   6   7  186.88   36.20
   1   6   7  122.39   57.19
  -2  -6  -7  332.47   42.70
  -2  -6  -7  361.16   44.60
   2   6   7  427.46   52.59
   2   6   7  295.37   78.19
   2   6   7  280.17   45.50
   9  -7  -7  -13.30   48.90
   8  -7  -7  490.05  113.49
   8  -7  -7  486.15   48.60
  -8   7   7  370.76   42.60
   7  -7  -7  675.23   55.99
   7  -7  -7  794.22  120.39
  -7   7   7  705.93   55.29
   6  -7  -7  351.16   73.09
   6  -7  -7  186.28   34.90
   6  -7  -7  201.68   27.40
  -6   7   7  191.28   35.30
   5  -7  -7  216.48   34.60
   5  -7  -7  154.38   56.79
   5  -7  -7  249.18   33.10
  -5   7   7  300.87   38.90
  -5   7   7  221.28   36.50
  -5   7   7  232.98   35.70
   4  -7  -7  762.42   55.29
   4  -7  -7  784.22  111.89
   4  -7  -7  936.31   60.39
  -4   7   7  788.02   57.19
  -4   7   7  831.02   59.09
  -4   7   7  804.32   62.39
   3  -7  -7  202.58   54.89
   3  -7  -7  374.66   40.50
   3  -7  -7  289.47   36.90
  -3   7   7  305.47   35.60
  -3   7   7  315.97   33.70
  -3   7   7  325.57   43.40
   2  -7  -7    4.30   15.60
   2  -7  -7  -45.00   30.40
   2  -7  -7    1.20   15.70
  -2   7   7    9.00   18.30
  -2   7   7    4.50   12.30
   1  -7  -7   76.09   45.40
   1  -7  -7  150.58   29.30
  -1   7   7  154.08   31.30
  -1   7   7  181.38   37.00
   0  -7  -7  343.07   47.10
   0  -7  -7  384.46   42.20
   0   7   7  425.66   47.40
   0   7   7  424.06   46.10
  -1  -7  -7  246.08   42.50
  -1  -7  -7  292.57   40.40
   1   7   7  230.68   42.00
   1   7   7  233.78   42.60
  -8   8   7   53.09   29.30
   7  -8  -7  102.99   29.30
   7  -8  -7   -2.40   49.80
  -7   8   7   57.79   24.60
  -7   8   7   76.49   28.90
   6  -8  -7  657.33   56.79
  -6   8   7  629.44   55.29
  -6   8   7  688.73   63.09
   5  -8  -7  271.37   39.20
  -5   8   7  273.97   39.10
  -5   8   7  307.67   45.70
   4  -8  -7  -14.10   28.20
   4  -8  -7   11.90   17.70
  -4   8   7   -8.80   16.60
  -4   8   7    9.40   14.10
   3  -8  -7  124.09   55.19
   3  -8  -7  178.08   33.90
   3  -8  -7  212.78   36.10
  -3   8   7  175.08   32.50
  -3   8   7  163.48   32.60
   2  -8  -7  417.16   45.00
   2  -8  -7  286.47   70.89
   2  -8  -7  461.15   44.30
  -2   8   7  460.35   47.60
  -2   8   7  491.75   53.69
   1  -8  -7  147.59   31.70
  -1   8   7  129.89   33.20
  -1   8   7  179.18   38.70
   0  -8  -7   25.00   21.80
   0  -8  -7   37.40   21.00
  -9   9   7   75.09   37.80
  -8   9   7  312.27   57.69
   6  -9  -7    3.70   21.70
   6  -9  -7  -67.59   40.90
  -6   9   7   16.80   15.50
  -6   9   7   -5.40   17.30
   5  -9  -7  197.38   36.00
   5  -9  -7   47.30   54.79
  -5   9   7  136.69   34.60
  -5   9   7  225.38   42.30
   4  -9  -7  899.91   66.59
   4  -9  -7  740.83  138.69
  -4   9   7  915.81   66.59
  -4   9   7  964.00   70.09
   3  -9  -7   81.59   27.60
   3  -9  -7  -27.90   41.30
  -3   9   7   52.49   26.60
   2  -9  -7   46.50   52.69
   1  -9  -7   78.09   57.09
  -8  10   7    4.00   17.50
  -7  10   7  262.27   53.09
  -5  10   7   12.80   17.70
  -4  10   7   66.99   26.10
  -7  11   7  -10.30   16.50
  -6  11   7  143.79   38.70
  -5  11   7  356.86   47.80
  -1  12  -8   -3.20   26.80
  -2  12  -8   -9.40   18.50
   1  11  -8   58.39   31.70
   0  11  -8  117.99   36.90
  -1  11  -8  506.05   53.99
  -2  11  -8   71.49   29.50
  -2  11  -8   30.90   26.10
  -3  11  -8  -10.40   18.40
  -3  11  -8  -17.80   16.20
  -3  11  -8  -21.40   19.50
  -4  11  -8  164.68   41.30
  -4  11  -8  149.49   37.80
  -4  11  -8  168.78   36.70
   3  10  -8  -34.90   23.70
   2  10  -8  134.29   36.70
   1  10  -8  419.76   45.20
   0  10  -8  114.39   33.30
   0 -10   8  428.76   56.89
  -1  10  -8   26.10   18.60
  -1  10  -8   28.80   21.10
  -2  10  -8  231.28   41.50
  -2  10  -8  246.88   42.20
  -2  10  -8  272.57   40.40
  -3  10  -8  366.16   47.80
  -3  10  -8  405.36   45.70
  -3  10  -8  413.86   50.39
  -4  10  -8   62.89   26.60
  -4  10  -8   29.50   24.60
  -4  10  -8   58.39   26.40
  -5  10  -8   35.50   26.50
   4   9  -8  213.28   41.70
   3   9  -8  417.56   46.90
   3   9  -8  348.37   35.30
  -3  -9   8  441.76   38.90
   2   9  -8  133.69   33.90
  -2  -9   8   89.79   39.30
   1   9  -8  114.99   31.80
  -1  -9   8   82.19   34.60
  -1  -9   8  222.48   44.10
   0   9  -8  470.35   44.10
   0   9  -8  415.26   43.70
   0  -9   8  525.85   69.99
   0  -9   8  637.34   72.69
  -1   9  -8  376.66   43.00
   1  -9   8  503.65   59.69
   1  -9   8  506.65   64.99
  -2   9  -8   32.40   23.00
  -2   9  -8   20.60   16.50
  -2   9  -8   23.50   20.10
  -3   9  -8  130.09   33.70
  -3   9  -8  115.09   31.00
  -3   9  -8  149.69   32.50
  -4   9  -8  319.97   41.50
  -4   9  -8  391.96   47.30
  -4   9  -8  318.77   40.90
  -5   9  -8  177.88   42.40
  -6   9  -8    6.10   22.60
   5   8  -8  160.18   37.50
   4   8  -8   67.69   28.70
   4   8  -8  133.19   26.30
  -4  -8   8   47.60   42.80
  -4  -8   8  113.49   25.50
   3   8  -8  105.49   21.40
   3   8  -8  112.19   27.70
  -3  -8   8  242.98   53.69
  -3  -8   8   54.99   36.50
  -3  -8   8   98.19   20.80
   2   8  -8  572.94   35.40
   2   8  -8  591.34   47.00
  -2  -8   8  535.75   78.89
  -2  -8   8  534.45   37.50
  -2  -8   8  770.52   88.89
   1   8  -8  422.86   42.60
  -1  -8   8  494.75   72.19
  -1  -8   8  484.05   30.60
  -1  -8   8  463.25   66.49
   0   8  -8   63.89   20.40
   0   8  -8   46.30   22.50
   0  -8   8   98.19   34.50
  -1   8  -8  456.85   44.80
  -1   8  -8  471.75   43.00
   1  -8   8  506.65   69.59
  -2   8  -8  517.45   49.90
  -2   8  -8  501.15   45.20
  -2   8  -8  529.05   49.99
   2  -8   8  691.63   81.69
  -3   8  -8  208.38   35.70
  -3   8  -8  110.19   30.90
   3  -8   8  292.17   43.50
   3  -8   8  242.98   45.60
  -4   8  -8   -1.30   12.10
  -4   8  -8   14.60   15.50
  -4   8  -8    5.20   16.90
   5  -8   8  537.35   73.09
  -6   8  -8  263.97   54.09
   5   7  -8  121.89   30.80
   5   7  -8  110.89   26.50
  -5  -7   8   12.40   43.20
  -5  -7   8  114.79   27.90
   4   7  -8  196.18   34.70
   4   7  -8  180.58   25.10
  -4  -7   8  311.97   61.99
  -4  -7   8  107.99   45.30
  -4  -7   8  197.78   28.80
   3   7  -8  682.63   48.80
   3   7  -8  702.23   42.50
  -3  -7   8  782.72   89.69
  -3  -7   8  715.33   47.20
  -3  -7   8  665.43   88.49
   2   7  -8    5.00    9.30
   2   7  -8    5.50   16.90
  -2  -7   8    5.90    9.20
  -2  -7   8   -6.90   10.00
  -2  -7   8   23.10   15.00
   1   7  -8  775.02   50.89
   1   7  -8  621.34   45.80
  -1  -7   8  727.93   39.00
  -1  -7   8  755.62   84.59
  -1  -7   8  805.82   90.69
   0   7  -8  769.12   52.49
   0   7  -8  803.72   52.29
   0  -7   8  627.84   80.69
  -1   7  -8  221.28   36.10
  -1   7  -8  196.28   32.00
   1  -7   8  246.58   50.89
  -2   7  -8  207.98   36.80
  -2   7  -8  258.77   29.70
   2  -7   8  272.27   51.59
   2  -7   8  278.17   42.70
  -3   7  -8  459.55   48.80
  -3   7  -8  460.35   40.40
  -3   7  -8  413.46   41.00
   3  -7   8  493.25   61.49
  -4   7  -8  131.29   26.80
  -4   7  -8   45.80   22.20
   4  -7   8  197.08   44.60
  -5   7  -8   85.19   28.90
   5  -7   8   89.59   35.40
  -6   7  -8   69.69   31.10
  -7   7  -8  281.87   54.79
   6   6  -8  392.56   41.30
   6   6  -8  503.85   45.90
  -6  -6   8  275.47   70.89
  -6  -6   8  451.95   47.40
   5   6  -8  318.67   36.20
   5   6  -8  319.17   34.50
  -5  -6   8  323.57   36.60
  -5  -6   8  215.78   61.29
   4   6  -8  179.48   31.40
   4   6  -8  172.08   26.10
  -4  -6   8   86.39   40.80
  -4  -6   8  275.17   51.29
  -4  -6   8  130.99   25.20
   3   6  -8  338.47   34.70
   3   6  -8  446.96   32.50
  -3  -6   8  410.76   64.59
  -3  -6   8  406.16   68.49
  -3  -6   8  373.46   33.40
   2   6  -8  662.83   43.30
   2   6  -8  645.94   45.40
   2   6  -8  654.33   36.00
  -2  -6   8  647.64   79.19
  -2  -6   8  660.23   40.90
  -2  -6   8  697.03   79.09
   1   6  -8  330.77   22.50
   1   6  -8  348.67   32.40
   1   6  -8  369.66   34.90
  -1  -6   8  372.06   63.99
  -1  -6   8  302.77   24.90
   0   6  -8  295.07   29.80
   0   6  -8  273.57   30.70
   0   6  -8  321.17   18.40
   0  -6   8  272.97   53.69
   0  -6   8  298.57   21.80
  -1   6  -8  582.34   41.60
  -1   6  -8  581.64   46.80
   1  -6   8  584.04   58.49
   1  -6   8  575.94   30.20
   1  -6   8  633.64   79.09
  -2   6  -8  763.52   56.19
  -2   6  -8  844.32   51.79
   2  -6   8  796.52   76.29
   2  -6   8  666.13   35.20
  -3   6  -8   83.59   26.10
  -3   6  -8   80.39   22.90
   3  -6   8   81.39   28.90
  -4   6  -8  474.35   40.20
  -4   6  -8  361.46   46.00
   4  -6   8  435.46   67.39
  -5   6  -8  330.57   44.60
   5  -6   8  432.36   72.69
  -6   6  -8  207.38   46.40
  -7   6  -8   -2.60   14.70
  -7  -5   8  382.86   63.09
   6   5  -8   61.89   22.30
   6   5  -8   47.10   20.70
  -6  -5   8  -31.60   36.20
  -6  -5   8   27.40   17.90
  -6  -5   8   67.49   25.20
   5   5  -8  622.04   44.30
   5   5  -8  569.64   42.30
  -5  -5   8  577.04   47.00
  -5  -5   8  698.93   82.39
  -5  -5   8  533.45   78.79
   4   5  -8  446.66   37.90
   4   5  -8  528.05   37.60
  -4  -5   8  661.23   78.09
  -4  -5   8  536.45   78.29
  -4  -5   8  506.65   41.20
   3   5  -8   97.99   18.10
   3   5  -8   75.19   20.30
  -3  -5   8   76.89   18.10
  -3  -5   8   50.59   26.90
  -3  -5   8   62.89   23.60
   2   5  -8  255.37   22.60
   2   5  -8  244.58   24.50
   2   5  -8  211.18   24.60
  -2  -5   8  188.28   48.10
  -2  -5   8  181.48   21.70
   1   5  -8  892.01   39.40
   1   5  -8  868.81   49.60
   1   5  -8  952.40   51.39
  -1  -5   8  832.22   44.60
  -1  -5   8  769.62   90.09
   0   5  -8  701.03   46.00
   0   5  -8  659.13   44.20
   0   5  -8  666.13   30.80
   0  -5   8  560.74   73.09
   0  -5   8  577.94   55.39
   0  -5   8  628.44   36.00
  -1   5  -8    8.10   15.00
  -1   5  -8  -10.50    6.80
  -1   5  -8   -3.10    6.10
   1  -5   8   13.20   15.30
   1  -5   8   -2.50    9.70
   1  -5   8    5.10    6.50
  -2   5  -8  559.34   41.90
  -2   5  -8  472.25   26.00
  -2   5  -8  491.85   45.90
   2  -5   8  555.04   32.90
   2  -5   8  552.34   66.09
  -3   5  -8  532.15   27.80
  -3   5  -8  482.45   48.40
  -3   5  -8  523.65   41.10
   3  -5   8  488.95   32.10
   3  -5   8  490.05   68.39
  -4   5  -8  106.39   31.50
  -4   5  -8   98.49   15.00
  -4   5  -8  118.19   25.00
   4  -5   8  117.29   20.20
   4  -5   8  115.69   40.30
  -5   5  -8   14.50   19.90
   5  -5   8    2.60   11.40
   5  -5   8   26.40   30.00
  -6   5  -8  265.77   49.99
   6  -5   8  217.88   31.70
  -7   5  -8  194.28   45.20
   7   4  -8  476.15   44.70
  -7  -4   8  647.34   55.29
  -7  -4   8  424.86   81.89
   6   4  -8  275.27   30.00
   6   4  -8  293.37   30.60
  -6  -4   8  162.78   49.10
  -6  -4   8  268.27   35.50
   5   4  -8    5.70   12.20
   5   4  -8   -4.60   12.70
  -5  -4   8   40.90   18.40
  -5  -4   8  -17.90   17.90
  -5  -4   8   -7.00   11.00
   4   4  -8  186.88   24.60
   4   4  -8  195.28   24.30
  -4  -4   8  239.08   47.30
  -4  -4   8  227.68   28.20
  -4  -4   8  203.38   49.90
   3   4  -8  798.62   43.20
   3   4  -8  916.31   49.00
  -3  -4   8  866.01   92.09
  -3  -4   8  803.62   48.90
   2   4  -8  750.82   38.70
   2   4  -8  792.62   42.10
   2   4  -8  748.53   44.10
  -2  -4   8  770.82   84.89
  -2  -4   8  691.73   42.80
   1   4  -8   15.00    9.40
   1   4  -8    6.60    9.10
   1   4  -8    7.60   10.90
  -1  -4   8    6.40   15.10
  -1  -4   8   -3.40    7.20
  -1  -4   8   -6.70   10.90
   0   4  -8 1205.48   48.70
   0   4  -8 1156.88   61.19
   0   4  -8 1185.28   60.39
   0  -4   8 1216.08  108.89
   0  -4   8  977.50   80.09
   0  -4   8 1100.09   54.99
  -1   4  -8 1838.82   79.09
  -1   4  -8 1683.13   63.39
  -1   4  -8 1586.94   80.79
   1  -4   8 1521.65  114.49
   1  -4   8 1827.32   73.29
  -2   4  -8   84.39   15.10
  -2   4  -8   81.99   22.00
  -2   4  -8   49.00   20.80
   2  -4   8   59.59   25.80
   2  -4   8   73.99   15.60
  -3   4  -8  320.17   32.40
  -3   4  -8  263.37   35.80
  -3   4  -8  314.47   24.40
   3  -4   8  336.87   29.40
   3  -4   8  258.67   55.99
  -4   4  -8  416.86   36.90
  -4   4  -8  458.45   32.00
  -4   4  -8  495.55   49.10
   4  -4   8  350.06   65.19
   4  -4   8  501.55   38.70
  -5   4  -8  233.88   42.70
  -5   4  -8  259.07   27.70
   5  -4   8  175.38   29.90
   5  -4   8  172.98   55.19
  -6   4  -8   22.70   22.20
   6  -4   8   13.00   17.70
  -7   4  -8   50.39   28.00
   7   3  -8    4.50   16.20
  -7  -3   8  -64.39   35.40
  -7  -3   8    4.30   15.60
   6   3  -8  305.97   28.10
   6   3  -8  279.37   32.00
  -6  -3   8  159.08   53.99
  -6  -3   8  253.97   34.60
   5   3  -8 1328.27   66.59
   5   3  -8 1281.97   59.19
   5   3  -8 1317.17   64.19
  -5  -3   8 1276.37   70.69
  -5  -3   8 1385.86  109.29
  -5  -3   8 1236.38   61.59
  -5  -3   8 1180.88  110.69
   4   3  -8  252.57   25.30
   4   3  -8  204.08   23.40
   4   3  -8  213.78   24.90
  -4  -3   8  239.18   28.70
  -4  -3   8  221.58   23.70
  -4  -3   8  164.68   45.20
   3   3  -8  181.38   23.50
   3   3  -8  173.58   21.40
   3   3  -8  192.88   21.30
   3   3  -8  147.09   15.90
  -3  -3   8  173.28   22.40
  -3  -3   8  168.68   18.70
  -3  -3   8  147.69   41.80
   2   3  -8  549.54   32.70
   2   3  -8  610.74   35.00
   2   3  -8  534.05   36.80
   2   3  -8  611.94   35.00
  -2  -3   8  580.24   33.50
  -2  -3   8  542.15   73.59
  -2  -3   8  536.05   38.60
   1   3  -8 1178.38   59.99
   1   3  -8 1272.47   54.59
   1   3  -8 1301.07   60.79
  -1  -3   8 1189.58   61.09
  -1  -3   8 1224.48  108.09
  -1  -3   8 1419.16   86.89
   0  -3   8   93.89   31.30
   0  -3   8   66.99   16.20
   0  -3   8   54.59   21.10
  -1   3  -8  176.58   20.40
  -1   3  -8  135.99   27.00
   1  -3   8  111.19   31.10
   1  -3   8  155.18   20.50
  -2   3  -8  581.14   45.10
  -2   3  -8  534.45   33.00
   2  -3   8  442.26   64.99
   2  -3   8  501.25   36.60
  -3   3  -8  784.42   55.49
  -3   3  -8  767.22   42.60
   3  -3   8  601.24   78.09
   3  -3   8  756.22   47.60
  -4   3  -8    3.00   16.30
  -4   3  -8   19.50   14.30
   4  -3   8  -10.60   27.80
   4  -3   8    0.10   11.80
  -5   3  -8  157.38   34.60
   5  -3   8  107.09   49.40
   5  -3   8  169.18   31.50
  -6   3  -8  276.27   48.10
  -7   3  -8  127.99   34.90
   8   2  -8  412.16   43.40
  -8  -2   8  501.35   44.60
  -8  -2   8  261.47   71.79
  -8  -2   8  513.55   52.29
   7   2  -8  716.33   52.09
   7   2  -8  666.83  110.69
   7   2  -8  701.33   50.79
  -7  -2   8  772.42   74.19
  -7  -2   8  580.24   46.10
  -7  -2   8  488.65   90.39
  -7  -2   8  703.63   54.59
   6   2  -8   55.29   18.80
   6   2  -8   73.69   17.40
   6   2  -8   60.49   19.30
  -6  -2   8   59.99   20.30
  -6  -2   8   82.09   20.00
  -6  -2   8   26.00   29.40
   5   2  -8  152.78   25.00
   5   2  -8  155.98   20.20
   5   2  -8  134.79   23.80
  -5  -2   8  134.79   42.90
  -5  -2   8  130.99   27.10
  -5  -2   8  199.28   39.00
  -5  -2   8  168.58   22.70
   4   2  -8 1521.35   67.69
   4   2  -8 1462.95   66.09
   4   2  -8 1483.35   63.99
  -4  -2   8 1522.65  119.69
  -4  -2   8 1438.26   64.99
  -4  -2   8 1446.06   72.79
   3   2  -8  525.85   34.20
   3   2  -8  582.54   29.00
   3   2  -8  566.64   38.00
   3   2  -8  538.95   35.20
  -3  -2   8  542.75   68.39
  -3  -2   8  581.04   41.80
  -3  -2   8  556.64   35.20
   2   2  -8    7.70   10.50
   2   2  -8   17.50   10.90
   2   2  -8   -1.90    7.50
  -2  -2   8    1.00   14.80
  -2  -2   8    2.20   13.70
  -2  -2   8   10.60    9.40
  -2  -2   8   22.60   13.00
   1   2  -8  135.39   17.00
   1   2  -8  112.59   20.30
   1   2  -8  149.39   23.50
  -1  -2   8  163.88   22.90
  -1  -2   8  126.49   28.70
  -1  -2   8  140.09   37.30
  -1  -2   8  130.99   16.90
   0   2  -8 1303.77   57.29
   0   2  -8 1249.57   62.79
   0  -2   8 1265.77   95.09
   0  -2   8 1310.07  107.69
   0  -2   8 1315.57   56.09
   0  -2   8 1345.07   64.79
  -1   2  -8  779.22   50.79
  -1   2  -8  823.72   42.40
   1  -2   8  789.92   47.20
   1  -2   8  794.02   78.89
  -2   2  -8   20.20   15.10
  -2   2  -8   19.80   12.70
   2  -2   8    7.10   10.90
   2  -2   8    9.10   21.30
  -3   2  -8  527.15   37.90
  -3   2  -8  609.04   48.50
   3  -2   8  537.15   43.00
   3  -2   8  588.74   82.89
  -4   2  -8  829.82   60.29
   4  -2   8  645.74   96.39
   4  -2   8  771.42   55.79
  -5   2  -8   39.50   20.30
   5  -2   8   29.70   42.30
   5  -2   8   34.80   17.10
  -6   2  -8   94.29   29.50
  -7   2  -8  147.69   37.30
   9   1  -8  249.38   35.80
   9   1  -8  140.89   66.49
  -9  -1   8  279.77   38.80
   8   1  -8    2.40   38.10
   8   1  -8   63.19   21.80
   8   1  -8   68.19   22.20
  -8  -1   8   84.19   22.50
  -8  -1   8  -47.80   36.60
  -8  -1   8   45.40   19.60
   7   1  -8  126.89   26.40
   7   1  -8  123.79   24.50
   7   1  -8   61.19   41.80
  -7  -1   8   62.39   43.30
  -7  -1   8  142.29   26.70
  -7  -1   8  119.99   28.70
   6   1  -8 1069.59   49.70
   6   1  -8 1073.09   60.09
   6   1  -8 1180.98   62.69
   6   1  -8 1073.49  121.49
  -6  -1   8 1129.39   88.79
  -6  -1   8 1126.59   67.99
  -6  -1   8 1056.69  109.09
  -6  -1   8 1126.29   60.49
   5   1  -8  470.75   37.60
   5   1  -8  480.25   32.50
   5   1  -8  522.65   75.49
   5   1  -8  541.85   40.00
  -5  -1   8  498.15   74.69
  -5  -1   8  525.35   43.80
  -5  -1   8  509.45   37.20
   4   1  -8    5.90    8.80
   4   1  -8   13.10   12.30
  -4  -1   8    8.00   10.90
  -4  -1   8    1.10   11.90
  -4  -1   8   12.40   24.10
   3   1  -8  562.04   37.30
   3   1  -8  573.74   28.80
   3   1  -8  602.44   38.80
  -3  -1   8  518.55   70.39
  -3  -1   8  524.55   35.00
  -3  -1   8  543.85   41.30
   2   1  -8 1324.27   61.79
   2   1  -8 1457.35   64.39
   2   1  -8 1367.86   57.99
  -2  -1   8 1406.26  114.89
  -2  -1   8 1417.46   62.29
  -2  -1   8 1431.46   93.69
  -2  -1   8 1370.76   71.49
   1   1  -8  360.56   30.50
   1   1  -8  343.97   28.20
   1   1  -8  384.26   30.00
  -1  -1   8  440.76   51.89
  -1  -1   8  419.76   30.30
  -1  -1   8  384.76   35.30
  -1  -1   8  418.26   60.89
   0   1  -8   -3.90    7.10
   0   1  -8   10.00   10.80
   0   1  -8   -2.80    8.80
   0  -1   8  -10.90   17.20
   0  -1   8    8.50   17.10
   0  -1   8   -0.70    7.50
   0  -1   8    0.20    7.60
  -1   1  -8  858.41   44.30
  -1   1  -8  836.92   45.70
   1  -1   8  897.51   86.59
   1  -1   8  868.61   52.49
   1  -1   8  863.21   45.30
  -2   1  -8  969.70   52.49
   2  -1   8 1000.30   59.49
   2  -1   8 1060.59  102.99
  -3   1  -8   50.69   17.80
   3  -1   8   11.30   15.00
   3  -1   8   11.50   31.20
   4  -1   8   40.50   42.60
   4  -1   8   71.09   23.90
   5  -1   8  221.88   67.59
   5  -1   8  242.78   40.30
   9   0  -8   29.70   54.49
   9   0  -8  127.99   31.20
   9   0  -8   74.89   23.00
  -9   0   8  126.09   34.20
  -9   0   8  109.79   28.40
   8   0  -8  453.05  108.09
   8   0  -8  499.75   45.30
   8   0  -8  582.24   47.40
  -8   0   8  425.16   87.89
  -8   0   8  524.15   48.80
  -8   0   8  474.45   43.30
   7   0  -8  352.46   35.50
   7   0  -8  225.98   61.99
   7   0  -8  331.47   36.10
  -7   0   8  298.37   35.70
  -7   0   8  368.66   36.20
  -7   0   8  213.48   56.99
   6   0  -8   64.49   36.80
   6   0  -8   65.29   20.70
   6   0  -8   80.39   16.50
   6   0  -8   74.89   21.20
  -6   0   8   82.59   20.10
  -6   0   8   71.89   21.10
  -6   0   8   49.50   35.90
  -6   0   8  119.29   26.30
   5   0  -8  433.46   73.49
   5   0  -8  404.96   33.50
   5   0  -8  469.75   38.40
  -5   0   8  470.35   42.50
  -5   0   8  490.25   72.49
  -5   0   8  399.86   33.10
   4   0  -8 1213.78   60.39
   4   0  -8 1236.28   62.19
   4   0  -8 1107.09   97.89
  -4   0   8 1203.88   67.99
  -4   0   8 1189.78  103.79
  -4   0   8 1252.47   61.19
   3   0  -8  273.87   29.60
   3   0  -8  254.97   20.90
   3   0  -8  294.97   27.40
  -3   0   8  313.37   57.19
  -3   0   8  293.47   31.60
  -3   0   8  272.37   26.20
   2   0  -8  256.47   27.00
   2   0  -8  257.17   26.10
   2   0  -8  285.17   23.10
  -2   0   8  253.47   44.90
  -2   0   8  234.28   31.40
  -2   0   8  279.97   25.90
  -2   0   8  312.27   54.69
   1   0  -8 1031.70   52.79
   1   0  -8 1101.09   54.39
  -1   0   8  985.50   50.99
  -1   0   8 1146.59   93.79
  -1   0   8 1012.10   86.49
  -1   0   8 1029.60   59.49
   0   0  -8 1074.89   53.39
   0   0  -8 1050.79   52.69
   0   0   8 1074.19   59.99
   0   0   8 1165.28   94.49
   0   0   8 1070.59   53.19
   0   0   8 1163.28   93.49
  -1   0  -8   13.90   13.00
  -1   0  -8    5.10   10.20
   1   0   8   20.30   12.10
   1   0   8    9.20   10.10
   1   0   8   -6.70   23.30
  -2   0  -8  399.66   35.80
   2   0   8  432.36   73.59
   2   0   8  352.46   38.00
  -3   0  -8  573.94   44.60
   3   0   8  517.65   47.70
   3   0   8  553.84   86.59
   4   0   8  203.08   60.99
   4   0   8  229.48   38.70
   5   0   8  -21.90    8.00
   9  -1  -8  175.58   34.60
   9  -1  -8  186.48   32.00
   9  -1  -8   76.49   64.69
  -9   1   8  192.88   33.80
  -9   1   8  161.38   51.99
  -9   1   8  292.67   47.00
   8  -1  -8   13.90   17.70
   8  -1  -8    2.30   16.30
   8  -1  -8  -12.20   41.80
  -8   1   8   17.70   16.10
  -8   1   8  -34.00   33.60
  -8   1   8   20.90   16.50
   7  -1  -8  717.53   50.29
   7  -1  -8  552.64   45.10
   7  -1  -8  590.94  106.19
  -7   1   8  656.23   46.40
  -7   1   8  675.83   52.59
  -7   1   8  590.84   87.09
   6  -1  -8 1280.47   65.89
   6  -1  -8 1175.98  129.89
   6  -1  -8 1298.77   68.19
  -6   1   8 1284.67   74.29
  -6   1   8 1233.68  112.69
  -6   1   8 1169.58   63.79
   5  -1  -8  176.88   27.30
   5  -1  -8  183.08   24.90
  -5   1   8  192.78   31.80
  -5   1   8  187.08   24.10
  -5   1   8  177.18   41.10
   4  -1  -8  675.53   45.20
   4  -1  -8  659.33   72.29
   4  -1  -8  638.34   45.70
  -4   1   8  724.63   51.09
  -4   1   8  723.23   77.49
  -4   1   8  673.53   45.10
   3  -1  -8 1399.36  127.99
   3  -1  -8 1295.77   88.69
   3  -1  -8 1272.77   65.19
   3  -1  -8 1258.87   64.19
   3  -1  -8 1306.17   50.69
  -3   1   8 1280.07   73.09
  -3   1   8 1357.96  105.99
  -3   1   8 1164.38   62.49
   2  -1  -8  513.15   39.50
   2  -1  -8  569.74   74.39
   2  -1  -8  589.64   40.20
  -2   1   8  533.45   66.69
  -2   1   8  541.95   45.90
  -2   1   8  524.05   38.30
  -2   1   8  516.85   64.89
   1  -1  -8    9.20   13.40
   1  -1  -8  -14.00    9.80
   1  -1  -8    1.30   19.40
  -1   1   8    8.80   14.60
  -1   1   8   -1.80    9.40
  -1   1   8    1.40   13.70
  -1   1   8   -2.80   20.50
   0  -1  -8  214.28   25.70
   0  -1  -8  206.28   26.50
   0  -1  -8  234.68   52.79
   0   1   8  204.48   23.00
   0   1   8  184.18   44.20
   0   1   8  238.68   28.60
   0   1   8  277.07   44.70
  -1  -1  -8  553.54   41.60
  -1  -1  -8  543.75   38.00
   1   1   8  568.14   46.70
   1   1   8  562.44   40.40
   1   1   8  578.94   79.29
  -2  -1  -8  656.93   45.60
   2   1   8  659.53   83.59
   2   1   8  629.04   52.19
   2   1   8  668.33   47.00
  -3  -1  -8   -3.70   11.00
   3   1   8    8.50   16.50
   3   1   8  -31.30   33.10
   4   1   8  302.87   73.89
   4   1   8  397.46   46.40
   9  -2  -8  329.17   36.80
   9  -2  -8  338.07   39.80
   9  -2  -8  181.78   78.09
  -9   2   8  384.06   42.40
  -9   2   8  168.08   58.79
  -9   2   8  313.87   39.40
   8  -2  -8  114.69   58.69
   8  -2  -8  280.57   37.20
   8  -2  -8  230.38   35.50
  -8   2   8  250.07   34.20
  -8   2   8  233.98   33.30
  -8   2   8  185.38   55.69
   7  -2  -8    0.40   37.00
   7  -2  -8   83.29   22.70
   7  -2  -8   84.79   23.50
  -7   2   8   45.40   30.90
  -7   2   8   78.49   23.50
  -7   2   8   61.89   20.60
   6  -2  -8  307.17   33.00
   6  -2  -8  180.98   49.90
   6  -2  -8  321.37   33.80
  -6   2   8  313.97   37.90
  -6   2   8  164.28   45.60
  -6   2   8  213.28   29.60
   5  -2  -8  964.80  111.09
   5  -2  -8  870.41   96.79
   5  -2  -8  946.41   55.59
   5  -2  -8 1024.70   58.89
  -5   2   8  930.61   55.49
  -5   2   8  976.10   63.79
  -5   2   8  875.51   87.09
   4  -2  -8  512.85   67.39
   4  -2  -8  534.25   39.80
   4  -2  -8  541.85   89.29
   4  -2  -8  514.65   42.60
  -4   2   8  557.04   67.29
  -4   2   8  586.04   47.50
  -4   2   8  489.95   40.60
   3  -2  -8   -3.90    9.60
   3  -2  -8   -3.30   18.30
   3  -2  -8   -1.80    9.40
   3  -2  -8  -20.00   12.70
  -3   2   8   10.50   18.10
  -3   2   8   -5.30    8.60
  -3   2   8   14.20   16.60
   2  -2  -8 1225.78  119.39
   2  -2  -8 1223.28   62.19
   2  -2  -8 1153.08   60.89
  -2   2   8 1034.60   90.39
  -2   2   8 1214.08   69.69
  -2   2   8 1095.19   97.69
  -2   2   8 1206.58   61.49
   1  -2  -8  857.21   51.39
   1  -2  -8  894.21   98.89
   1  -2  -8  907.31   50.49
  -1   2   8  943.81   80.69
  -1   2   8  852.81   56.49
  -1   2   8  846.52   49.40
  -1   2   8  850.61   88.09
   0  -2  -8  139.69   24.70
   0  -2  -8   75.29   31.10
   0  -2  -8  115.09   21.30
   0   2   8  202.28   39.00
   0   2   8  160.38   29.70
   0   2   8  157.28   26.20
   0   2   8  102.39   35.60
  -1  -2  -8   47.30   24.50
  -1  -2  -8   60.49   18.00
   1   2   8   65.89   20.20
   1   2   8   59.49   19.00
   1   2   8   11.10   25.60
  -2  -2  -8  710.73   50.79
  -2  -2  -8  628.14   49.90
   2   2   8  626.04   93.49
   2   2   8  750.12   58.19
   2   2   8  668.13   48.40
  -3  -2  -8  249.38   33.00
   3   2   8  261.67   36.50
   3   2   8  192.68   56.29
   4   2   8  -41.40   24.20
   4   2   8    6.90   15.70
   9  -3  -8    7.20   15.10
   9  -3  -8  -14.20   13.70
  -9   3   8   -7.90   15.10
  -9   3   8   -6.80   11.50
   8  -3  -8  332.57   38.10
   8  -3  -8  292.67   39.30
   8  -3  -8  157.68   65.69
  -8   3   8  189.28   52.99
  -8   3   8  368.56   42.40
  -8   3   8  339.47   36.00
   7  -3  -8  917.21   56.89
   7  -3  -8  900.01   61.29
   7  -3  -8  755.32  117.89
  -7   3   8  790.92   91.39
  -7   3   8  813.52   54.69
  -7   3   8  842.02   60.19
   6  -3  -8  299.17   34.20
   6  -3  -8  278.77   73.39
   6  -3  -8  368.96   75.99
   6  -3  -8  349.47   39.70
  -6   3   8  325.27   39.60
  -6   3   8  282.87   59.99
  -6   3   8  319.17   33.40
   5  -3  -8   58.49   32.30
   5  -3  -8  106.39   23.70
   5  -3  -8   40.40   30.70
   5  -3  -8  105.99   23.80
  -5   3   8   79.19   32.10
  -5   3   8   86.39   23.60
  -5   3   8   86.39   23.00
   4  -3  -8  724.73   47.90
   4  -3  -8  742.43   50.09
   4  -3  -8  738.03  104.19
   4  -3  -8  710.13   77.39
  -4   3   8  596.74   45.60
  -4   3   8  773.52   73.69
  -4   3   8  731.93   55.79
   3  -3  -8  853.91  102.99
   3  -3  -8  925.71   56.09
   3  -3  -8  943.21   57.09
   3  -3  -8  833.72   80.99
  -3   3   8  994.60   81.39
  -3   3   8  852.21   63.49
  -3   3   8 1032.70   58.49
   2  -3  -8  247.88   27.80
   2  -3  -8  290.27   31.90
   2  -3  -8  147.69   46.10
  -2   3   8  304.77   35.60
  -2   3   8  284.67   57.89
  -2   3   8  262.97   30.50
  -2   3   8  251.47   44.20
   1  -3  -8  130.89   41.30
   1  -3  -8  185.28   24.40
   1  -3  -8  165.48   26.30
  -1   3   8  196.48   33.10
  -1   3   8  157.48   26.90
  -1   3   8  141.39   40.70
  -1   3   8  251.97   40.00
   0  -3  -8  872.21  101.89
   0  -3  -8  930.81   56.49
   0   3   8  939.21   76.29
   0   3   8  891.21   60.49
   0   3   8  873.31   55.19
   0   3   8  908.21  102.09
  -1  -3  -8  460.15   40.10
  -1  -3  -8  370.16   74.29
   1   3   8  483.55   84.29
   1   3   8  502.35   43.60
   1   3   8  508.75   48.70
  -2  -3  -8    3.30   17.70
  -2  -3  -8   14.70   18.80
   2   3   8   -3.80   15.70
   2   3   8  -22.90   34.20
   2   3   8   38.50   20.90
  -3  -3  -8  238.08   38.10
   3   3   8  162.28   38.80
   3   3   8  149.79   60.59
   3   3   8  212.28   42.80
   9  -4  -8  287.87   38.30
   9  -4  -8  355.76   39.90
  -9   4   8  369.66   39.60
  -9   4   8  374.86   41.20
  -9   4   8  236.28   58.99
   8  -4  -8  149.69   50.99
   8  -4  -8  178.88   32.40
   8  -4  -8  110.39   60.19
   8  -4  -8  146.69   26.50
  -8   4   8  142.59   29.50
  -8   4   8  188.58   34.60
  -8   4   8  115.09   44.80
   7  -4  -8  -15.20   36.00
   7  -4  -8   -2.50   34.60
   7  -4  -8   48.50   19.90
   7  -4  -8   37.20   17.40
  -7   4   8   32.60   16.40
  -7   4   8   51.99   22.40
  -7   4   8    6.90   30.30
   6  -4  -8  716.33   53.19
   6  -4  -8  677.53   49.70
   6  -4  -8  703.23  102.19
   6  -4  -8  676.53  104.59
  -6   4   8  733.83   57.69
  -6   4   8  567.74   72.19
  -6   4   8  694.13   50.89
   5  -4  -8  665.13   99.99
   5  -4  -8  838.22   52.19
   5  -4  -8  765.92   92.99
   5  -4  -8  688.53   51.89
  -5   4   8  855.11   62.79
  -5   4   8  792.32   55.39
  -5   4   8  670.63   74.99
   4  -4  -8   50.89   38.50
   4  -4  -8   32.30   18.90
   4  -4  -8   47.30   20.90
   4  -4  -8   17.30   18.70
  -4   4   8   33.70   18.40
  -4   4   8   33.20   18.60
  -4   4   8   15.60   20.20
   3  -4  -8  365.86   37.20
   3  -4  -8  318.57   33.00
  -3   4   8  332.07   47.90
  -3   4   8  313.67   32.90
  -3   4   8  345.17   43.30
   2  -4  -8  674.13  106.39
   2  -4  -8  860.51   53.59
   2  -4  -8  857.31   52.29
  -2   4   8  921.01   54.69
  -2   4   8  961.40   64.09
  -2   4   8  817.22   69.99
   1  -4  -8  333.87   36.00
   1  -4  -8  342.37   36.80
  -1   4   8  365.46   36.80
  -1   4   8  358.66   64.09
  -1   4   8  316.27   40.50
   0  -4  -8   12.20   16.80
   0  -4  -8  -28.40   25.20
   0   4   8  -27.20   28.90
   0   4   8   14.40   18.20
   0   4   8    6.70   15.60
  -1  -4  -8  227.58   31.60
  -1  -4  -8  214.08   37.60
   1   4   8  217.28   56.39
   1   4   8  165.98   32.00
   1   4   8  219.28   37.90
  -2  -4  -8  355.16   42.80
  -2  -4  -8  326.97   39.00
   2   4   8  366.86   44.20
   2   4   8  252.07   70.19
   2   4   8  315.67   41.90
  -3  -4  -8  126.29   30.30
   3   4   8  116.39   31.30
   3   4   8  146.89   38.80
   9  -5  -8   74.29   25.70
   9  -5  -8  -47.30   47.40
   8  -5  -8  639.44   52.59
   8  -5  -8  574.74   47.80
   8  -5  -8  540.25  113.99
   8  -5  -8  370.66   91.19
  -8   5   8  534.25   77.19
  -8   5   8  609.04   51.59
  -8   5   8  679.43   54.19
   7  -5  -8  253.47   34.40
   7  -5  -8  153.28   55.79
   7  -5  -8  202.78   32.60
   7  -5  -8  137.89   49.20
  -7   5   8  197.98   36.10
  -7   5   8  263.07   36.70
  -7   5   8  120.39   39.20
   6  -5  -8   41.10   32.20
   6  -5  -8   -9.70   36.20
   6  -5  -8   52.69   17.90
   6  -5  -8   58.79   20.70
  -6   5   8   -1.70   24.70
  -6   5   8   49.70   22.70
  -6   5   8   77.79   25.60
   5  -5  -8  333.97   81.19
   5  -5  -8  562.24   79.29
   5  -5  -8  462.95   43.20
   5  -5  -8  445.86   42.70
  -5   5   8  372.36   39.60
  -5   5   8  467.05   49.99
   4  -5  -8  916.21  130.79
   4  -5  -8 1191.48   68.09
   4  -5  -8 1073.79   65.19
   4  -5  -8 1247.48  107.59
  -4   5   8 1175.58   67.99
  -4   5   8 1000.50   71.69
   3  -5  -8  171.28   28.90
   3  -5  -8  163.48   29.60
  -3   5   8  132.99   26.50
  -3   5   8  182.08   35.30
   2  -5  -8   -2.80   14.90
   2  -5  -8   -8.60   13.10
   2  -5  -8  -41.30   28.90
  -2   5   8    9.90   15.10
  -2   5   8   -7.30   11.70
   1  -5  -8  495.55   45.10
   1  -5  -8  403.16   92.89
   1  -5  -8  611.24   47.60
  -1   5   8  515.85   78.49
  -1   5   8  501.15   42.90
  -1   5   8  557.74   52.39
   0  -5  -8  655.73   52.09
   0   5   8  631.74   52.39
   0   5   8  662.53   99.29
   0   5   8  612.74   56.59
  -1  -5  -8   36.30   24.90
  -1  -5  -8   49.10   24.40
   1   5   8   61.59   24.10
   1   5   8   -6.60   39.50
   1   5   8   25.80   21.40
  -2  -5  -8   15.90   16.20
  -2  -5  -8   51.69   26.30
   2   5   8  -16.10   42.70
   2   5   8   26.20   21.10
   2   5   8    7.10   16.00
   9  -6  -8  -57.79   49.90
   9  -6  -8   39.60   47.30
   8  -6  -8  -14.80   19.20
   8  -6  -8  -19.50   34.00
   8  -6  -8  -59.69   34.80
  -8   6   8    2.00   12.70
   7  -6  -8  287.97   45.10
   7  -6  -8  130.49   52.89
   7  -6  -8  240.08   34.00
   7  -6  -8  222.08   63.99
  -7   6   8  306.57   39.50
  -7   6   8  295.47   36.90
   6  -6  -8  805.82  105.89
   6  -6  -8  643.14   48.60
   6  -6  -8  533.65   52.09
  -6   6   8  652.73   57.59
  -6   6   8  580.54   50.49
   5  -6  -8  192.78   36.70
   5  -6  -8  185.48   32.70
   5  -6  -8  343.17   61.09
   5  -6  -8   97.99   45.60
  -5   6   8  221.18   39.00
  -5   6   8  208.18   36.10
   4  -6  -8   23.20   18.20
   4  -6  -8    3.30   16.60
   4  -6  -8  -31.20   34.80
  -4   6   8   15.80   14.70
  -4   6   8   11.20   14.60
  -4   6   8   -5.00   17.10
   3  -6  -8  709.33   51.19
   3  -6  -8  716.53   52.59
   3  -6  -8  643.24  115.39
  -3   6   8  734.53   49.30
  -3   6   8  725.13   55.49
  -3   6   8  711.53   60.19
   2  -6  -8  547.45   45.40
   2  -6  -8  417.26  101.49
   2  -6  -8  478.25   44.70
  -2   6   8  488.85   49.10
  -2   6   8  450.35   42.10
   1  -6  -8  -27.70   34.50
   1  -6  -8   23.20   19.20
   1  -6  -8   33.80   20.20
  -1   6   8   16.50   15.60
  -1   6   8   13.10   15.70
   0  -6  -8  102.69   25.60
   0   6   8   92.29   43.20
   0   6   8   86.99   27.50
   0   6   8   83.29   28.60
  -1  -6  -8  398.96   51.09
  -1  -6  -8  351.16   41.00
   1   6   8  248.98   71.89
   1   6   8  385.56   43.60
   1   6   8  393.36   51.69
   8  -7  -8  420.56   47.70
   8  -7  -8  497.25  109.39
   7  -7  -8   97.19   42.00
   7  -7  -8  -38.90   41.80
   7  -7  -8   32.00   19.90
  -7   7   8   61.59   23.00
   6  -7  -8  188.48   34.70
   6  -7  -8  210.98   39.20
  -6   7   8  186.18   35.60
   5  -7  -8  389.16   44.10
   5  -7  -8  519.45   50.79
  -5   7   8  540.15   54.79
  -5   7   8  493.75   48.30
  -5   7   8  483.35   47.50
   4  -7  -8  193.28   65.59
   4  -7  -8  326.27   40.60
   4  -7  -8  297.87   36.10
  -4   7   8  332.87   42.30
  -4   7   8  284.57   35.60
  -4   7   8  292.87   48.20
   3  -7  -8   -4.80   15.60
   3  -7  -8  -35.70   37.80
   3  -7  -8    5.20   16.60
  -3   7   8   15.20   14.70
  -3   7   8    3.90   13.20
   2  -7  -8  184.48   34.70
   2  -7  -8  159.38   30.60
  -2   7   8  158.18   35.50
  -2   7   8  152.08   30.40
   1  -7  -8  405.36   46.20
   1  -7  -8  429.96   41.50
  -1   7   8  425.46   49.40
  -1   7   8  462.55   48.20
   0  -7  -8  245.98   38.80
   0   7   8  247.68   44.70
   0   7   8  230.38   40.90
   8  -8  -8  490.35  111.19
  -7   8   8  385.26   51.59
   6  -8  -8  330.47   46.60
  -6   8   8  321.87   41.70
  -6   8   8  329.57   50.49
   5  -8  -8   31.70   23.40
   5  -8  -8  -57.09   42.40
  -5   8   8   20.40   18.30
  -5   8   8   21.90   23.30
   4  -8  -8  333.17   44.40
   4  -8  -8  184.28   70.09
  -4   8   8  377.56   42.90
  -4   8   8  362.16   40.90
   3  -8  -8  241.18   75.19
   3  -8  -8  383.56   40.50
   3  -8  -8  418.66   47.70
  -3   8   8  455.25   48.80
   2  -8  -8   81.89   29.10
   2  -8  -8  103.19   26.00
  -2   8   8  114.99   28.80
   1  -8  -8    7.90   19.30
  -9   9   8  154.68   47.90
  -8   9   8  104.49   38.30
  -7   9   8   -4.60   17.90
  -6   9   8  154.98   38.20
  -5   9   8  333.37   43.80
  -7  10   8  335.57   50.39
  -6  10   8   50.29   26.90
  -5  10   8  188.78   38.40
   1  11  -9   12.20   27.40
   0  11  -9  232.88   47.50
  -1  11  -9  207.78   44.40
  -2  11  -9    8.30   20.10
  -2  11  -9  -38.40   19.60
  -3  11  -9  221.88   47.70
  -3  11  -9  174.78   41.10
   3  10  -9   99.99   35.20
   2  10  -9  351.36   54.19
   1  10  -9  179.88   40.70
   0  10  -9  -14.90   21.60
  -1  10  -9  375.46   48.80
  -1  10  -9  468.45   51.59
   1 -10   9  599.14   71.19
  -2  10  -9  363.96   47.80
  -2  10  -9  390.86   48.30
  -3  10  -9    3.50   22.60
  -3  10  -9   10.20   19.00
  -4  10  -9   59.69   27.90
  -4  10  -9   68.09   31.80
   4   9  -9  276.27   47.20
   3   9  -9  112.19   35.00
  -3  -9   9   81.89   22.80
   2   9  -9   48.20   27.80
  -2  -9   9   44.20   38.60
   1   9  -9  241.28   40.70
  -1  -9   9  365.16   67.09
   0   9  -9  247.98   41.70
   0   9  -9  209.78   40.00
   0  -9   9  379.96   58.29
  -1   9  -9   45.40   22.70
  -1   9  -9   90.99   29.60
  -2   9  -9   56.19   26.80
  -2   9  -9  171.68   37.50
  -3   9  -9  300.17   51.99
  -3   9  -9  380.76   44.50
  -4   9  -9  160.68   40.90
  -4   9  -9  157.98   35.10
  -5   9  -9   -0.80   21.60
   5   8  -9   37.10   28.30
   4   8  -9  120.79   26.30
   4   8  -9  110.09   31.70
  -4  -8   9  112.49   24.90
  -4  -8   9   43.50   47.50
   3   8  -9  440.86   47.20
   3   8  -9  387.26   33.90
  -3  -8   9  470.55   38.70
  -3  -8   9  313.17   70.59
   2   8  -9  399.06   44.50
  -2  -8   9  414.16   33.10
  -2  -8   9  362.96   74.29
   1   8  -9   18.80   17.30
   1   8  -9  -12.90   11.10
  -1  -8   9   11.90   16.70
   0   8  -9  352.86   40.10
   0   8  -9  340.67   41.20
   0  -8   9  400.76   65.39
  -1   8  -9  435.16   45.50
  -1   8  -9  382.26   44.00
   1  -8   9  519.85   73.09
  -2   8  -9  250.37   44.20
  -2   8  -9  293.97   44.70
   2  -8   9  393.76   57.99
  -3   8  -9   19.10   20.70
  -3   8  -9   19.10   18.50
   3  -8   9   52.89   21.20
  -4   8  -9  388.86   44.50
  -4   8  -9  264.37   49.80
   4  -8   9  487.15   72.99
  -5   8  -9  178.78   42.50
  -6   8  -9    8.50   25.70
   6   7  -9   68.99   28.70
   5   7  -9  350.46   42.30
   5   7  -9  425.86   40.70
  -5  -7   9  191.98   64.49
   4   7  -9  133.29   25.80
   4   7  -9  139.59   29.60
  -4  -7   9   87.79   45.30
  -4  -7   9  116.19   25.50
   3   7  -9   18.60   13.10
   3   7  -9   23.70   21.40
  -3  -7   9   18.00   12.40
  -3  -7   9   10.20   31.30
   2   7  -9  285.27   25.10
   2   7  -9  308.37   37.50
  -2  -7   9  292.67   28.80
  -2  -7   9  393.46   60.89
  -2  -7   9  270.77   63.79
   1   7  -9  642.44   50.99
   1   7  -9  683.13   49.99
  -1  -7   9  626.54   38.10
  -1  -7   9  710.93   89.09
   0   7  -9  265.47   39.80
   0   7  -9  244.38   33.50
   0  -7   9  248.28   52.39
  -1   7  -9    3.30   17.60
  -1   7  -9   -7.20   14.20
   1  -7   9   21.40   16.60
  -2   7  -9  595.64   49.70
  -2   7  -9  561.94   53.49
   2  -7   9  609.14   78.49
  -3   7  -9  561.44   48.60
  -3   7  -9  485.75   53.59
   3  -7   9  583.54   70.39
  -4   7  -9    5.20   17.90
  -4   7  -9    7.70   19.80
  -5   7  -9  102.19   35.40
  -6   7  -9  205.98   48.60
   6   6  -9  176.88   35.30
   5   6  -9   10.50   18.40
   5   6  -9  -21.40   11.30
  -5  -6   9   47.10   19.50
  -5  -6   9  -42.90   18.80
  -5  -6   9    4.50   15.40
   4   6  -9  738.13   50.49
   4   6  -9  735.33   46.50
  -4  -6   9  912.41   94.19
  -4  -6   9  694.23   91.79
  -4  -6   9  684.03   50.39
   3   6  -9  528.95   36.30
   3   6  -9  522.45   44.10
  -3  -6   9  541.95   41.20
  -3  -6   9  538.85   70.99
  -3  -6   9  556.14   85.99
   2   6  -9   32.30   19.40
   2   6  -9   13.10   12.70
   2   6  -9    7.10   10.20
  -2  -6   9  -11.80   18.30
  -2  -6   9   19.40   12.00
   1   6  -9   67.59   24.30
   1   6  -9   84.59   22.20
   1   6  -9   85.89   14.40
  -1  -6   9   96.69   17.80
  -1  -6   9   71.19   33.00
   0   6  -9  776.42   51.99
   0   6  -9  797.92   34.70
   0   6  -9  808.32   55.19
   0  -6   9  897.51   99.19
   0  -6   9  756.52   41.40
  -1   6  -9  337.37   39.00
  -1   6  -9  348.67   37.90
   1  -6   9  305.67   24.10
   1  -6   9  338.57   61.29
  -2   6  -9   13.60   18.50
  -2   6  -9   30.80   21.30
   2  -6   9   25.20   19.00
   2  -6   9   48.60   24.70
  -3   6  -9  131.29   29.00
  -3   6  -9   94.69   27.90
   3  -6   9   61.89   29.00
  -4   6  -9  609.64   58.19
  -4   6  -9  644.74   49.30
   4  -6   9  625.14   85.09
  -5   6  -9  129.49   38.00
  -6   6  -9   27.30   24.20
   6   5  -9  381.66   38.70
   6   5  -9  449.76   41.90
  -6  -5   9  211.28   67.19
  -6  -5   9  390.36   41.20
   5   5  -9  365.06   35.40
   5   5  -9  422.36   38.40
  -5  -5   9  405.86   40.80
  -5  -5   9  288.87   67.79
   4   5  -9   69.49   19.20
   4   5  -9   67.19   22.20
  -4  -5   9   82.39   26.30
  -4  -5   9   61.29   37.80
  -4  -5   9   92.29   21.90
   3   5  -9  214.08   26.40
   3   5  -9  221.88   25.70
  -3  -5   9  190.38   25.70
  -3  -5   9  143.09   47.60
   2   5  -9  855.01   52.89
   2   5  -9  811.22   48.10
   2   5  -9  782.22   42.10
  -2  -5   9  726.63   46.20
  -2  -5   9  767.42   93.59
   1   5  -9  610.04   33.90
   1   5  -9  520.95   41.60
   1   5  -9  640.74   44.20
  -1  -5   9  544.05   37.70
  -1  -5   9  647.04   87.59
   0   5  -9    9.00    9.10
   0   5  -9   11.30   14.10
   0   5  -9   -3.90   15.50
   0  -5   9   28.70   27.10
   0  -5   9   20.80   10.40
  -1   5  -9  329.07   23.60
  -1   5  -9  396.86   39.40
  -1   5  -9  310.37   38.00
   1  -5   9  345.57   50.29
   1  -5   9  439.36   65.49
   1  -5   9  388.26   30.40
  -2   5  -9  590.54   31.20
  -2   5  -9  560.24   46.50
  -2   5  -9  568.44   51.99
   2  -5   9  497.15   67.69
   2  -5   9  646.84   39.10
  -3   5  -9  227.98   35.30
  -3   5  -9  266.67   44.40
   3  -5   9  238.68   24.50
   3  -5   9  182.58   48.90
  -4   5  -9    5.70   11.90
  -4   5  -9   12.50   17.30
   4  -5   9  -13.40   24.80
   4  -5   9   -6.10    9.80
  -5   5  -9  234.58   44.90
   5  -5   9  255.67   69.39
  -6   5  -9  214.08   45.50
   6   4  -9   33.50   17.40
   6   4  -9   27.30   17.50
  -6  -4   9  -43.40   33.70
  -6  -4   9    4.20   14.80
   5   4  -9  240.08   30.10
   5   4  -9  296.37   31.90
  -5  -4   9  396.46   59.29
  -5  -4   9  174.98   54.29
  -5  -4   9  254.77   33.60
   4   4  -9  594.24   41.00
   4   4  -9  630.14   43.70
  -4  -4   9  699.63   78.29
  -4  -4   9  574.04   45.40
  -4  -4   9  565.74   87.89
   3   4  -9  319.57   27.20
   3   4  -9  416.26   32.90
   3   4  -9  335.67   33.50
  -3  -4   9  348.87   33.70
  -3  -4   9  324.17   61.99
   2   4  -9   -6.00    9.80
   2   4  -9   10.00    9.70
   2   4  -9   -3.60    9.80
  -2  -4   9    3.10   10.60
  -2  -4   9   15.10   25.50
   1   4  -9  744.43   50.59
   1   4  -9  766.32   48.00
   1   4  -9  774.22   41.40
  -1  -4   9  795.62   94.59
  -1  -4   9  715.73   46.30
   0   4  -9  600.34   36.00
   0   4  -9  700.43   48.70
   0   4  -9  600.94   44.30
   0  -4   9  681.43   85.29
   0  -4   9  624.14   42.40
   0  -4   9  578.74   62.09
  -1   4  -9   97.79   22.90
  -1   4  -9   60.69   21.90
  -1   4  -9   97.29   17.40
   1  -4   9   91.39   19.50
   1  -4   9   34.20   24.20
   1  -4   9   83.89   32.30
  -2   4  -9  115.79   27.80
  -2   4  -9  102.49   26.80
  -2   4  -9   96.09   16.70
   2  -4   9   60.39   29.70
   2  -4   9   93.99   18.90
  -3   4  -9  452.85   47.70
  -3   4  -9  374.56   38.90
  -3   4  -9  496.55   32.20
   3  -4   9  405.86   35.50
   3  -4   9  395.16   71.59
  -4   4  -9  366.86   42.60
  -4   4  -9  288.47   35.90
  -4   4  -9  322.87   28.10
   4  -4   9  219.68   57.29
   4  -4   9  305.57   33.70
  -5   4  -9   12.70   13.50
  -5   4  -9    6.90   13.40
   5  -4   9  -16.70   33.70
   5  -4   9    2.60   15.40
  -6   4  -9  107.99   33.60
   7   3  -9  288.87   36.20
  -7  -3   9  131.29   57.09
  -7  -3   9  251.87   35.30
   6   3  -9  614.94   43.20
   6   3  -9  609.24   46.60
  -6  -3   9  665.73   53.99
  -6  -3   9  783.42   78.69
  -6  -3   9  621.64   89.39
   5   3  -9  236.98   26.90
   5   3  -9  250.17   30.10
  -5  -3   9  311.87   49.40
  -5  -3   9  273.27   32.10
  -5  -3   9  203.58   51.99
   4   3  -9   49.80   17.20
   4   3  -9   77.39   20.60
  -4  -3   9   53.59   35.80
  -4  -3   9   47.90   17.10
   3   3  -9  885.51   48.60
   3   3  -9  827.52   51.39
  -3  -3   9  910.41   98.09
  -3  -3   9  884.31   55.39
   2   3  -9  862.91   46.30
   2   3  -9  774.82   50.79
   2   3  -9  814.02   45.20
  -2  -3   9  714.83   91.39
  -2  -3   9  824.12   52.39
   1   3  -9  124.59   19.90
   1   3  -9  145.69   25.10
  -1  -3   9  137.69   41.70
  -1  -3   9  143.49   25.00
  -1  -3   9  116.59   28.80
   0   3  -9  172.18   29.70
   0   3  -9  213.08   23.40
   0  -3   9  137.09   33.10
   0  -3   9  144.19   40.30
   0  -3   9  237.18   27.20
  -1   3  -9  925.11   59.49
  -1   3  -9  952.10   47.50
   1  -3   9  887.61   87.69
   1  -3   9  943.21   53.59
  -2   3  -9  486.35   45.10
  -2   3  -9  464.45   31.80
   2  -3   9  419.86   35.90
   2  -3   9  364.76   68.99
  -3   3  -9   14.90   13.30
  -3   3  -9    5.50   17.60
   3  -3   9    0.20   11.00
   3  -3   9    6.70   29.00
  -4   3  -9  242.98   29.40
  -4   3  -9  232.98   41.30
   4  -3   9  221.38   34.60
   4  -3   9  148.09   52.89
  -5   3  -9  378.36   47.20
  -5   3  -9  344.57   36.80
   5  -3   9  285.97   39.00
  -6   3  -9   49.30   23.10
  -8  -2   9  486.95   54.49
   7   2  -9  271.07   35.40
  -7  -2   9  145.69   58.09
  -7  -2   9  234.18   39.80
   6   2  -9  254.37   29.70
   6   2  -9  240.28   26.30
  -6  -2   9  280.87   36.40
  -6  -2   9  357.26   50.99
  -6  -2   9  188.88   57.69
   5   2  -9  581.14   43.10
   5   2  -9  622.24   44.20
   5   2  -9  576.74   39.00
  -5  -2   9  561.44   48.00
  -5  -2   9  555.24   40.70
  -5  -2   9  512.25   84.29
   4   2  -9  788.92   48.80
   4   2  -9  778.22   48.10
   4   2  -9  869.01   49.90
  -4  -2   9  788.12   54.79
  -4  -2   9  888.41   95.09
  -4  -2   9  770.62   46.60
   3   2  -9   -3.70    9.20
   3   2  -9   -5.50   10.90
  -3  -2   9    0.30   23.70
  -3  -2   9    1.70    9.10
  -3  -2   9   -6.00   10.80
   2   2  -9  566.34   36.70
   2   2  -9  541.15   38.40
  -2  -2   9  540.95   73.59
  -2  -2   9  570.84   44.90
   1   2  -9  289.37   28.80
   1   2  -9  283.67   29.50
  -1  -2   9  255.07   45.70
  -1  -2   9  279.47   31.50
  -1  -2   9  315.47   60.09
   0   2  -9  571.54   42.70
   0   2  -9  621.14   39.90
   0  -2   9  557.74   42.50
   0  -2   9  583.44   68.39
   0  -2   9  595.04   74.89
  -1   2  -9    0.20   10.30
  -1   2  -9  -17.20    9.70
   1  -2   9   11.00   23.60
   1  -2   9    6.40   10.30
  -2   2  -9  522.15   36.40
  -2   2  -9  478.55   43.80
   2  -2   9  421.56   73.89
   2  -2   9  474.95   40.30
  -3   2  -9  370.96   41.40
  -3   2  -9  332.07   32.50
   3  -2   9  230.38   56.59
   3  -2   9  301.87   35.60
  -4   2  -9  203.08   30.90
  -4   2  -9  229.28   39.90
   4  -2   9  165.48   31.80
   4  -2   9  181.48   55.89
  -5   2  -9   35.70   23.10
  -6   2  -9  320.07   43.80
   8   1  -9  117.59   51.19
   8   1  -9  154.38   31.50
  -8  -1   9  200.08   39.80
  -8  -1   9   18.00   48.60
  -8  -1   9  130.29   28.80
   7   1  -9  436.56   41.90
   7   1  -9  312.17   38.00
   7   1  -9  210.98   59.09
  -7  -1   9  351.56   36.80
  -7  -1   9  236.58   65.29
  -7  -1   9  366.86   40.10
   6   1  -9  577.54   45.70
   6   1  -9  661.43   47.20
   6   1  -9  530.55   87.29
  -6  -1   9  680.03   67.59
  -6  -1   9  615.94   45.40
  -6  -1   9  535.85   89.69
  -6  -1   9  581.74   49.30
   5   1  -9    5.70   10.60
   5   1  -9   15.00   14.70
   5   1  -9   -1.70   11.50
  -5  -1   9    5.70   11.90
  -5  -1   9    0.30   21.30
  -5  -1   9   14.40   14.70
   4   1  -9  434.56   36.10
   4   1  -9  421.86   37.00
  -4  -1   9  386.36   39.90
  -4  -1   9  410.26   34.60
  -4  -1   9  417.86   72.89
   3   1  -9  785.12   48.50
   3   1  -9  850.41   51.29
  -3  -1   9  848.72   49.50
  -3  -1   9  871.41   92.99
  -3  -1   9  966.50   61.09
   2   1  -9 1074.29   51.59
   2   1  -9  967.70   52.39
   2   1  -9  980.30   54.89
  -2  -1   9  911.01   60.79
  -2  -1   9 1094.99   82.69
  -2  -1   9  896.61   51.29
  -2  -1   9 1129.09  106.69
   1   1  -9  195.28   23.60
   1   1  -9  205.78   26.50
   1   1  -9  180.88   23.90
  -1  -1   9  197.68   22.90
  -1  -1   9  176.28   42.80
  -1  -1   9  210.38   29.00
  -1  -1   9  165.28   37.90
   0   1  -9 1071.39   54.19
   0   1  -9 1048.60   58.09
   0  -1   9  990.00   91.79
   0  -1   9 1074.19   61.59
   0  -1   9 1105.59   99.99
  -1   1  -9  583.04   39.80
   1  -1   9  629.84   46.70
   1  -1   9  586.54   76.79
  -2   1  -9  119.69   23.40
   2  -1   9  144.39   27.40
   2  -1   9  100.09   42.00
  -3   1  -9  250.77   31.70
   3  -1   9  263.07   64.19
   3  -1   9  220.58   37.00
  -4   1  -9  233.78   33.30
   4  -1   9  169.08   62.79
   4  -1   9  272.57   38.90
  -5   1  -9  142.29   33.50
  -6   1  -9   12.70   21.10
   9   0  -9  315.37   44.40
   9   0  -9  208.88   74.69
  -9   0   9  415.96   45.40
   8   0  -9   92.69   52.39
   8   0  -9  224.78   36.10
   8   0  -9  239.58   38.50
  -8   0   9  233.08   41.00
  -8   0   9  206.98   33.60
  -8   0   9  115.29   49.90
   7   0  -9   -1.50   11.30
   7   0  -9   -3.00   10.00
   7   0  -9  -35.60   28.80
  -7   0   9  -12.00   12.60
  -7   0   9  -67.29   30.20
  -7   0   9  -17.80   11.70
   6   0  -9  495.25   39.90
   6   0  -9  387.66   40.40
   6   0  -9  445.46   32.70
   6   0  -9  336.97   77.29
  -6   0   9  481.85   47.00
  -6   0   9  453.35   82.89
  -6   0   9  378.26   35.40
   5   0  -9  886.61   95.29
   5   0  -9  951.30   55.99
   5   0  -9  982.80   58.09
  -5   0   9 1006.70   64.69
  -5   0   9  990.50  104.59
  -5   0   9  964.50   57.09
   4   0  -9  150.28   26.00
   4   0  -9  215.78   30.60
  -4   0   9  150.78   25.30
  -4   0   9  199.98   33.70
  -4   0   9  143.49   44.60
   3   0  -9  155.58   25.60
   3   0  -9  133.39   22.80
  -3   0   9  136.09   24.50
  -3   0   9  141.29   40.50
  -3   0   9  118.59   28.30
   2   0  -9  697.33   40.10
   2   0  -9  673.83   43.00
   2   0  -9  690.93   46.50
  -2   0   9  790.32   86.19
  -2   0   9  641.44   51.89
  -2   0   9  704.63   45.00
  -2   0   9  692.13   71.49
   1   0  -9  578.64   41.00
   1   0  -9  548.25   38.50
  -1   0   9  574.54   70.89
  -1   0   9  609.64   46.10
  -1   0   9  603.24   73.39
  -1   0   9  539.45   38.20
   0   0  -9   55.49   16.00
   0   0  -9   45.60   17.00
   0   0   9   66.19   16.80
   0   0   9   61.29   26.60
   0   0   9   49.40   30.80
   0   0   9   57.89   19.50
  -1   0  -9  202.68   27.40
   1   0   9  146.49   45.30
   1   0   9  128.79   26.20
  -2   0  -9  508.85   42.00
   2   0   9  427.96   81.29
   2   0   9  529.95   47.50
  -3   0  -9  307.27   35.70
   3   0   9  283.67   36.50
   3   0   9  208.88   61.49
  -4   0  -9   14.50   19.80
   4   0   9   -0.40   17.50
   4   0   9  -67.59   33.50
   9  -1  -9    5.30   20.60
   9  -1  -9   22.20   21.40
   9  -1  -9  -59.69   40.30
  -9   1   9    1.70   15.00
  -9   1   9   29.00   20.70
   8  -1  -9  205.78   37.00
   8  -1  -9  194.38   34.00
   8  -1  -9   80.79   53.59
  -8   1   9  317.97   41.60
  -8   1   9   65.19   51.49
  -8   1   9  240.38   37.30
   7  -1  -9  637.44   50.79
   7  -1  -9  623.94   50.19
   7  -1  -9  574.74  100.19
  -7   1   9  546.55   90.99
  -7   1   9  623.64   47.80
  -7   1   9  655.93   56.89
   6  -1  -9  115.49   27.00
   6  -1  -9  180.78   32.10
   6  -1  -9   75.19   40.10
  -6   1   9  136.19   27.20
  -6   1   9  102.59   39.20
  -6   1   9  184.08   35.60
   5  -1  -9  242.38   33.40
   5  -1  -9  241.78   57.59
   5  -1  -9  271.77   34.70
  -5   1   9  265.37   32.20
  -5   1   9  312.27   36.90
  -5   1   9  219.28   51.99
   4  -1  -9 1460.05   71.69
   4  -1  -9 1305.47   71.39
  -4   1   9 1365.56   79.69
  -4   1   9 1324.77   69.59
  -4   1   9 1448.26  120.49
   3  -1  -9  656.03   46.00
   3  -1  -9  502.05   43.10
  -3   1   9  561.04   42.70
  -3   1   9  676.73   80.49
  -3   1   9  567.24   51.19
   2  -1  -9   48.40   17.20
   2  -1  -9   62.49   17.20
  -2   1   9   40.70   25.70
  -2   1   9   51.99   17.70
  -2   1   9   34.90   25.80
  -2   1   9   35.70   19.40
   1  -1  -9  412.26   36.10
   1  -1  -9  420.06   35.10
  -1   1   9  412.46   41.40
  -1   1   9  391.06   33.80
  -1   1   9  470.95   61.99
  -1   1   9  343.87   60.39
   0  -1  -9  644.64   42.80
   0  -1  -9  644.94   43.40
   0   1   9  548.95   76.59
   0   1   9  564.54   41.40
   0   1   9  624.04   50.39
   0   1   9  683.93   72.59
  -1  -1  -9  297.77   33.70
   1   1   9  287.37   37.20
   1   1   9  252.97   56.69
   1   1   9  292.67   31.70
  -2  -1  -9   -5.20   15.10
   2   1   9    3.70   13.00
   2   1   9  -33.20   30.80
  -3  -1  -9  328.47   39.80
   3   1   9  201.98   63.19
   3   1   9  280.47   37.80
   9  -2  -9  234.88   43.80
   9  -2  -9  101.59   66.39
   9  -2  -9  297.17   40.80
  -9   2   9  294.37   47.60
  -9   2   9  243.18   40.90
   8  -2  -9   13.90   18.00
   8  -2  -9  -55.89   37.40
   8  -2  -9   18.60   16.50
  -8   2   9   18.20   17.80
  -8   2   9    9.30   16.90
   7  -2  -9  136.79   30.90
   7  -2  -9   67.49   48.10
   7  -2  -9  113.79   28.00
  -7   2   9  177.58   33.00
  -7   2   9   58.99   43.70
  -7   2   9  160.58   35.30
   6  -2  -9  717.83   55.49
   6  -2  -9  711.43   52.59
   6  -2  -9  594.24   95.79
  -6   2   9  712.03   58.79
  -6   2   9  763.42   54.49
  -6   2   9  679.43   89.49
   5  -2  -9  440.96   80.09
   5  -2  -9  436.06   43.70
   5  -2  -9  494.55   41.10
  -5   2   9  413.36   44.20
  -5   2   9  513.35   44.10
  -5   2   9  355.86   67.29
   4  -2  -9   15.30   17.10
   4  -2  -9   -6.80   14.70
   4  -2  -9   -4.20   26.00
  -4   2   9   13.90   15.10
  -4   2   9    1.40   17.20
  -4   2   9  -13.60   22.20
   3  -2  -9  409.16   71.49
   3  -2  -9  396.76   38.00
   3  -2  -9  358.06   37.90
  -3   2   9  303.57   59.19
  -3   2   9  393.36   44.80
  -3   2   9  330.97   35.00
   2  -2  -9  902.71   53.89
   2  -2  -9  889.81   54.79
   2  -2  -9  921.51  108.89
  -2   2   9  979.70   66.39
  -2   2   9  913.11   91.69
  -2   2   9  921.31   87.39
  -2   2   9  934.01   54.29
   1  -2  -9  293.37   33.10
   1  -2  -9  308.47   68.39
   1  -2  -9  292.57   32.10
  -1   2   9  336.77   39.40
  -1   2   9  275.27   60.39
  -1   2   9  328.97   51.39
  -1   2   9  291.37   31.60
   0  -2  -9   45.60   28.20
   0  -2  -9   64.59   18.80
   0  -2  -9   63.29   20.20
   0   2   9   39.60   29.40
   0   2   9   73.99   20.50
   0   2   9   48.80   18.60
   0   2   9   76.99   26.10
  -1  -2  -9  421.46   41.20
  -1  -2  -9  370.16   37.60
   1   2   9  348.97   75.79
   1   2   9  423.06   43.20
   1   2   9  412.16   39.10
  -2  -2  -9  445.26   42.20
   2   2   9  468.85   80.69
   2   2   9  520.85   49.80
  -3  -2  -9   13.00   20.80
   3   2   9    9.60   20.70
   3   2   9  -47.10   36.80
   9  -3  -9  269.87   35.80
   9  -3  -9  264.87   42.70
  -9   3   9  297.27   42.10
  -9   3   9  287.17   46.50
   8  -3  -9  209.48   71.49
   8  -3  -9  415.16   43.90
   8  -3  -9  496.55   49.70
  -8   3   9  251.07   62.19
  -8   3   9  356.66   42.30
  -8   3   9  361.26   39.60
   7  -3  -9  -14.00   39.30
   7  -3  -9   18.00   16.40
   7  -3  -9   65.39   23.80
  -7   3   9   -1.00   34.50
  -7   3   9   79.59   24.70
  -7   3   9   47.00   20.10
   6  -3  -9    3.40   24.00
   6  -3  -9  -12.20   14.90
   6  -3  -9  -12.60   10.50
  -6   3   9  -11.00   15.20
  -6   3   9   -2.20   17.90
  -6   3   9  -52.49   25.00
   5  -3  -9  520.45   43.90
   5  -3  -9  505.25   44.70
   5  -3  -9  521.75   97.29
  -5   3   9  534.75   74.59
  -5   3   9  538.45   53.69
  -5   3   9  554.94   47.70
   4  -3  -9 1082.19  119.99
   4  -3  -9  957.10   59.89
   4  -3  -9 1064.89   63.19
  -4   3   9  977.40   69.99
  -4   3   9 1008.70   62.99
  -4   3   9 1035.90   93.59
   3  -3  -9   97.89   24.70
   3  -3  -9   32.00   29.00
   3  -3  -9   58.49   21.50
  -3   3   9   48.60   28.30
  -3   3   9   51.49   26.00
  -3   3   9   65.39   21.30
   2  -3  -9  170.98   27.40
   2  -3  -9   88.89   40.70
   2  -3  -9  157.28   28.10
  -2   3   9  178.08   35.20
  -2   3   9  127.19   41.80
  -2   3   9  152.58   28.10
  -2   3   9  138.99   35.70
   1  -3  -9 1088.39   63.79
   1  -3  -9 1065.99   62.29
   1  -3  -9 1140.39  122.39
  -1   3   9 1091.79  110.59
  -1   3   9  999.50   59.69
  -1   3   9 1203.18   91.99
  -1   3   9 1060.89   69.29
   0  -3  -9  298.07   36.40
   0  -3  -9  360.36   37.90
   0  -3  -9  286.87   69.79
   0   3   9  270.27   61.79
   0   3   9  337.37   36.70
   0   3   9  362.06   43.00
  -1  -3  -9    9.40   14.80
   1   3   9   26.60   16.70
   1   3   9   16.50   18.90
   1   3   9  -15.60   35.40
  -2  -3  -9   62.89   22.50
   2   3   9   27.40   47.30
   2   3   9   55.29   28.90
   9  -4  -9   64.79   25.90
  -9   4   9   54.39   24.40
  -9   4   9  -53.49   37.80
   8  -4  -9   39.90   20.90
   8  -4  -9  -57.29   35.50
   8  -4  -9   -4.10   19.10
  -8   4   9    8.60   17.50
  -8   4   9  -64.19   30.40
  -8   4   9   21.20   18.40
   7  -4  -9  603.64   55.39
   7  -4  -9  578.24  112.69
   7  -4  -9  571.24   47.20
   7  -4  -9  457.05   98.39
  -7   4   9  605.74   56.09
  -7   4   9  465.55   78.29
  -7   4   9  599.64   52.59
   6  -4  -9  448.46   45.10
   6  -4  -9  516.25  105.19
   6  -4  -9  488.35   46.40
  -6   4   9  587.24   55.59
  -6   4   9  342.77   68.59
  -6   4   9  488.95   48.50
   5  -4  -9   53.49   21.30
   5  -4  -9   53.49   35.10
   5  -4  -9   62.69   23.60
  -5   4   9   52.69   21.90
  -5   4   9    5.50   27.90
  -5   4   9   32.10   20.50
   4  -4  -9   47.90   42.20
   4  -4  -9  156.78   29.10
   4  -4  -9  131.99   29.00
  -4   4   9  143.19   33.20
  -4   4   9  125.79   28.70
  -4   4   9   97.39   35.50
   3  -4  -9 1072.79   65.09
   3  -4  -9  935.21  128.79
   3  -4  -9 1124.89   66.29
  -3   4   9 1051.19   89.59
  -3   4   9 1080.39   75.89
  -3   4   9 1114.19   65.69
   2  -4  -9  254.27   31.10
   2  -4  -9  245.58   30.60
  -2   4   9  298.77   35.40
  -2   4   9  270.17   37.20
   1  -4  -9    6.90   15.70
   1  -4  -9  -10.00   14.70
   1  -4  -9  -29.80   29.30
  -1   4   9    3.20   14.10
  -1   4   9   -6.70   16.90
  -1   4   9  -14.00   29.10
   0  -4  -9  146.59   28.30
   0  -4  -9   31.00   37.10
   0  -4  -9  115.99   26.10
   0   4   9   63.29   45.80
   0   4   9  111.89   28.40
   0   4   9  157.98   33.70
  -1  -4  -9  583.84   49.00
   1   4   9  457.75   92.89
   1   4   9  503.75   48.90
   1   4   9  575.44   56.99
  -2  -4  -9   96.69   31.30
   2   4   9   98.99   30.70
   2   4   9   77.19   30.80
   8  -5  -9  274.37   38.10
   8  -5  -9  240.28   44.30
   8  -5  -9  174.58   62.09
  -8   5   9  244.88   41.20
  -8   5   9  300.67   41.00
   7  -5  -9   10.10   20.50
   7  -5  -9  -10.40   36.40
   7  -5  -9    5.90   18.00
  -7   5   9    1.60   12.20
  -7   5   9    4.60   17.60
   6  -5  -9  173.28   33.20
   6  -5  -9  198.78   35.90
   6  -5  -9  109.39   53.59
  -6   5   9  245.88   44.40
  -6   5   9  233.28   39.10
   5  -5  -9  537.45   50.09
   5  -5  -9  600.04   52.99
  -5   5   9  567.64   49.80
  -5   5   9  714.83   63.49
   4  -5  -9  384.26   42.90
   4  -5  -9  331.87   41.30
  -4   5   9  364.46   42.20
  -4   5   9  332.37   43.90
   3  -5  -9   65.29   21.00
   3  -5  -9   69.19   21.50
   3  -5  -9  -14.60   39.00
  -3   5   9   60.79   27.60
  -3   5   9   45.50   21.00
   2  -5  -9  420.06   42.50
   2  -5  -9  444.26   41.40
  -2   5   9  356.56   40.80
  -2   5   9  459.15   47.60
   1  -5  -9  358.36   41.20
   1  -5  -9  447.36   44.90
  -1   5   9  357.16   41.30
  -1   5   9  368.96   43.30
   0  -5  -9   54.89   23.90
   0  -5  -9   38.00   21.90
   0   5   9   23.50   40.20
   0   5   9   35.10   21.80
   0   5   9   58.99   24.90
  -1  -5  -9   73.79   28.10
   1   5   9   24.80   36.20
   1   5   9   72.29   29.80
   1   5   9   43.30   21.80
   8  -6  -9  152.38   65.39
   8  -6  -9  274.77   45.00
   7  -6  -9  391.56   44.60
   7  -6  -9  310.37   49.30
   7  -6  -9  158.28   66.99
  -7   6   9  336.27   44.50
  -7   6   9  289.57   45.90
   6  -6  -9   35.30   23.60
   6  -6  -9   31.90   21.20
   6  -6  -9    1.30   45.50
  -6   6   9   84.69   28.80
  -6   6   9  108.69   30.80
   5  -6  -9  -42.90   24.40
   5  -6  -9    5.90   13.30
   5  -6  -9   -7.50   18.50
  -5   6   9    3.70   18.40
  -5   6   9   12.50   15.40
   4  -6  -9  310.77   41.00
   4  -6  -9  286.17   35.90
  -4   6   9  327.77   44.00
  -4   6   9  265.87   43.50
  -4   6   9  281.27   32.90
   3  -6  -9  637.04   53.99
   3  -6  -9  714.63   56.19
  -3   6   9  730.23   54.69
  -3   6   9  698.53   63.59
   2  -6  -9  109.99   29.60
   2  -6  -9  180.18   33.80
   2  -6  -9   40.40   46.10
  -2   6   9  130.39   32.10
  -2   6   9  133.89   30.20
   1  -6  -9  195.78   34.40
   1  -6  -9  130.29   30.50
  -1   6   9  142.39   32.60
  -1   6   9  197.68   38.60
   0  -6  -9  469.65   51.59
   0  -6  -9  525.15   51.69
   0   6   9  443.86   51.09
   0   6   9  539.05   53.49
   7  -7  -9   78.19   28.60
   6  -7  -9  376.16   42.00
   6  -7  -9  376.36   49.80
  -6   7   9  354.26   48.20
  -6   7   9  366.56   44.40
   5  -7  -9  290.37   38.10
   5  -7  -9  201.68   38.50
  -5   7   9  244.08   34.40
  -5   7   9  223.78   42.80
  -5   7   9  241.68   43.10
   4  -7  -9  -57.89   39.90
   4  -7  -9    9.60   17.90
   4  -7  -9   20.80   21.20
  -4   7   9    8.10   14.70
  -4   7   9   38.80   21.80
   3  -7  -9  199.78   37.50
   3  -7  -9  219.78   38.20
  -3   7   9  172.28   35.70
  -3   7   9  173.78   39.40
   2  -7  -9  466.15   46.50
   2  -7  -9  377.86   46.80
  -2   7   9  386.56   43.30
  -2   7   9  375.36   48.80
   1  -7  -9  128.29   31.90
   1  -7  -9   90.79   27.20
  -1   7   9   82.99   31.00
  -1   7   9  112.09   32.90
  -8   8   9  276.27   53.89
  -7   8   9  208.88   44.30
  -6   8   9   -4.70   15.40
  -5   8   9  182.28   36.70
   2  -8  -9   16.70   17.60
  -8   9   9   20.60   25.00
  -7   9   9  227.58   47.40
  -6   9   9  218.78   42.40
   2  10 -10  109.79   36.90
   1  10 -10    2.90   24.10
   0  10 -10  188.28   42.10
  -1  10 -10  301.07   50.49
  -1  10 -10  401.06   50.69
  -2  10 -10   49.50   30.40
  -2  10 -10   51.49   28.00
  -3  10 -10  110.89   34.50
  -3  10 -10   53.99   28.30
   4   9 -10   41.70   30.70
   3   9 -10   58.09   28.90
   2   9 -10  376.76   48.50
   1   9 -10  261.87   45.50
   0   9 -10  -16.20   14.60
   0   9 -10   -7.70   21.00
  -1   9 -10   54.89   24.70
  -1   9 -10   87.79   29.40
  -2   9 -10  272.17   46.50
  -2   9 -10  279.77   48.80
  -3   9 -10  192.18   40.90
  -3   9 -10  151.08   40.00
  -4   9 -10    0.60   20.90
  -4   9 -10   -1.40   22.00
   5   8 -10   23.70   25.50
   4   8 -10  456.95   50.69
   3   8 -10   99.99   32.20
  -3  -8  10  108.09   23.70
   2   8 -10  -13.60   19.20
  -2  -8  10    7.90   24.90
   1   8 -10   35.40   21.70
   1   8 -10   28.20   21.50
  -1  -8  10   88.99   40.10
   0   8 -10  550.54   53.59
   0   8 -10  548.85   51.69
   0  -8  10  671.63   89.59
  -1   8 -10   88.99   27.90
  -1   8 -10  106.49   32.20
  -2   8 -10   13.60   16.20
  -2   8 -10  -22.00   15.40
   2  -8  10   45.80   18.00
  -3   8 -10  141.69   36.50
  -3   8 -10  184.18   37.80
  -4   8 -10  370.76   52.29
  -4   8 -10  451.85   47.20
  -5   8 -10   17.30   22.80
   6   7 -10  254.47   42.10
   5   7 -10  156.98   37.00
   4   7 -10  -15.60   13.60
   4   7 -10   -5.20   19.90
  -4  -7  10   28.70   17.50
  -4  -7  10  -44.00   32.30
   3   7 -10  345.17   32.00
   3   7 -10  342.07   42.50
  -3  -7  10  204.38   62.49
  -3  -7  10  387.46   36.10
   2   7 -10  445.86   46.60
  -2  -7  10  644.74   78.19
  -2  -7  10  393.46   35.00
  -2  -7  10  475.45   83.59
   1   7 -10  141.99   31.40
   1   7 -10  126.99   32.80
  -1  -7  10  121.09   43.70
   0   7 -10   16.10   15.60
   0   7 -10   -7.40   19.30
   0  -7  10   21.70   18.60
  -1   7 -10  385.96   45.80
  -1   7 -10  481.45   45.80
   1  -7  10  516.25   73.89
  -2   7 -10  452.35   48.40
  -2   7 -10  398.36   46.60
  -3   7 -10   17.20   21.70
  -3   7 -10   24.30   23.00
  -4   7 -10  109.39   34.20
  -4   7 -10   98.99   27.20
  -5   7 -10  229.38   49.40
   6   6 -10   -8.30   18.90
   5   6 -10  212.38   37.30
   5   6 -10  271.67   34.50
  -5  -6  10  275.97   36.90
  -5  -6  10  182.58   60.59
   4   6 -10  443.96   38.50
   4   6 -10  431.56   44.50
  -4  -6  10  473.05   83.89
  -4  -6  10  444.96   42.00
   3   6 -10   87.49   19.50
   3   6 -10  120.09   30.00
  -3  -6  10   95.09   21.90
  -3  -6  10   81.69   39.50
   2   6 -10   87.89   17.30
   2   6 -10   93.99   27.80
   2   6 -10  100.69   23.90
  -2  -6  10   90.59   21.20
  -2  -6  10   82.79   36.90
   1   6 -10  469.35   30.40
   1   6 -10  449.95   45.60
   1   6 -10  490.95   43.70
  -1  -6  10  522.15   82.99
  -1  -6  10  463.85   36.40
   0   6 -10  379.26   42.10
   0   6 -10  302.07   40.10
   0  -6  10  359.16   69.89
   0  -6  10  349.47   29.50
  -1   6 -10    9.20   15.40
  -1   6 -10    4.30   19.00
   1  -6  10   49.80   28.70
  -2   6 -10  143.59   33.50
  -2   6 -10  166.08   36.30
   2  -6  10  301.57   55.19
  -3   6 -10  269.17   48.30
  -3   6 -10  324.37   40.30
   3  -6  10  204.88   50.39
  -4   6 -10  145.39   38.00
  -4   6 -10  139.49   31.30
   4  -6  10  104.19   45.20
  -5   6 -10  -13.50   16.70
   6   5 -10  461.35   42.60
   5   5 -10   55.09   23.20
   5   5 -10   27.40   17.20
  -5  -5  10   29.60   18.20
  -5  -5  10    0.10   38.60
   4   5 -10  162.18   26.30
   4   5 -10  210.68   36.10
  -4  -5  10  128.79   53.89
  -4  -5  10  177.98   31.10
   3   5 -10  872.71   49.70
   3   5 -10  888.51   56.99
  -3  -5  10  940.11  115.09
  -3  -5  10  897.41   57.09
   2   5 -10  271.17   30.50
   2   5 -10  290.17   33.50
   2   5 -10  315.17   27.40
  -2  -5  10  231.08   29.80
  -2  -5  10  214.98   58.99
   1   5 -10   36.00   23.10
   1   5 -10   46.60   14.50
   1   5 -10   48.10   18.40
  -1  -5  10   40.80   28.80
  -1  -5  10   21.00   13.60
   0   5 -10  219.68   36.90
   0   5 -10  227.98   23.00
   0   5 -10  230.48   37.70
   0  -5  10  226.38   26.50
   0  -5  10  212.18   53.59
  -1   5 -10  370.56   42.80
  -1   5 -10  432.56   45.50
   1  -5  10  397.36   33.80
   1  -5  10  425.86   66.79
  -2   5 -10   86.29   29.00
  -2   5 -10  177.68   35.90
   2  -5  10  189.68   23.80
   2  -5  10  102.99   37.80
   2  -5  10  269.77   55.19
  -3   5 -10   26.90   19.70
  -3   5 -10   -2.50   16.40
   3  -5  10  -18.90   22.20
   3  -5  10    9.90   12.10
  -4   5 -10  328.97   38.30
  -4   5 -10  334.57   45.90
   4  -5  10  201.48   58.89
  -5   5 -10  375.46   50.79
   6   4 -10  120.59   26.00
   6   4 -10  132.19   28.70
  -6  -4  10   59.69   54.09
  -6  -4  10  123.39   31.10
   5   4 -10  323.17   35.80
   5   4 -10  300.97   34.40
  -5  -4  10  353.26   39.50
  -5  -4  10  266.67   67.69
   4   4 -10  461.75   41.30
   4   4 -10  465.45   38.70
  -4  -4  10  479.95   88.79
  -4  -4  10  499.45   44.70
   3   4 -10   -5.30   15.60
   3   4 -10    4.00   13.00
  -3  -4  10    0.50   11.40
  -3  -4  10  -20.90   24.50
   2   4 -10  486.15   44.00
   2   4 -10  473.85   36.80
   2   4 -10  518.65   38.20
  -2  -4  10  479.65   82.79
  -2  -4  10  448.46   41.20
   1   4 -10  547.15   43.20
   1   4 -10  507.25   43.80
   1   4 -10  533.15   37.30
  -1  -4  10  477.85   40.50
  -1  -4  10  671.33   88.49
   0   4 -10  188.98   34.20
   0   4 -10  200.68   34.30
   0   4 -10  182.18   24.20
   0  -4  10  244.28   29.40
   0  -4  10  252.77   52.79
  -1   4 -10  135.49   30.80
  -1   4 -10   69.09   25.70
  -1   4 -10   94.49   18.90
   1  -4  10   49.00   31.90
   1  -4  10   64.29   30.30
   1  -4  10  100.99   22.10
  -2   4 -10  470.25   32.40
  -2   4 -10  512.55   49.99
  -2   4 -10  431.76   41.10
   2  -4  10  409.16   71.19
   2  -4  10  462.15   37.50
  -3   4 -10  254.57   24.80
  -3   4 -10  269.87   35.80
  -3   4 -10  227.68   42.20
   3  -4  10  268.87   31.70
   3  -4  10  151.68   51.59
  -4   4 -10   31.80   18.00
  -4   4 -10   17.90   21.10
  -4   4 -10   16.00   12.40
   4  -4  10  -17.50   34.50
   4  -4  10   -4.20   14.40
  -5   4 -10  137.79   37.70
   7   3 -10  352.06   42.20
   6   3 -10  212.28   28.90
   6   3 -10  208.68   33.20
  -6  -3  10  133.09   51.19
  -6  -3  10  198.98   36.80
   5   3 -10   94.19   24.00
   5   3 -10   70.09   21.50
  -5  -3  10   82.19   40.60
  -5  -3  10   97.29   26.30
   4   3 -10  601.44   43.80
   4   3 -10  539.85   43.80
  -4  -3  10  580.34   85.79
  -4  -3  10  561.54   48.70
   3   3 -10  481.65   40.50
   3   3 -10  474.15   38.60
  -3  -3  10  467.65   81.89
  -3  -3  10  521.95   45.30
   2   3 -10  110.39   22.90
   2   3 -10   76.29   22.40
   2   3 -10   88.09   19.70
  -2  -3  10   72.29   20.80
  -2  -3  10   76.89   37.00
   1   3 -10  317.57   30.80
   1   3 -10  330.57   33.70
  -1  -3  10  469.85   74.09
  -1  -3  10  315.37   35.80
   0   3 -10  618.74   40.50
   0   3 -10  593.64   46.30
   0  -3  10  534.45   76.99
   0  -3  10  572.54   44.80
   0  -3  10  476.55   63.69
  -1   3 -10  320.37   29.70
  -1   3 -10  336.07   38.40
   1  -3  10  231.98   52.59
   1  -3  10  340.67   57.49
   1  -3  10  290.37   31.60
  -2   3 -10   14.00   12.90
  -2   3 -10   17.20   17.80
   2  -3  10   -7.10   27.10
   2  -3  10   14.50   13.30
  -3   3 -10  281.07   39.60
  -3   3 -10  326.87   29.80
   3  -3  10  319.67   36.10
   3  -3  10  248.88   63.79
  -4   3 -10  307.07   34.00
  -4   3 -10  277.57   47.10
   4  -3  10  197.38   65.99
   4  -3  10  291.07   39.30
  -5   3 -10  125.89   35.60
   7   2 -10   17.60   15.80
  -7  -2  10  -80.79   38.60
  -7  -2  10   19.40   16.90
   6   2 -10  501.65   44.80
   6   2 -10  489.15   39.70
  -6  -2  10  459.45   95.49
  -6  -2  10  488.35   49.40
   5   2 -10  503.75   43.70
   5   2 -10  598.54   43.60
  -5  -2  10  560.14   93.79
  -5  -2  10  528.85   49.90
   4   2 -10  105.39   24.20
   4   2 -10  129.89   26.60
  -4  -2  10   76.59   44.00
  -4  -2  10  102.99   27.00
   3   2 -10  286.57   32.50
  -3  -2  10  189.98   55.39
  -3  -2  10  295.37   34.50
   2   2 -10 1263.77   61.59
   2   2 -10 1110.99   61.49
  -2  -2  10 1468.05  125.19
  -2  -2  10 1154.78   70.79
   1   2 -10  271.57   30.30
   1   2 -10  261.07   29.80
  -1  -2  10  282.07   34.00
  -1  -2  10  289.87   55.59
  -1  -2  10  241.18   49.50
   0   2 -10   20.70   14.80
   0   2 -10   42.30   16.20
   0  -2  10   23.90   24.00
   0  -2  10   11.40   24.10
   0  -2  10   33.40   15.60
  -1   2 -10  306.87   29.50
  -1   2 -10  254.07   33.50
   1  -2  10  394.16   60.59
   1  -2  10  267.57   33.60
   1  -2  10  217.88   52.59
  -2   2 -10  294.17   31.70
  -2   2 -10  322.17   38.60
   2  -2  10  287.37   34.90
   2  -2  10  247.08   59.09
  -3   2 -10  121.19   24.30
  -3   2 -10   67.89   24.80
   3  -2  10   64.49   24.30
   3  -2  10   35.60   43.10
  -4   2 -10   11.10   15.90
  -4   2 -10   -6.90   17.20
  -5   2 -10  160.88   38.60
   7   1 -10  153.68   31.00
  -7  -1  10   69.29   45.70
  -7  -1  10  115.19   31.00
   6   1 -10    8.20   17.10
   6   1 -10    1.10   11.80
  -6  -1  10   -3.80   13.60
  -6  -1  10  -48.00   31.90
   5   1 -10  313.87   33.30
   5   1 -10  320.97   33.70
  -5  -1  10  306.07   40.00
  -5  -1  10  231.18   63.19
  -5  -1  10  284.07   32.60
   4   1 -10  587.04   44.40
  -4  -1  10  629.24   94.29
  -4  -1  10  585.04   52.69
   3   1 -10  238.58   32.10
  -3  -1  10  200.78   52.99
  -3  -1  10  228.78   32.00
   2   1 -10    2.90   10.80
   2   1 -10  -19.10   11.90
  -2  -1  10   10.20   14.40
  -2  -1  10    9.00   25.20
   1   1 -10  828.52   50.89
   1   1 -10  814.12   50.09
  -1  -1  10  795.42   55.29
  -1  -1  10  783.42   78.79
  -1  -1  10  945.01   97.29
   0   1 -10  624.34   42.40
   0   1 -10  529.55   42.50
   0  -1  10  514.25   44.90
   0  -1  10  499.05   70.99
   0  -1  10  683.23   79.89
  -1   1 -10    9.40   14.80
  -1   1 -10   14.00   15.30
   1  -1  10   22.80   15.90
   1  -1  10  -17.00   26.10
   1  -1  10   39.20   20.60
  -2   1 -10   64.19   23.70
  -2   1 -10   58.69   19.30
   2  -1  10   78.89   23.80
   2  -1  10   55.39   40.10
  -3   1 -10  395.66   45.20
  -3   1 -10  451.15   42.10
   3  -1  10  467.75   47.40
   3  -1  10  292.97   74.09
  -4   1 -10  139.09   34.70
  -5   1 -10    5.90   18.90
   8   0 -10  -11.90   18.80
  -8   0  10   16.70   14.50
  -8   0  10  -89.79   40.30
  -8   0  10    7.00   15.80
   7   0 -10  445.96   45.70
   7   0 -10  500.05   47.60
  -7   0  10  411.26   48.60
  -7   0  10  245.38   71.89
  -7   0  10  407.56   42.60
   6   0 -10  362.16   37.90
   6   0 -10  355.96   38.00
   6   0 -10  408.76   35.80
  -6   0  10  357.76   76.49
  -6   0  10  350.66   38.50
  -6   0  10  355.96   44.90
   5   0 -10  265.27   34.60
   5   0 -10  348.77   39.00
  -5   0  10  253.87   32.60
  -5   0  10  255.77   64.29
  -5   0  10  330.27   42.20
   4   0 -10   48.80   17.30
   4   0 -10   37.80   19.00
  -4   0  10   74.49   39.80
  -4   0  10   75.49   21.20
  -4   0  10   93.59   26.30
   3   0 -10  831.82   52.59
   3   0 -10  793.32   51.69
  -3   0  10  740.73   60.19
  -3   0  10  782.42   51.19
  -3   0  10  815.82   92.39
   2   0 -10  619.14   45.90
   2   0 -10  619.54   43.40
   2   0 -10  551.54   38.10
  -2   0  10  584.14   49.30
  -2   0  10  629.64   71.69
  -2   0  10  572.84   42.40
  -2   0  10  700.03   85.89
   1   0 -10  125.39   24.60
   1   0 -10  126.39   24.50
  -1   0  10   92.39   35.40
  -1   0  10  113.09   37.10
  -1   0  10  119.59   25.60
   0   0 -10  346.37   33.80
   0   0  10  284.17   36.20
   0   0  10  275.97   61.49
   0   0  10  380.86   59.59
  -1   0 -10  657.83   45.20
   1   0  10  783.82   81.29
   1   0  10  526.85   85.79
   1   0  10  638.94   51.39
  -2   0 -10  134.09   27.90
   2   0  10  160.38   33.70
   2   0  10   75.29   46.30
  -3   0 -10   -2.70   19.10
   3   0  10  -45.50   36.20
   3   0  10   10.90   17.50
   9  -1 -10  285.47   41.30
   8  -1 -10  378.46   45.50
   8  -1 -10  349.27   44.30
  -8   1  10  346.97   44.60
  -8   1  10  364.86   42.60
  -8   1  10  174.08   69.09
   7  -1 -10   27.90   21.70
   7  -1 -10   34.90   22.20
  -7   1  10   70.09   21.80
  -7   1  10  -30.40   40.10
  -7   1  10   17.30   19.60
   6  -1 -10  268.27   37.80
   6  -1 -10  146.69   29.00
  -6   1  10  179.38   37.80
  -6   1  10  133.49   29.10
  -6   1  10  145.79   48.40
   5  -1 -10  560.44   49.20
   5  -1 -10  532.05   47.80
  -5   1  10  630.24   55.59
  -5   1  10  541.15   79.49
  -5   1  10  562.84   47.30
   4  -1 -10  216.28   34.60
   4  -1 -10  255.27   34.00
  -4   1  10  234.48   39.90
  -4   1  10  247.28   56.19
  -4   1  10  252.67   30.30
   3  -1 -10    1.60   15.60
   3  -1 -10   25.30   13.80
  -3   1  10    2.40    9.70
  -3   1  10   36.60   29.70
  -3   1  10   26.70   20.60
   2  -1 -10  300.47   32.20
   2  -1 -10  222.88   31.80
  -2   1  10  261.67   37.70
  -2   1  10  259.37   56.69
  -2   1  10  333.87   60.69
  -2   1  10  249.88   29.80
   1  -1 -10  745.93   48.60
   1  -1 -10  771.92   49.00
  -1   1  10  762.42   49.10
  -1   1  10  818.92   85.29
  -1   1  10  731.33   57.09
  -1   1  10  692.43   86.79
   0  -1 -10  191.78   30.40
   0   1  10  177.58   32.20
   0   1  10  339.57   55.09
   0   1  10  155.58   48.60
  -1  -1 -10    4.20   15.50
   1   1  10   17.40   17.50
   1   1  10   -5.90   34.00
  -2  -1 -10  277.47   38.10
   2   1  10  239.78   65.79
   2   1  10  302.17   39.70
   8  -2 -10  153.58   35.40
   8  -2 -10  172.48   36.50
  -8   2  10   72.39   44.90
  -8   2  10  160.68   39.80
  -8   2  10  207.28   37.60
   7  -2 -10  565.44   51.89
   7  -2 -10  492.85   51.09
  -7   2  10  577.94   57.19
  -7   2  10  531.15   47.80
   6  -2 -10  261.27   39.60
   6  -2 -10  201.38   37.10
  -6   2  10  249.18   39.10
  -6   2  10  162.28   54.19
  -6   2  10  314.47   44.50
   5  -2 -10   -7.40   17.10
   5  -2 -10  -20.10   14.90
  -5   2  10  -18.00   25.00
  -5   2  10    7.70   20.30
  -5   2  10  -15.10   12.00
   4  -2 -10  341.17   35.80
   4  -2 -10  304.37   38.70
  -4   2  10  257.47   56.19
  -4   2  10  310.37   41.20
  -4   2  10  313.17   36.40
   3  -2 -10  894.71   58.49
   3  -2 -10  865.31   56.89
   3  -2 -10  844.02  111.79
  -3   2  10  827.02   55.49
  -3   2  10  853.51   64.69
  -3   2  10  928.71   96.49
   2  -2 -10  266.07   29.90
   2  -2 -10  282.27   31.90
   2  -2 -10  173.88   48.00
  -2   2  10  267.47   31.40
  -2   2  10  296.77   37.20
  -2   2  10  229.48   52.39
  -2   2  10  330.77   55.59
   1  -2 -10   86.69   20.60
   1  -2 -10   86.19   22.60
  -1   2  10   33.20   32.90
  -1   2  10   65.69   23.50
  -1   2  10   91.39   21.50
   0  -2 -10  521.45   46.20
   0   2  10  526.45   43.10
   0   2  10  744.93   71.29
   0   2  10  604.24   54.09
   0   2  10  552.64   87.19
  -1  -2 -10  356.86   40.80
   1   2  10  459.45   54.39
   1   2  10  369.26   43.50
   1   2  10  245.78   65.19
  -2  -2 -10  -16.60   17.30
   2   2  10   -8.90   12.30
   2   2  10  -47.40   35.90
   8  -3 -10  181.08   35.80
   8  -3 -10  169.48   36.60
  -8   3  10  248.48   43.80
  -8   3  10  254.27   43.70
   7  -3 -10  108.99   30.20
   7  -3 -10  117.19   33.10
  -7   3  10    8.80   43.30
  -7   3  10  172.98   36.30
  -7   3  10  105.99   29.30
   6  -3 -10  173.88   33.90
   6  -3 -10  209.08   34.50
  -6   3  10  136.29   52.99
  -6   3  10  218.68   36.60
  -6   3  10  200.38   39.10
   5  -3 -10  204.08   58.69
   5  -3 -10  329.47   37.90
   5  -3 -10  339.27   41.00
  -5   3  10  338.57   43.70
  -5   3  10  242.98   56.79
  -5   3  10  321.47   40.30
   4  -3 -10  189.78   32.70
   4  -3 -10  245.88   35.20
   4  -3 -10  106.19   47.20
  -4   3  10  177.08   36.60
  -4   3  10  213.98   34.70
  -4   3  10  153.98   44.90
   3  -3 -10  154.08   29.60
   3  -3 -10   83.39   42.60
   3  -3 -10  142.89   30.30
  -3   3  10  128.39   31.40
  -3   3  10  154.78   27.70
  -3   3  10  117.19   37.30
   2  -3 -10  319.37   33.40
   2  -3 -10  158.08   50.39
   2  -3 -10  286.07   33.10
  -2   3  10  287.97   41.30
  -2   3  10  423.16   55.59
  -2   3  10  274.47   33.60
   1  -3 -10  548.95   45.70
   1  -3 -10  491.15   45.00
   1  -3 -10  450.25   87.69
  -1   3  10  511.55   44.70
  -1   3  10  563.84   85.29
  -1   3  10  487.15   48.10
   0  -3 -10   49.99   19.20
   0  -3 -10   37.90   16.50
   0   3  10   27.50   15.90
   0   3  10  -13.90   33.30
   0   3  10   49.10   24.00
  -1  -3 -10  372.56   43.90
   1   3  10  264.87   68.19
   1   3  10  324.17   43.70
   8  -4 -10  261.17   36.70
   8  -4 -10  208.68   40.60
  -8   4  10  262.17   43.60
  -8   4  10  184.18   41.20
   7  -4 -10  702.63   58.29
   7  -4 -10  623.14  118.69
   7  -4 -10  672.33   60.39
  -7   4  10  690.03   57.09
  -7   4  10  688.63   63.89
  -7   4  10  431.96   85.29
   6  -4 -10   10.60   15.90
   6  -4 -10   17.00   29.30
   6  -4 -10   44.00   25.20
  -6   4  10    1.20   19.00
  -6   4  10   19.20   16.70
   5  -4 -10  229.18   65.19
   5  -4 -10  414.36   45.40
   5  -4 -10  358.56   44.60
  -5   4  10  389.16   44.40
  -5   4  10  345.87   45.70
   4  -4 -10  403.06  100.99
   4  -4 -10  449.76   43.40
   4  -4 -10  430.76   41.90
  -4   4  10  445.96   43.00
  -4   4  10  492.25   52.59
   3  -4 -10  324.67   80.09
   3  -4 -10  343.27   41.20
   3  -4 -10  324.17   39.10
  -3   4  10  363.26   47.70
  -3   4  10  287.77   37.30
   2  -4 -10  -27.10   32.20
   2  -4 -10   12.20   16.90
   2  -4 -10   21.50   16.00
  -2   4  10   15.90   17.60
  -2   4  10   25.30   16.60
   1  -4 -10  216.28   35.20
   1  -4 -10  215.28   30.50
  -1   4  10  183.58   54.39
  -1   4  10  185.78   33.90
  -1   4  10  221.58   40.00
   0  -4 -10  183.68   32.60
   0  -4 -10  177.78   34.70
   0   4  10  147.39   55.09
   0   4  10  180.48   35.10
   0   4  10  248.78   45.70
   8  -5 -10  -12.70   18.60
  -8   5  10   20.20   22.20
   7  -5 -10   36.30   44.60
   7  -5 -10   97.79   32.90
   7  -5 -10   62.59   23.30
  -7   5  10  106.89   29.60
  -7   5  10   85.29   29.60
   6  -5 -10  471.45   50.69
   6  -5 -10  526.35   49.90
   6  -5 -10  439.86   96.89
  -6   5  10  493.65   54.69
  -6   5  10  504.65   49.99
   5  -5 -10  159.98   33.80
   5  -5 -10  211.88   37.50
   5  -5 -10   70.49   52.09
  -5   5  10  167.48   34.80
  -5   5  10  144.09   35.90
   4  -5 -10   30.80   20.80
   4  -5 -10   30.30   18.50
   4  -5 -10  -34.80   37.10
  -4   5  10    2.30   12.90
  -4   5  10   14.00   22.10
   3  -5 -10  129.89   29.70
   3  -5 -10  158.18   31.60
  -3   5  10  153.88   32.60
  -3   5  10  217.08   41.10
   2  -5 -10  445.16   46.30
   2  -5 -10  579.14   50.79
  -2   5  10  515.45   46.10
  -2   5  10  515.65   52.59
   1  -5 -10   92.69   27.20
   1  -5 -10   70.29   22.20
  -1   5  10  100.19   28.10
  -1   5  10  108.59   29.90
   0  -5 -10   52.09   25.40
   0   5  10   19.80   23.60
   0   5  10   66.49   28.00
   7  -6 -10   55.69   23.80
  -7   6  10   67.99   28.60
   6  -6 -10  -14.10   46.50
   6  -6 -10   75.49   27.90
   6  -6 -10   72.59   26.20
  -6   6  10   63.19   28.10
  -6   6  10   72.19   30.20
   5  -6 -10  138.49   58.79
   5  -6 -10  247.28   41.80
   5  -6 -10  250.27   42.00
  -5   6  10  275.27   45.60
  -5   6  10  342.97   49.60
   4  -6 -10  124.19   63.29
   4  -6 -10  277.37   40.00
   4  -6 -10  306.97   42.40
  -4   6  10  254.07   35.80
  -4   6  10  347.97   45.60
   3  -6 -10   16.30   20.10
   3  -6 -10   73.19   26.20
  -3   6  10    8.60   14.00
  -3   6  10   53.49   22.80
   2  -6 -10   83.79   26.50
   2  -6 -10  110.29   30.30
  -2   6  10  109.99   31.90
  -2   6  10  114.89   31.10
   1  -6 -10  303.27   40.40
  -1   6  10  261.27   49.10
  -1   6  10  262.47   43.90
   6  -7 -10  200.98   41.90
  -6   7  10  280.57   40.30
   5  -7 -10    3.60   20.90
  -5   7  10    2.50   20.80
   4  -7 -10  171.68   37.50
   4  -7 -10  124.19   33.30
  -4   7  10  179.18   42.00
   3  -7 -10  410.26   48.30
  -3   7  10  397.06   54.29
  -8   8  10   84.59   32.20
  -7   8  10  -19.40   13.60
  -6   8  10  129.99   33.00
   3   9 -11  222.48   46.40
   2   9 -11  259.47   49.50
   1   9 -11   16.10   24.80
   0   9 -11  157.48   40.30
   0   9 -11  206.58   43.00
  -1   9 -11  193.48   43.80
  -1   9 -11  227.48   48.30
  -2   9 -11  100.69   35.00
  -2   9 -11  122.09   36.70
  -3   9 -11   -2.20   19.70
   4   8 -11  259.17   46.80
   3   8 -11   11.70   24.20
   2   8 -11  132.19   36.50
   1   8 -11  251.07   46.70
   1   8 -11  233.08   39.20
   0   8 -11  184.08   38.40
   0   8 -11  232.68   46.40
  -1   8 -11   34.10   26.20
  -1   8 -11   23.70   21.20
  -2   8 -11  122.59   34.80
  -2   8 -11  214.58   43.70
  -3   8 -11  140.69   40.00
  -3   8 -11  110.89   34.30
   5   7 -11   63.49   30.10
   4   7 -11   36.10   25.50
   3   7 -11  391.36   48.00
  -3  -7  11  342.37   38.30
   2   7 -11  163.68   37.90
  -2  -7  11  186.28   57.09
   1   7 -11   55.49   20.90
   1   7 -11   84.79   31.40
  -1  -7  11  123.79   41.30
   0   7 -11  264.97   45.30
   0   7 -11  248.18   43.30
   0  -7  11  408.26   70.29
  -1   7 -11  401.86   48.00
  -1   7 -11  401.56   48.80
  -2   7 -11    8.40   18.80
  -2   7 -11    0.20   21.90
  -3   7 -11  136.59   36.30
  -3   7 -11  160.38   37.80
  -4   7 -11  126.39   37.90
  -4   7 -11  115.79   31.10
   6   6 -11  160.38   36.50
   5   6 -11  429.96   46.90
   4   6 -11   43.20   20.40
   4   6 -11   47.50   26.30
  -4  -6  11   58.39   23.30
   3   6 -11   39.50   16.50
   3   6 -11   69.29   28.00
  -3  -6  11   63.69   19.40
  -3  -6  11   64.29   42.10
   2   6 -11  352.26   44.30
   2   6 -11  309.97   29.60
  -2  -6  11  290.17   73.79
  -2  -6  11  342.27   34.80
   1   6 -11  370.16   41.70
   1   6 -11  422.76   47.80
  -1  -6  11  396.46   36.50
  -1  -6  11  519.55   84.99
   0   6 -11   -0.10   14.30
   0   6 -11   19.20   21.10
   0  -6  11   49.00   29.30
  -1   6 -11   82.79   29.60
  -1   6 -11  128.29   32.20
  -2   6 -11  230.98   44.30
  -2   6 -11  267.97   45.60
  -3   6 -11  174.48   40.20
  -3   6 -11  175.98   37.10
  -4   6 -11   -4.70   18.70
  -4   6 -11   15.90   17.60
   7   5 -11  163.38   36.70
   6   5 -11   45.40   23.70
   5   5 -11   97.69   29.20
   5   5 -11   67.39   22.60
   4   5 -11  437.86   38.80
   4   5 -11  398.26   44.30
  -4  -5  11  252.27   73.99
  -4  -5  11  357.96   40.80
   3   5 -11  233.88   29.90
   3   5 -11  219.88   39.90
  -3  -5  11  273.17   34.20
  -3  -5  11  156.28   56.99
   2   5 -11    1.50   10.00
   2   5 -11   -6.60   19.50
   2   5 -11    5.40   12.60
  -2  -5  11   11.60   13.50
  -2  -5  11   15.70   24.10
   1   5 -11  308.87   36.50
   1   5 -11  306.47   38.00
   1   5 -11  280.37   28.70
  -1  -5  11  434.06   77.69
  -1  -5  11  284.67   33.60
   0   5 -11  329.57   39.50
   0   5 -11  351.56   40.40
   0   5 -11  342.07   28.80
   0  -5  11  501.55   75.69
   0  -5  11  331.97   34.30
  -1   5 -11  123.09   32.00
  -1   5 -11   71.79   26.00
   1  -5  11   85.89   20.10
  -2   5 -11   48.70   24.70
  -2   5 -11   22.50   21.90
  -3   5 -11  271.47   37.40
  -3   5 -11  208.68   41.60
  -4   5 -11  112.49   33.80
  -4   5 -11  154.38   31.80
   7   4 -11  167.98   33.10
   6   4 -11  523.25   46.50
   5   4 -11   64.29   23.10
   5   4 -11   76.59   25.80
  -5  -4  11   29.80   36.40
  -5  -4  11   67.49   22.60
   4   4 -11    2.20   18.00
   4   4 -11   -2.50   13.30
  -4  -4  11  -25.80   31.40
  -4  -4  11   -2.70   13.60
   3   4 -11  214.28   38.30
   3   4 -11  217.48   31.40
  -3  -4  11  209.18   34.80
  -3  -4  11  172.98   56.09
   2   4 -11  462.85   48.10
   2   4 -11  518.75   39.30
  -2  -4  11  661.23   89.99
  -2  -4  11  430.06   42.70
   1   4 -11   88.79   26.30
   1   4 -11  115.29   22.50
   1   4 -11  149.49   28.70
  -1  -4  11  120.79   25.80
  -1  -4  11  153.38   47.90
   0   4 -11    4.70   15.40
   0   4 -11   15.70   13.60
   0   4 -11    6.10   15.70
   0  -4  11   28.20   21.00
   0  -4  11    9.60   13.80
  -1   4 -11  563.94   51.69
  -1   4 -11  628.44   39.80
  -1   4 -11  485.55   49.20
   1  -4  11  571.64   44.10
   1  -4  11  743.43   89.19
  -2   4 -11  431.56   45.80
  -2   4 -11  483.65   34.10
  -2   4 -11  466.55   48.50
   2  -4  11  346.67   75.89
   2  -4  11  470.65   72.89
  -3   4 -11   -6.50   15.80
  -3   4 -11   17.20   19.20
   3  -4  11  -32.90   31.50
   3  -4  11   -6.70   11.90
  -4   4 -11  131.79   28.40
  -4   4 -11   80.69   30.10
   7   3 -11   91.39   25.30
   6   3 -11   -5.10   13.40
   6   3 -11    6.90   16.30
  -6  -3  11  -69.69   37.80
  -6  -3  11   11.20   17.80
   5   3 -11  395.96   41.50
   5   3 -11  403.96   41.20
  -5  -3  11  408.16   46.30
  -5  -3  11  301.97   78.09
   4   3 -11  316.17   38.80
   4   3 -11  401.66   39.50
  -4  -3  11  258.67   68.09
  -4  -3  11  401.56   42.00
   3   3 -11   21.40   17.10
   3   3 -11   42.00   17.70
  -3  -3  11   43.00   20.90
  -3  -3  11   23.70   30.50
   2   3 -11   28.60   18.30
   2   3 -11   47.40   20.80
  -2  -3  11   45.90   20.30
  -2  -3  11   35.90   27.80
   1   3 -11  756.82   51.69
   1   3 -11  660.83   46.70
  -1  -3  11  748.23   94.69
  -1  -3  11  732.03   54.19
   0   3 -11  307.47   35.80
   0   3 -11  328.57   33.00
   0  -3  11  250.57   33.90
   0  -3  11  418.36   68.89
  -1   3 -11  -10.30   10.50
  -1   3 -11    0.90   14.20
   1  -3  11   14.80   13.90
   1  -3  11   67.09   27.30
   1  -3  11  -36.00   24.40
  -2   3 -11  106.29   29.10
  -2   3 -11   70.09   18.80
   2  -3  11   93.49   24.50
   2  -3  11   31.00   38.00
  -3   3 -11  359.76   45.40
  -3   3 -11  362.76   35.00
   3  -3  11  361.96   42.10
   3  -3  11  246.18   67.49
  -4   3 -11   29.00   18.10
  -4   3 -11   20.70   22.70
   7   2 -11  465.15   42.10
   6   2 -11  209.98   36.50
   6   2 -11  204.18   34.20
  -6  -2  11  209.48   40.70
  -6  -2  11  120.59   59.59
   5   2 -11   75.49   24.00
   5   2 -11   78.39   24.40
  -5  -2  11   44.40   37.10
  -5  -2  11   68.29   26.10
   4   2 -11  264.87   35.70
   4   2 -11  343.57   38.70
  -4  -2  11  302.77   41.40
  -4  -2  11  218.18   63.79
   3   2 -11  657.13   49.80
  -3  -2  11  696.33   58.19
  -3  -2  11  856.11  108.39
   2   2 -11  156.98   27.70
  -2  -2  11  147.19   32.00
  -2  -2  11  194.48   52.79
   1   2 -11  -13.30   11.30
   1   2 -11   11.80   13.70
  -1  -2  11   14.70   17.40
  -1  -2  11    9.00   14.00
   0   2 -11  417.96   39.60
   0   2 -11  393.36   35.00
   0  -2  11  267.67   60.79
   0  -2  11  366.46   39.00
   0  -2  11  421.76   65.49
  -1   2 -11  516.45   46.50
  -1   2 -11  468.25   39.00
   1  -2  11  635.04   77.29
   1  -2  11  359.66   39.50
   1  -2  11  325.07   73.89
  -2   2 -11   81.09   26.90
  -2   2 -11   80.49   21.20
   2  -2  11   75.89   23.50
  -3   2 -11   25.00   20.60
  -4   2 -11  261.47   48.60
   7   1 -11   17.60   14.20
   7   1 -11   -6.60   21.00
  -7  -1  11   33.00   23.80
   6   1 -11  193.48   32.20
   6   1 -11  234.58   36.00
  -6  -1  11  202.68   39.30
  -6  -1  11  169.68   62.99
   5   1 -11  618.04   51.59
   5   1 -11  458.15   43.50
  -5  -1  11  475.15   85.79
  -5  -1  11  574.54   53.99
   4   1 -11  177.08   32.20
  -4  -1  11  171.28   53.29
  -4  -1  11  178.98   35.30
   3   1 -11   -9.20   15.10
  -3  -1  11   27.70   16.60
  -3  -1  11   -1.30   27.30
   2   1 -11  394.06   38.90
  -2  -1  11  541.15   80.49
  -2  -1  11  439.36   46.20
   1   1 -11  332.67   33.50
   1   1 -11  427.26   38.10
  -1  -1  11  441.26   43.60
  -1  -1  11  606.84   77.79
  -1  -1  11  288.27   63.69
   0   1 -11   92.19   22.40
   0   1 -11   36.10   18.90
   0  -1  11   99.99   35.00
   0  -1  11   34.20   33.60
   0  -1  11   82.99   23.60
  -1   1 -11   40.80   17.50
  -1   1 -11   13.00   16.80
   1  -1  11   34.00   18.60
   1  -1  11  -21.30   31.90
   1  -1  11   68.09   27.10
  -2   1 -11  343.77   37.70
  -2   1 -11  372.16   40.90
   2  -1  11  229.18   69.59
   2  -1  11  278.27   39.90
  -3   1 -11  148.99   36.10
  -4   1 -11    3.60   19.60
   7   0 -11  384.96   44.00
   7   0 -11  538.45   41.00
  -7   0  11  278.77   83.09
  -7   0  11  483.85   57.29
   6   0 -11   13.10   15.60
   6   0 -11   64.19   24.90
  -6   0  11   52.09   24.40
  -6   0  11  -54.69   31.90
   5   0 -11   77.09   25.20
  -5   0  11   76.99   27.90
  -5   0  11   27.40   33.10
   4   0 -11  261.47   33.30
  -4   0  11  276.77   66.59
  -4   0  11  305.17   43.10
   3   0 -11  478.45   44.60
  -3   0  11  474.05   50.69
  -3   0  11  629.74   90.89
   2   0 -11   55.59   20.90
  -2   0  11   30.40   19.40
  -2   0  11   51.69   31.00
   1   0 -11  102.99   22.40
   1   0 -11  105.39   22.30
  -1   0  11  119.19   27.20
  -1   0  11   69.89   34.80
  -1   0  11  127.69   37.60
   0   0 -11  554.34   46.00
   0   0 -11  647.54   47.40
   0   0  11  453.45   83.99
   0   0  11  694.23   56.49
   0   0  11  827.92   87.59
  -1   0 -11  317.27   38.90
   1   0  11  255.97   35.30
   1   0  11  238.48   62.39
  -2   0 -11    2.40   18.00
   2   0  11  -41.20   35.00
  -4   0 -11  222.38   46.30
  -8   1  11   93.69   27.50
   7  -1 -11   99.79   28.30
   7  -1 -11  101.89   23.90
  -7   1  11  -14.20   46.10
  -7   1  11   95.39   28.10
  -7   1  11  101.99   35.60
   6  -1 -11  324.67   39.40
   6  -1 -11  438.56   48.50
  -6   1  11  440.66   45.50
  -6   1  11  400.56   51.89
  -6   1  11  305.87   76.49
   5  -1 -11  440.96   44.80
   5  -1 -11  450.35   47.90
  -5   1  11  401.46   42.40
  -5   1  11  378.86   49.99
  -5   1  11  306.57   69.59
   4  -1 -11    5.30   16.50
   4  -1 -11   15.20   18.90
  -4   1  11    0.20   29.70
  -4   1  11   30.40   17.80
  -4   1  11   19.60   17.10
   3  -1 -11  404.16   42.20
  -3   1  11  463.65   77.39
  -3   1  11  363.16   43.40
   2  -1 -11  534.95   45.50
  -2   1  11  455.25   71.59
  -2   1  11  579.04   78.79
  -2   1  11  450.35   48.60
   1  -1 -11  156.78   29.70
  -1   1  11  141.29   32.50
  -1   1  11  279.37   50.69
  -1   1  11  105.69   42.10
   0  -1 -11    3.60   16.20
   0   1  11  -16.90   31.00
   0   1  11   49.60   23.10
  -1  -1 -11  207.28   35.40
   1   1  11  115.69   50.89
   1   1  11  129.49   33.30
   2   1  11  645.94   61.09
   8  -2 -11  291.37   42.50
  -8   2  11  267.27   46.30
   7  -2 -11  180.38   34.70
   7  -2 -11  129.99   32.80
  -7   2  11    5.80   51.39
  -7   2  11  218.68   42.40
  -7   2  11  162.38   36.40
   6  -2 -11   20.40   22.60
   6  -2 -11   -4.00   17.10
  -6   2  11  -65.79   31.90
  -6   2  11    2.00   12.20
  -6   2  11    0.60   14.60
   5  -2 -11  250.27   40.60
   5  -2 -11  242.98   33.50
  -5   2  11  206.48   57.79
  -5   2  11  272.27   46.50
  -5   2  11  279.87   37.70
   4  -2 -11  428.06   42.40
   4  -2 -11  465.45   44.20
  -4   2  11  474.15   79.89
  -4   2  11  421.76   51.79
  -4   2  11  402.66   39.90
   3  -2 -11  189.88   33.40
   3  -2 -11  205.48   34.00
  -3   2  11  180.28   49.20
  -3   2  11  144.59   28.90
  -3   2  11  187.48   38.50
   2  -2 -11   92.99   23.50
  -2   2  11  238.78   49.10
  -2   2  11   77.39   24.00
  -2   2  11  102.39   27.70
   1  -2 -11  423.56   39.10
  -1   2  11  367.26   42.60
  -1   2  11  239.88   57.19
   0  -2 -11  190.08   34.60
   0   2  11  153.78   54.69
   0   2  11  205.38   39.40
   1   2  11  -45.30   34.10
   8  -3 -11   -1.20   22.50
   7  -3 -11  255.17   44.70
   7  -3 -11  316.67   48.40
  -7   3  11  323.67   44.00
  -7   3  11  386.56   60.79
   6  -3 -11  454.55   46.40
   6  -3 -11  435.36   50.69
  -6   3  11  491.05   58.29
  -6   3  11  410.76   44.30
  -6   3  11  306.77   68.99
   5  -3 -11   19.70   19.40
   5  -3 -11   51.19   22.70
  -5   3  11  -35.20   33.40
  -5   3  11   17.00   19.80
  -5   3  11    2.00   15.00
   4  -3 -11  131.79   30.40
   4  -3 -11   69.39   43.90
   4  -3 -11   97.49   29.80
  -4   3  11  100.29   30.20
  -4   3  11   40.80   36.90
  -4   3  11  125.99   29.00
   3  -3 -11  300.57   37.40
   3  -3 -11  237.88   63.09
   3  -3 -11  303.87   36.20
  -3   3  11  283.07   33.40
  -3   3  11  344.67   47.00
   2  -3 -11  230.18   60.19
   2  -3 -11  340.87   37.10
   2  -3 -11  304.57   37.50
  -2   3  11  247.58   31.70
  -2   3  11  378.36   47.60
   1  -3 -11   27.00   20.40
  -1   3  11   -7.10   31.60
  -1   3  11   14.90   22.10
   0  -3 -11  137.59   30.90
   0   3  11  114.79   33.10
   0   3  11   32.20   41.30
   7  -4 -11   60.59   24.60
   7  -4 -11   65.89   30.60
  -7   4  11   52.59   33.40
  -7   4  11   56.89   29.00
   6  -4 -11  110.19   54.79
   6  -4 -11  118.69   34.70
   6  -4 -11  180.48   35.70
  -6   4  11  190.58   39.00
  -6   4  11  209.58   46.00
   5  -4 -11  414.16   43.00
   5  -4 -11  393.66   47.40
   5  -4 -11  251.37   71.59
  -5   4  11  403.76   43.40
  -5   4  11  400.66   50.79
   4  -4 -11  121.49   29.80
   4  -4 -11  112.59   30.40
   4  -4 -11   62.49   46.30
  -4   4  11  120.39   30.10
  -4   4  11  178.58   40.80
   3  -4 -11  -35.30   30.40
   3  -4 -11  -23.80   15.10
   3  -4 -11   -5.10    9.70
  -3   4  11   11.40   17.40
  -3   4  11   -3.10   14.40
   2  -4 -11  132.39   53.89
   2  -4 -11  251.77   35.60
   2  -4 -11  208.08   38.00
  -2   4  11  256.57   33.20
  -2   4  11  227.38   42.30
   1  -4 -11  308.17   42.20
  -1   4  11  310.67   40.40
  -1   4  11  371.86   52.09
  -1   4  11  362.86   78.69
  -7   5  11  255.77   51.99
   6  -5 -11  199.28   40.80
   6  -5 -11  198.78   40.50
  -6   5  11  140.49   41.50
  -6   5  11  173.58   37.20
   5  -5 -11   11.90   21.20
   5  -5 -11   -5.80   19.20
   5  -5 -11  -49.80   37.90
  -5   5  11   -3.80   17.30
  -5   5  11   24.40   27.40
   4  -5 -11  375.06   47.50
   4  -5 -11  428.56   47.50
  -4   5  11  522.95   50.49
  -4   5  11  468.45   55.19
   3  -5 -11  179.38   35.20
   3  -5 -11  212.58   37.40
   3  -5 -11   68.89   55.49
  -3   5  11  192.68   36.10
  -3   5  11  258.47   48.10
   2  -5 -11   52.39   24.70
   2  -5 -11   62.39   23.90
  -2   5  11   65.09   25.20
  -2   5  11   79.79   29.70
  -1   5  11   14.80   15.40
  -6   6  11  213.08   50.49
   5  -6 -11  281.27   48.20
  -5   6  11  249.48   48.20
   4  -6 -11   35.30   24.80
  -4   6  11   27.50   26.30
   3  -6 -11   44.70   22.10
   3   8 -12  108.59   37.20
   2   8 -12  287.47   50.09
   1   8 -12  119.79   37.10
   1   8 -12  118.49   33.60
   0   8 -12   23.80   25.50
   0   8 -12   10.50   19.70
  -1   8 -12  150.68   41.90
  -1   8 -12  173.08   40.20
  -2   8 -12  110.99   36.50
  -2   8 -12  172.18   41.20
   4   7 -12   74.09   31.10
   3   7 -12   32.00   27.40
   2   7 -12    3.70   23.80
   1   7 -12  284.77   38.60
   1   7 -12  204.98   43.50
   0   7 -12  159.58   36.40
   0   7 -12   76.09   28.00
  -1   7 -12   76.39   31.10
  -1   7 -12   56.69   25.20
  -2   7 -12   52.19   28.20
  -2   7 -12   31.40   23.40
   5   6 -12   45.20   29.20
   4   6 -12   47.20   27.00
   3   6 -12  260.27   32.20
   3   6 -12  304.47   49.50
  -3  -6  12  333.57   39.10
   2   6 -12  239.98   44.70
  -2  -6  12  200.68   33.70
   1   6 -12   18.70   17.70
   1   6 -12    2.30   17.40
   0   6 -12  200.38   38.70
   0   6 -12  155.98   38.20
  -1   6 -12  224.88   43.80
  -1   6 -12  299.67   41.30
  -2   6 -12   62.49   27.70
  -2   6 -12   85.99   30.90
  -3   6 -12   22.20   21.50
  -3   6 -12   13.10   20.00
   6   5 -12   78.89   29.20
   5   5 -12  279.97   46.10
   4   5 -12  171.08   35.80
   4   5 -12  196.48   33.10
   3   5 -12   -5.10   15.20
   3   5 -12    8.70   15.90
  -3  -5  12   15.70   15.90
   2   5 -12  102.89   22.10
   2   5 -12   94.39   33.40
  -2  -5  12  150.78   50.69
  -2  -5  12  114.09   25.70
   1   5 -12  330.37   41.20
   1   5 -12  320.67   38.70
  -1  -5  12  279.67   35.50
  -1  -5  12  458.25   75.59
   0   5 -12  155.78   34.10
   0   5 -12  161.98   38.10
   0  -5  12  119.29   24.30
  -1   5 -12    9.70   18.10
  -1   5 -12   25.90   21.70
  -2   5 -12  194.08   40.50
  -2   5 -12  200.98   38.20
  -3   5 -12  199.68   37.30
  -3   5 -12  186.68   40.50
   7   4 -12  207.88   38.40
   6   4 -12  111.99   31.00
   5   4 -12  -17.40   18.20
   4   4 -12  232.48   40.60
   4   4 -12  255.97   36.10
  -4  -4  12  223.28   40.10
   3   4 -12  226.28   31.80
   3   4 -12  266.67   43.20
  -3  -4  12  173.78   58.69
  -3  -4  12  202.28   36.90
   2   4 -12  113.79   34.10
   2   4 -12   97.59   22.20
  -2  -4  12   91.29   26.60
  -2  -4  12   97.49   43.40
   1   4 -12   42.00   21.20
   1   4 -12   55.89   26.80
   1   4 -12   58.19   18.90
  -1  -4  12   97.39   41.00
  -1  -4  12   50.69   19.90
   0   4 -12  410.76   46.80
   0   4 -12  487.35   46.90
   0   4 -12  403.16   36.10
   0  -4  12  662.33   89.59
  -1   4 -12  232.98   27.20
  -1   4 -12  219.08   37.20
  -1   4 -12  195.28   37.30
   1  -4  12  184.28   31.30
  -2   4 -12   22.80   20.50
  -2   4 -12   -3.70   14.60
  -3   4 -12   86.69   29.70
  -3   4 -12   98.99   27.10
   7   3 -12   46.40   23.50
   5   3 -12  290.57   40.90
   5   3 -12  335.57   41.90
   4   3 -12   40.20   23.30
   4   3 -12   12.70   16.40
  -4  -3  12   43.50   24.10
  -4  -3  12   23.30   46.80
   3   3 -12   55.59   23.50
   3   3 -12   64.89   22.00
  -3  -3  12   73.39   25.00
  -3  -3  12  106.19   44.90
   2   3 -12  283.07   35.50
   2   3 -12  263.77   43.80
  -2  -3  12  258.47   64.79
  -2  -3  12  214.58   37.00
   1   3 -12  443.56   37.50
   1   3 -12  399.06   39.80
   1   3 -12  365.96   44.20
  -1  -3  12  345.57   41.70
  -1  -3  12  625.44   87.09
   0   3 -12   18.40   16.10
   0   3 -12   18.40   16.00
   0  -3  12   -6.10   10.10
  -1   3 -12  181.28   35.70
  -1   3 -12  167.28   27.20
   1  -3  12  140.19   29.30
  -2   3 -12  285.87   47.20
  -3   3 -12  114.29   27.70
  -3   3 -12  121.59   35.00
   7   2 -12  445.46   44.50
   6   2 -12   -6.30   16.90
   5   2 -12   89.09   28.60
   5   2 -12  117.39   31.10
  -5  -2  12   34.90   51.79
  -5  -2  12  107.39   31.80
   4   2 -12  468.85   47.40
   4   2 -12  539.35   47.20
  -4  -2  12  561.34  104.39
  -4  -2  12  408.56   50.49
   3   2 -12  245.18   39.00
   3   2 -12  180.08   31.50
  -3  -2  12  185.08   37.70
  -3  -2  12  247.68   64.69
   2   2 -12   98.09   24.50
  -2  -2  12  183.58   50.79
  -2  -2  12  100.99   26.90
   1   2 -12  127.99   28.20
   1   2 -12  110.19   24.80
  -1  -2  12  269.47   56.49
  -1  -2  12  124.39   29.00
   0   2 -12  295.57   36.70
   0   2 -12  258.47   33.60
   0  -2  12  405.26   67.49
   0  -2  12  262.07   36.40
  -1   2 -12  117.59   29.60
  -1   2 -12   88.89   24.00
   1  -2  12   86.99   25.90
  -2   2 -12  114.49   30.90
  -3   2 -12   66.09   27.60
   7   1 -12  198.78   33.60
   6   1 -12  438.06   43.50
  -6  -1  12  272.27   85.89
   5   1 -12  108.09   31.20
   5   1 -12  113.59   30.00
  -5  -1  12   77.99   29.50
  -5  -1  12   27.50   46.30
   4   1 -12   14.70   20.30
  -4  -1  12   24.70   18.10
  -4  -1  12   58.59   41.70
   3   1 -12  189.98   33.80
  -3  -1  12  372.16   72.79
  -3  -1  12  183.18   38.30
   2   1 -12  518.95   44.90
  -2  -1  12  421.36   47.90
  -2  -1  12  655.43   82.69
   1   1 -12   54.89   19.50
   1   1 -12  109.69   25.10
  -1  -1  12   80.49   23.20
   0   1 -12   76.09   24.30
   0   1 -12   35.10   19.40
   0  -1  12   43.90   21.60
  -1   1 -12  252.17   35.30
  -1   1 -12  272.57   37.60
   1  -1  12  168.58   58.49
  -2   1 -12  270.17   43.60
  -3   1 -12   -2.70   19.20
   7   0 -12   65.79   23.40
   6   0 -12   39.50   25.90
   6   0 -12   26.40   20.10
  -6   0  12   74.09   31.80
  -6   0  12  -41.50   44.80
   5   0 -12  362.36   45.80
  -5   0  12  297.87   72.99
  -5   0  12  325.07   53.89
   4   0 -12  225.48   37.90
  -4   0  12  250.87   65.59
  -4   0  12  231.48   43.50
   3   0 -12   -8.00   16.30
  -3   0  12   73.59   33.50
  -3   0  12   13.80   17.50
   2   0 -12   50.09   22.60
  -2   0  12  100.79   28.40
   1   0 -12  262.47   31.80
   1   0 -12  350.56   38.90
  -1   0  12  182.18   37.10
   0   0 -12  141.39   29.30
   0   0 -12  119.79   29.20
   0   0  12  206.48   40.30
   0   0  12   71.99   44.00
  -1   0 -12    4.10   17.00
  -2   0 -12  134.39   35.90
   7  -1 -12  281.77   35.70
   6  -1 -12  202.08   36.90
  -6   1  12  305.37   55.89
  -6   1  12  177.28   62.49
   5  -1 -12   38.80   24.00
  -5   1  12  -41.30   31.60
  -5   1  12    1.90   22.70
   4  -1 -12  202.18   36.30
  -4   1  12  298.87   49.00
  -4   1  12  249.88   62.39
   3  -1 -12  636.84   53.19
  -3   1  12  761.32   92.79
  -3   1  12  665.93   62.59
   2  -1 -12   96.09   26.90
  -2   1  12   83.39   29.50
   1  -1 -12   44.90   18.80
   1  -1 -12   22.40   19.40
  -1   1  12  -12.80   30.20
  -1   1  12   26.20   20.20
  -6   2  12  104.29   58.19
  -6   2  12  241.98   50.89
   5  -2 -12  404.96   48.80
  -5   2  12  402.96   56.29
  -5   2  12  253.07   67.59
   4  -2 -12   36.60   23.70
  -4   2  12   50.19   28.40
  -4   2  12   47.60   37.20
   3  -2 -12    5.90   18.30
  -3   2  12   33.60   24.70
  -3   2  12   63.99   29.20
   2  -2 -12  278.97   39.10
  -2   2  12  324.47   46.30
  -1   2  12   78.19   42.90
   7  -3 -12   93.79   32.80
   6  -3 -12   38.70   25.60
  -6   3  12   87.39   29.90
   5  -3 -12   30.30   24.90
  -5   3  12   16.80   15.20
  -5   3  12   53.99   26.90
   4  -3 -12  468.65   46.40
  -4   3  12  445.56   58.49
  -4   3  12  450.05   43.90
   3  -3 -12   97.09   26.80
  -3   3  12  181.18   43.20
  -1   3  12   81.89   43.60
   6  -4 -12  227.58   43.20
  -6   4  12  196.78   41.50
   5  -4 -12  169.58   35.40
  -5   4  12  154.38   34.50
   4  -4 -12  -34.70   36.00
   4  -4 -12   -5.50   15.80
  -4   4  12   -2.50   16.90
   3  -4 -12   77.99   47.20
  -3   4  12  157.28   34.60
   4  -5 -12  413.26   49.99
   3   7 -13    5.50   28.20
   2   7 -13  131.19   36.20
   1   7 -13   77.09   33.80
   0   7 -13   57.69   24.40
   0   7 -13   43.20   28.50
   4   6 -13  171.18   41.10
   3   6 -13   96.69   34.60
   2   6 -13    3.20   22.90
   1   6 -13   90.09   29.20
   0   6 -13  191.08   42.20
   0   6 -13  161.58   33.30
  -1   6 -13   74.99   28.00
  -1   6 -13   83.59   27.20
   5   5 -13  173.58   41.80
   4   5 -13   -2.30   23.60
   3   5 -13  144.19   36.20
   2   5 -13  296.27   51.89
   1   5 -13   71.69   31.20
   0   5 -13    2.80   12.70
   0   5 -13   20.30   24.40
  -1   5 -13  149.79   35.60
  -1   5 -13  153.58   36.10
  -2   5 -13   79.29   26.70
  -2   5 -13   97.69   30.40
   6   4 -13   30.10   25.10
   5   4 -13   64.89   30.20
   4   4 -13  219.28   43.50
   3   4 -13   81.19   28.40
   2   4 -13   50.49   27.50
   2   4 -13   75.49   22.90
   1   4 -13  151.98   35.50
   1   4 -13  121.89   24.30
   0   4 -13  157.58   32.50
   0   4 -13  147.39   32.90
  -1   4 -13    9.00   17.40
  -1   4 -13   18.00   22.10
  -2   4 -13   76.39   28.40
  -2   4 -13   69.89   26.60
   6   3 -13  234.88   42.10
   5   3 -13   44.90   26.00
   4   3 -13  104.99   30.70
   3   3 -13  407.26   48.20
   2   3 -13  146.79   35.80
   2   3 -13  166.58   30.30
   1   3 -13   -2.10   14.30
   1   3 -13    7.50   19.10
   0   3 -13  135.99   34.30
   0   3 -13   76.49   24.60
  -1   3 -13  202.58   37.50
  -1   3 -13  191.58   38.00
  -2   3 -13  111.69   28.30
  -2   3 -13  108.59   30.40
   7   2 -13   49.20   22.80
   6   2 -13  109.69   30.70
   5   2 -13  180.08   37.50
   4   2 -13  202.28   39.50
   3   2 -13    5.50   20.00
   3   2 -13    0.50   19.70
   2   2 -13  310.37   37.80
   0   2 -13   15.50   16.50
  -1   2 -13   11.20   17.50
  -2   2 -13  114.19   32.70
   7   1 -13  180.28   34.40
   6   1 -13  162.28   34.90
   5   1 -13   71.39   27.00
  -4  -1  13  248.98   72.09
  -3  -1  13  420.66   85.69
  -2  -1  13  132.39   44.80
   0   1 -13  242.08   40.10
  -1   1 -13   79.99   27.70
   7   0 -13   51.09   21.60
   6   0 -13  203.38   37.30
  -4   0  13   57.99   43.50
  -3   0  13  128.79   48.20
  -2   0  13  623.34   81.99
  -1   0  13  456.85   67.19
   0   0 -13   -3.30   15.10
  -1   0 -13  103.49   30.20
   7  -1 -13  143.79   30.50
  -5   1  13   70.69   55.29
  -4   1  13  260.27   70.39
  -3   1  13   66.59   34.70
   0  -1 -13  178.58   36.40
  -1  -1 -13   36.80   21.10
   3   5 -14  186.08   40.30
   2   5 -14   77.39   31.50
   1   5 -14   43.60   28.00
   4   4 -14   39.80   22.30
   3   4 -14   15.00   24.90
   2   4 -14  227.88   43.10
   1   4 -14   91.39   30.20
   0   4 -14   28.90   22.60
   5   3 -14   72.59   30.00
   4   3 -14  210.18   42.90
   3   3 -14   76.79   29.90
   2   3 -14   -5.70   19.00
   1   3 -14  136.69   34.40
   0   3 -14  306.47   41.70
   5   2 -14  135.19   35.90
   4   2 -14   37.20   23.80
   3   2 -14  192.48   39.50
   2   2 -14  169.78   34.90
   6   1 -14   34.00   21.30
   5   1 -14  132.69   32.80
   4   1 -14  240.98   42.70
   6   0 -14  146.49   31.90
_computing_structure_solution     'SHELXT 2014/4 (Sheldrick, 2014)'
;
_shelx_hkl_checksum              12337
_shelx_res_file
;
    BSANEW30-4.res created by SHELXL-2014/7
TITL BSA in P1
CELL  0.71073   6.8216   8.1815   8.8083   95.146  106.652  108.317
ZERR     2.00   0.0001   0.0001   0.0001    0.008    0.008    0.007
LATT   1
SFAC  C    H    BA   O
UNIT  8    16   2    16
MERG   2
OMIT    -3.00  64.00
DFIX 0.85 0.02 O5 H5A O5 H5B O6 H6A O6 H6B O7 H7A O7 H7B O8 H8A O8 H8B
DFIX 1.37 0.02 H5A H5B H6A H6B H7A H7B H8A H8B
EQIV $1 x-1, y, z
HTAB O7 O8_$1
EQIV $2 -x+1, -y+1, -z+2
HTAB O7 O6_$2
EQIV $3 -x+2, -y, -z+2
HTAB O8 O4_$3
EQIV $4 -x+1, -y, -z+2
HTAB O8 O7_$4
HTAB O8 O3
EQIV $5 x, y+1, z
HTAB O5 O3_$5
HTAB O5 O4
EQIV $6 x-1, y+1, z
HTAB O6 O8_$6
HTAB O6 O5_$2
OMIT  3 -11   5
OMIT  3 -10   7
FMAP   2
PLAN   20
SIZE     0.05   0.10   0.10
ACTA
BOND
BOND   $H
CONF
L.S.  10
TEMP    23.00
WGHT    0.014500    0.350200
FVAR       0.78038
C1    1    0.383719   -0.063352    0.640420    11.00000    0.01278    0.01490 =
         0.01444    0.00500    0.00557    0.00414
C2    1    0.379324   -0.242324    0.607076    11.00000    0.01405    0.01495 =
         0.01705    0.00659    0.00528    0.00555
C3    1    0.616847   -0.177796    0.654274    11.00000    0.01507    0.01560 =
         0.01513    0.00583    0.00500    0.00584
C4    1    0.624519    0.003000    0.691212    11.00000    0.01331    0.01457 =
         0.01283    0.00272    0.00442    0.00422
BA1   3    0.135473    0.293364    0.634899    11.00000    0.01250    0.01207 =
         0.01781    0.00364    0.00548    0.00464
O1    4    0.234946   -0.000866    0.615896    11.00000    0.01752    0.01917 =
         0.03002    0.00545    0.00892    0.01032
O2    4    0.225316   -0.386485    0.547603    11.00000    0.01579    0.01226 =
         0.03299    0.00512    0.00340    0.00121
O3    4    0.755957   -0.248813    0.651678    11.00000    0.01723    0.02324 =
         0.02818    0.00627    0.00863    0.01141
O4    4    0.772988    0.152056    0.735469    11.00000    0.01734    0.01417 =
         0.02359    0.00181    0.00570   -0.00021
O5    4    0.600938    0.423643    0.751458    11.00000    0.02536    0.02360 =
         0.03386    0.00869    0.01420    0.01052
O6    4    0.263203    0.563593    0.902862    11.00000    0.06453    0.03513 =
         0.02615    0.00476    0.01087    0.02898
O7    4    0.269357    0.210154    0.946657    11.00000    0.03804    0.03030 =
         0.02992    0.00776    0.00450    0.01039
O8    4    1.119970   -0.157793    0.919286    11.00000    0.03363    0.03832 =
         0.02411    0.00815    0.00671    0.01320
H7B   2    0.238825    0.102019    0.937708    11.00000    0.03595
H7A   2    0.401827    0.260995    0.995712    11.00000    0.03292
H8A   2    1.075643   -0.168514    0.998280    11.00000    0.07644
H8B   2    1.010262   -0.177699    0.835676    11.00000    0.04855
H5A   2    0.648302    0.506219    0.706894    11.00000    0.07223
H5B   2    0.648500    0.344236    0.735340    11.00000    0.05573
H6A   2    0.214236    0.647584    0.902596    11.00000    0.07394
H6B   2    0.280838    0.537530    0.994972    11.00000    0.05714
HKLF 4
REM  BSA in P1
REM R1 =  0.0249 for    2693 Fo > 4sig(Fo)  and  0.0309 for all    3008 data
REM    150 parameters refined using     12 restraints
END
WGHT      0.0152      0.2941
REM Highest difference peak  1.102,  deepest hole -0.860,  1-sigma level  0.189
Q1    1   0.1381  0.2246  0.6910  11.00000  0.05    1.10
Q2    1   0.1398  0.3532  0.5668  11.00000  0.05    1.08
Q3    1   0.2082  0.2412  0.6748  11.00000  0.05    1.07
Q4    1   0.0730  0.3658  0.6119  11.00000  0.05    0.97
Q5    1   0.2535  0.3453  0.6570  11.00000  0.05    0.94
Q6    1   0.1289  0.3266  0.7170  11.00000  0.05    0.93
Q7    1   0.1334  0.2587  0.5628  11.00000  0.05    0.93
Q8    1   0.1175  0.1767  0.6250  11.00000  0.05    0.82
Q9    1   0.3829 -0.1495  0.6070  11.00000  0.05    0.76
Q10   1   0.2940 -0.3391  0.5375  11.00000  0.05    0.73
Q11   1   0.0625  0.4171  0.5248  11.00000  0.05    0.70
Q12   1   0.1900 -0.0621  0.6239  11.00000  0.05    0.70
Q13   1   0.1618  0.5170  0.7133  11.00000  0.05    0.66
Q14   1   0.2094  0.1794  0.7683  11.00000  0.05    0.65
Q15   1   0.2394  0.0619  0.6967  11.00000  0.05    0.64
Q16   1   0.2012  0.4253  0.6883  11.00000  0.05    0.63
Q17   1   0.0216  0.2457  0.6209  11.00000  0.05    0.63
Q18   1   0.4683  0.4610  1.0296  11.00000  0.05    0.63
Q19   1   0.1227  0.0815  0.5873  11.00000  0.05    0.62
Q20   1   0.2538  0.2842  0.7408  11.00000  0.05    0.61
;
_shelx_res_checksum              26887
loop_
_space_group_symop_operation_xyz
'x, y, z'
'-x, -y, -z'
loop_
_atom_site_type_symbol
_atom_site_label
_atom_site_fract_x
_atom_site_fract_y
_atom_site_fract_z
_atom_site_U_iso_or_equiv
_atom_site_adp_type
_atom_site_calc_flag
_atom_site_occupancy
C C1 0.3837(4) -0.0634(3) 0.6404(3) 0.0139(4) Uani d 1
C C2 0.3793(4) -0.2423(3) 0.6071(3) 0.0150(5) Uani d 1
C C3 0.6168(4) -0.1778(3) 0.6543(3) 0.0150(5) Uani d 1
C C4 0.6245(4) 0.0030(3) 0.6912(3) 0.0137(4) Uani d 1
Ba Ba1 0.13547(2) 0.29336(2) 0.63490(2) 0.01391(5) Uani d 1
O O1 0.2349(3) -0.0009(2) 0.6159(2) 0.0210(4) Uani d 1
O O2 0.2253(3) -0.3865(2) 0.5476(3) 0.0223(4) Uani d 1
O O3 0.7560(3) -0.2488(3) 0.6517(2) 0.0215(4) Uani d 1
O O4 0.7730(3) 0.1521(2) 0.7355(2) 0.0202(4) Uani d 1
O O5 0.6009(3) 0.4236(3) 0.7515(3) 0.0260(4) Uani d 1
O O6 0.2632(5) 0.5636(3) 0.9029(3) 0.0402(6) Uani d 1
O O7 0.2694(4) 0.2102(3) 0.9467(3) 0.0346(5) Uani d 1
O O8 1.1200(4) -0.1578(3) 0.9193(3) 0.0325(5) Uani d 1
H H7B 0.239(5) 0.102(2) 0.938(4) 0.036(11) Uiso d 1
H H7A 0.402(3) 0.261(4) 0.996(4) 0.033(10) Uiso d 1
H H8A 1.076(7) -0.169(7) 0.998(3) 0.076(17) Uiso d 1
H H8B 1.010(5) -0.178(5) 0.836(3) 0.049(12) Uiso d 1
H H5A 0.648(7) 0.506(4) 0.707(5) 0.072(16) Uiso d 1
H H5B 0.649(7) 0.344(4) 0.735(5) 0.056(13) Uiso d 1
H H6A 0.214(8) 0.648(5) 0.903(5) 0.074(16) Uiso d 1
H H6B 0.281(7) 0.538(5) 0.995(3) 0.057(14) Uiso d 1
loop_
_atom_site_aniso_label
_atom_site_aniso_U_11
_atom_site_aniso_U_22
_atom_site_aniso_U_33
_atom_site_aniso_U_12
_atom_site_aniso_U_13
_atom_site_aniso_U_23
C1 0.0128(10) 0.0149(11) 0.0144(11) 0.0041(9) 0.0056(9) 0.0050(9)
C2 0.0141(11) 0.0149(11) 0.0171(12) 0.0055(9) 0.0053(9) 0.0066(9)
C3 0.0151(11) 0.0156(12) 0.0151(12) 0.0058(9) 0.0050(9) 0.0058(9)
C4 0.0133(10) 0.0146(11) 0.0128(11) 0.0042(9) 0.0044(9) 0.0027(9)
Ba1 0.01250(7) 0.01207(7) 0.01781(8) 0.00464(5) 0.00548(5) 0.00364(5)
O1 0.0175(9) 0.0192(9) 0.0300(11) 0.0103(7) 0.0089(8) 0.0054(8)
O2 0.0158(9) 0.0123(9) 0.0330(11) 0.0012(7) 0.0034(8) 0.0051(8)
O3 0.0172(9) 0.0232(10) 0.0282(11) 0.0114(8) 0.0086(8) 0.0063(8)
O4 0.0173(9) 0.0142(9) 0.0236(10) -0.0002(7) 0.0057(8) 0.0018(7)
O5 0.0254(10) 0.0236(11) 0.0339(12) 0.0105(9) 0.0142(9) 0.0087(9)
O6 0.0645(18) 0.0351(14) 0.0261(13) 0.0290(13) 0.0109(12) 0.0048(11)
O7 0.0380(14) 0.0303(13) 0.0299(13) 0.0104(11) 0.0045(11) 0.0078(10)
O8 0.0336(12) 0.0383(13) 0.0241(12) 0.0132(10) 0.0067(10) 0.0081(10)
loop_
_atom_type_symbol
_atom_type_description
_atom_type_scat_dispersion_real
_atom_type_scat_dispersion_imag
_atom_type_scat_source
C C 0.0033 0.0016 'International Tables Vol C Tables 4.2.6.8 and 6.1.1.4'
H H 0.0000 0.0000 'International Tables Vol C Tables 4.2.6.8 and 6.1.1.4'
Ba Ba -0.3244 2.2819 'International Tables Vol C Tables 4.2.6.8 and 6.1.1.4'
O O 0.0106 0.0060 'International Tables Vol C Tables 4.2.6.8 and 6.1.1.4'
loop_
_geom_angle_atom_site_label_1
_geom_angle_atom_site_label_2
_geom_angle_atom_site_label_3
_geom_angle_site_symmetry_1
_geom_angle_site_symmetry_3
_geom_angle
O1 C1 C2 . . 132.1(2)
O1 C1 C4 . . 137.5(2)
C2 C1 C4 . . 89.98(19)
O2 C2 C3 . . 137.0(2)
O2 C2 C1 . . 132.3(2)
C3 C2 C1 . . 90.41(19)
O2 C2 Ba1 . 2_556 55.11(13)
C3 C2 Ba1 . 2_556 154.29(16)
C1 C2 Ba1 . 2_556 79.79(13)
O3 C3 C2 . . 134.2(2)
O3 C3 C4 . . 135.3(2)
C2 C3 C4 . . 90.30(19)
O4 C4 C3 . . 135.1(2)
O4 C4 C1 . . 135.4(2)
C3 C4 C1 . . 89.29(19)
O1 Ba1 O2 . 1_565 141.89(6)
O1 Ba1 O4 . 1_455 95.94(6)
O2 Ba1 O4 1_565 1_455 121.08(6)
O1 Ba1 O6 . . 129.34(7)
O2 Ba1 O6 1_565 . 69.05(7)
O4 Ba1 O6 1_455 . 83.19(7)
O1 Ba1 O5 . . 76.59(6)
O2 Ba1 O5 1_565 . 79.00(6)
O4 Ba1 O5 1_455 . 141.56(6)
O6 Ba1 O5 . . 73.90(8)
O1 Ba1 O7 . . 69.27(7)
O2 Ba1 O7 1_565 . 129.30(7)
O4 Ba1 O7 1_455 . 69.39(7)
O6 Ba1 O7 . . 63.13(7)
O5 Ba1 O7 . . 72.77(7)
O1 Ba1 O3 . 2_656 71.72(6)
O2 Ba1 O3 1_565 2_656 74.54(6)
O4 Ba1 O3 1_455 2_656 137.18(6)
O6 Ba1 O3 . 2_656 136.67(7)
O5 Ba1 O3 . 2_656 76.87(6)
O7 Ba1 O3 . 2_656 134.83(6)
O1 Ba1 O2 . 2_556 133.75(6)
O2 Ba1 O2 1_565 2_556 61.43(6)
O4 Ba1 O2 1_455 2_556 70.28(5)
O6 Ba1 O2 . 2_556 93.74(7)
O5 Ba1 O2 . 2_556 140.28(6)
O7 Ba1 O2 . 2_556 135.28(7)
O3 Ba1 O2 2_656 2_556 88.76(6)
O1 Ba1 O1 . 2_556 69.77(6)
O2 Ba1 O1 1_565 2_556 114.41(6)
O4 Ba1 O1 1_455 2_556 66.86(5)
O6 Ba1 O1 . 2_556 147.06(7)
O5 Ba1 O1 . 2_556 138.71(6)
O7 Ba1 O1 . 2_556 114.66(6)
O3 Ba1 O1 2_656 2_556 70.43(5)
O2 Ba1 O1 2_556 2_556 64.18(5)
O1 Ba1 C2 . 2_556 114.36(6)
O2 Ba1 C2 1_565 2_556 81.14(6)
O4 Ba1 C2 1_455 2_556 59.48(6)
O6 Ba1 C2 . 2_556 108.47(7)
O5 Ba1 C2 . 2_556 157.52(6)
O7 Ba1 C2 . 2_556 128.87(7)
O3 Ba1 C2 2_656 2_556 87.80(6)
O2 Ba1 C2 2_556 2_556 20.79(5)
O1 Ba1 C2 2_556 2_556 44.72(5)
O1 Ba1 Ba1 . 2_556 37.02(4)
O2 Ba1 Ba1 1_565 2_556 135.96(5)
O4 Ba1 Ba1 1_455 2_556 78.90(4)
O6 Ba1 Ba1 . 2_556 154.69(5)
O5 Ba1 Ba1 . 2_556 110.38(5)
O7 Ba1 Ba1 . 2_556 93.65(5)
O3 Ba1 Ba1 2_656 2_556 66.69(4)
O2 Ba1 Ba1 2_556 2_556 96.85(4)
O1 Ba1 Ba1 2_556 2_556 32.75(3)
C2 Ba1 Ba1 2_556 2_556 77.40(4)
O1 Ba1 Ba1 . 2_566 149.10(4)
O2 Ba1 Ba1 1_565 2_566 31.69(4)
O4 Ba1 Ba1 1_455 2_566 95.15(4)
O6 Ba1 Ba1 . 2_566 80.62(5)
O5 Ba1 Ba1 . 2_566 110.62(4)
O7 Ba1 Ba1 . 2_566 141.52(5)
O3 Ba1 Ba1 2_656 2_566 80.58(4)
O2 Ba1 Ba1 2_556 2_566 29.74(4)
O1 Ba1 Ba1 2_556 2_566 88.45(3)
C2 Ba1 Ba1 2_556 2_566 49.75(4)
Ba1 Ba1 Ba1 2_556 2_566 118.514(8)
C1 O1 Ba1 . . 146.27(17)
C1 O1 Ba1 . 2_556 101.01(16)
Ba1 O1 Ba1 . 2_556 110.23(6)
C2 O2 Ba1 . 1_545 133.18(16)
C2 O2 Ba1 . 2_556 104.10(15)
Ba1 O2 Ba1 1_545 2_556 118.57(6)
C3 O3 Ba1 . 2_656 119.53(16)
C4 O4 Ba1 . 1_655 130.53(17)
Ba1 O5 H5A . . 110(3)
Ba1 O5 H5B . . 111(3)
H5A O5 H5B . . 111(3)
Ba1 O6 H6A . . 124(3)
Ba1 O6 H6B . . 118(3)
H6A O6 H6B . . 107(3)
Ba1 O7 H7B . . 110(3)
Ba1 O7 H7A . . 113(3)
H7B O7 H7A . . 109(2)
H8A O8 H8B . . 108(3)
loop_
_geom_bond_atom_site_label_1
_geom_bond_atom_site_label_2
_geom_bond_site_symmetry_2
_geom_bond_distance
C1 O1 . 1.248(3)
C1 C2 . 1.457(3)
C1 C4 . 1.472(3)
C2 O2 . 1.251(3)
C2 C3 . 1.454(3)
C2 Ba1 2_556 3.417(2)
C3 O3 . 1.263(3)
C3 C4 . 1.467(3)
C4 O4 . 1.256(3)
Ba1 O1 . 2.7024(18)
Ba1 O2 1_565 2.7295(18)
Ba1 O4 1_455 2.8067(19)
Ba1 O6 . 2.809(2)
Ba1 O5 . 2.843(2)
Ba1 O7 . 2.851(2)
Ba1 O3 2_656 2.851(2)
Ba1 O2 2_556 2.8901(19)
Ba1 O1 2_556 3.007(2)
Ba1 C2 2_556 3.417(2)
Ba1 Ba1 2_556 4.6868(5)
Ba1 Ba1 2_566 4.8320(4)
O1 Ba1 2_556 3.007(2)
O2 Ba1 1_545 2.7295(18)
O2 Ba1 2_556 2.8901(19)
O3 Ba1 2_656 2.851(2)
O4 Ba1 1_655 2.8068(18)
O5 H5A . 0.835(18)
O5 H5B . 0.831(18)
O6 H6A . 0.853(18)
O6 H6B . 0.842(18)
O7 H7B . 0.833(17)
O7 H7A . 0.827(17)
O8 H8A . 0.836(18)
O8 H8B . 0.846(18)
loop_
_geom_hbond_atom_site_label_D
_geom_hbond_atom_site_label_H
_geom_hbond_atom_site_label_A
_geom_hbond_site_symmetry_A
_geom_hbond_distance_DH
_geom_hbond_distance_HA
_geom_hbond_distance_DA
_geom_hbond_angle_DHA
O7 H7B O8 1_455 0.833(17) 1.995(17) 2.821(3) 171(3)
O7 H7A O6 2_667 0.827(17) 2.149(17) 2.963(4) 168(3)
O8 H8A O4 2_757 0.836(18) 2.25(3) 2.909(3) 136(4)
O8 H8A O7 2_657 0.836(18) 2.46(3) 3.131(4) 138(4)
O8 H8B O3 . 0.846(18) 1.887(19) 2.729(3) 174(4)
O5 H5A O3 1_565 0.835(18) 2.06(2) 2.872(3) 163(4)
O5 H5B O4 . 0.831(18) 2.008(18) 2.831(3) 171(4)
O6 H6A O8 1_465 0.853(18) 1.90(2) 2.756(3) 175(5)
O6 H6B O5 2_667 0.842(18) 2.10(3) 2.899(3) 158(4)
loop_
_geom_torsion_atom_site_label_1
_geom_torsion_atom_site_label_2
_geom_torsion_atom_site_label_3
_geom_torsion_atom_site_label_4
_geom_torsion_site_symmetry_1
_geom_torsion_site_symmetry_4
_geom_torsion
O1 C1 C2 O2 . . -1.9(5)
C4 C1 C2 O2 . . -175.4(3)
O1 C1 C2 C3 . . 172.5(3)
C4 C1 C2 C3 . . -0.94(19)
O1 C1 C2 Ba1 . 2_556 16.4(3)
C4 C1 C2 Ba1 . 2_556 -157.04(15)
O2 C2 C3 O3 . . -0.3(5)
C1 C2 C3 O3 . . -174.3(3)
Ba1 C2 C3 O3 2_556 . -107.4(4)
O2 C2 C3 C4 . . 175.0(3)
C1 C2 C3 C4 . . 0.95(19)
Ba1 C2 C3 C4 2_556 . 67.8(4)
O3 C3 C4 O4 . . -1.1(5)
C2 C3 C4 O4 . . -176.2(3)
O3 C3 C4 C1 . . 174.2(3)
C2 C3 C4 C1 . . -0.94(19)
O1 C1 C4 O4 . . 3.3(5)
C2 C1 C4 O4 . . 176.1(3)
O1 C1 C4 C3 . . -171.9(3)
C2 C1 C4 C3 . . 0.93(19)
C2 C1 O1 Ba1 . . -176.6(2)
C4 C1 O1 Ba1 . . -6.3(6)
C2 C1 O1 Ba1 . 2_556 -18.8(3)
C4 C1 O1 Ba1 . 2_556 151.5(3)
C3 C2 O2 Ba1 . 1_545 54.5(4)
C1 C2 O2 Ba1 . 1_545 -133.6(2)
Ba1 C2 O2 Ba1 2_556 1_545 -155.8(3)
C3 C2 O2 Ba1 . 2_556 -149.7(3)
C1 C2 O2 Ba1 . 2_556 22.2(3)
C2 C3 O3 Ba1 . 2_656 85.9(3)
C4 C3 O3 Ba1 . 2_656 -87.3(3)
C3 C4 O4 Ba1 . 1_655 41.8(4)
C1 C4 O4 Ba1 . 1_655 -131.4(3)

_cod_database_fobs_code 2021713
